0
                    3D
 Structure written by MMmdl.
157166  0  0  1  0            999 V2000
  -29.7512  -14.7224   19.8868 C   0  0  0  0  0  0
  -30.4366  -12.4150   19.3706 C   0  0  0  0  0  0
  -29.3920  -12.0564   18.2863 C   0  0  0  0  0  0
  -27.9992  -11.6997   18.9752 C   0  0  0  0  0  0
  -27.6729  -12.7188   20.1205 C   0  0  2  0  0  0
  -28.8233  -12.9089   21.0949 C   0  0  0  0  0  0
  -24.8532  -14.6740   20.5221 C   0  0  0  0  0  0
  -24.2342  -14.2198   20.7856 C   0  0  0  0  0  0
  -25.4568  -12.3102   20.8493 C   0  0  0  0  0  0
  -24.6615  -10.6062   20.9410 C   0  0  0  0  0  0
  -24.6807   -9.6567   22.0474 C   0  0  0  0  0  0
  -23.8202   -8.4875   22.2606 C   0  0  0  0  0  0
  -22.7074   -8.1575   21.4325 C   0  0  0  0  0  0
  -22.5796   -9.0174   20.3480 C   0  0  0  0  0  0
  -23.5797  -10.0107   20.0972 C   0  0  0  0  0  0
  -21.7805   -6.1652   22.5529 C   0  0  0  0  0  0
  -21.4624   -6.6104   23.8535 C   0  0  0  0  0  0
  -21.3774   -5.6959   24.9236 C   0  0  0  0  0  0
  -21.5979   -4.3241   24.7035 C   0  0  0  0  0  0
  -21.8728   -3.8616   23.4050 C   0  0  0  0  0  0
  -21.9494   -4.7727   22.3318 C   0  0  0  0  0  0
  -22.5795  -14.5392   20.8763 C   0  0  0  0  0  0
  -22.1817   -4.2952   21.0847 F   0  0  0  0  0  0
  -21.5429   -3.4532   25.7401 F   0  0  0  0  0  0
  -29.8207  -13.4260   20.2480 N   0  0  0  0  0  0
  -26.2101  -13.1700   20.7750 N   0  0  0  0  0  0
  -26.3718  -12.1489   21.5349 N   0  0  0  0  0  0
  -21.6527  -13.8042   21.5535 N   0  0  0  0  0  0
  -24.6610  -15.9905   19.9723 N   0  0  0  0  0  0
  -30.8963  -15.2366   19.8283 O   0  0  0  0  0  0
  -21.8378   -7.0584   21.4985 O   0  0  0  0  0  0
  -22.0713  -15.3753   20.1899 O   0  0  0  0  0  0
  -24.7089  -31.7633   23.1361 C   0  0  0  0  0  0
  -25.9566  -32.4251   23.7957 C   0  0  1  0  0  0
  -26.8450  -26.1926   20.4522 C   0  0  0  0  0  0
  -25.6053  -33.8119   24.1784 N   0  0  0  0  0  0
  -23.5343  -30.3744   21.4946 C   0  0  2  0  0  0
  -24.9376  -28.6368   20.1194 C   0  0  0  0  0  0
  -22.7811  -29.4158   22.4582 C   0  0  0  0  0  0
  -18.0339  -28.1423   22.8447 C   0  0  0  0  0  0
  -24.1494  -36.7050   23.2661 C   0  0  0  0  0  0
  -26.1169  -30.3261   21.4790 C   0  0  0  0  0  0
  -26.1043  -28.8435   20.8595 C   0  0  0  0  0  0
  -27.0499  -27.6516   20.9843 C   0  0  0  0  0  0
  -25.7716  -26.3364   19.5334 C   0  0  0  0  0  0
  -24.8552  -27.4307   19.4046 C   0  0  0  0  0  0
  -23.7985  -29.6783   20.1241 C   0  0  0  0  0  0
  -25.4161  -36.2777   24.0254 C   0  0  1  0  0  0
  -20.5982  -28.3790   23.1088 C   0  0  2  0  0  0
  -20.6790  -26.9426   22.5400 C   0  0  0  0  0  0
  -19.5770  -26.6350   21.5212 C   0  0  0  0  0  0
  -18.1954  -26.7946   22.1614 C   0  0  0  0  0  0
  -19.1613  -28.8932   23.2749 C   0  0  0  0  0  0
  -18.9526  -30.1511   23.8801 C   0  0  0  0  0  0
  -17.6519  -30.6607   24.0541 C   0  0  0  0  0  0
  -25.9169  -34.9174   23.4871 C   0  0  0  0  0  0
  -16.5402  -29.9085   23.6361 C   0  0  0  0  0  0
  -16.7320  -28.6505   23.0381 C   0  0  0  0  0  0
  -26.4643  -31.6478   25.0744 C   0  0  0  0  0  0
  -25.3636  -31.3930   26.1320 C   0  0  0  0  0  0
  -27.0645  -30.2775   24.6957 C   0  0  0  0  0  0
  -27.6005  -32.4454   25.7579 C   0  0  0  0  0  0
  -27.5544  -37.1691   24.8466 C   0  0  0  0  0  0
  -21.4443  -29.3000   22.3360 N   0  0  0  0  0  0
  -26.4248  -37.3581   23.9410 N   0  0  0  0  0  0
  -24.8179  -30.8708   22.0835 N   0  0  0  0  0  0
  -23.4151  -28.7773   23.3020 O   0  0  0  0  0  0
  -27.4387  -24.6718   20.7169 O   0  0  0  0  0  0
  -26.5843  -34.8811   22.4514 O   0  0  0  0  0  0
  -23.6071  -32.0946   23.6099 O   0  0  0  0  0  0
  -25.3347  -14.1690   22.7833 C   0  0  0  0  0  0
  -25.3729  -13.5729   18.6450 C   0  0  0  0  0  0
  -26.6462  -15.4667   21.5809 C   0  0  0  0  0  0
  -23.7786  -12.6678   22.1809 C   0  0  0  0  0  0
  -26.8758  -14.9943   19.6024 C   0  0  0  0  0  0
  -23.6757  -12.5201   19.6140 C   0  0  0  0  0  0
  -27.1100  -18.7275   20.8319 C   0  0  0  0  0  0
  -26.4641  -19.9644   22.6270 C   0  0  0  0  0  0
  -26.1804  -18.3029   22.7032 C   0  0  0  0  0  0
  -26.8572  -20.6155   21.2196 C   0  0  1  0  0  0
  -26.9240  -22.7618   20.6525 C   0  0  0  0  0  0
  -26.7554  -17.3819   21.6356 N   0  0  0  0  0  0
  -22.9372  -12.0181   23.0997 N   0  0  0  0  0  0
  -28.4546  -15.2591   19.3742 N   0  0  0  0  0  0
  -27.6604  -18.5380   19.7431 O   0  0  0  0  0  0
  -22.5900  -12.1101   18.9033 F   0  0  0  0  0  0
  -31.3493  -12.7972   18.9108 H   0  0  0  0  0  0
  -30.7229  -11.5315   19.9439 H   0  0  0  0  0  0
  -29.7413  -11.2125   17.6902 H   0  0  0  0  0  0
  -29.2756  -12.8857   17.5849 H   0  0  0  0  0  0
  -28.0926  -10.7179   19.4423 H   0  0  0  0  0  0
  -27.2061  -11.5605   18.2293 H   0  0  0  0  0  0
  -27.7540  -13.1377   19.1507 H   0  0  0  0  0  0
  -29.1231  -11.9687   21.5578 H   0  0  0  0  0  0
  -28.5937  -13.6049   21.9043 H   0  0  0  0  0  0
  -25.3955   -9.8651   22.8311 H   0  0  0  0  0  0
  -24.0084   -7.8799   23.1344 H   0  0  0  0  0  0
  -21.8520   -8.7866   19.5826 H   0  0  0  0  0  0
  -23.5640  -10.2645   19.0520 H   0  0  0  0  0  0
  -21.2937   -7.6612   24.0398 H   0  0  0  0  0  0
  -21.1487   -6.0461   25.9204 H   0  0  0  0  0  0
  -22.0224   -2.8082   23.2254 H   0  0  0  0  0  0
  -21.9797  -13.0616   22.1914 H   0  0  0  0  0  0
  -20.6698  -14.0202   21.4954 H   0  0  0  0  0  0
  -23.7254  -16.3696   19.8484 H   0  0  0  0  0  0
  -25.3785  -16.5100   19.4843 H   0  0  0  0  0  0
  -26.7640  -32.4563   23.0639 H   0  0  0  0  0  0
  -25.0102  -33.9114   24.9875 H   0  0  0  0  0  0
  -22.8808  -31.2276   21.3009 H   0  0  0  0  0  0
  -23.3792  -35.9340   23.3247 H   0  0  0  0  0  0
  -24.3543  -36.8810   22.2090 H   0  0  0  0  0  0
  -23.7217  -37.6179   23.6814 H   0  0  0  0  0  0
  -26.3818  -31.0006   20.6636 H   0  0  0  0  0  0
  -26.9595  -30.3891   22.1531 H   0  0  0  0  0  0
  -27.8884  -27.7904   21.6527 H   0  0  0  0  0  0
  -25.5099  -25.4481   18.9755 H   0  0  0  0  0  0
  -23.9995  -27.2818   18.7587 H   0  0  0  0  0  0
  -24.0492  -30.4385   19.3833 H   0  0  0  0  0  0
  -22.8812  -29.2125   19.7598 H   0  0  0  0  0  0
  -25.1387  -36.1492   25.0740 H   0  0  0  0  0  0
  -21.0065  -28.3432   24.1215 H   0  0  0  0  0  0
  -20.5625  -26.2420   23.3683 H   0  0  0  0  0  0
  -21.6652  -26.7328   22.1242 H   0  0  0  0  0  0
  -19.6922  -25.6234   21.1308 H   0  0  0  0  0  0
  -19.6720  -27.3104   20.6698 H   0  0  0  0  0  0
  -17.4225  -26.6695   21.4015 H   0  0  0  0  0  0
  -18.0334  -26.0101   22.9023 H   0  0  0  0  0  0
  -19.8007  -30.7344   24.2125 H   0  0  0  0  0  0
  -17.5077  -31.6279   24.5161 H   0  0  0  0  0  0
  -15.5403  -30.2968   23.7735 H   0  0  0  0  0  0
  -15.8717  -28.0791   22.7163 H   0  0  0  0  0  0
  -24.5831  -30.7249   25.7664 H   0  0  0  0  0  0
  -24.8829  -32.3204   26.4445 H   0  0  0  0  0  0
  -25.7763  -30.9316   27.0302 H   0  0  0  0  0  0
  -26.3404  -29.6223   24.2109 H   0  0  0  0  0  0
  -27.4046  -29.7439   25.5844 H   0  0  0  0  0  0
  -27.9409  -30.3814   24.0559 H   0  0  0  0  0  0
  -27.2458  -33.3856   26.1819 H   0  0  0  0  0  0
  -28.3991  -32.6860   25.0551 H   0  0  0  0  0  0
  -28.0475  -31.8838   26.5793 H   0  0  0  0  0  0
  -28.2509  -38.0034   24.7522 H   0  0  0  0  0  0
  -28.1092  -36.2551   24.6291 H   0  0  0  0  0  0
  -27.2252  -37.1312   25.8864 H   0  0  0  0  0  0
  -20.9765  -29.8655   21.6414 H   0  0  0  0  0  0
  -26.0040  -38.2605   24.1449 H   0  0  0  0  0  0
  -25.2673  -14.4551   23.8220 H   0  0  0  0  0  0
  -25.4858  -13.4072   17.5835 H   0  0  0  0  0  0
  -27.2710  -20.1946   23.3227 H   0  0  0  0  0  0
  -25.5898  -20.4822   23.0239 H   0  0  0  0  0  0
  -25.0996  -18.1469   22.6702 H   0  0  0  0  0  0
  -26.4859  -17.9308   23.6811 H   0  0  0  0  0  0
  -25.9122  -20.5531   20.6794 H   0  0  0  0  0  0
  -25.8499  -22.9472   20.6714 H   0  0  0  0  0  0
  -27.1456  -22.6254   19.5936 H   0  0  0  0  0  0
  -22.6827  -11.0725   22.8296 H   0  0  0  0  0  0
  -23.2451  -12.0411   24.0667 H   0  0  0  0  0  0
  -28.6139  -16.1685   18.9619 H   0  0  0  0  0  0
  1 25  1  0  0  0
  1 30  2  0  0  0
  1 84  1  0  0  0
  2  3  1  0  0  0
  2 25  1  0  0  0
  2 87  1  0  0  0
  2 88  1  0  0  0
  3  4  1  0  0  0
  3 89  1  0  0  0
  3 90  1  0  0  0
  4  5  1  0  0  0
  4 91  1  0  0  0
  4 92  1  0  0  0
  5  6  1  0  0  0
  5 26  1  0  0  0
  5 93  1  0  0  0
  6 25  1  0  0  0
  6 94  1  0  0  0
  6 95  1  0  0  0
  7  8  2  0  0  0
  7 26  1  0  0  0
  7 29  1  0  0  0
  8  9  1  0  0  0
  8 22  1  0  0  0
  9 10  1  0  0  0
  9 27  2  0  0  0
 10 11  2  0  0  0
 10 15  1  0  0  0
 11 12  1  0  0  0
 11 96  1  0  0  0
 12 13  2  0  0  0
 12 97  1  0  0  0
 13 14  1  0  0  0
 13 31  1  0  0  0
 14 15  2  0  0  0
 14 98  1  0  0  0
 15 99  1  0  0  0
 16 17  2  0  0  0
 16 21  1  0  0  0
 16 31  1  0  0  0
 17 18  1  0  0  0
 17100  1  0  0  0
 18 19  2  0  0  0
 18101  1  0  0  0
 19 20  1  0  0  0
 19 24  1  0  0  0
 20 21  2  0  0  0
 20102  1  0  0  0
 21 23  1  0  0  0
 22 28  1  0  0  0
 22 32  2  0  0  0
 26 27  1  0  0  0
 28103  1  0  0  0
 28104  1  0  0  0
 29105  1  0  0  0
 29106  1  0  0  0
 33 34  1  0  0  0
 33 66  1  0  0  0
 33 70  2  0  0  0
 34 36  1  0  0  0
 34 59  1  0  0  0
 34107  1  0  0  0
 35 44  2  0  0  0
 35 45  1  0  0  0
 35 68  1  0  0  0
 36 56  1  0  0  0
 36108  1  0  0  0
 37 39  1  0  0  0
 37 47  1  0  0  0
 37 66  1  0  0  0
 37109  1  0  0  0
 38 43  2  0  0  0
 38 46  1  0  0  0
 38 47  1  0  0  0
 39 64  1  0  0  0
 39 67  2  0  0  0
 40 52  1  0  0  0
 40 53  2  0  0  0
 40 58  1  0  0  0
 41110  1  0  0  0
 41111  1  0  0  0
 41112  1  0  0  0
 41 48  1  0  0  0
 42 43  1  0  0  0
 42 66  1  0  0  0
 42113  1  0  0  0
 42114  1  0  0  0
 43 44  1  0  0  0
 44115  1  0  0  0
 45 46  2  0  0  0
 45116  1  0  0  0
 46117  1  0  0  0
 47118  1  0  0  0
 47119  1  0  0  0
 48 56  1  0  0  0
 48 65  1  0  0  0
 48120  1  0  0  0
 49 50  1  0  0  0
 49 53  1  0  0  0
 49 64  1  0  0  0
 49121  1  0  0  0
 50 51  1  0  0  0
 50122  1  0  0  0
 50123  1  0  0  0
 51 52  1  0  0  0
 51124  1  0  0  0
 51125  1  0  0  0
 52126  1  0  0  0
 52127  1  0  0  0
 53 54  1  0  0  0
 54 55  2  0  0  0
 54128  1  0  0  0
 55 57  1  0  0  0
 55129  1  0  0  0
 56 69  2  0  0  0
 57 58  2  0  0  0
 57130  1  0  0  0
 58131  1  0  0  0
 59 60  1  0  0  0
 59 61  1  0  0  0
 59 62  1  0  0  0
 60132  1  0  0  0
 60133  1  0  0  0
 60134  1  0  0  0
 61135  1  0  0  0
 61136  1  0  0  0
 61137  1  0  0  0
 62138  1  0  0  0
 62139  1  0  0  0
 62140  1  0  0  0
 63 65  1  0  0  0
 63141  1  0  0  0
 63142  1  0  0  0
 63143  1  0  0  0
 64144  1  0  0  0
 65145  1  0  0  0
 68 81  1  0  0  0
 71 73  2  0  0  0
 71 74  1  0  0  0
 71146  1  0  0  0
 72 75  2  0  0  0
 72 76  1  0  0  0
 72147  1  0  0  0
 73 75  1  0  0  0
 73 82  1  0  0  0
 74 76  2  0  0  0
 74 83  1  0  0  0
 75 84  1  0  0  0
 76 86  1  0  0  0
 77 80  1  0  0  0
 77 82  1  0  0  0
 77 85  2  0  0  0
 78 79  1  0  0  0
 78 80  1  0  0  0
 78148  1  0  0  0
 78149  1  0  0  0
 79 82  1  0  0  0
 79150  1  0  0  0
 79151  1  0  0  0
 80 81  1  0  0  0
 80152  1  0  0  0
 81153  1  0  0  0
 81154  1  0  0  0
 83155  1  0  0  0
 83156  1  0  0  0
 84157  1  0  0  0
M  ISO  4   1 100  68 101  81 101  84 100
M  END
> <chiral flag>
0

> <version>
0

> <s_m_source_file>
/data/baiqing/PycharmProjects/Reinvent-master-3.2/result/LINK_invent/BTK/process_docking_weight1_custom_product_contain_oxygen_bond_distance_aromatic_linkinvent_7_9_3/rearranged_h_0070.sdf

> <i_m_source_file_index>
1

> <r_mmod_Potential_Energy-OPLS-2005>
24115.046875

> <r_mmod_Stretch_Energy-OPLS-2005>
14635.2578125

> <r_mmod_Bend_Energy-OPLS-2005>
1895.7646484375

> <r_mmod_Torsional_Energy-OPLS-2005>
670.366088867188

> <r_mmod_Improper_Torsional_Energy-OPLS-2005>
60.9190330505371

> <r_mmod_Van_der_Waal_Energy-OPLS-2005>
4755.28955078125

> <r_mmod_Electrostatic_Energy-OPLS-2005>
-432.618865966797

> <r_mmod_Solvation_Energy-OPLS-2005>
-203.130920410156

> <b_mmod_Minimization_Converged-OPLS-2005>
0

> <r_mmod_RMS_Derivative-OPLS-2005>
3.82109999656677

$$$$
1
                    3D
 Structure written by MMmdl.
161170  0  0  1  0            999 V2000
  -30.6190  -14.7768   20.4544 C   0  0  0  0  0  0
  -30.4200  -12.4766   19.4874 C   0  0  0  0  0  0
  -29.5027  -12.5078   18.2454 C   0  0  0  0  0  0
  -28.0333  -12.3235   18.6627 C   0  0  0  0  0  0
  -27.6334  -13.2369   19.8505 C   0  0  2  0  0  0
  -28.6756  -13.2064   20.9891 C   0  0  0  0  0  0
  -25.2462  -13.8219   20.5715 C   0  0  0  0  0  0
  -24.1760  -13.0452   20.9219 C   0  0  0  0  0  0
  -24.6370  -11.6938   20.8776 C   0  0  0  0  0  0
  -23.9059  -10.4311   21.0426 C   0  0  0  0  0  0
  -24.3607   -9.4224   21.9202 C   0  0  0  0  0  0
  -23.6291   -8.2251   22.0768 C   0  0  0  0  0  0
  -22.4278   -8.0282   21.3549 C   0  0  0  0  0  0
  -21.9910   -9.0258   20.4648 C   0  0  0  0  0  0
  -22.7234  -10.2146   20.3068 C   0  0  0  0  0  0
  -21.6851   -6.0731   22.5276 C   0  0  0  0  0  0
  -21.4007   -6.5639   23.8209 C   0  0  0  0  0  0
  -21.3654   -5.6797   24.9173 C   0  0  0  0  0  0
  -21.6046   -4.3057   24.7227 C   0  0  0  0  0  0
  -21.8818   -3.8149   23.4345 C   0  0  0  0  0  0
  -21.9197   -4.6962   22.3399 C   0  0  0  0  0  0
  -22.7786  -13.5235   21.1879 C   0  0  0  0  0  0
  -22.1666   -4.2151   21.0972 F   0  0  0  0  0  0
  -21.5630   -3.4539   25.7738 F   0  0  0  0  0  0
  -29.9727  -13.5577   20.4013 N   0  0  0  0  0  0
  -26.2881  -12.9433   20.3299 N   0  0  0  0  0  0
  -25.9295  -11.6578   20.5768 N   0  0  0  0  0  0
  -22.0438  -12.8218   22.0439 N   0  0  0  0  0  0
  -25.4154  -15.1933   20.4109 N   0  0  0  0  0  0
  -31.8098  -14.8057   20.1401 O   0  0  0  0  0  0
  -21.6643   -6.8872   21.4238 O   0  0  0  0  0  0
  -22.3475  -14.5549   20.6743 O   0  0  0  0  0  0
  -24.6266  -31.8572   23.1933 C   0  0  0  0  0  0
  -25.9098  -32.4760   23.8292 C   0  0  1  0  0  0
  -27.2176  -27.2604   20.1208 C   0  0  0  0  0  0
  -25.5892  -33.8565   24.2205 N   0  0  0  0  0  0
  -23.4226  -30.4763   21.5392 C   0  0  2  0  0  0
  -24.8705  -28.9166   20.1077 C   0  0  0  0  0  0
  -22.7474  -29.4600   22.4902 C   0  0  0  0  0  0
  -18.0294  -28.1342   22.8512 C   0  0  0  0  0  0
  -24.1493  -36.7302   23.2642 C   0  0  0  0  0  0
  -25.9666  -30.7697   21.3701 C   0  0  0  0  0  0
  -26.0407  -29.3890   20.7150 C   0  0  0  0  0  0
  -27.2143  -28.5705   20.7119 C   0  0  0  0  0  0
  -26.0234  -26.8439   19.4998 C   0  0  0  0  0  0
  -24.8665  -27.6510   19.4937 C   0  0  0  0  0  0
  -23.6376  -29.8026   20.1579 C   0  0  0  0  0  0
  -25.4119  -36.3077   24.0313 C   0  0  1  0  0  0
  -20.5903  -28.3682   23.1262 C   0  0  2  0  0  0
  -20.6775  -26.9394   22.5421 C   0  0  0  0  0  0
  -19.5737  -26.6348   21.5240 C   0  0  0  0  0  0
  -18.1919  -26.7888   22.1650 C   0  0  0  0  0  0
  -19.1553  -28.8826   23.2881 C   0  0  0  0  0  0
  -18.9486  -30.1430   23.8892 C   0  0  0  0  0  0
  -17.6489  -30.6562   24.0563 C   0  0  0  0  0  0
  -25.9066  -34.9448   23.5067 C   0  0  0  0  0  0
  -16.5375  -29.9058   23.6340 C   0  0  0  0  0  0
  -16.7288  -28.6468   23.0375 C   0  0  0  0  0  0
  -26.4431  -31.6595   25.0696 C   0  0  0  0  0  0
  -25.3598  -31.3817   26.1385 C   0  0  0  0  0  0
  -27.0278  -30.2996   24.6195 C   0  0  0  0  0  0
  -27.5947  -32.4372   25.7505 C   0  0  0  0  0  0
  -27.5575  -37.1793   24.8452 C   0  0  0  0  0  0
  -21.4189  -29.3035   22.3648 N   0  0  0  0  0  0
  -26.4291  -37.3784   23.9397 N   0  0  0  0  0  0
  -24.6913  -31.0519   22.0909 N   0  0  0  0  0  0
  -23.4199  -28.8131   23.2973 O   0  0  0  0  0  0
  -28.3277  -26.3949   20.2099 O   0  0  0  0  0  0
  -26.5687  -34.8920   22.4674 O   0  0  0  0  0  0
  -23.5431  -32.1409   23.7237 O   0  0  0  0  0  0
  -29.3558  -18.5662   20.5653 C   0  0  0  0  0  0
  -31.6347  -17.7557   20.4572 C   0  0  0  0  0  0
  -31.1927  -20.1789   20.3721 C   0  0  0  0  0  0
  -29.7835  -19.9719   20.4633 C   0  0  0  0  0  0
  -30.2664  -17.4118   20.5513 C   0  0  0  0  0  0
  -32.0809  -19.0827   20.3608 C   0  0  0  0  0  0
  -28.5491  -21.7651   21.7031 C   0  0  0  0  0  0
  -28.7709  -22.2852   19.4963 C   0  0  0  0  0  0
  -28.2606  -23.2927   21.6084 C   0  0  1  0  0  0
  -28.0678  -23.5870   20.1146 C   0  0  1  0  0  0
  -31.8281  -21.5672   20.3443 C   0  0  0  0  0  0
  -27.0652  -23.7506   22.4708 C   0  0  0  0  0  0
  -28.4627  -25.0601   19.5332 C   0  0  0  0  0  0
  -28.9026  -21.1897   20.5306 N   0  0  0  0  0  0
  -29.8785  -15.9561   20.6453 N   0  0  0  0  0  0
  -28.4430  -21.1582   22.7740 O   0  0  0  0  0  0
  -33.4150  -19.3031   20.2707 F   0  0  0  0  0  0
  -31.4621  -12.5897   19.1823 H   0  0  0  0  0  0
  -30.3613  -11.5103   19.9909 H   0  0  0  0  0  0
  -29.7932  -11.7271   17.5405 H   0  0  0  0  0  0
  -29.6169  -13.4560   17.7197 H   0  0  0  0  0  0
  -27.9031  -11.2774   18.9420 H   0  0  0  0  0  0
  -27.3721  -12.4945   17.8128 H   0  0  0  0  0  0
  -27.6183  -14.2508   19.4514 H   0  0  0  0  0  0
  -28.7147  -12.2219   21.4578 H   0  0  0  0  0  0
  -28.4027  -13.9097   21.7780 H   0  0  0  0  0  0
  -25.2742   -9.5702   22.4789 H   0  0  0  0  0  0
  -24.0002   -7.4641   22.7493 H   0  0  0  0  0  0
  -21.0844   -8.8777   19.8941 H   0  0  0  0  0  0
  -22.3694  -10.9690   19.6182 H   0  0  0  0  0  0
  -21.1992   -7.6149   23.9707 H   0  0  0  0  0  0
  -21.1475   -6.0527   25.9076 H   0  0  0  0  0  0
  -22.0600   -2.7612   23.2848 H   0  0  0  0  0  0
  -22.4066  -11.9875   22.4800 H   0  0  0  0  0  0
  -21.1066  -13.1259   22.2682 H   0  0  0  0  0  0
  -24.6446  -15.8452   20.5074 H   0  0  0  0  0  0
  -26.2567  -15.6314   20.0585 H   0  0  0  0  0  0
  -26.7164  -32.5388   23.1049 H   0  0  0  0  0  0
  -24.9930  -33.9721   25.0261 H   0  0  0  0  0  0
  -22.7147  -31.2951   21.3933 H   0  0  0  0  0  0
  -23.3761  -35.9631   23.3287 H   0  0  0  0  0  0
  -24.3584  -36.8965   22.2060 H   0  0  0  0  0  0
  -23.7234  -37.6477   23.6712 H   0  0  0  0  0  0
  -26.0925  -31.5277   20.5960 H   0  0  0  0  0  0
  -26.8488  -30.8292   21.9961 H   0  0  0  0  0  0
  -28.1097  -28.9278   21.2027 H   0  0  0  0  0  0
  -25.9544  -25.8621   19.0546 H   0  0  0  0  0  0
  -23.9653  -27.2764   19.0281 H   0  0  0  0  0  0
  -23.7392  -30.5772   19.3967 H   0  0  0  0  0  0
  -22.7575  -29.2261   19.8672 H   0  0  0  0  0  0
  -25.1298  -36.1941   25.0806 H   0  0  0  0  0  0
  -21.0022  -28.3311   24.1374 H   0  0  0  0  0  0
  -20.5729  -26.2302   23.3645 H   0  0  0  0  0  0
  -21.6622  -26.7424   22.1172 H   0  0  0  0  0  0
  -19.6910  -25.6265   21.1245 H   0  0  0  0  0  0
  -19.6641  -27.3171   20.6775 H   0  0  0  0  0  0
  -17.4194  -26.6683   21.4036 H   0  0  0  0  0  0
  -18.0274  -26.0006   22.9019 H   0  0  0  0  0  0
  -19.7981  -30.7225   24.2250 H   0  0  0  0  0  0
  -17.5062  -31.6250   24.5147 H   0  0  0  0  0  0
  -15.5375  -30.2954   23.7652 H   0  0  0  0  0  0
  -15.8695  -28.0776   22.7090 H   0  0  0  0  0  0
  -24.5827  -30.7104   25.7725 H   0  0  0  0  0  0
  -24.8711  -32.3015   26.4610 H   0  0  0  0  0  0
  -25.7836  -30.9154   27.0287 H   0  0  0  0  0  0
  -26.2883  -29.6760   24.1159 H   0  0  0  0  0  0
  -27.3879  -29.7244   25.4729 H   0  0  0  0  0  0
  -27.8780  -30.4244   23.9488 H   0  0  0  0  0  0
  -27.2515  -33.3723   26.1966 H   0  0  0  0  0  0
  -28.3820  -32.6867   25.0376 H   0  0  0  0  0  0
  -28.0528  -31.8573   26.5531 H   0  0  0  0  0  0
  -28.2549  -38.0127   24.7540 H   0  0  0  0  0  0
  -28.1103  -36.2647   24.6240 H   0  0  0  0  0  0
  -27.2287  -37.1393   25.8852 H   0  0  0  0  0  0
  -20.9373  -29.8767   21.6859 H   0  0  0  0  0  0
  -26.0167  -38.2857   24.1435 H   0  0  0  0  0  0
  -28.2974  -18.3727   20.6651 H   0  0  0  0  0  0
  -32.4139  -17.0129   20.4706 H   0  0  0  0  0  0
  -29.7417  -22.5466   19.0876 H   0  0  0  0  0  0
  -28.1861  -21.9094   18.6550 H   0  0  0  0  0  0
  -29.1618  -23.8028   21.9501 H   0  0  0  0  0  0
  -27.0005  -23.4721   19.9190 H   0  0  0  0  0  0
  -31.8906  -21.9434   19.3240 H   0  0  0  0  0  0
  -32.8453  -21.5460   20.7361 H   0  0  0  0  0  0
  -31.2962  -22.2906   20.9591 H   0  0  0  0  0  0
  -26.1252  -23.3297   22.1123 H   0  0  0  0  0  0
  -26.9641  -24.8369   22.4548 H   0  0  0  0  0  0
  -27.1786  -23.4507   23.5119 H   0  0  0  0  0  0
  -28.0495  -25.1509   18.5268 H   0  0  0  0  0  0
  -29.5357  -25.0057   19.3503 H   0  0  0  0  0  0
  -28.9016  -15.7866   20.8288 H   0  0  0  0  0  0
  1 25  1  0  0  0
  1 30  2  0  0  0
  1 85  1  0  0  0
  2  3  1  0  0  0
  2 25  1  0  0  0
  2 88  1  0  0  0
  2 89  1  0  0  0
  3  4  1  0  0  0
  3 90  1  0  0  0
  3 91  1  0  0  0
  4  5  1  0  0  0
  4 92  1  0  0  0
  4 93  1  0  0  0
  5  6  1  0  0  0
  5 26  1  0  0  0
  5 94  1  0  0  0
  6 25  1  0  0  0
  6 95  1  0  0  0
  6 96  1  0  0  0
  7  8  2  0  0  0
  7 26  1  0  0  0
  7 29  1  0  0  0
  8  9  1  0  0  0
  8 22  1  0  0  0
  9 10  1  0  0  0
  9 27  2  0  0  0
 10 11  2  0  0  0
 10 15  1  0  0  0
 11 12  1  0  0  0
 11 97  1  0  0  0
 12 13  2  0  0  0
 12 98  1  0  0  0
 13 14  1  0  0  0
 13 31  1  0  0  0
 14 15  2  0  0  0
 14 99  1  0  0  0
 15100  1  0  0  0
 16 17  2  0  0  0
 16 21  1  0  0  0
 16 31  1  0  0  0
 17 18  1  0  0  0
 17101  1  0  0  0
 18 19  2  0  0  0
 18102  1  0  0  0
 19 20  1  0  0  0
 19 24  1  0  0  0
 20 21  2  0  0  0
 20103  1  0  0  0
 21 23  1  0  0  0
 22 28  1  0  0  0
 22 32  2  0  0  0
 26 27  1  0  0  0
 28104  1  0  0  0
 28105  1  0  0  0
 29106  1  0  0  0
 29107  1  0  0  0
 33 34  1  0  0  0
 33 66  1  0  0  0
 33 70  2  0  0  0
 34 36  1  0  0  0
 34 59  1  0  0  0
 34108  1  0  0  0
 35 44  2  0  0  0
 35 45  1  0  0  0
 35 68  1  0  0  0
 36 56  1  0  0  0
 36109  1  0  0  0
 37 39  1  0  0  0
 37 47  1  0  0  0
 37 66  1  0  0  0
 37110  1  0  0  0
 38 43  2  0  0  0
 38 46  1  0  0  0
 38 47  1  0  0  0
 39 64  1  0  0  0
 39 67  2  0  0  0
 40 52  1  0  0  0
 40 53  2  0  0  0
 40 58  1  0  0  0
 41111  1  0  0  0
 41112  1  0  0  0
 41113  1  0  0  0
 41 48  1  0  0  0
 42 43  1  0  0  0
 42 66  1  0  0  0
 42114  1  0  0  0
 42115  1  0  0  0
 43 44  1  0  0  0
 44116  1  0  0  0
 45 46  2  0  0  0
 45117  1  0  0  0
 46118  1  0  0  0
 47119  1  0  0  0
 47120  1  0  0  0
 48 56  1  0  0  0
 48 65  1  0  0  0
 48121  1  0  0  0
 49 50  1  0  0  0
 49 53  1  0  0  0
 49 64  1  0  0  0
 49122  1  0  0  0
 50 51  1  0  0  0
 50123  1  0  0  0
 50124  1  0  0  0
 51 52  1  0  0  0
 51125  1  0  0  0
 51126  1  0  0  0
 52127  1  0  0  0
 52128  1  0  0  0
 53 54  1  0  0  0
 54 55  2  0  0  0
 54129  1  0  0  0
 55 57  1  0  0  0
 55130  1  0  0  0
 56 69  2  0  0  0
 57 58  2  0  0  0
 57131  1  0  0  0
 58132  1  0  0  0
 59 60  1  0  0  0
 59 61  1  0  0  0
 59 62  1  0  0  0
 60133  1  0  0  0
 60134  1  0  0  0
 60135  1  0  0  0
 61136  1  0  0  0
 61137  1  0  0  0
 61138  1  0  0  0
 62139  1  0  0  0
 62140  1  0  0  0
 62141  1  0  0  0
 63 65  1  0  0  0
 63142  1  0  0  0
 63143  1  0  0  0
 63144  1  0  0  0
 64145  1  0  0  0
 65146  1  0  0  0
 68 83  1  0  0  0
 71 74  2  0  0  0
 71 75  1  0  0  0
 71147  1  0  0  0
 72 75  2  0  0  0
 72 76  1  0  0  0
 72148  1  0  0  0
 73 74  1  0  0  0
 73 76  2  0  0  0
 73 81  1  0  0  0
 74 84  1  0  0  0
 75 85  1  0  0  0
 76 87  1  0  0  0
 77 79  1  0  0  0
 77 84  1  0  0  0
 77 86  2  0  0  0
 78 80  1  0  0  0
 78 84  1  0  0  0
 78149  1  0  0  0
 78150  1  0  0  0
 79 80  1  0  0  0
 79 82  1  0  0  0
 79151  1  0  0  0
 80 83  1  0  0  0
 80152  1  0  0  0
 81153  1  0  0  0
 81154  1  0  0  0
 81155  1  0  0  0
 82156  1  0  0  0
 82157  1  0  0  0
 82158  1  0  0  0
 83159  1  0  0  0
 83160  1  0  0  0
 85161  1  0  0  0
M  ISO  4   1 100  68 101  83 101  85 100
M  END
> <chiral flag>
0

> <version>
0

> <s_m_source_file>
/data/baiqing/PycharmProjects/Reinvent-master-3.2/result/LINK_invent/BTK/process_docking_weight1_custom_product_contain_oxygen_bond_distance_aromatic_linkinvent_7_9_3/rearranged_h_0070.sdf

> <i_m_source_file_index>
2

> <r_mmod_Potential_Energy-OPLS-2005>
346.265380859375

> <r_mmod_Stretch_Energy-OPLS-2005>
145.381546020508

> <r_mmod_Bend_Energy-OPLS-2005>
222.392822265625

> <r_mmod_Torsional_Energy-OPLS-2005>
299.0048828125

> <r_mmod_Improper_Torsional_Energy-OPLS-2005>
6.53311061859131

> <r_mmod_Van_der_Waal_Energy-OPLS-2005>
139.445861816406

> <r_mmod_Electrostatic_Energy-OPLS-2005>
-341.005462646484

> <r_mmod_Solvation_Energy-OPLS-2005>
-218.022994995117

> <b_mmod_Minimization_Converged-OPLS-2005>
0

> <r_mmod_RMS_Derivative-OPLS-2005>
2.9693865776062

$$$$
2
                    3D
 Structure written by MMmdl.
152160  0  0  1  0            999 V2000
  -30.3453  -15.4474   20.3650 C   0  0  0  0  0  0
  -30.4389  -12.9564   19.4990 C   0  0  0  0  0  0
  -29.5360  -12.6009   18.2873 C   0  0  0  0  0  0
  -28.0995  -12.2838   18.7393 C   0  0  0  0  0  0
  -27.6018  -13.2801   19.8126 C   0  0  2  0  0  0
  -28.6367  -13.5331   20.9277 C   0  0  0  0  0  0
  -25.2366  -13.8218   20.5773 C   0  0  0  0  0  0
  -24.1736  -13.0402   20.9299 C   0  0  0  0  0  0
  -24.6401  -11.6898   20.8783 C   0  0  0  0  0  0
  -23.9087  -10.4262   21.0416 C   0  0  0  0  0  0
  -24.3619   -9.4172   21.9195 C   0  0  0  0  0  0
  -23.6289   -8.2210   22.0756 C   0  0  0  0  0  0
  -22.4277   -8.0254   21.3543 C   0  0  0  0  0  0
  -21.9917   -9.0229   20.4649 C   0  0  0  0  0  0
  -22.7250  -10.2109   20.3073 C   0  0  0  0  0  0
  -21.6849   -6.0713   22.5270 C   0  0  0  0  0  0
  -21.4008   -6.5625   23.8198 C   0  0  0  0  0  0
  -21.3673   -5.6793   24.9173 C   0  0  0  0  0  0
  -21.6051   -4.3051   24.7235 C   0  0  0  0  0  0
  -21.8818   -3.8129   23.4359 C   0  0  0  0  0  0
  -21.9183   -4.6938   22.3408 C   0  0  0  0  0  0
  -22.7756  -13.5155   21.1930 C   0  0  0  0  0  0
  -22.1652   -4.2113   21.0990 F   0  0  0  0  0  0
  -21.5650   -3.4544   25.7756 F   0  0  0  0  0  0
  -29.8184  -14.1128   20.2595 N   0  0  0  0  0  0
  -26.2796  -12.9504   20.3243 N   0  0  0  0  0  0
  -25.9341  -11.6595   20.5719 N   0  0  0  0  0  0
  -22.0420  -12.8150   22.0494 N   0  0  0  0  0  0
  -25.3947  -15.1949   20.4141 N   0  0  0  0  0  0
  -31.5855  -15.4290   20.2998 O   0  0  0  0  0  0
  -21.6644   -6.8851   21.4231 O   0  0  0  0  0  0
  -22.3426  -14.5439   20.6735 O   0  0  0  0  0  0
  -24.6721  -31.8144   23.1618 C   0  0  0  0  0  0
  -25.9346  -32.4559   23.8135 C   0  0  1  0  0  0
  -27.2152  -26.8141   20.2130 C   0  0  0  0  0  0
  -25.5968  -33.8377   24.2033 N   0  0  0  0  0  0
  -23.4935  -30.4200   21.5137 C   0  0  2  0  0  0
  -24.9465  -28.7790   20.1263 C   0  0  0  0  0  0
  -22.7719  -29.4388   22.4747 C   0  0  0  0  0  0
  -18.0329  -28.1424   22.8475 C   0  0  0  0  0  0
  -24.1474  -36.7192   23.2656 C   0  0  0  0  0  0
  -26.0679  -30.5815   21.4107 C   0  0  0  0  0  0
  -26.1322  -29.1540   20.7718 C   0  0  0  0  0  0
  -27.2565  -28.1939   20.7905 C   0  0  0  0  0  0
  -26.0015  -26.6196   19.5146 C   0  0  0  0  0  0
  -24.9117  -27.5334   19.4790 C   0  0  0  0  0  0
  -23.7435  -29.7269   20.1456 C   0  0  0  0  0  0
  -25.4114  -36.2946   24.0308 C   0  0  1  0  0  0
  -20.5967  -28.3768   23.1174 C   0  0  2  0  0  0
  -20.6795  -26.9438   22.5405 C   0  0  0  0  0  0
  -19.5762  -26.6367   21.5226 C   0  0  0  0  0  0
  -18.1945  -26.7961   22.1626 C   0  0  0  0  0  0
  -19.1598  -28.8915   23.2815 C   0  0  0  0  0  0
  -18.9508  -30.1509   23.8844 C   0  0  0  0  0  0
  -17.6503  -30.6610   24.0573 C   0  0  0  0  0  0
  -25.9095  -34.9337   23.4992 C   0  0  0  0  0  0
  -16.5392  -29.9109   23.6345 C   0  0  0  0  0  0
  -16.7311  -28.6532   23.0361 C   0  0  0  0  0  0
  -26.4555  -31.6547   25.0713 C   0  0  0  0  0  0
  -25.3644  -31.3838   26.1346 C   0  0  0  0  0  0
  -27.0474  -30.2912   24.6500 C   0  0  0  0  0  0
  -27.6027  -32.4375   25.7518 C   0  0  0  0  0  0
  -27.5550  -37.1745   24.8469 C   0  0  0  0  0  0
  -21.4376  -29.3058   22.3523 N   0  0  0  0  0  0
  -26.4246  -37.3695   23.9428 N   0  0  0  0  0  0
  -24.7674  -30.9681   22.0827 N   0  0  0  0  0  0
  -23.4207  -28.7951   23.3026 O   0  0  0  0  0  0
  -28.2308  -25.6876   20.1470 O   0  0  0  0  0  0
  -26.5723  -34.8891   22.4602 O   0  0  0  0  0  0
  -23.5758  -32.1161   23.6624 O   0  0  0  0  0  0
  -28.5704  -20.9680   21.9808 C   0  0  0  0  0  0
  -28.7154  -19.7257   22.6549 C   0  0  0  0  0  0
  -29.2125  -19.7518   20.0128 C   0  0  0  0  0  0
  -28.8167  -21.1657   20.6066 C   0  0  0  0  0  0
  -29.0908  -18.4795   22.0684 C   0  0  0  0  0  0
  -29.3890  -18.3301   20.6857 C   0  0  0  0  0  0
  -28.6640  -22.8734   20.1209 C   0  0  0  0  0  0
  -26.4111  -17.2847   23.5623 C   0  0  0  0  0  0
  -28.0022  -24.0782   20.5648 N   0  0  0  0  0  0
  -29.5512  -16.7368   20.2032 N   0  0  0  0  0  0
  -29.1160  -17.3397   22.8776 N   0  0  0  0  0  0
  -28.2286  -15.4527   24.3317 O   0  0  0  0  0  0
  -28.4204  -17.8107   25.2911 O   0  0  0  0  0  0
  -28.0796  -16.9067   24.1809 S   0  0  0  0  0  0
  -31.4314  -13.2255   19.1322 H   0  0  0  0  0  0
  -30.5864  -12.0903   20.1476 H   0  0  0  0  0  0
  -29.9515  -11.7564   17.7367 H   0  0  0  0  0  0
  -29.5195  -13.4409   17.5912 H   0  0  0  0  0  0
  -28.0989  -11.2755   19.1550 H   0  0  0  0  0  0
  -27.4209  -12.2629   17.8857 H   0  0  0  0  0  0
  -27.4874  -14.2230   19.2759 H   0  0  0  0  0  0
  -28.8744  -12.6223   21.4793 H   0  0  0  0  0  0
  -28.2432  -14.2450   21.6555 H   0  0  0  0  0  0
  -25.2745   -9.5647   22.4795 H   0  0  0  0  0  0
  -23.9969   -7.4600   22.7489 H   0  0  0  0  0  0
  -21.0837   -8.8758   19.8965 H   0  0  0  0  0  0
  -22.3685  -10.9657   19.6203 H   0  0  0  0  0  0
  -21.1992   -7.6131   23.9683 H   0  0  0  0  0  0
  -21.1508   -6.0536   25.9074 H   0  0  0  0  0  0
  -22.0581   -2.7584   23.2880 H   0  0  0  0  0  0
  -22.4047  -11.9818   22.4892 H   0  0  0  0  0  0
  -21.1045  -13.1175   22.2716 H   0  0  0  0  0  0
  -24.5952  -15.8171   20.4687 H   0  0  0  0  0  0
  -26.2065  -15.6265   19.9957 H   0  0  0  0  0  0
  -26.7427  -32.5060   23.0853 H   0  0  0  0  0  0
  -25.0064  -33.9456   25.0153 H   0  0  0  0  0  0
  -22.8135  -31.2547   21.3319 H   0  0  0  0  0  0
  -23.3754  -35.9504   23.3270 H   0  0  0  0  0  0
  -24.3552  -36.8881   22.2081 H   0  0  0  0  0  0
  -23.7208  -37.6350   23.6747 H   0  0  0  0  0  0
  -26.2505  -31.3025   20.6131 H   0  0  0  0  0  0
  -26.9298  -30.6575   22.0620 H   0  0  0  0  0  0
  -28.1608  -28.4893   21.3028 H   0  0  0  0  0  0
  -25.8702  -25.6753   19.0053 H   0  0  0  0  0  0
  -24.0157  -27.2421   18.9482 H   0  0  0  0  0  0
  -23.9264  -30.4922   19.3911 H   0  0  0  0  0  0
  -22.8503  -29.1957   19.8129 H   0  0  0  0  0  0
  -25.1307  -36.1727   25.0800 H   0  0  0  0  0  0
  -21.0050  -28.3367   24.1304 H   0  0  0  0  0  0
  -20.5649  -26.2392   23.3649 H   0  0  0  0  0  0
  -21.6653  -26.7385   22.1224 H   0  0  0  0  0  0
  -19.6920  -25.6257   21.1294 H   0  0  0  0  0  0
  -19.6712  -27.3147   20.6731 H   0  0  0  0  0  0
  -17.4218  -26.6724   21.4028 H   0  0  0  0  0  0
  -18.0332  -26.0124   22.9031 H   0  0  0  0  0  0
  -19.7989  -30.7346   24.2168 H   0  0  0  0  0  0
  -17.5063  -31.6282   24.5191 H   0  0  0  0  0  0
  -15.5392  -30.3002   23.7693 H   0  0  0  0  0  0
  -15.8711  -28.0837   22.7088 H   0  0  0  0  0  0
  -24.5846  -30.7177   25.7623 H   0  0  0  0  0  0
  -24.8820  -32.3068   26.4589 H   0  0  0  0  0  0
  -25.7841  -30.9104   27.0238 H   0  0  0  0  0  0
  -26.3171  -29.6557   24.1479 H   0  0  0  0  0  0
  -27.3972  -29.7309   25.5174 H   0  0  0  0  0  0
  -27.9110  -30.4095   23.9955 H   0  0  0  0  0  0
  -27.2597  -33.3751   26.1916 H   0  0  0  0  0  0
  -28.3929  -32.6819   25.0407 H   0  0  0  0  0  0
  -28.0600  -31.8629   26.5582 H   0  0  0  0  0  0
  -28.2527  -38.0071   24.7513 H   0  0  0  0  0  0
  -28.1072  -36.2592   24.6272 H   0  0  0  0  0  0
  -27.2287  -37.1365   25.8876 H   0  0  0  0  0  0
  -20.9629  -29.8792   21.6694 H   0  0  0  0  0  0
  -26.0080  -38.2739   24.1465 H   0  0  0  0  0  0
  -28.2746  -21.8239   22.5735 H   0  0  0  0  0  0
  -28.5014  -19.7489   23.7131 H   0  0  0  0  0  0
  -29.3868  -19.7628   18.9464 H   0  0  0  0  0  0
  -29.2926  -23.0371   19.2415 H   0  0  0  0  0  0
  -25.6914  -17.1170   24.3612 H   0  0  0  0  0  0
  -26.1767  -16.6300   22.7257 H   0  0  0  0  0  0
  -26.3526  -18.3214   23.2412 H   0  0  0  0  0  0
  -28.6671  -16.4465   19.8134 H   0  0  0  0  0  0
  -29.5758  -16.5479   22.4580 H   0  0  0  0  0  0
  1 25  1  0  0  0
  1 30  2  0  0  0
  1 80  1  0  0  0
  2  3  1  0  0  0
  2 25  1  0  0  0
  2 85  1  0  0  0
  2 86  1  0  0  0
  3  4  1  0  0  0
  3 87  1  0  0  0
  3 88  1  0  0  0
  4  5  1  0  0  0
  4 89  1  0  0  0
  4 90  1  0  0  0
  5  6  1  0  0  0
  5 26  1  0  0  0
  5 91  1  0  0  0
  6 25  1  0  0  0
  6 92  1  0  0  0
  6 93  1  0  0  0
  7  8  2  0  0  0
  7 26  1  0  0  0
  7 29  1  0  0  0
  8  9  1  0  0  0
  8 22  1  0  0  0
  9 10  1  0  0  0
  9 27  2  0  0  0
 10 11  2  0  0  0
 10 15  1  0  0  0
 11 12  1  0  0  0
 11 94  1  0  0  0
 12 13  2  0  0  0
 12 95  1  0  0  0
 13 14  1  0  0  0
 13 31  1  0  0  0
 14 15  2  0  0  0
 14 96  1  0  0  0
 15 97  1  0  0  0
 16 17  2  0  0  0
 16 21  1  0  0  0
 16 31  1  0  0  0
 17 18  1  0  0  0
 17 98  1  0  0  0
 18 19  2  0  0  0
 18 99  1  0  0  0
 19 20  1  0  0  0
 19 24  1  0  0  0
 20 21  2  0  0  0
 20100  1  0  0  0
 21 23  1  0  0  0
 22 28  1  0  0  0
 22 32  2  0  0  0
 26 27  1  0  0  0
 28101  1  0  0  0
 28102  1  0  0  0
 29103  1  0  0  0
 29104  1  0  0  0
 33 34  1  0  0  0
 33 66  1  0  0  0
 33 70  2  0  0  0
 34 36  1  0  0  0
 34 59  1  0  0  0
 34105  1  0  0  0
 35 44  2  0  0  0
 35 45  1  0  0  0
 35 68  1  0  0  0
 36 56  1  0  0  0
 36106  1  0  0  0
 37 39  1  0  0  0
 37 47  1  0  0  0
 37 66  1  0  0  0
 37107  1  0  0  0
 38 43  2  0  0  0
 38 46  1  0  0  0
 38 47  1  0  0  0
 39 64  1  0  0  0
 39 67  2  0  0  0
 40 52  1  0  0  0
 40 53  2  0  0  0
 40 58  1  0  0  0
 41108  1  0  0  0
 41109  1  0  0  0
 41110  1  0  0  0
 41 48  1  0  0  0
 42 43  1  0  0  0
 42 66  1  0  0  0
 42111  1  0  0  0
 42112  1  0  0  0
 43 44  1  0  0  0
 44113  1  0  0  0
 45 46  2  0  0  0
 45114  1  0  0  0
 46115  1  0  0  0
 47116  1  0  0  0
 47117  1  0  0  0
 48 56  1  0  0  0
 48 65  1  0  0  0
 48118  1  0  0  0
 49 50  1  0  0  0
 49 53  1  0  0  0
 49 64  1  0  0  0
 49119  1  0  0  0
 50 51  1  0  0  0
 50120  1  0  0  0
 50121  1  0  0  0
 51 52  1  0  0  0
 51122  1  0  0  0
 51123  1  0  0  0
 52124  1  0  0  0
 52125  1  0  0  0
 53 54  1  0  0  0
 54 55  2  0  0  0
 54126  1  0  0  0
 55 57  1  0  0  0
 55127  1  0  0  0
 56 69  2  0  0  0
 57 58  2  0  0  0
 57128  1  0  0  0
 58129  1  0  0  0
 59 60  1  0  0  0
 59 61  1  0  0  0
 59 62  1  0  0  0
 60130  1  0  0  0
 60131  1  0  0  0
 60132  1  0  0  0
 61133  1  0  0  0
 61134  1  0  0  0
 61135  1  0  0  0
 62136  1  0  0  0
 62137  1  0  0  0
 62138  1  0  0  0
 63 65  1  0  0  0
 63139  1  0  0  0
 63140  1  0  0  0
 63141  1  0  0  0
 64142  1  0  0  0
 65143  1  0  0  0
 68 79  1  0  0  0
 71 72  2  0  0  0
 71 74  1  0  0  0
 71144  1  0  0  0
 72 75  1  0  0  0
 72145  1  0  0  0
 73 74  2  0  0  0
 73 76  1  0  0  0
 73146  1  0  0  0
 74 77  1  0  0  0
 75 76  2  0  0  0
 75 81  1  0  0  0
 76 80  1  0  0  0
 77 79  2  0  0  0
 77147  1  0  0  0
 78148  1  0  0  0
 78149  1  0  0  0
 78150  1  0  0  0
 78 84  1  0  0  0
 80151  1  0  0  0
 81 84  1  0  0  0
 81152  1  0  0  0
 82 84  2  0  0  0
 83 84  2  0  0  0
M  ISO  4   1 100  68 101  79 101  80 100
M  END
> <chiral flag>
0

> <version>
0

> <s_m_source_file>
/data/baiqing/PycharmProjects/Reinvent-master-3.2/result/LINK_invent/BTK/process_docking_weight1_custom_product_contain_oxygen_bond_distance_aromatic_linkinvent_7_9_3/rearranged_h_0070.sdf

> <i_m_source_file_index>
3

> <r_mmod_Potential_Energy-OPLS-2005>
1362.15747070312

> <r_mmod_Stretch_Energy-OPLS-2005>
766.781188964844

> <r_mmod_Bend_Energy-OPLS-2005>
484.854766845703

> <r_mmod_Torsional_Energy-OPLS-2005>
267.848480224609

> <r_mmod_Improper_Torsional_Energy-OPLS-2005>
14.5207653045654

> <r_mmod_Van_der_Waal_Energy-OPLS-2005>
114.41544342041

> <r_mmod_Electrostatic_Energy-OPLS-2005>
-669.792907714844

> <r_mmod_Solvation_Energy-OPLS-2005>
-273.307556152344

> <b_mmod_Minimization_Converged-OPLS-2005>
0

> <r_mmod_RMS_Derivative-OPLS-2005>
2.31482911109924

$$$$
3
                    3D
 Structure written by MMmdl.
156165  0  0  1  0            999 V2000
  -30.6175  -14.8156   20.4192 C   0  0  0  0  0  0
  -30.4248  -12.5056   19.4633 C   0  0  0  0  0  0
  -29.5040  -12.4919   18.2272 C   0  0  0  0  0  0
  -28.0357  -12.3084   18.6554 C   0  0  0  0  0  0
  -27.6283  -13.2408   19.8283 C   0  0  2  0  0  0
  -28.6791  -13.2456   20.9568 C   0  0  0  0  0  0
  -25.2488  -13.8212   20.5704 C   0  0  0  0  0  0
  -24.1788  -13.0443   20.9221 C   0  0  0  0  0  0
  -24.6398  -11.6930   20.8741 C   0  0  0  0  0  0
  -23.9083  -10.4297   21.0399 C   0  0  0  0  0  0
  -24.3621   -9.4208   21.9183 C   0  0  0  0  0  0
  -23.6294   -8.2236   22.0751 C   0  0  0  0  0  0
  -22.4281   -8.0277   21.3540 C   0  0  0  0  0  0
  -21.9916   -9.0253   20.4639 C   0  0  0  0  0  0
  -22.7248  -10.2137   20.3056 C   0  0  0  0  0  0
  -21.6857   -6.0744   22.5279 C   0  0  0  0  0  0
  -21.4013   -6.5640   23.8215 C   0  0  0  0  0  0
  -21.3661   -5.6789   24.9171 C   0  0  0  0  0  0
  -21.6044   -4.3054   24.7221 C   0  0  0  0  0  0
  -21.8820   -3.8149   23.4341 C   0  0  0  0  0  0
  -21.9187   -4.6969   22.3399 C   0  0  0  0  0  0
  -22.7816  -13.5226   21.1868 C   0  0  0  0  0  0
  -22.1660   -4.2158   21.0977 F   0  0  0  0  0  0
  -21.5625   -3.4533   25.7732 F   0  0  0  0  0  0
  -29.9586  -13.6049   20.3400 N   0  0  0  0  0  0
  -26.2889  -12.9423   20.3217 N   0  0  0  0  0  0
  -25.9325  -11.6572   20.5718 N   0  0  0  0  0  0
  -22.0449  -12.8224   22.0414 N   0  0  0  0  0  0
  -25.4180  -15.1933   20.4200 N   0  0  0  0  0  0
  -31.8382  -14.8293   20.2502 O   0  0  0  0  0  0
  -21.6641   -6.8886   21.4244 O   0  0  0  0  0  0
  -22.3492  -14.5518   20.6696 O   0  0  0  0  0  0
  -24.6301  -31.8555   23.1970 C   0  0  0  0  0  0
  -25.9139  -32.4769   23.8313 C   0  0  1  0  0  0
  -27.2070  -27.2397   20.1446 C   0  0  0  0  0  0
  -25.5926  -33.8577   24.2264 N   0  0  0  0  0  0
  -23.4271  -30.4770   21.5415 C   0  0  2  0  0  0
  -24.8770  -28.9218   20.1120 C   0  0  0  0  0  0
  -22.7492  -29.4602   22.4909 C   0  0  0  0  0  0
  -18.0317  -28.1328   22.8472 C   0  0  0  0  0  0
  -24.1496  -36.7284   23.2644 C   0  0  0  0  0  0
  -25.9744  -30.7694   21.3734 C   0  0  0  0  0  0
  -26.0510  -29.3853   20.7221 C   0  0  0  0  0  0
  -27.2253  -28.5581   20.7204 C   0  0  0  0  0  0
  -26.0151  -26.8513   19.5057 C   0  0  0  0  0  0
  -24.8648  -27.6636   19.4914 C   0  0  0  0  0  0
  -23.6477  -29.8123   20.1561 C   0  0  0  0  0  0
  -25.4122  -36.3090   24.0325 C   0  0  1  0  0  0
  -20.5916  -28.3665   23.1273 C   0  0  2  0  0  0
  -20.6815  -26.9395   22.5390 C   0  0  0  0  0  0
  -19.5796  -26.6392   21.5170 C   0  0  0  0  0  0
  -18.1988  -26.7875   22.1621 C   0  0  0  0  0  0
  -19.1564  -28.8808   23.2860 C   0  0  0  0  0  0
  -18.9466  -30.1418   23.8849 C   0  0  0  0  0  0
  -17.6451  -30.6538   24.0527 C   0  0  0  0  0  0
  -25.9055  -34.9454   23.5094 C   0  0  0  0  0  0
  -16.5357  -29.9023   23.6307 C   0  0  0  0  0  0
  -16.7296  -28.6449   23.0322 C   0  0  0  0  0  0
  -26.4505  -31.6585   25.0683 C   0  0  0  0  0  0
  -25.3725  -31.3701   26.1389 C   0  0  0  0  0  0
  -27.0337  -30.3008   24.6149 C   0  0  0  0  0  0
  -27.6054  -32.4311   25.7466 C   0  0  0  0  0  0
  -27.5571  -37.1806   24.8469 C   0  0  0  0  0  0
  -21.4199  -29.3021   22.3674 N   0  0  0  0  0  0
  -26.4299  -37.3769   23.9397 N   0  0  0  0  0  0
  -24.6970  -31.0495   22.0956 N   0  0  0  0  0  0
  -23.4220  -28.8129   23.2982 O   0  0  0  0  0  0
  -28.2626  -26.2968   20.1349 O   0  0  0  0  0  0
  -26.5623  -34.8922   22.4670 O   0  0  0  0  0  0
  -23.5455  -32.1381   23.7291 O   0  0  0  0  0  0
  -29.3817  -18.5660   20.3061 C   0  0  0  0  0  0
  -29.0114  -17.0097   22.1357 C   0  0  0  0  0  0
  -28.1601  -19.3329   22.2619 C   0  0  0  0  0  0
  -28.7604  -19.7071   21.0092 C   0  0  0  0  0  0
  -29.4836  -17.1934   20.8287 C   0  0  0  0  0  0
  -28.3539  -18.0418   22.8216 C   0  0  0  0  0  0
  -28.3966  -23.7197   20.4284 C   0  0  0  0  0  0
  -29.0055  -21.6230   19.2698 C   0  0  0  0  0  0
  -28.1015  -25.0373   20.8028 C   0  0  0  0  0  0
  -28.8718  -23.1631   19.1096 C   0  0  0  0  0  0
  -28.2531  -22.4069   21.2742 C   0  0  0  0  0  0
  -27.1890  -20.2268   23.0276 C   0  0  0  0  0  0
  -28.6889  -21.1571   20.5083 N   0  0  0  0  0  0
  -29.9317  -15.9865   20.0715 N   0  0  0  0  0  0
  -29.3536  -20.9269   18.3123 O   0  0  0  0  0  0
  -27.8556  -17.7543   24.0481 F   0  0  0  0  0  0
  -31.4617  -12.6339   19.1518 H   0  0  0  0  0  0
  -30.3857  -11.5517   19.9904 H   0  0  0  0  0  0
  -29.7974  -11.6915   17.5472 H   0  0  0  0  0  0
  -29.6132  -13.4217   17.6701 H   0  0  0  0  0  0
  -27.9162  -11.2661   18.9539 H   0  0  0  0  0  0
  -27.3719  -12.4548   17.8028 H   0  0  0  0  0  0
  -27.5998  -14.2446   19.4030 H   0  0  0  0  0  0
  -28.7422  -12.2733   21.4477 H   0  0  0  0  0  0
  -28.4050  -13.9689   21.7250 H   0  0  0  0  0  0
  -25.2771   -9.5690   22.4760 H   0  0  0  0  0  0
  -24.0007   -7.4637   22.7477 H   0  0  0  0  0  0
  -21.0845   -8.8778   19.8944 H   0  0  0  0  0  0
  -22.3705  -10.9674   19.6161 H   0  0  0  0  0  0
  -21.2008   -7.6151   23.9725 H   0  0  0  0  0  0
  -21.1483   -6.0515   25.9078 H   0  0  0  0  0  0
  -22.0597   -2.7614   23.2833 H   0  0  0  0  0  0
  -22.4076  -11.9930   22.4861 H   0  0  0  0  0  0
  -21.1045  -13.1224   22.2554 H   0  0  0  0  0  0
  -24.6556  -15.8502   20.5534 H   0  0  0  0  0  0
  -26.2855  -15.6410   20.1462 H   0  0  0  0  0  0
  -26.7194  -32.5458   23.1047 H   0  0  0  0  0  0
  -25.0046  -33.9722   25.0402 H   0  0  0  0  0  0
  -22.7234  -31.2981   21.3991 H   0  0  0  0  0  0
  -23.3760  -35.9606   23.3314 H   0  0  0  0  0  0
  -24.3567  -36.8905   22.2044 H   0  0  0  0  0  0
  -23.7245  -37.6488   23.6670 H   0  0  0  0  0  0
  -26.1012  -31.5303   20.6019 H   0  0  0  0  0  0
  -26.8558  -30.8305   21.9984 H   0  0  0  0  0  0
  -28.1319  -28.9134   21.1905 H   0  0  0  0  0  0
  -25.9720  -25.8850   19.0272 H   0  0  0  0  0  0
  -23.9664  -27.3084   19.0019 H   0  0  0  0  0  0
  -23.7770  -30.5945   19.4086 H   0  0  0  0  0  0
  -22.7632  -29.2488   19.8463 H   0  0  0  0  0  0
  -25.1319  -36.1910   25.0805 H   0  0  0  0  0  0
  -20.9969  -28.3231   24.1403 H   0  0  0  0  0  0
  -20.5659  -26.2266   23.3561 H   0  0  0  0  0  0
  -21.6683  -26.7394   22.1208 H   0  0  0  0  0  0
  -19.6960  -25.6329   21.1121 H   0  0  0  0  0  0
  -19.6751  -27.3252   20.6740 H   0  0  0  0  0  0
  -17.4236  -26.6538   21.4064 H   0  0  0  0  0  0
  -18.0467  -26.0019   22.9033 H   0  0  0  0  0  0
  -19.7927  -30.7252   24.2208 H   0  0  0  0  0  0
  -17.4993  -31.6214   24.5109 H   0  0  0  0  0  0
  -15.5354  -30.2875   23.7639 H   0  0  0  0  0  0
  -15.8681  -28.0771   22.7035 H   0  0  0  0  0  0
  -24.5933  -30.7026   25.7700 H   0  0  0  0  0  0
  -24.8874  -32.2847   26.4804 H   0  0  0  0  0  0
  -25.8034  -30.8878   27.0179 H   0  0  0  0  0  0
  -26.2899  -29.6742   24.1208 H   0  0  0  0  0  0
  -27.4073  -29.7268   25.4647 H   0  0  0  0  0  0
  -27.8764  -30.4290   23.9346 H   0  0  0  0  0  0
  -27.2694  -33.3653   26.1982 H   0  0  0  0  0  0
  -28.3905  -32.6796   25.0312 H   0  0  0  0  0  0
  -28.0673  -31.8455   26.5430 H   0  0  0  0  0  0
  -28.2624  -38.0079   24.7490 H   0  0  0  0  0  0
  -28.1046  -36.2601   24.6355 H   0  0  0  0  0  0
  -27.2275  -37.1524   25.8877 H   0  0  0  0  0  0
  -20.9399  -29.8721   21.6860 H   0  0  0  0  0  0
  -26.0180  -38.2845   24.1397 H   0  0  0  0  0  0
  -29.7852  -18.7308   19.3184 H   0  0  0  0  0  0
  -29.0847  -16.0427   22.6101 H   0  0  0  0  0  0
  -27.7360  -25.2158   21.8069 H   0  0  0  0  0  0
  -29.8237  -23.6018   18.8205 H   0  0  0  0  0  0
  -28.1356  -23.3865   18.3379 H   0  0  0  0  0  0
  -27.1939  -22.3415   21.5198 H   0  0  0  0  0  0
  -28.8234  -22.5117   22.1973 H   0  0  0  0  0  0
  -26.3812  -20.5511   22.3711 H   0  0  0  0  0  0
  -27.6784  -21.0842   23.4850 H   0  0  0  0  0  0
  -26.6867  -19.6919   23.8334 H   0  0  0  0  0  0
  -30.2317  -16.2496   19.1416 H   0  0  0  0  0  0
  1 25  1  0  0  0
  1 30  2  0  0  0
  1 84  1  0  0  0
  2  3  1  0  0  0
  2 25  1  0  0  0
  2 87  1  0  0  0
  2 88  1  0  0  0
  3  4  1  0  0  0
  3 89  1  0  0  0
  3 90  1  0  0  0
  4  5  1  0  0  0
  4 91  1  0  0  0
  4 92  1  0  0  0
  5  6  1  0  0  0
  5 26  1  0  0  0
  5 93  1  0  0  0
  6 25  1  0  0  0
  6 94  1  0  0  0
  6 95  1  0  0  0
  7  8  2  0  0  0
  7 26  1  0  0  0
  7 29  1  0  0  0
  8  9  1  0  0  0
  8 22  1  0  0  0
  9 10  1  0  0  0
  9 27  2  0  0  0
 10 11  2  0  0  0
 10 15  1  0  0  0
 11 12  1  0  0  0
 11 96  1  0  0  0
 12 13  2  0  0  0
 12 97  1  0  0  0
 13 14  1  0  0  0
 13 31  1  0  0  0
 14 15  2  0  0  0
 14 98  1  0  0  0
 15 99  1  0  0  0
 16 17  2  0  0  0
 16 21  1  0  0  0
 16 31  1  0  0  0
 17 18  1  0  0  0
 17100  1  0  0  0
 18 19  2  0  0  0
 18101  1  0  0  0
 19 20  1  0  0  0
 19 24  1  0  0  0
 20 21  2  0  0  0
 20102  1  0  0  0
 21 23  1  0  0  0
 22 28  1  0  0  0
 22 32  2  0  0  0
 26 27  1  0  0  0
 28103  1  0  0  0
 28104  1  0  0  0
 29105  1  0  0  0
 29106  1  0  0  0
 33 34  1  0  0  0
 33 66  1  0  0  0
 33 70  2  0  0  0
 34 36  1  0  0  0
 34 59  1  0  0  0
 34107  1  0  0  0
 35 44  2  0  0  0
 35 45  1  0  0  0
 35 68  1  0  0  0
 36 56  1  0  0  0
 36108  1  0  0  0
 37 39  1  0  0  0
 37 47  1  0  0  0
 37 66  1  0  0  0
 37109  1  0  0  0
 38 43  2  0  0  0
 38 46  1  0  0  0
 38 47  1  0  0  0
 39 64  1  0  0  0
 39 67  2  0  0  0
 40 52  1  0  0  0
 40 53  2  0  0  0
 40 58  1  0  0  0
 41110  1  0  0  0
 41111  1  0  0  0
 41112  1  0  0  0
 41 48  1  0  0  0
 42 43  1  0  0  0
 42 66  1  0  0  0
 42113  1  0  0  0
 42114  1  0  0  0
 43 44  1  0  0  0
 44115  1  0  0  0
 45 46  2  0  0  0
 45116  1  0  0  0
 46117  1  0  0  0
 47118  1  0  0  0
 47119  1  0  0  0
 48 56  1  0  0  0
 48 65  1  0  0  0
 48120  1  0  0  0
 49 50  1  0  0  0
 49 53  1  0  0  0
 49 64  1  0  0  0
 49121  1  0  0  0
 50 51  1  0  0  0
 50122  1  0  0  0
 50123  1  0  0  0
 51 52  1  0  0  0
 51124  1  0  0  0
 51125  1  0  0  0
 52126  1  0  0  0
 52127  1  0  0  0
 53 54  1  0  0  0
 54 55  2  0  0  0
 54128  1  0  0  0
 55 57  1  0  0  0
 55129  1  0  0  0
 56 69  2  0  0  0
 57 58  2  0  0  0
 57130  1  0  0  0
 58131  1  0  0  0
 59 60  1  0  0  0
 59 61  1  0  0  0
 59 62  1  0  0  0
 60132  1  0  0  0
 60133  1  0  0  0
 60134  1  0  0  0
 61135  1  0  0  0
 61136  1  0  0  0
 61137  1  0  0  0
 62138  1  0  0  0
 62139  1  0  0  0
 62140  1  0  0  0
 63 65  1  0  0  0
 63141  1  0  0  0
 63142  1  0  0  0
 63143  1  0  0  0
 64144  1  0  0  0
 65145  1  0  0  0
 68 79  1  0  0  0
 71 74  2  0  0  0
 71 75  1  0  0  0
 71146  1  0  0  0
 72 75  2  0  0  0
 72 76  1  0  0  0
 72147  1  0  0  0
 73 74  1  0  0  0
 73 76  2  0  0  0
 73 82  1  0  0  0
 74 83  1  0  0  0
 75 84  1  0  0  0
 76 86  1  0  0  0
 77 79  2  0  0  0
 77 80  1  0  0  0
 77 81  1  0  0  0
 78 80  1  0  0  0
 78 83  1  0  0  0
 78 85  2  0  0  0
 79148  1  0  0  0
 80149  1  0  0  0
 80150  1  0  0  0
 81 83  1  0  0  0
 81151  1  0  0  0
 81152  1  0  0  0
 82153  1  0  0  0
 82154  1  0  0  0
 82155  1  0  0  0
 84156  1  0  0  0
M  ISO  4   1 100  68 101  79 101  84 100
M  END
> <chiral flag>
0

> <version>
0

> <s_m_source_file>
/data/baiqing/PycharmProjects/Reinvent-master-3.2/result/LINK_invent/BTK/process_docking_weight1_custom_product_contain_oxygen_bond_distance_aromatic_linkinvent_7_9_3/rearranged_h_0070.sdf

> <i_m_source_file_index>
4

> <r_mmod_Potential_Energy-OPLS-2005>
422.591674804688

> <r_mmod_Stretch_Energy-OPLS-2005>
152.652420043945

> <r_mmod_Bend_Energy-OPLS-2005>
231.613342285156

> <r_mmod_Torsional_Energy-OPLS-2005>
323.292877197266

> <r_mmod_Improper_Torsional_Energy-OPLS-2005>
25.0149192810059

> <r_mmod_Van_der_Waal_Energy-OPLS-2005>
136.778854370117

> <r_mmod_Electrostatic_Energy-OPLS-2005>
-360.988677978516

> <r_mmod_Solvation_Energy-OPLS-2005>
-204.219818115234

> <b_mmod_Minimization_Converged-OPLS-2005>
0

> <r_mmod_RMS_Derivative-OPLS-2005>
4.3979811668396

$$$$
4
                    3D
 Structure written by MMmdl.
155163  0  0  1  0            999 V2000
  -30.5904  -14.6830   20.4828 C   0  0  0  0  0  0
  -30.4427  -12.4142   19.4582 C   0  0  0  0  0  0
  -29.5104  -12.5064   18.2284 C   0  0  0  0  0  0
  -28.0342  -12.3367   18.6408 C   0  0  0  0  0  0
  -27.6514  -13.2152   19.8610 C   0  0  2  0  0  0
  -28.6953  -13.0810   20.9917 C   0  0  0  0  0  0
  -25.2565  -13.8162   20.5685 C   0  0  0  0  0  0
  -24.1832  -13.0431   20.9196 C   0  0  0  0  0  0
  -24.6393  -11.6901   20.8741 C   0  0  0  0  0  0
  -23.9060  -10.4288   21.0411 C   0  0  0  0  0  0
  -24.3613   -9.4207   21.9189 C   0  0  0  0  0  0
  -23.6292   -8.2241   22.0756 C   0  0  0  0  0  0
  -22.4273   -8.0277   21.3544 C   0  0  0  0  0  0
  -21.9908   -9.0254   20.4645 C   0  0  0  0  0  0
  -22.7235  -10.2135   20.3060 C   0  0  0  0  0  0
  -21.6853   -6.0739   22.5281 C   0  0  0  0  0  0
  -21.4012   -6.5646   23.8213 C   0  0  0  0  0  0
  -21.3658   -5.6796   24.9175 C   0  0  0  0  0  0
  -21.6043   -4.3059   24.7223 C   0  0  0  0  0  0
  -21.8820   -3.8151   23.4346 C   0  0  0  0  0  0
  -21.9193   -4.6966   22.3403 C   0  0  0  0  0  0
  -22.7854  -13.5231   21.1859 C   0  0  0  0  0  0
  -22.1664   -4.2152   21.0978 F   0  0  0  0  0  0
  -21.5626   -3.4541   25.7737 F   0  0  0  0  0  0
  -30.0069  -13.4404   20.4285 N   0  0  0  0  0  0
  -26.2979  -12.9339   20.3303 N   0  0  0  0  0  0
  -25.9319  -11.6497   20.5754 N   0  0  0  0  0  0
  -22.0492  -12.8222   22.0408 N   0  0  0  0  0  0
  -25.4282  -15.1883   20.4088 N   0  0  0  0  0  0
  -31.7572  -14.8465   20.1144 O   0  0  0  0  0  0
  -21.6638   -6.8879   21.4241 O   0  0  0  0  0  0
  -22.3545  -14.5540   20.6707 O   0  0  0  0  0  0
  -24.6271  -31.8583   23.1999 C   0  0  0  0  0  0
  -25.9103  -32.4777   23.8342 C   0  0  1  0  0  0
  -27.2269  -27.3002   20.1292 C   0  0  0  0  0  0
  -25.5901  -33.8574   24.2266 N   0  0  0  0  0  0
  -23.4228  -30.4784   21.5432 C   0  0  2  0  0  0
  -24.8719  -28.9248   20.1161 C   0  0  0  0  0  0
  -22.7482  -29.4610   22.4940 C   0  0  0  0  0  0
  -18.0278  -28.1395   22.8493 C   0  0  0  0  0  0
  -24.1478  -36.7297   23.2638 C   0  0  0  0  0  0
  -25.9641  -30.7826   21.3732 C   0  0  0  0  0  0
  -26.0407  -29.4049   20.7223 C   0  0  0  0  0  0
  -27.2235  -28.6037   20.7182 C   0  0  0  0  0  0
  -26.0382  -26.8734   19.5012 C   0  0  0  0  0  0
  -24.8723  -27.6640   19.4969 C   0  0  0  0  0  0
  -23.6404  -29.8073   20.1610 C   0  0  0  0  0  0
  -25.4103  -36.3085   24.0326 C   0  0  1  0  0  0
  -20.5879  -28.3697   23.1283 C   0  0  2  0  0  0
  -20.6757  -26.9417   22.5410 C   0  0  0  0  0  0
  -19.5731  -26.6395   21.5212 C   0  0  0  0  0  0
  -18.1917  -26.7939   22.1630 C   0  0  0  0  0  0
  -19.1532  -28.8862   23.2886 C   0  0  0  0  0  0
  -18.9458  -30.1462   23.8906 C   0  0  0  0  0  0
  -17.6459  -30.6599   24.0564 C   0  0  0  0  0  0
  -25.9046  -34.9453   23.5104 C   0  0  0  0  0  0
  -16.5349  -29.9095   23.6334 C   0  0  0  0  0  0
  -16.7265  -28.6509   23.0364 C   0  0  0  0  0  0
  -26.4482  -31.6593   25.0721 C   0  0  0  0  0  0
  -25.3712  -31.3730   26.1448 C   0  0  0  0  0  0
  -27.0315  -30.3009   24.6186 C   0  0  0  0  0  0
  -27.6042  -32.4328   25.7492 C   0  0  0  0  0  0
  -27.5577  -37.1795   24.8459 C   0  0  0  0  0  0
  -21.4190  -29.3046   22.3682 N   0  0  0  0  0  0
  -26.4281  -37.3781   23.9416 N   0  0  0  0  0  0
  -24.6905  -31.0572   22.0960 N   0  0  0  0  0  0
  -23.4199  -28.8164   23.3036 O   0  0  0  0  0  0
  -28.3335  -26.4350   20.1260 O   0  0  0  0  0  0
  -26.5638  -34.8923   22.4685 O   0  0  0  0  0  0
  -23.5430  -32.1387   23.7315 O   0  0  0  0  0  0
  -28.7917  -19.4060   21.3359 C   0  0  0  0  0  0
  -30.3391  -19.3084   19.5139 C   0  0  0  0  0  0
  -28.9124  -17.9861   21.5058 C   0  0  0  0  0  0
  -29.4975  -20.1208   20.3289 C   0  0  0  0  0  0
  -29.7616  -17.1803   20.6825 C   0  0  0  0  0  0
  -30.4677  -17.8903   19.6693 C   0  0  0  0  0  0
  -28.1604  -25.0757   20.4939 C   0  0  0  0  0  0
  -28.9096  -23.9878   20.0813 C   0  0  0  0  0  0
  -28.6384  -22.5948   20.5991 C   0  0  0  0  0  0
  -28.0898  -17.3243   22.6001 C   0  0  0  0  0  0
  -30.0474  -24.1760   19.0876 C   0  0  0  0  0  0
  -29.4255  -21.5816   20.0897 N   0  0  0  0  0  0
  -29.7618  -15.7143   20.8625 N   0  0  0  0  0  0
  -27.7651  -22.3543   21.4357 O   0  0  0  0  0  0
  -31.2479  -17.2177   18.7907 F   0  0  0  0  0  0
  -31.4818  -12.5513   19.1546 H   0  0  0  0  0  0
  -30.3915  -11.4209   19.9078 H   0  0  0  0  0  0
  -29.7807  -11.7477   17.4928 H   0  0  0  0  0  0
  -29.6443  -13.4709   17.7358 H   0  0  0  0  0  0
  -27.8808  -11.2847   18.8839 H   0  0  0  0  0  0
  -27.3773  -12.5517   17.7970 H   0  0  0  0  0  0
  -27.6660  -14.2473   19.5110 H   0  0  0  0  0  0
  -28.7169  -12.0592   21.3737 H   0  0  0  0  0  0
  -28.4328  -13.7092   21.8442 H   0  0  0  0  0  0
  -25.2758   -9.5687   22.4767 H   0  0  0  0  0  0
  -24.0002   -7.4633   22.7477 H   0  0  0  0  0  0
  -21.0840   -8.8771   19.8951 H   0  0  0  0  0  0
  -22.3694  -10.9675   19.6173 H   0  0  0  0  0  0
  -21.2006   -7.6152   23.9718 H   0  0  0  0  0  0
  -21.1478   -6.0526   25.9077 H   0  0  0  0  0  0
  -22.0602   -2.7610   23.2845 H   0  0  0  0  0  0
  -22.4107  -11.9877   22.4782 H   0  0  0  0  0  0
  -21.1113  -13.1255   22.2613 H   0  0  0  0  0  0
  -24.6575  -15.8391   20.5112 H   0  0  0  0  0  0
  -26.2659  -15.6228   20.0443 H   0  0  0  0  0  0
  -26.7174  -32.5454   23.1096 H   0  0  0  0  0  0
  -24.9985  -33.9710   25.0367 H   0  0  0  0  0  0
  -22.7166  -31.2981   21.3952 H   0  0  0  0  0  0
  -23.3743  -35.9628   23.3301 H   0  0  0  0  0  0
  -24.3567  -36.8920   22.2053 H   0  0  0  0  0  0
  -23.7231  -37.6494   23.6669 H   0  0  0  0  0  0
  -26.0891  -31.5404   20.5986 H   0  0  0  0  0  0
  -26.8465  -30.8397   21.9991 H   0  0  0  0  0  0
  -28.1240  -28.9684   21.1923 H   0  0  0  0  0  0
  -26.0067  -25.9055   19.0215 H   0  0  0  0  0  0
  -23.9771  -27.2884   19.0204 H   0  0  0  0  0  0
  -23.7611  -30.5806   19.4011 H   0  0  0  0  0  0
  -22.7599  -29.2354   19.8618 H   0  0  0  0  0  0
  -25.1279  -36.1927   25.0815 H   0  0  0  0  0  0
  -20.9962  -28.3272   24.1407 H   0  0  0  0  0  0
  -20.5631  -26.2314   23.3614 H   0  0  0  0  0  0
  -21.6628  -26.7429   22.1215 H   0  0  0  0  0  0
  -19.6881  -25.6308   21.1233 H   0  0  0  0  0  0
  -19.6656  -27.3210   20.6745 H   0  0  0  0  0  0
  -17.4171  -26.6685   21.4048 H   0  0  0  0  0  0
  -18.0321  -26.0084   22.9028 H   0  0  0  0  0  0
  -19.7935  -30.7274   24.2285 H   0  0  0  0  0  0
  -17.5013  -31.6276   24.5167 H   0  0  0  0  0  0
  -15.5348  -30.2998   23.7661 H   0  0  0  0  0  0
  -15.8666  -28.0827   22.7092 H   0  0  0  0  0  0
  -24.5890  -30.7073   25.7779 H   0  0  0  0  0  0
  -24.8897  -32.2891   26.4880 H   0  0  0  0  0  0
  -25.8031  -30.8906   27.0225 H   0  0  0  0  0  0
  -26.2884  -29.6772   24.1201 H   0  0  0  0  0  0
  -27.3984  -29.7258   25.4700 H   0  0  0  0  0  0
  -27.8771  -30.4281   23.9420 H   0  0  0  0  0  0
  -27.2654  -33.3631   26.2064 H   0  0  0  0  0  0
  -28.3858  -32.6882   25.0323 H   0  0  0  0  0  0
  -28.0706  -31.8456   26.5413 H   0  0  0  0  0  0
  -28.2581  -38.0107   24.7534 H   0  0  0  0  0  0
  -28.1084  -36.2642   24.6246 H   0  0  0  0  0  0
  -27.2303  -37.1394   25.8862 H   0  0  0  0  0  0
  -20.9376  -29.8774   21.6890 H   0  0  0  0  0  0
  -26.0162  -38.2848   24.1444 H   0  0  0  0  0  0
  -28.1333  -19.9473   21.9999 H   0  0  0  0  0  0
  -30.9029  -19.7725   18.7182 H   0  0  0  0  0  0
  -27.3411  -24.9612   21.1921 H   0  0  0  0  0  0
  -27.5994  -18.0604   23.2380 H   0  0  0  0  0  0
  -28.7215  -16.7057   23.2386 H   0  0  0  0  0  0
  -27.3152  -16.6912   22.1661 H   0  0  0  0  0  0
  -30.1066  -25.2087   18.7423 H   0  0  0  0  0  0
  -29.9036  -23.5466   18.2079 H   0  0  0  0  0  0
  -31.0041  -23.9245   19.5471 H   0  0  0  0  0  0
  -30.0759  -21.9251   19.3967 H   0  0  0  0  0  0
  -28.9130  -15.3667   21.2780 H   0  0  0  0  0  0
  1 25  1  0  0  0
  1 30  2  0  0  0
  1 83  1  0  0  0
  2  3  1  0  0  0
  2 25  1  0  0  0
  2 86  1  0  0  0
  2 87  1  0  0  0
  3  4  1  0  0  0
  3 88  1  0  0  0
  3 89  1  0  0  0
  4  5  1  0  0  0
  4 90  1  0  0  0
  4 91  1  0  0  0
  5  6  1  0  0  0
  5 26  1  0  0  0
  5 92  1  0  0  0
  6 25  1  0  0  0
  6 93  1  0  0  0
  6 94  1  0  0  0
  7  8  2  0  0  0
  7 26  1  0  0  0
  7 29  1  0  0  0
  8  9  1  0  0  0
  8 22  1  0  0  0
  9 10  1  0  0  0
  9 27  2  0  0  0
 10 11  2  0  0  0
 10 15  1  0  0  0
 11 12  1  0  0  0
 11 95  1  0  0  0
 12 13  2  0  0  0
 12 96  1  0  0  0
 13 14  1  0  0  0
 13 31  1  0  0  0
 14 15  2  0  0  0
 14 97  1  0  0  0
 15 98  1  0  0  0
 16 17  2  0  0  0
 16 21  1  0  0  0
 16 31  1  0  0  0
 17 18  1  0  0  0
 17 99  1  0  0  0
 18 19  2  0  0  0
 18100  1  0  0  0
 19 20  1  0  0  0
 19 24  1  0  0  0
 20 21  2  0  0  0
 20101  1  0  0  0
 21 23  1  0  0  0
 22 28  1  0  0  0
 22 32  2  0  0  0
 26 27  1  0  0  0
 28102  1  0  0  0
 28103  1  0  0  0
 29104  1  0  0  0
 29105  1  0  0  0
 33 34  1  0  0  0
 33 66  1  0  0  0
 33 70  2  0  0  0
 34 36  1  0  0  0
 34 59  1  0  0  0
 34106  1  0  0  0
 35 44  2  0  0  0
 35 45  1  0  0  0
 35 68  1  0  0  0
 36 56  1  0  0  0
 36107  1  0  0  0
 37 39  1  0  0  0
 37 47  1  0  0  0
 37 66  1  0  0  0
 37108  1  0  0  0
 38 43  2  0  0  0
 38 46  1  0  0  0
 38 47  1  0  0  0
 39 64  1  0  0  0
 39 67  2  0  0  0
 40 52  1  0  0  0
 40 53  2  0  0  0
 40 58  1  0  0  0
 41109  1  0  0  0
 41110  1  0  0  0
 41111  1  0  0  0
 41 48  1  0  0  0
 42 43  1  0  0  0
 42 66  1  0  0  0
 42112  1  0  0  0
 42113  1  0  0  0
 43 44  1  0  0  0
 44114  1  0  0  0
 45 46  2  0  0  0
 45115  1  0  0  0
 46116  1  0  0  0
 47117  1  0  0  0
 47118  1  0  0  0
 48 56  1  0  0  0
 48 65  1  0  0  0
 48119  1  0  0  0
 49 50  1  0  0  0
 49 53  1  0  0  0
 49 64  1  0  0  0
 49120  1  0  0  0
 50 51  1  0  0  0
 50121  1  0  0  0
 50122  1  0  0  0
 51 52  1  0  0  0
 51123  1  0  0  0
 51124  1  0  0  0
 52125  1  0  0  0
 52126  1  0  0  0
 53 54  1  0  0  0
 54 55  2  0  0  0
 54127  1  0  0  0
 55 57  1  0  0  0
 55128  1  0  0  0
 56 69  2  0  0  0
 57 58  2  0  0  0
 57129  1  0  0  0
 58130  1  0  0  0
 59 60  1  0  0  0
 59 61  1  0  0  0
 59 62  1  0  0  0
 60131  1  0  0  0
 60132  1  0  0  0
 60133  1  0  0  0
 61134  1  0  0  0
 61135  1  0  0  0
 61136  1  0  0  0
 62137  1  0  0  0
 62138  1  0  0  0
 62139  1  0  0  0
 63 65  1  0  0  0
 63140  1  0  0  0
 63141  1  0  0  0
 63142  1  0  0  0
 64143  1  0  0  0
 65144  1  0  0  0
 68 77  1  0  0  0
 71 73  2  0  0  0
 71 74  1  0  0  0
 71145  1  0  0  0
 72 74  2  0  0  0
 72 76  1  0  0  0
 72146  1  0  0  0
 73 75  1  0  0  0
 73 80  1  0  0  0
 74 82  1  0  0  0
 75 76  2  0  0  0
 75 83  1  0  0  0
 76 85  1  0  0  0
 77 78  2  0  0  0
 77147  1  0  0  0
 78 79  1  0  0  0
 78 81  1  0  0  0
 79 82  1  0  0  0
 79 84  2  0  0  0
 80148  1  0  0  0
 80149  1  0  0  0
 80150  1  0  0  0
 81151  1  0  0  0
 81152  1  0  0  0
 81153  1  0  0  0
 82154  1  0  0  0
 83155  1  0  0  0
M  ISO  4   1 100  68 101  77 101  83 100
M  END
> <chiral flag>
0

> <version>
0

> <s_m_source_file>
/data/baiqing/PycharmProjects/Reinvent-master-3.2/result/LINK_invent/BTK/process_docking_weight1_custom_product_contain_oxygen_bond_distance_aromatic_linkinvent_7_9_3/rearranged_h_0070.sdf

> <i_m_source_file_index>
5

> <r_mmod_Potential_Energy-OPLS-2005>
25.587532043457

> <r_mmod_Stretch_Energy-OPLS-2005>
92.1629791259766

> <r_mmod_Bend_Energy-OPLS-2005>
147.464935302734

> <r_mmod_Torsional_Energy-OPLS-2005>
233.477264404297

> <r_mmod_Improper_Torsional_Energy-OPLS-2005>
3.46722793579102

> <r_mmod_Van_der_Waal_Energy-OPLS-2005>
144.484085083008

> <r_mmod_Electrostatic_Energy-OPLS-2005>
-434.179168701172

> <r_mmod_Solvation_Energy-OPLS-2005>
-221.137725830078

> <b_mmod_Minimization_Converged-OPLS-2005>
0

> <r_mmod_RMS_Derivative-OPLS-2005>
1.13397872447968

$$$$
5
                    3D
 Structure written by MMmdl.
154162  0  0  1  0            999 V2000
  -30.7170  -14.5024   20.4926 C   0  0  0  0  0  0
  -30.4212  -12.3108   19.4312 C   0  0  0  0  0  0
  -29.4983  -12.4659   18.2092 C   0  0  0  0  0  0
  -28.0284  -12.3051   18.6396 C   0  0  0  0  0  0
  -27.6581  -13.1853   19.8617 C   0  0  2  0  0  0
  -28.6997  -13.0648   20.9941 C   0  0  0  0  0  0
  -25.2686  -13.8102   20.5651 C   0  0  0  0  0  0
  -24.1899  -13.0407   20.9156 C   0  0  0  0  0  0
  -24.6416  -11.6883   20.8756 C   0  0  0  0  0  0
  -23.9064  -10.4279   21.0456 C   0  0  0  0  0  0
  -24.3634   -9.4191   21.9217 C   0  0  0  0  0  0
  -23.6308   -8.2229   22.0783 C   0  0  0  0  0  0
  -22.4284   -8.0294   21.3560 C   0  0  0  0  0  0
  -21.9930   -9.0277   20.4647 C   0  0  0  0  0  0
  -22.7276  -10.2151   20.3064 C   0  0  0  0  0  0
  -21.6850   -6.0749   22.5274 C   0  0  0  0  0  0
  -21.4022   -6.5646   23.8212 C   0  0  0  0  0  0
  -21.3661   -5.6797   24.9167 C   0  0  0  0  0  0
  -21.6035   -4.3049   24.7219 C   0  0  0  0  0  0
  -21.8819   -3.8155   23.4324 C   0  0  0  0  0  0
  -21.9203   -4.6973   22.3397 C   0  0  0  0  0  0
  -22.7935  -13.5267   21.1820 C   0  0  0  0  0  0
  -22.1671   -4.2165   21.0961 F   0  0  0  0  0  0
  -21.5636   -3.4533   25.7721 F   0  0  0  0  0  0
  -30.0245  -13.3341   20.4120 N   0  0  0  0  0  0
  -26.3033  -12.9193   20.3283 N   0  0  0  0  0  0
  -25.9334  -11.6383   20.5763 N   0  0  0  0  0  0
  -22.0542  -12.8303   22.0350 N   0  0  0  0  0  0
  -25.4470  -15.1820   20.4094 N   0  0  0  0  0  0
  -31.9076  -14.5630   20.1714 O   0  0  0  0  0  0
  -21.6641   -6.8898   21.4241 O   0  0  0  0  0  0
  -22.3663  -14.5584   20.6640 O   0  0  0  0  0  0
  -24.6154  -31.8678   23.2069 C   0  0  0  0  0  0
  -25.9025  -32.4834   23.8393 C   0  0  1  0  0  0
  -27.2475  -27.4320   20.1025 C   0  0  0  0  0  0
  -25.5869  -33.8630   24.2332 N   0  0  0  0  0  0
  -23.4087  -30.4927   21.5476 C   0  0  2  0  0  0
  -24.8577  -28.9541   20.1134 C   0  0  0  0  0  0
  -22.7429  -29.4719   22.4988 C   0  0  0  0  0  0
  -18.0289  -28.1418   22.8493 C   0  0  0  0  0  0
  -24.1485  -36.7326   23.2640 C   0  0  0  0  0  0
  -25.9358  -30.8396   21.3569 C   0  0  0  0  0  0
  -26.0175  -29.4702   20.7051 C   0  0  0  0  0  0
  -27.2204  -28.7217   20.6831 C   0  0  0  0  0  0
  -26.0730  -26.9361   19.4983 C   0  0  0  0  0  0
  -24.8798  -27.6860   19.5045 C   0  0  0  0  0  0
  -23.6145  -29.8165   20.1663 C   0  0  0  0  0  0
  -25.4119  -36.3130   24.0351 C   0  0  1  0  0  0
  -20.5863  -28.3732   23.1289 C   0  0  2  0  0  0
  -20.6817  -26.9472   22.5422 C   0  0  0  0  0  0
  -19.5778  -26.6442   21.5250 C   0  0  0  0  0  0
  -18.1958  -26.7974   22.1641 C   0  0  0  0  0  0
  -19.1525  -28.8886   23.2899 C   0  0  0  0  0  0
  -18.9435  -30.1495   23.8897 C   0  0  0  0  0  0
  -17.6446  -30.6612   24.0569 C   0  0  0  0  0  0
  -25.9038  -34.9495   23.5152 C   0  0  0  0  0  0
  -16.5344  -29.9126   23.6311 C   0  0  0  0  0  0
  -16.7273  -28.6533   23.0351 C   0  0  0  0  0  0
  -26.4444  -31.6603   25.0720 C   0  0  0  0  0  0
  -25.3720  -31.3698   26.1474 C   0  0  0  0  0  0
  -27.0266  -30.3060   24.6063 C   0  0  0  0  0  0
  -27.6031  -32.4338   25.7471 C   0  0  0  0  0  0
  -27.5595  -37.1818   24.8477 C   0  0  0  0  0  0
  -21.4158  -29.3056   22.3661 N   0  0  0  0  0  0
  -26.4313  -37.3809   23.9413 N   0  0  0  0  0  0
  -24.6718  -31.0807   22.0954 N   0  0  0  0  0  0
  -23.4165  -28.8306   23.3097 O   0  0  0  0  0  0
  -28.3836  -26.6451   20.1264 O   0  0  0  0  0  0
  -26.5606  -34.8939   22.4709 O   0  0  0  0  0  0
  -23.5343  -32.1431   23.7454 O   0  0  0  0  0  0
  -27.7545  -20.1302   19.3380 C   0  0  0  0  0  0
  -27.5015  -18.8171   18.9029 C   0  0  0  0  0  0
  -29.6955  -19.3349   20.5571 C   0  0  0  0  0  0
  -29.4356  -17.9827   20.1674 C   0  0  0  0  0  0
  -28.8792  -20.4164   20.1357 C   0  0  0  0  0  0
  -28.3440  -17.7549   19.2703 C   0  0  0  0  0  0
  -30.4077  -16.8956   20.6098 C   0  0  0  0  0  0
  -29.0599  -24.2406   20.4731 C   0  0  0  0  0  0
  -28.4175  -22.8169   20.6607 C   0  0  0  0  0  0
  -28.2319  -25.4621   20.9538 C   0  0  0  0  0  0
  -28.0488  -16.5316   18.6616 N   0  0  0  0  0  0
  -29.2468  -21.7800   20.3927 N   0  0  0  0  0  0
  -29.9637  -15.6131   20.6602 N   0  0  0  0  0  0
  -31.5574  -17.2281   20.9278 O   0  0  0  0  0  0
  -30.1872  -24.3883   19.9781 O   0  0  0  0  0  0
  -27.2549  -22.6642   21.0538 O   0  0  0  0  0  0
  -31.4657  -12.3925   19.1241 H   0  0  0  0  0  0
  -30.3166  -11.3146   19.8603 H   0  0  0  0  0  0
  -29.7482  -11.7158   17.4570 H   0  0  0  0  0  0
  -29.6487  -13.4351   17.7282 H   0  0  0  0  0  0
  -27.8863  -11.2536   18.8931 H   0  0  0  0  0  0
  -27.3618  -12.5081   17.8002 H   0  0  0  0  0  0
  -27.6704  -14.2086   19.5062 H   0  0  0  0  0  0
  -28.6747  -12.0707   21.4416 H   0  0  0  0  0  0
  -28.4619  -13.7602   21.8019 H   0  0  0  0  0  0
  -25.2791   -9.5664   22.4794 H   0  0  0  0  0  0
  -24.0011   -7.4617   22.7516 H   0  0  0  0  0  0
  -21.0860   -8.8818   19.8946 H   0  0  0  0  0  0
  -22.3775  -10.9712   19.6170 H   0  0  0  0  0  0
  -21.1995   -7.6152   23.9720 H   0  0  0  0  0  0
  -21.1494   -6.0516   25.9076 H   0  0  0  0  0  0
  -22.0597   -2.7622   23.2812 H   0  0  0  0  0  0
  -22.4173  -11.9987   22.4749 H   0  0  0  0  0  0
  -21.1136  -13.1367   22.2456 H   0  0  0  0  0  0
  -24.6748  -15.8347   20.4830 H   0  0  0  0  0  0
  -26.2915  -15.6107   20.0389 H   0  0  0  0  0  0
  -26.7107  -32.5571   23.1167 H   0  0  0  0  0  0
  -24.9981  -33.9796   25.0455 H   0  0  0  0  0  0
  -22.6990  -31.3085   21.4055 H   0  0  0  0  0  0
  -23.3740  -35.9650   23.3318 H   0  0  0  0  0  0
  -24.3577  -36.8921   22.2043 H   0  0  0  0  0  0
  -23.7234  -37.6545   23.6640 H   0  0  0  0  0  0
  -26.0395  -31.6049   20.5841 H   0  0  0  0  0  0
  -26.8249  -30.8980   21.9741 H   0  0  0  0  0  0
  -28.1191  -29.1269   21.1234 H   0  0  0  0  0  0
  -26.0804  -25.9629   19.0279 H   0  0  0  0  0  0
  -23.9913  -27.2839   19.0331 H   0  0  0  0  0  0
  -23.7163  -30.5852   19.4009 H   0  0  0  0  0  0
  -22.7409  -29.2274   19.8813 H   0  0  0  0  0  0
  -25.1282  -36.2007   25.0846 H   0  0  0  0  0  0
  -20.9932  -28.3371   24.1417 H   0  0  0  0  0  0
  -20.5789  -26.2372   23.3608 H   0  0  0  0  0  0
  -21.6681  -26.7555   22.1211 H   0  0  0  0  0  0
  -19.6928  -25.6368   21.1244 H   0  0  0  0  0  0
  -19.6718  -27.3259   20.6787 H   0  0  0  0  0  0
  -17.4235  -26.6725   21.4024 H   0  0  0  0  0  0
  -18.0328  -26.0120   22.9042 H   0  0  0  0  0  0
  -19.7895  -30.7328   24.2280 H   0  0  0  0  0  0
  -17.4983  -31.6286   24.5213 H   0  0  0  0  0  0
  -15.5328  -30.3033   23.7605 H   0  0  0  0  0  0
  -15.8649  -28.0862   22.7080 H   0  0  0  0  0  0
  -24.5871  -30.7069   25.7807 H   0  0  0  0  0  0
  -24.8918  -32.2838   26.4976 H   0  0  0  0  0  0
  -25.8059  -30.8825   27.0205 H   0  0  0  0  0  0
  -26.2777  -29.6835   24.1146 H   0  0  0  0  0  0
  -27.4075  -29.7291   25.4491 H   0  0  0  0  0  0
  -27.8590  -30.4402   23.9158 H   0  0  0  0  0  0
  -27.2630  -33.3615   26.2083 H   0  0  0  0  0  0
  -28.3775  -32.6943   25.0251 H   0  0  0  0  0  0
  -28.0746  -31.8453   26.5341 H   0  0  0  0  0  0
  -28.2638  -38.0088   24.7516 H   0  0  0  0  0  0
  -28.1063  -36.2633   24.6311 H   0  0  0  0  0  0
  -27.2313  -37.1488   25.8876 H   0  0  0  0  0  0
  -20.9348  -29.8690   21.6772 H   0  0  0  0  0  0
  -26.0211  -38.2898   24.1359 H   0  0  0  0  0  0
  -27.1166  -20.9221   18.9778 H   0  0  0  0  0  0
  -26.6836  -18.6400   18.2163 H   0  0  0  0  0  0
  -30.5515  -19.5542   21.1791 H   0  0  0  0  0  0
  -28.5792  -25.7205   21.9532 H   0  0  0  0  0  0
  -27.1856  -25.1767   21.0641 H   0  0  0  0  0  0
  -28.8411  -16.0074   18.3079 H   0  0  0  0  0  0
  -27.3271  -16.5656   17.9448 H   0  0  0  0  0  0
  -30.2128  -22.0400   20.2458 H   0  0  0  0  0  0
  -28.9665  -15.4800   20.6068 H   0  0  0  0  0  0
  1 25  1  0  0  0
  1 30  2  0  0  0
  1 83  1  0  0  0
  2  3  1  0  0  0
  2 25  1  0  0  0
  2 87  1  0  0  0
  2 88  1  0  0  0
  3  4  1  0  0  0
  3 89  1  0  0  0
  3 90  1  0  0  0
  4  5  1  0  0  0
  4 91  1  0  0  0
  4 92  1  0  0  0
  5  6  1  0  0  0
  5 26  1  0  0  0
  5 93  1  0  0  0
  6 25  1  0  0  0
  6 94  1  0  0  0
  6 95  1  0  0  0
  7  8  2  0  0  0
  7 26  1  0  0  0
  7 29  1  0  0  0
  8  9  1  0  0  0
  8 22  1  0  0  0
  9 10  1  0  0  0
  9 27  2  0  0  0
 10 11  2  0  0  0
 10 15  1  0  0  0
 11 12  1  0  0  0
 11 96  1  0  0  0
 12 13  2  0  0  0
 12 97  1  0  0  0
 13 14  1  0  0  0
 13 31  1  0  0  0
 14 15  2  0  0  0
 14 98  1  0  0  0
 15 99  1  0  0  0
 16 17  2  0  0  0
 16 21  1  0  0  0
 16 31  1  0  0  0
 17 18  1  0  0  0
 17100  1  0  0  0
 18 19  2  0  0  0
 18101  1  0  0  0
 19 20  1  0  0  0
 19 24  1  0  0  0
 20 21  2  0  0  0
 20102  1  0  0  0
 21 23  1  0  0  0
 22 28  1  0  0  0
 22 32  2  0  0  0
 26 27  1  0  0  0
 28103  1  0  0  0
 28104  1  0  0  0
 29105  1  0  0  0
 29106  1  0  0  0
 33 34  1  0  0  0
 33 66  1  0  0  0
 33 70  2  0  0  0
 34 36  1  0  0  0
 34 59  1  0  0  0
 34107  1  0  0  0
 35 44  2  0  0  0
 35 45  1  0  0  0
 35 68  1  0  0  0
 36 56  1  0  0  0
 36108  1  0  0  0
 37 39  1  0  0  0
 37 47  1  0  0  0
 37 66  1  0  0  0
 37109  1  0  0  0
 38 43  2  0  0  0
 38 46  1  0  0  0
 38 47  1  0  0  0
 39 64  1  0  0  0
 39 67  2  0  0  0
 40 52  1  0  0  0
 40 53  2  0  0  0
 40 58  1  0  0  0
 41110  1  0  0  0
 41111  1  0  0  0
 41112  1  0  0  0
 41 48  1  0  0  0
 42 43  1  0  0  0
 42 66  1  0  0  0
 42113  1  0  0  0
 42114  1  0  0  0
 43 44  1  0  0  0
 44115  1  0  0  0
 45 46  2  0  0  0
 45116  1  0  0  0
 46117  1  0  0  0
 47118  1  0  0  0
 47119  1  0  0  0
 48 56  1  0  0  0
 48 65  1  0  0  0
 48120  1  0  0  0
 49 50  1  0  0  0
 49 53  1  0  0  0
 49 64  1  0  0  0
 49121  1  0  0  0
 50 51  1  0  0  0
 50122  1  0  0  0
 50123  1  0  0  0
 51 52  1  0  0  0
 51124  1  0  0  0
 51125  1  0  0  0
 52126  1  0  0  0
 52127  1  0  0  0
 53 54  1  0  0  0
 54 55  2  0  0  0
 54128  1  0  0  0
 55 57  1  0  0  0
 55129  1  0  0  0
 56 69  2  0  0  0
 57 58  2  0  0  0
 57130  1  0  0  0
 58131  1  0  0  0
 59 60  1  0  0  0
 59 61  1  0  0  0
 59 62  1  0  0  0
 60132  1  0  0  0
 60133  1  0  0  0
 60134  1  0  0  0
 61135  1  0  0  0
 61136  1  0  0  0
 61137  1  0  0  0
 62138  1  0  0  0
 62139  1  0  0  0
 62140  1  0  0  0
 63 65  1  0  0  0
 63141  1  0  0  0
 63142  1  0  0  0
 63143  1  0  0  0
 64144  1  0  0  0
 65145  1  0  0  0
 68 80  1  0  0  0
 71 72  2  0  0  0
 71 75  1  0  0  0
 71146  1  0  0  0
 72 76  1  0  0  0
 72147  1  0  0  0
 73 74  1  0  0  0
 73 75  2  0  0  0
 73148  1  0  0  0
 74 76  2  0  0  0
 74 77  1  0  0  0
 75 82  1  0  0  0
 76 81  1  0  0  0
 77 83  1  0  0  0
 77 84  2  0  0  0
 78 79  1  0  0  0
 78 80  1  0  0  0
 78 85  2  0  0  0
 79 82  1  0  0  0
 79 86  2  0  0  0
 80149  1  0  0  0
 80150  1  0  0  0
 81151  1  0  0  0
 81152  1  0  0  0
 82153  1  0  0  0
 83154  1  0  0  0
M  ISO  4   1 100  68 101  80 101  83 100
M  END
> <chiral flag>
0

> <version>
0

> <s_m_source_file>
/data/baiqing/PycharmProjects/Reinvent-master-3.2/result/LINK_invent/BTK/process_docking_weight1_custom_product_contain_oxygen_bond_distance_aromatic_linkinvent_7_9_3/rearranged_h_0070.sdf

> <i_m_source_file_index>
6

> <r_mmod_Potential_Energy-OPLS-2005>
21.5491561889648

> <r_mmod_Stretch_Energy-OPLS-2005>
47.1029739379883

> <r_mmod_Bend_Energy-OPLS-2005>
102.596076965332

> <r_mmod_Torsional_Energy-OPLS-2005>
289.868194580078

> <r_mmod_Improper_Torsional_Energy-OPLS-2005>
13.8712320327759

> <r_mmod_Van_der_Waal_Energy-OPLS-2005>
164.946304321289

> <r_mmod_Electrostatic_Energy-OPLS-2005>
-379.636566162109

> <r_mmod_Solvation_Energy-OPLS-2005>
-240.991073608398

> <b_mmod_Minimization_Converged-OPLS-2005>
0

> <r_mmod_RMS_Derivative-OPLS-2005>
6.34765195846558

$$$$
6
                    3D
 Structure written by MMmdl.
161170  0  0  1  0            999 V2000
  -30.5956  -14.6706   20.4723 C   0  0  0  0  0  0
  -30.4412  -12.4089   19.4484 C   0  0  0  0  0  0
  -29.5061  -12.5109   18.2213 C   0  0  0  0  0  0
  -28.0306  -12.3352   18.6373 C   0  0  0  0  0  0
  -27.6481  -13.2081   19.8609 C   0  0  2  0  0  0
  -28.6978  -13.0790   20.9881 C   0  0  0  0  0  0
  -25.2537  -13.8111   20.5725 C   0  0  0  0  0  0
  -24.1796  -13.0393   20.9195 C   0  0  0  0  0  0
  -24.6363  -11.6868   20.8736 C   0  0  0  0  0  0
  -23.9037  -10.4256   21.0406 C   0  0  0  0  0  0
  -24.3591   -9.4187   21.9193 C   0  0  0  0  0  0
  -23.6267   -8.2228   22.0761 C   0  0  0  0  0  0
  -22.4261   -8.0255   21.3546 C   0  0  0  0  0  0
  -21.9892   -9.0221   20.4640 C   0  0  0  0  0  0
  -22.7212  -10.2102   20.3052 C   0  0  0  0  0  0
  -21.6842   -6.0716   22.5283 C   0  0  0  0  0  0
  -21.3998   -6.5623   23.8215 C   0  0  0  0  0  0
  -21.3672   -5.6783   24.9183 C   0  0  0  0  0  0
  -21.6048   -4.3047   24.7232 C   0  0  0  0  0  0
  -21.8815   -3.8132   23.4355 C   0  0  0  0  0  0
  -21.9187   -4.6945   22.3410 C   0  0  0  0  0  0
  -22.7839  -13.5233   21.1858 C   0  0  0  0  0  0
  -22.1653   -4.2133   21.0984 F   0  0  0  0  0  0
  -21.5645   -3.4532   25.7750 F   0  0  0  0  0  0
  -30.0080  -13.4329   20.4182 N   0  0  0  0  0  0
  -26.2960  -12.9290   20.3337 N   0  0  0  0  0  0
  -25.9294  -11.6454   20.5772 N   0  0  0  0  0  0
  -22.0470  -12.8212   22.0392 N   0  0  0  0  0  0
  -25.4183  -15.1834   20.4210 N   0  0  0  0  0  0
  -31.7732  -14.8407   20.1430 O   0  0  0  0  0  0
  -21.6633   -6.8850   21.4241 O   0  0  0  0  0  0
  -22.3562  -14.5572   20.6741 O   0  0  0  0  0  0
  -24.6289  -31.8603   23.2042 C   0  0  0  0  0  0
  -25.9136  -32.4777   23.8373 C   0  0  1  0  0  0
  -27.2158  -27.3051   20.1227 C   0  0  0  0  0  0
  -25.5946  -33.8580   24.2305 N   0  0  0  0  0  0
  -23.4217  -30.4861   21.5456 C   0  0  2  0  0  0
  -24.8685  -28.9423   20.1079 C   0  0  0  0  0  0
  -22.7487  -29.4634   22.4928 C   0  0  0  0  0  0
  -18.0295  -28.1383   22.8491 C   0  0  0  0  0  0
  -24.1473  -36.7282   23.2636 C   0  0  0  0  0  0
  -25.9654  -30.7835   21.3802 C   0  0  0  0  0  0
  -26.0374  -29.4096   20.7245 C   0  0  0  0  0  0
  -27.2134  -28.5996   20.7310 C   0  0  0  0  0  0
  -26.0354  -26.9114   19.4519 C   0  0  0  0  0  0
  -24.8695  -27.6972   19.4630 C   0  0  0  0  0  0
  -23.6383  -29.8255   20.1589 C   0  0  0  0  0  0
  -25.4100  -36.3088   24.0339 C   0  0  1  0  0  0
  -20.5903  -28.3692   23.1276 C   0  0  2  0  0  0
  -20.6786  -26.9417   22.5405 C   0  0  0  0  0  0
  -19.5751  -26.6384   21.5219 C   0  0  0  0  0  0
  -18.1930  -26.7928   22.1629 C   0  0  0  0  0  0
  -19.1549  -28.8851   23.2881 C   0  0  0  0  0  0
  -18.9470  -30.1454   23.8897 C   0  0  0  0  0  0
  -17.6467  -30.6580   24.0573 C   0  0  0  0  0  0
  -25.9053  -34.9455   23.5123 C   0  0  0  0  0  0
  -16.5360  -29.9083   23.6332 C   0  0  0  0  0  0
  -16.7281  -28.6506   23.0344 C   0  0  0  0  0  0
  -26.4502  -31.6566   25.0734 C   0  0  0  0  0  0
  -25.3740  -31.3699   26.1456 C   0  0  0  0  0  0
  -27.0348  -30.2991   24.6192 C   0  0  0  0  0  0
  -27.6050  -32.4294   25.7521 C   0  0  0  0  0  0
  -27.5572  -37.1795   24.8477 C   0  0  0  0  0  0
  -21.4204  -29.3049   22.3669 N   0  0  0  0  0  0
  -26.4283  -37.3786   23.9423 N   0  0  0  0  0  0
  -24.6908  -31.0606   22.0997 N   0  0  0  0  0  0
  -23.4210  -28.8181   23.3011 O   0  0  0  0  0  0
  -28.2948  -26.4041   20.1790 O   0  0  0  0  0  0
  -26.5619  -34.8929   22.4689 O   0  0  0  0  0  0
  -23.5445  -32.1407   23.7363 O   0  0  0  0  0  0
  -30.6538  -19.4070   21.2031 C   0  0  0  0  0  0
  -30.7145  -17.9801   21.2497 C   0  0  0  0  0  0
  -28.8007  -19.2929   19.6798 C   0  0  0  0  0  0
  -29.6832  -20.1114   20.4337 C   0  0  0  0  0  0
  -29.8195  -17.1655   20.5081 C   0  0  0  0  0  0
  -28.8711  -17.8555   19.6905 C   0  0  0  0  0  0
  -28.8118  -23.9248   20.2985 C   0  0  0  0  0  0
  -30.6867  -22.3976   20.1349 C   0  0  0  0  0  0
  -25.5473  -16.3642   16.4029 C   0  0  0  0  0  0
  -27.9976  -25.0314   20.3800 C   0  0  0  0  0  0
  -26.6009  -16.2602   17.2340 C   0  0  0  0  0  0
  -26.9692  -17.3536   18.1182 C   0  0  0  0  0  0
  -30.2911  -23.8784   20.0359 C   0  0  0  0  0  0
  -28.4021  -22.4343   20.4718 C   0  0  0  0  0  0
  -29.6296  -21.5880   20.3826 N   0  0  0  0  0  0
  -28.0711  -17.0486   18.8259 N   0  0  0  0  0  0
  -29.7272  -15.7109   20.6889 N   0  0  0  0  0  0
  -31.8572  -22.0322   19.9876 O   0  0  0  0  0  0
  -26.3332  -18.4032   18.2347 O   0  0  0  0  0  0
  -31.4806  -12.5485   19.1469 H   0  0  0  0  0  0
  -30.3871  -11.4143   19.8941 H   0  0  0  0  0  0
  -29.7787  -11.7602   17.4775 H   0  0  0  0  0  0
  -29.6386  -13.4810   17.7381 H   0  0  0  0  0  0
  -27.8814  -11.2811   18.8771 H   0  0  0  0  0  0
  -27.3701  -12.5501   17.7956 H   0  0  0  0  0  0
  -27.6554  -14.2378   19.5106 H   0  0  0  0  0  0
  -28.7191  -12.0590   21.3746 H   0  0  0  0  0  0
  -28.4429  -13.7129   21.8392 H   0  0  0  0  0  0
  -25.2732   -9.5679   22.4779 H   0  0  0  0  0  0
  -23.9980   -7.4617   22.7469 H   0  0  0  0  0  0
  -21.0849   -8.8704   19.8921 H   0  0  0  0  0  0
  -22.3666  -10.9636   19.6158 H   0  0  0  0  0  0
  -21.1959   -7.6128   23.9716 H   0  0  0  0  0  0
  -21.1521   -6.0515   25.9092 H   0  0  0  0  0  0
  -22.0588   -2.7595   23.2866 H   0  0  0  0  0  0
  -22.4076  -11.9874   22.4775 H   0  0  0  0  0  0
  -21.1081  -13.1225   22.2573 H   0  0  0  0  0  0
  -24.6331  -15.8179   20.5166 H   0  0  0  0  0  0
  -26.2578  -15.6435   20.1048 H   0  0  0  0  0  0
  -26.7210  -32.5438   23.1120 H   0  0  0  0  0  0
  -25.0105  -33.9736   25.0457 H   0  0  0  0  0  0
  -22.7173  -31.3087   21.4041 H   0  0  0  0  0  0
  -23.3762  -35.9594   23.3304 H   0  0  0  0  0  0
  -24.3546  -36.8898   22.2050 H   0  0  0  0  0  0
  -23.7207  -37.6478   23.6644 H   0  0  0  0  0  0
  -26.1001  -31.5441   20.6099 H   0  0  0  0  0  0
  -26.8457  -30.8332   22.0096 H   0  0  0  0  0  0
  -28.1041  -28.9440   21.2373 H   0  0  0  0  0  0
  -25.9927  -25.9632   18.9352 H   0  0  0  0  0  0
  -23.9783  -27.3375   18.9669 H   0  0  0  0  0  0
  -23.7615  -30.6047   19.4059 H   0  0  0  0  0  0
  -22.7580  -29.2585   19.8512 H   0  0  0  0  0  0
  -25.1280  -36.1942   25.0837 H   0  0  0  0  0  0
  -20.9992  -28.3258   24.1398 H   0  0  0  0  0  0
  -20.5700  -26.2307   23.3612 H   0  0  0  0  0  0
  -21.6648  -26.7441   22.1182 H   0  0  0  0  0  0
  -19.6911  -25.6298   21.1239 H   0  0  0  0  0  0
  -19.6679  -27.3208   20.6764 H   0  0  0  0  0  0
  -17.4205  -26.6696   21.4025 H   0  0  0  0  0  0
  -18.0312  -26.0058   22.9013 H   0  0  0  0  0  0
  -19.7944  -30.7283   24.2254 H   0  0  0  0  0  0
  -17.5020  -31.6260   24.5178 H   0  0  0  0  0  0
  -15.5361  -30.2991   23.7654 H   0  0  0  0  0  0
  -15.8681  -28.0841   22.7034 H   0  0  0  0  0  0
  -24.5923  -30.7032   25.7790 H   0  0  0  0  0  0
  -24.8918  -32.2860   26.4882 H   0  0  0  0  0  0
  -25.8064  -30.8878   27.0233 H   0  0  0  0  0  0
  -26.2920  -29.6728   24.1228 H   0  0  0  0  0  0
  -27.4069  -29.7252   25.4691 H   0  0  0  0  0  0
  -27.8784  -30.4290   23.9409 H   0  0  0  0  0  0
  -27.2647  -33.3600   26.2085 H   0  0  0  0  0  0
  -28.3876  -32.6832   25.0357 H   0  0  0  0  0  0
  -28.0690  -31.8418   26.5456 H   0  0  0  0  0  0
  -28.2595  -38.0088   24.7529 H   0  0  0  0  0  0
  -28.1062  -36.2620   24.6289 H   0  0  0  0  0  0
  -27.2290  -37.1445   25.8882 H   0  0  0  0  0  0
  -20.9392  -29.8785   21.6887 H   0  0  0  0  0  0
  -26.0166  -38.2865   24.1428 H   0  0  0  0  0  0
  -31.3635  -19.9682   21.7940 H   0  0  0  0  0  0
  -31.4461  -17.5139   21.8939 H   0  0  0  0  0  0
  -28.0919  -19.7981   19.0427 H   0  0  0  0  0  0
  -25.2782  -15.5459   15.7498 H   0  0  0  0  0  0
  -24.9355  -17.2556   16.3546 H   0  0  0  0  0  0
  -26.9572  -24.8783   20.6329 H   0  0  0  0  0  0
  -27.1693  -15.3402   17.2304 H   0  0  0  0  0  0
  -30.8320  -24.4677   20.7769 H   0  0  0  0  0  0
  -30.5126  -24.2665   19.0418 H   0  0  0  0  0  0
  -27.6900  -22.1491   19.6967 H   0  0  0  0  0  0
  -27.9234  -22.2891   21.4409 H   0  0  0  0  0  0
  -28.4422  -16.1275   18.6517 H   0  0  0  0  0  0
  -28.7952  -15.3821   20.8838 H   0  0  0  0  0  0
  1 25  1  0  0  0
  1 30  2  0  0  0
  1 87  1  0  0  0
  2  3  1  0  0  0
  2 25  1  0  0  0
  2 90  1  0  0  0
  2 91  1  0  0  0
  3  4  1  0  0  0
  3 92  1  0  0  0
  3 93  1  0  0  0
  4  5  1  0  0  0
  4 94  1  0  0  0
  4 95  1  0  0  0
  5  6  1  0  0  0
  5 26  1  0  0  0
  5 96  1  0  0  0
  6 25  1  0  0  0
  6 97  1  0  0  0
  6 98  1  0  0  0
  7  8  2  0  0  0
  7 26  1  0  0  0
  7 29  1  0  0  0
  8  9  1  0  0  0
  8 22  1  0  0  0
  9 10  1  0  0  0
  9 27  2  0  0  0
 10 11  2  0  0  0
 10 15  1  0  0  0
 11 12  1  0  0  0
 11 99  1  0  0  0
 12 13  2  0  0  0
 12100  1  0  0  0
 13 14  1  0  0  0
 13 31  1  0  0  0
 14 15  2  0  0  0
 14101  1  0  0  0
 15102  1  0  0  0
 16 17  2  0  0  0
 16 21  1  0  0  0
 16 31  1  0  0  0
 17 18  1  0  0  0
 17103  1  0  0  0
 18 19  2  0  0  0
 18104  1  0  0  0
 19 20  1  0  0  0
 19 24  1  0  0  0
 20 21  2  0  0  0
 20105  1  0  0  0
 21 23  1  0  0  0
 22 28  1  0  0  0
 22 32  2  0  0  0
 26 27  1  0  0  0
 28106  1  0  0  0
 28107  1  0  0  0
 29108  1  0  0  0
 29109  1  0  0  0
 33 34  1  0  0  0
 33 66  1  0  0  0
 33 70  2  0  0  0
 34 36  1  0  0  0
 34 59  1  0  0  0
 34110  1  0  0  0
 35 44  2  0  0  0
 35 45  1  0  0  0
 35 68  1  0  0  0
 36 56  1  0  0  0
 36111  1  0  0  0
 37 39  1  0  0  0
 37 47  1  0  0  0
 37 66  1  0  0  0
 37112  1  0  0  0
 38 43  2  0  0  0
 38 46  1  0  0  0
 38 47  1  0  0  0
 39 64  1  0  0  0
 39 67  2  0  0  0
 40 52  1  0  0  0
 40 53  2  0  0  0
 40 58  1  0  0  0
 41113  1  0  0  0
 41114  1  0  0  0
 41115  1  0  0  0
 41 48  1  0  0  0
 42 43  1  0  0  0
 42 66  1  0  0  0
 42116  1  0  0  0
 42117  1  0  0  0
 43 44  1  0  0  0
 44118  1  0  0  0
 45 46  2  0  0  0
 45119  1  0  0  0
 46120  1  0  0  0
 47121  1  0  0  0
 47122  1  0  0  0
 48 56  1  0  0  0
 48 65  1  0  0  0
 48123  1  0  0  0
 49 50  1  0  0  0
 49 53  1  0  0  0
 49 64  1  0  0  0
 49124  1  0  0  0
 50 51  1  0  0  0
 50125  1  0  0  0
 50126  1  0  0  0
 51 52  1  0  0  0
 51127  1  0  0  0
 51128  1  0  0  0
 52129  1  0  0  0
 52130  1  0  0  0
 53 54  1  0  0  0
 54 55  2  0  0  0
 54131  1  0  0  0
 55 57  1  0  0  0
 55132  1  0  0  0
 56 69  2  0  0  0
 57 58  2  0  0  0
 57133  1  0  0  0
 58134  1  0  0  0
 59 60  1  0  0  0
 59 61  1  0  0  0
 59 62  1  0  0  0
 60135  1  0  0  0
 60136  1  0  0  0
 60137  1  0  0  0
 61138  1  0  0  0
 61139  1  0  0  0
 61140  1  0  0  0
 62141  1  0  0  0
 62142  1  0  0  0
 62143  1  0  0  0
 63 65  1  0  0  0
 63144  1  0  0  0
 63145  1  0  0  0
 63146  1  0  0  0
 64147  1  0  0  0
 65148  1  0  0  0
 68 80  1  0  0  0
 71 72  2  0  0  0
 71 74  1  0  0  0
 71149  1  0  0  0
 72 75  1  0  0  0
 72150  1  0  0  0
 73 74  2  0  0  0
 73 76  1  0  0  0
 73151  1  0  0  0
 74 85  1  0  0  0
 75 76  2  0  0  0
 75 87  1  0  0  0
 76 86  1  0  0  0
 77 80  2  0  0  0
 77 83  1  0  0  0
 77 84  1  0  0  0
 78 83  1  0  0  0
 78 85  1  0  0  0
 78 88  2  0  0  0
 79 81  2  0  0  0
 79152  1  0  0  0
 79153  1  0  0  0
 80154  1  0  0  0
 81 82  1  0  0  0
 81155  1  0  0  0
 82 86  1  0  0  0
 82 89  2  0  0  0
 83156  1  0  0  0
 83157  1  0  0  0
 84 85  1  0  0  0
 84158  1  0  0  0
 84159  1  0  0  0
 86160  1  0  0  0
 87161  1  0  0  0
M  ISO  4   1 100  68 101  80 101  87 100
M  END
> <chiral flag>
0

> <version>
0

> <s_m_source_file>
/data/baiqing/PycharmProjects/Reinvent-master-3.2/result/LINK_invent/BTK/process_docking_weight1_custom_product_contain_oxygen_bond_distance_aromatic_linkinvent_7_9_3/rearranged_h_0070.sdf

> <i_m_source_file_index>
7

> <r_mmod_Potential_Energy-OPLS-2005>
50.9900665283203

> <r_mmod_Stretch_Energy-OPLS-2005>
82.0766830444336

> <r_mmod_Bend_Energy-OPLS-2005>
170.921295166016

> <r_mmod_Torsional_Energy-OPLS-2005>
301.162963867188

> <r_mmod_Improper_Torsional_Energy-OPLS-2005>
6.79003953933716

> <r_mmod_Van_der_Waal_Energy-OPLS-2005>
136.092636108398

> <r_mmod_Electrostatic_Energy-OPLS-2005>
-467.014709472656

> <r_mmod_Solvation_Energy-OPLS-2005>
-241.596984863281

> <b_mmod_Minimization_Converged-OPLS-2005>
0

> <r_mmod_RMS_Derivative-OPLS-2005>
1.79470038414001

$$$$
7
                    3D
 Structure written by MMmdl.
157166  0  0  1  0            999 V2000
  -30.6000  -14.6934   20.4911 C   0  0  0  0  0  0
  -30.4447  -12.4238   19.4614 C   0  0  0  0  0  0
  -29.5142  -12.5176   18.2304 C   0  0  0  0  0  0
  -28.0373  -12.3480   18.6406 C   0  0  0  0  0  0
  -27.6540  -13.2216   19.8647 C   0  0  2  0  0  0
  -28.6995  -13.0893   20.9952 C   0  0  0  0  0  0
  -25.2561  -13.8176   20.5692 C   0  0  0  0  0  0
  -24.1829  -13.0435   20.9183 C   0  0  0  0  0  0
  -24.6406  -11.6908   20.8730 C   0  0  0  0  0  0
  -23.9071  -10.4290   21.0398 C   0  0  0  0  0  0
  -24.3620   -9.4206   21.9182 C   0  0  0  0  0  0
  -23.6291   -8.2246   22.0756 C   0  0  0  0  0  0
  -22.4271   -8.0285   21.3546 C   0  0  0  0  0  0
  -21.9906   -9.0260   20.4647 C   0  0  0  0  0  0
  -22.7240  -10.2136   20.3053 C   0  0  0  0  0  0
  -21.6854   -6.0732   22.5277 C   0  0  0  0  0  0
  -21.4018   -6.5636   23.8210 C   0  0  0  0  0  0
  -21.3660   -5.6793   24.9174 C   0  0  0  0  0  0
  -21.6043   -4.3054   24.7222 C   0  0  0  0  0  0
  -21.8821   -3.8142   23.4345 C   0  0  0  0  0  0
  -21.9194   -4.6960   22.3401 C   0  0  0  0  0  0
  -22.7849  -13.5224   21.1846 C   0  0  0  0  0  0
  -22.1662   -4.2148   21.0974 F   0  0  0  0  0  0
  -21.5627   -3.4536   25.7736 F   0  0  0  0  0  0
  -30.0116  -13.4512   20.4334 N   0  0  0  0  0  0
  -26.2997  -12.9367   20.3325 N   0  0  0  0  0  0
  -25.9338  -11.6515   20.5750 N   0  0  0  0  0  0
  -22.0494  -12.8222   22.0409 N   0  0  0  0  0  0
  -25.4271  -15.1897   20.4121 N   0  0  0  0  0  0
  -31.7549  -14.8617   20.0890 O   0  0  0  0  0  0
  -21.6639   -6.8878   21.4240 O   0  0  0  0  0  0
  -22.3533  -14.5530   20.6696 O   0  0  0  0  0  0
  -24.6299  -31.8565   23.2003 C   0  0  0  0  0  0
  -25.9133  -32.4761   23.8338 C   0  0  1  0  0  0
  -27.2257  -27.2837   20.1174 C   0  0  0  0  0  0
  -25.5936  -33.8561   24.2268 N   0  0  0  0  0  0
  -23.4257  -30.4805   21.5437 C   0  0  2  0  0  0
  -24.8734  -28.9326   20.1097 C   0  0  0  0  0  0
  -22.7492  -29.4604   22.4913 C   0  0  0  0  0  0
  -18.0295  -28.1383   22.8480 C   0  0  0  0  0  0
  -24.1491  -36.7283   23.2637 C   0  0  0  0  0  0
  -25.9709  -30.7756   21.3784 C   0  0  0  0  0  0
  -26.0445  -29.4009   20.7185 C   0  0  0  0  0  0
  -27.2219  -28.5882   20.7132 C   0  0  0  0  0  0
  -26.0289  -26.8818   19.4786 C   0  0  0  0  0  0
  -24.8696  -27.6798   19.4807 C   0  0  0  0  0  0
  -23.6433  -29.8170   20.1585 C   0  0  0  0  0  0
  -25.4113  -36.3070   24.0328 C   0  0  1  0  0  0
  -20.5895  -28.3688   23.1272 C   0  0  2  0  0  0
  -20.6782  -26.9405   22.5407 C   0  0  0  0  0  0
  -19.5758  -26.6377   21.5209 C   0  0  0  0  0  0
  -18.1938  -26.7926   22.1621 C   0  0  0  0  0  0
  -19.1545  -28.8851   23.2875 C   0  0  0  0  0  0
  -18.9466  -30.1453   23.8892 C   0  0  0  0  0  0
  -17.6464  -30.6583   24.0560 C   0  0  0  0  0  0
  -25.9053  -34.9441   23.5098 C   0  0  0  0  0  0
  -16.5357  -29.9078   23.6331 C   0  0  0  0  0  0
  -16.7278  -28.6498   23.0346 C   0  0  0  0  0  0
  -26.4505  -31.6575   25.0718 C   0  0  0  0  0  0
  -25.3733  -31.3718   26.1444 C   0  0  0  0  0  0
  -27.0348  -30.2993   24.6192 C   0  0  0  0  0  0
  -27.6061  -32.4309   25.7493 C   0  0  0  0  0  0
  -27.5581  -37.1794   24.8459 C   0  0  0  0  0  0
  -21.4199  -29.3039   22.3657 N   0  0  0  0  0  0
  -26.4286  -37.3771   23.9412 N   0  0  0  0  0  0
  -24.6944  -31.0547   22.0972 N   0  0  0  0  0  0
  -23.4200  -28.8139   23.3001 O   0  0  0  0  0  0
  -28.3324  -26.4062   20.1783 O   0  0  0  0  0  0
  -26.5620  -34.8912   22.4663 O   0  0  0  0  0  0
  -23.5456  -32.1376   23.7316 O   0  0  0  0  0  0
  -28.9976  -19.3847   21.6637 C   0  0  0  0  0  0
  -30.2199  -19.3822   19.6463 C   0  0  0  0  0  0
  -29.5297  -20.1862   20.6111 C   0  0  0  0  0  0
  -29.8208  -17.1932   20.7862 C   0  0  0  0  0  0
  -29.1194  -17.9630   21.7476 C   0  0  0  0  0  0
  -30.3696  -17.9524   19.7148 C   0  0  0  0  0  0
  -28.7938  -22.6864   21.3404 C   0  0  0  0  0  0
  -30.5395  -24.3788   20.6565 C   0  0  0  0  0  0
  -29.2923  -22.4663   19.3594 C   0  0  0  0  0  0
  -29.1998  -23.7797   20.2497 C   0  0  1  0  0  0
  -30.5517  -25.2734   21.8951 C   0  0  0  0  0  0
  -28.1261  -24.9409   19.9165 C   0  0  0  0  0  0
  -29.4117  -21.6665   20.5865 N   0  0  0  0  0  0
  -29.8008  -15.7235   20.9244 N   0  0  0  0  0  0
  -28.1377  -22.6344   22.3610 O   0  0  0  0  0  0
  -31.6142  -24.2189   20.0664 O   0  0  0  0  0  0
  -28.5318  -17.3177   22.7855 F   0  0  0  0  0  0
  -31.0127  -17.3183   18.7053 F   0  0  0  0  0  0
  -31.4847  -12.5577   19.1588 H   0  0  0  0  0  0
  -30.3901  -11.4306   19.9099 H   0  0  0  0  0  0
  -29.7862  -11.7623   17.4919 H   0  0  0  0  0  0
  -29.6504  -13.4838   17.7417 H   0  0  0  0  0  0
  -27.8794  -11.2951   18.8753 H   0  0  0  0  0  0
  -27.3831  -12.5728   17.7975 H   0  0  0  0  0  0
  -27.6678  -14.2554   19.5200 H   0  0  0  0  0  0
  -28.7223  -12.0673   21.3760 H   0  0  0  0  0  0
  -28.4347  -13.7159   21.8481 H   0  0  0  0  0  0
  -25.2769   -9.5679   22.4753 H   0  0  0  0  0  0
  -23.9999   -7.4633   22.7472 H   0  0  0  0  0  0
  -21.0836   -8.8776   19.8952 H   0  0  0  0  0  0
  -22.3700  -10.9672   19.6154 H   0  0  0  0  0  0
  -21.2016   -7.6149   23.9714 H   0  0  0  0  0  0
  -21.1478   -6.0522   25.9076 H   0  0  0  0  0  0
  -22.0601   -2.7604   23.2848 H   0  0  0  0  0  0
  -22.4106  -11.9881   22.4799 H   0  0  0  0  0  0
  -21.1113  -13.1252   22.2607 H   0  0  0  0  0  0
  -24.6614  -15.8451   20.5272 H   0  0  0  0  0  0
  -26.2789  -15.6309   20.0902 H   0  0  0  0  0  0
  -26.7197  -32.5417   23.1078 H   0  0  0  0  0  0
  -25.0095  -33.9696   25.0421 H   0  0  0  0  0  0
  -22.7217  -31.3024   21.3995 H   0  0  0  0  0  0
  -23.3755  -35.9612   23.3290 H   0  0  0  0  0  0
  -24.3590  -36.8912   22.2053 H   0  0  0  0  0  0
  -23.7238  -37.6479   23.6667 H   0  0  0  0  0  0
  -26.1084  -31.5390   20.6113 H   0  0  0  0  0  0
  -26.8487  -30.8222   22.0107 H   0  0  0  0  0  0
  -28.1174  -28.9406   21.2053 H   0  0  0  0  0  0
  -25.9527  -25.9284   18.9786 H   0  0  0  0  0  0
  -23.9731  -27.3173   18.9963 H   0  0  0  0  0  0
  -23.7671  -30.5947   19.4042 H   0  0  0  0  0  0
  -22.7619  -29.2510   19.8528 H   0  0  0  0  0  0
  -25.1292  -36.1915   25.0822 H   0  0  0  0  0  0
  -20.9994  -28.3270   24.1390 H   0  0  0  0  0  0
  -20.5679  -26.2292   23.3606 H   0  0  0  0  0  0
  -21.6653  -26.7431   22.1201 H   0  0  0  0  0  0
  -19.6919  -25.6287   21.1238 H   0  0  0  0  0  0
  -19.6697  -27.3186   20.6739 H   0  0  0  0  0  0
  -17.4205  -26.6663   21.4029 H   0  0  0  0  0  0
  -18.0344  -26.0072   22.9020 H   0  0  0  0  0  0
  -19.7940  -30.7270   24.2260 H   0  0  0  0  0  0
  -17.5018  -31.6263   24.5156 H   0  0  0  0  0  0
  -15.5358  -30.2975   23.7659 H   0  0  0  0  0  0
  -15.8680  -28.0816   22.7062 H   0  0  0  0  0  0
  -24.5914  -30.7061   25.7772 H   0  0  0  0  0  0
  -24.8925  -32.2887   26.4865 H   0  0  0  0  0  0
  -25.8059  -30.8896   27.0218 H   0  0  0  0  0  0
  -26.2926  -29.6739   24.1218 H   0  0  0  0  0  0
  -27.4037  -29.7256   25.4703 H   0  0  0  0  0  0
  -27.8803  -30.4271   23.9428 H   0  0  0  0  0  0
  -27.2673  -33.3611   26.2068 H   0  0  0  0  0  0
  -28.3879  -32.6861   25.0327 H   0  0  0  0  0  0
  -28.0722  -31.8433   26.5413 H   0  0  0  0  0  0
  -28.2580  -38.0109   24.7535 H   0  0  0  0  0  0
  -28.1099  -36.2645   24.6249 H   0  0  0  0  0  0
  -27.2307  -37.1397   25.8862 H   0  0  0  0  0  0
  -20.9375  -29.8760   21.6865 H   0  0  0  0  0  0
  -26.0163  -38.2840   24.1430 H   0  0  0  0  0  0
  -28.4555  -19.8749   22.4590 H   0  0  0  0  0  0
  -30.6726  -19.8800   18.8017 H   0  0  0  0  0  0
  -30.1654  -22.4140   18.7074 H   0  0  0  0  0  0
  -28.3773  -22.2481   18.8027 H   0  0  0  0  0  0
  -29.5772  -25.2985   22.3824 H   0  0  0  0  0  0
  -30.8199  -26.2919   21.6142 H   0  0  0  0  0  0
  -31.2866  -24.9090   22.6126 H   0  0  0  0  0  0
  -27.2021  -24.6674   20.4285 H   0  0  0  0  0  0
  -27.8975  -24.8595   18.8537 H   0  0  0  0  0  0
  -28.9818  -15.3944   21.4108 H   0  0  0  0  0  0
  1 25  1  0  0  0
  1 30  2  0  0  0
  1 84  1  0  0  0
  2  3  1  0  0  0
  2 25  1  0  0  0
  2 89  1  0  0  0
  2 90  1  0  0  0
  3  4  1  0  0  0
  3 91  1  0  0  0
  3 92  1  0  0  0
  4  5  1  0  0  0
  4 93  1  0  0  0
  4 94  1  0  0  0
  5  6  1  0  0  0
  5 26  1  0  0  0
  5 95  1  0  0  0
  6 25  1  0  0  0
  6 96  1  0  0  0
  6 97  1  0  0  0
  7  8  2  0  0  0
  7 26  1  0  0  0
  7 29  1  0  0  0
  8  9  1  0  0  0
  8 22  1  0  0  0
  9 10  1  0  0  0
  9 27  2  0  0  0
 10 11  2  0  0  0
 10 15  1  0  0  0
 11 12  1  0  0  0
 11 98  1  0  0  0
 12 13  2  0  0  0
 12 99  1  0  0  0
 13 14  1  0  0  0
 13 31  1  0  0  0
 14 15  2  0  0  0
 14100  1  0  0  0
 15101  1  0  0  0
 16 17  2  0  0  0
 16 21  1  0  0  0
 16 31  1  0  0  0
 17 18  1  0  0  0
 17102  1  0  0  0
 18 19  2  0  0  0
 18103  1  0  0  0
 19 20  1  0  0  0
 19 24  1  0  0  0
 20 21  2  0  0  0
 20104  1  0  0  0
 21 23  1  0  0  0
 22 28  1  0  0  0
 22 32  2  0  0  0
 26 27  1  0  0  0
 28105  1  0  0  0
 28106  1  0  0  0
 29107  1  0  0  0
 29108  1  0  0  0
 33 34  1  0  0  0
 33 66  1  0  0  0
 33 70  2  0  0  0
 34 36  1  0  0  0
 34 59  1  0  0  0
 34109  1  0  0  0
 35 44  2  0  0  0
 35 45  1  0  0  0
 35 68  1  0  0  0
 36 56  1  0  0  0
 36110  1  0  0  0
 37 39  1  0  0  0
 37 47  1  0  0  0
 37 66  1  0  0  0
 37111  1  0  0  0
 38 43  2  0  0  0
 38 46  1  0  0  0
 38 47  1  0  0  0
 39 64  1  0  0  0
 39 67  2  0  0  0
 40 52  1  0  0  0
 40 53  2  0  0  0
 40 58  1  0  0  0
 41112  1  0  0  0
 41113  1  0  0  0
 41114  1  0  0  0
 41 48  1  0  0  0
 42 43  1  0  0  0
 42 66  1  0  0  0
 42115  1  0  0  0
 42116  1  0  0  0
 43 44  1  0  0  0
 44117  1  0  0  0
 45 46  2  0  0  0
 45118  1  0  0  0
 46119  1  0  0  0
 47120  1  0  0  0
 47121  1  0  0  0
 48 56  1  0  0  0
 48 65  1  0  0  0
 48122  1  0  0  0
 49 50  1  0  0  0
 49 53  1  0  0  0
 49 64  1  0  0  0
 49123  1  0  0  0
 50 51  1  0  0  0
 50124  1  0  0  0
 50125  1  0  0  0
 51 52  1  0  0  0
 51126  1  0  0  0
 51127  1  0  0  0
 52128  1  0  0  0
 52129  1  0  0  0
 53 54  1  0  0  0
 54 55  2  0  0  0
 54130  1  0  0  0
 55 57  1  0  0  0
 55131  1  0  0  0
 56 69  2  0  0  0
 57 58  2  0  0  0
 57132  1  0  0  0
 58133  1  0  0  0
 59 60  1  0  0  0
 59 61  1  0  0  0
 59 62  1  0  0  0
 60134  1  0  0  0
 60135  1  0  0  0
 60136  1  0  0  0
 61137  1  0  0  0
 61138  1  0  0  0
 61139  1  0  0  0
 62140  1  0  0  0
 62141  1  0  0  0
 62142  1  0  0  0
 63 65  1  0  0  0
 63143  1  0  0  0
 63144  1  0  0  0
 63145  1  0  0  0
 64146  1  0  0  0
 65147  1  0  0  0
 68 82  1  0  0  0
 71 73  2  0  0  0
 71 75  1  0  0  0
 71148  1  0  0  0
 72 73  1  0  0  0
 72 76  2  0  0  0
 72149  1  0  0  0
 73 83  1  0  0  0
 74 75  2  0  0  0
 74 76  1  0  0  0
 74 84  1  0  0  0
 75 87  1  0  0  0
 76 88  1  0  0  0
 77 80  1  0  0  0
 77 83  1  0  0  0
 77 85  2  0  0  0
 78 81  1  0  0  0
 78 86  2  0  0  0
 78 80  1  0  0  0
 79 80  1  0  0  0
 79 83  1  0  0  0
 79150  1  0  0  0
 79151  1  0  0  0
 80 82  1  0  0  0
 81152  1  0  0  0
 81153  1  0  0  0
 81154  1  0  0  0
 82155  1  0  0  0
 82156  1  0  0  0
 84157  1  0  0  0
M  ISO  4   1 100  68 101  82 101  84 100
M  END
> <chiral flag>
0

> <version>
0

> <s_m_source_file>
/data/baiqing/PycharmProjects/Reinvent-master-3.2/result/LINK_invent/BTK/process_docking_weight1_custom_product_contain_oxygen_bond_distance_aromatic_linkinvent_7_9_3/rearranged_h_0070.sdf

> <i_m_source_file_index>
8

> <r_mmod_Potential_Energy-OPLS-2005>
64.6511688232422

> <r_mmod_Stretch_Energy-OPLS-2005>
104.428680419922

> <r_mmod_Bend_Energy-OPLS-2005>
194.198226928711

> <r_mmod_Torsional_Energy-OPLS-2005>
216.249801635742

> <r_mmod_Improper_Torsional_Energy-OPLS-2005>
5.94693231582642

> <r_mmod_Van_der_Waal_Energy-OPLS-2005>
143.775146484375

> <r_mmod_Electrostatic_Energy-OPLS-2005>
-434.330261230469

> <r_mmod_Solvation_Energy-OPLS-2005>
-232.052810668945

> <b_mmod_Minimization_Converged-OPLS-2005>
0

> <r_mmod_RMS_Derivative-OPLS-2005>
0.852547407150269

$$$$
8
                    3D
 Structure written by MMmdl.
159168  0  0  1  0            999 V2000
  -30.5728  -14.8407   20.4217 C   0  0  0  0  0  0
  -30.4365  -12.5092   19.4977 C   0  0  0  0  0  0
  -29.5262  -12.5189   18.2480 C   0  0  0  0  0  0
  -28.0495  -12.3333   18.6480 C   0  0  0  0  0  0
  -27.6373  -13.2424   19.8396 C   0  0  2  0  0  0
  -28.6757  -13.2163   20.9843 C   0  0  0  0  0  0
  -25.2480  -13.8200   20.5636 C   0  0  0  0  0  0
  -24.1782  -13.0443   20.9145 C   0  0  0  0  0  0
  -24.6370  -11.6919   20.8690 C   0  0  0  0  0  0
  -23.9023  -10.4297   21.0370 C   0  0  0  0  0  0
  -24.3563   -9.4221   21.9154 C   0  0  0  0  0  0
  -23.6252   -8.2252   22.0736 C   0  0  0  0  0  0
  -22.4241   -8.0259   21.3521 C   0  0  0  0  0  0
  -21.9862   -9.0227   20.4625 C   0  0  0  0  0  0
  -22.7188  -10.2126   20.3031 C   0  0  0  0  0  0
  -21.6846   -6.0704   22.5269 C   0  0  0  0  0  0
  -21.4027   -6.5616   23.8215 C   0  0  0  0  0  0
  -21.3676   -5.6759   24.9169 C   0  0  0  0  0  0
  -21.6056   -4.3019   24.7216 C   0  0  0  0  0  0
  -21.8826   -3.8113   23.4335 C   0  0  0  0  0  0
  -21.9198   -4.6930   22.3393 C   0  0  0  0  0  0
  -22.7818  -13.5260   21.1830 C   0  0  0  0  0  0
  -22.1662   -4.2117   21.0971 F   0  0  0  0  0  0
  -21.5625   -3.4512   25.7728 F   0  0  0  0  0  0
  -29.9724  -13.5920   20.4044 N   0  0  0  0  0  0
  -26.2902  -12.9415   20.3162 N   0  0  0  0  0  0
  -25.9303  -11.6554   20.5647 N   0  0  0  0  0  0
  -22.0423  -12.8298   22.0382 N   0  0  0  0  0  0
  -25.4170  -15.1933   20.4113 N   0  0  0  0  0  0
  -31.7649  -14.9168   20.0996 O   0  0  0  0  0  0
  -21.6612   -6.8845   21.4244 O   0  0  0  0  0  0
  -22.3539  -14.5577   20.6667 O   0  0  0  0  0  0
  -24.6399  -31.8507   23.1912 C   0  0  0  0  0  0
  -25.9195  -32.4733   23.8283 C   0  0  1  0  0  0
  -27.2218  -27.2065   20.1498 C   0  0  0  0  0  0
  -25.5961  -33.8538   24.2215 N   0  0  0  0  0  0
  -23.4410  -30.4692   21.5338 C   0  0  2  0  0  0
  -24.8914  -28.9031   20.1155 C   0  0  0  0  0  0
  -22.7553  -29.4599   22.4875 C   0  0  0  0  0  0
  -18.0321  -28.1421   22.8474 C   0  0  0  0  0  0
  -24.1502  -36.7256   23.2643 C   0  0  0  0  0  0
  -25.9916  -30.7437   21.3814 C   0  0  0  0  0  0
  -26.0654  -29.3593   20.7311 C   0  0  0  0  0  0
  -27.2372  -28.5237   20.7400 C   0  0  0  0  0  0
  -26.0285  -26.8310   19.5057 C   0  0  0  0  0  0
  -24.8801  -27.6475   19.4888 C   0  0  0  0  0  0
  -23.6648  -29.7946   20.1551 C   0  0  0  0  0  0
  -25.4136  -36.3049   24.0327 C   0  0  1  0  0  0
  -20.5934  -28.3748   23.1260 C   0  0  2  0  0  0
  -20.6814  -26.9461   22.5409 C   0  0  0  0  0  0
  -19.5773  -26.6402   21.5232 C   0  0  0  0  0  0
  -18.1952  -26.7961   22.1632 C   0  0  0  0  0  0
  -19.1575  -28.8900   23.2863 C   0  0  0  0  0  0
  -18.9489  -30.1500   23.8882 C   0  0  0  0  0  0
  -17.6487  -30.6608   24.0577 C   0  0  0  0  0  0
  -25.9077  -34.9432   23.5073 C   0  0  0  0  0  0
  -16.5376  -29.9095   23.6359 C   0  0  0  0  0  0
  -16.7311  -28.6522   23.0358 C   0  0  0  0  0  0
  -26.4518  -31.6575   25.0701 C   0  0  0  0  0  0
  -25.3692  -31.3760   26.1380 C   0  0  0  0  0  0
  -27.0376  -30.2981   24.6244 C   0  0  0  0  0  0
  -27.6087  -32.4296   25.7457 C   0  0  0  0  0  0
  -27.5595  -37.1777   24.8461 C   0  0  0  0  0  0
  -21.4262  -29.3058   22.3601 N   0  0  0  0  0  0
  -26.4289  -37.3771   23.9412 N   0  0  0  0  0  0
  -24.7101  -31.0427   22.0901 N   0  0  0  0  0  0
  -23.4205  -28.8165   23.3032 O   0  0  0  0  0  0
  -28.2529  -26.2268   20.1442 O   0  0  0  0  0  0
  -26.5646  -34.8926   22.4642 O   0  0  0  0  0  0
  -23.5532  -32.1345   23.7167 O   0  0  0  0  0  0
  -30.1900  -20.0913   19.0150 C   0  0  0  0  0  0
  -29.3204  -18.6408   20.7438 C   0  0  0  0  0  0
  -30.6822  -17.6691   18.9918 C   0  0  0  0  0  0
  -29.4245  -20.0206   20.2045 C   0  0  0  0  0  0
  -30.7878  -18.9557   18.4215 C   0  0  0  0  0  0
  -29.9462  -17.4311   20.1740 C   0  0  0  0  0  0
  -28.4601  -23.8068   21.2766 C   0  0  0  0  0  0
  -28.3803  -23.3474   22.6506 C   0  0  0  0  0  0
  -28.8078  -22.6493   20.3237 C   0  0  0  0  0  0
  -29.0692  -23.9322   23.6508 C   0  0  0  0  0  0
  -28.2189  -25.1967   21.1347 C   0  0  0  0  0  0
  -27.5417  -22.1368   22.8992 C   0  0  0  0  0  0
  -28.1232  -20.9719   22.0899 C   0  0  0  0  0  0
  -28.8230  -21.2919   20.8206 N   0  0  0  0  0  0
  -31.4910  -19.1066   17.2263 N   0  0  0  0  0  0
  -29.8035  -15.9996   20.6588 N   0  0  0  0  0  0
  -29.0519  -22.8937   19.1399 O   0  0  0  0  0  0
  -31.4801  -12.6378   19.2007 H   0  0  0  0  0  0
  -30.3881  -11.5440   20.0025 H   0  0  0  0  0  0
  -29.8291  -11.7353   17.5535 H   0  0  0  0  0  0
  -29.6467  -13.4644   17.7164 H   0  0  0  0  0  0
  -27.9091  -11.2836   18.9105 H   0  0  0  0  0  0
  -27.3993  -12.5183   17.7905 H   0  0  0  0  0  0
  -27.6232  -14.2574   19.4394 H   0  0  0  0  0  0
  -28.7280  -12.2293   21.4465 H   0  0  0  0  0  0
  -28.3819  -13.9129   21.7719 H   0  0  0  0  0  0
  -25.2713   -9.5739   22.4721 H   0  0  0  0  0  0
  -23.9951   -7.4673   22.7498 H   0  0  0  0  0  0
  -21.0760   -8.8733   19.8970 H   0  0  0  0  0  0
  -22.3594  -10.9626   19.6123 H   0  0  0  0  0  0
  -21.2029   -7.6136   23.9714 H   0  0  0  0  0  0
  -21.1498   -6.0480   25.9070 H   0  0  0  0  0  0
  -22.0600   -2.7579   23.2824 H   0  0  0  0  0  0
  -22.3945  -11.9933   22.4763 H   0  0  0  0  0  0
  -21.1078  -13.1429   22.2593 H   0  0  0  0  0  0
  -24.6441  -15.8416   20.5112 H   0  0  0  0  0  0
  -26.2632  -15.6364   20.0747 H   0  0  0  0  0  0
  -26.7259  -32.5362   23.1026 H   0  0  0  0  0  0
  -25.0138  -33.9647   25.0365 H   0  0  0  0  0  0
  -22.7448  -31.2959   21.3781 H   0  0  0  0  0  0
  -23.3787  -35.9560   23.3278 H   0  0  0  0  0  0
  -24.3618  -36.8910   22.2064 H   0  0  0  0  0  0
  -23.7196  -37.6433   23.6669 H   0  0  0  0  0  0
  -26.1431  -31.4994   20.6084 H   0  0  0  0  0  0
  -26.8633  -30.7925   22.0225 H   0  0  0  0  0  0
  -28.1330  -28.8657   21.2402 H   0  0  0  0  0  0
  -25.9776  -25.8596   19.0344 H   0  0  0  0  0  0
  -23.9841  -27.2930   18.9967 H   0  0  0  0  0  0
  -23.7888  -30.5595   19.3879 H   0  0  0  0  0  0
  -22.7847  -29.2246   19.8567 H   0  0  0  0  0  0
  -25.1316  -36.1889   25.0813 H   0  0  0  0  0  0
  -21.0066  -28.3333   24.1369 H   0  0  0  0  0  0
  -20.5763  -26.2366   23.3623 H   0  0  0  0  0  0
  -21.6679  -26.7494   22.1180 H   0  0  0  0  0  0
  -19.6950  -25.6298   21.1291 H   0  0  0  0  0  0
  -19.6734  -27.3208   20.6751 H   0  0  0  0  0  0
  -17.4254  -26.6762   21.3990 H   0  0  0  0  0  0
  -18.0332  -26.0098   22.9016 H   0  0  0  0  0  0
  -19.7960  -30.7327   24.2234 H   0  0  0  0  0  0
  -17.5035  -31.6290   24.5176 H   0  0  0  0  0  0
  -15.5363  -30.2999   23.7682 H   0  0  0  0  0  0
  -15.8717  -28.0838   22.7063 H   0  0  0  0  0  0
  -24.5900  -30.7086   25.7657 H   0  0  0  0  0  0
  -24.8829  -32.2954   26.4680 H   0  0  0  0  0  0
  -25.7960  -30.8988   27.0215 H   0  0  0  0  0  0
  -26.2979  -29.6704   24.1267 H   0  0  0  0  0  0
  -27.4032  -29.7281   25.4786 H   0  0  0  0  0  0
  -27.8872  -30.4234   23.9534 H   0  0  0  0  0  0
  -27.2737  -33.3624   26.2011 H   0  0  0  0  0  0
  -28.3914  -32.6810   25.0280 H   0  0  0  0  0  0
  -28.0754  -31.8418   26.5379 H   0  0  0  0  0  0
  -28.2588  -38.0098   24.7578 H   0  0  0  0  0  0
  -28.1119  -36.2643   24.6209 H   0  0  0  0  0  0
  -27.2344  -37.1344   25.8868 H   0  0  0  0  0  0
  -20.9481  -29.8700   21.6711 H   0  0  0  0  0  0
  -26.0180  -38.2839   24.1425 H   0  0  0  0  0  0
  -30.3416  -21.0371   18.5199 H   0  0  0  0  0  0
  -28.7440  -18.4881   21.6433 H   0  0  0  0  0  0
  -31.1600  -16.8415   18.4895 H   0  0  0  0  0  0
  -29.7091  -24.7864   23.4776 H   0  0  0  0  0  0
  -29.0221  -23.5526   24.6620 H   0  0  0  0  0  0
  -27.9720  -25.7108   22.0553 H   0  0  0  0  0  0
  -26.5246  -22.3603   22.5748 H   0  0  0  0  0  0
  -27.4851  -21.8944   23.9622 H   0  0  0  0  0  0
  -27.3204  -20.2588   21.8849 H   0  0  0  0  0  0
  -28.8426  -20.4683   22.7372 H   0  0  0  0  0  0
  -31.3073  -19.9177   16.6446 H   0  0  0  0  0  0
  -31.6980  -18.2784   16.6773 H   0  0  0  0  0  0
  -28.9176  -15.8014   21.1017 H   0  0  0  0  0  0
  1 25  1  0  0  0
  1 30  2  0  0  0
  1 86  1  0  0  0
  2  3  1  0  0  0
  2 25  1  0  0  0
  2 88  1  0  0  0
  2 89  1  0  0  0
  3  4  1  0  0  0
  3 90  1  0  0  0
  3 91  1  0  0  0
  4  5  1  0  0  0
  4 92  1  0  0  0
  4 93  1  0  0  0
  5  6  1  0  0  0
  5 26  1  0  0  0
  5 94  1  0  0  0
  6 25  1  0  0  0
  6 95  1  0  0  0
  6 96  1  0  0  0
  7  8  2  0  0  0
  7 26  1  0  0  0
  7 29  1  0  0  0
  8  9  1  0  0  0
  8 22  1  0  0  0
  9 10  1  0  0  0
  9 27  2  0  0  0
 10 11  2  0  0  0
 10 15  1  0  0  0
 11 12  1  0  0  0
 11 97  1  0  0  0
 12 13  2  0  0  0
 12 98  1  0  0  0
 13 14  1  0  0  0
 13 31  1  0  0  0
 14 15  2  0  0  0
 14 99  1  0  0  0
 15100  1  0  0  0
 16 17  2  0  0  0
 16 21  1  0  0  0
 16 31  1  0  0  0
 17 18  1  0  0  0
 17101  1  0  0  0
 18 19  2  0  0  0
 18102  1  0  0  0
 19 20  1  0  0  0
 19 24  1  0  0  0
 20 21  2  0  0  0
 20103  1  0  0  0
 21 23  1  0  0  0
 22 28  1  0  0  0
 22 32  2  0  0  0
 26 27  1  0  0  0
 28104  1  0  0  0
 28105  1  0  0  0
 29106  1  0  0  0
 29107  1  0  0  0
 33 34  1  0  0  0
 33 66  1  0  0  0
 33 70  2  0  0  0
 34 36  1  0  0  0
 34 59  1  0  0  0
 34108  1  0  0  0
 35 44  2  0  0  0
 35 45  1  0  0  0
 35 68  1  0  0  0
 36 56  1  0  0  0
 36109  1  0  0  0
 37 39  1  0  0  0
 37 47  1  0  0  0
 37 66  1  0  0  0
 37110  1  0  0  0
 38 43  2  0  0  0
 38 46  1  0  0  0
 38 47  1  0  0  0
 39 64  1  0  0  0
 39 67  2  0  0  0
 40 52  1  0  0  0
 40 53  2  0  0  0
 40 58  1  0  0  0
 41111  1  0  0  0
 41112  1  0  0  0
 41113  1  0  0  0
 41 48  1  0  0  0
 42 43  1  0  0  0
 42 66  1  0  0  0
 42114  1  0  0  0
 42115  1  0  0  0
 43 44  1  0  0  0
 44116  1  0  0  0
 45 46  2  0  0  0
 45117  1  0  0  0
 46118  1  0  0  0
 47119  1  0  0  0
 47120  1  0  0  0
 48 56  1  0  0  0
 48 65  1  0  0  0
 48121  1  0  0  0
 49 50  1  0  0  0
 49 53  1  0  0  0
 49 64  1  0  0  0
 49122  1  0  0  0
 50 51  1  0  0  0
 50123  1  0  0  0
 50124  1  0  0  0
 51 52  1  0  0  0
 51125  1  0  0  0
 51126  1  0  0  0
 52127  1  0  0  0
 52128  1  0  0  0
 53 54  1  0  0  0
 54 55  2  0  0  0
 54129  1  0  0  0
 55 57  1  0  0  0
 55130  1  0  0  0
 56 69  2  0  0  0
 57 58  2  0  0  0
 57131  1  0  0  0
 58132  1  0  0  0
 59 60  1  0  0  0
 59 61  1  0  0  0
 59 62  1  0  0  0
 60133  1  0  0  0
 60134  1  0  0  0
 60135  1  0  0  0
 61136  1  0  0  0
 61137  1  0  0  0
 61138  1  0  0  0
 62139  1  0  0  0
 62140  1  0  0  0
 62141  1  0  0  0
 63 65  1  0  0  0
 63142  1  0  0  0
 63143  1  0  0  0
 63144  1  0  0  0
 64145  1  0  0  0
 65146  1  0  0  0
 68 81  1  0  0  0
 71 74  2  0  0  0
 71 75  1  0  0  0
 71147  1  0  0  0
 72 74  1  0  0  0
 72 76  2  0  0  0
 72148  1  0  0  0
 73 75  2  0  0  0
 73 76  1  0  0  0
 73149  1  0  0  0
 74 84  1  0  0  0
 75 85  1  0  0  0
 76 86  1  0  0  0
 77 78  1  0  0  0
 77 79  1  0  0  0
 77 81  2  0  0  0
 78 80  2  0  0  0
 78 82  1  0  0  0
 79 84  1  0  0  0
 79 87  2  0  0  0
 80150  1  0  0  0
 80151  1  0  0  0
 81152  1  0  0  0
 82 83  1  0  0  0
 82153  1  0  0  0
 82154  1  0  0  0
 83 84  1  0  0  0
 83155  1  0  0  0
 83156  1  0  0  0
 85157  1  0  0  0
 85158  1  0  0  0
 86159  1  0  0  0
M  ISO  4   1 100  68 101  81 101  86 100
M  END
> <chiral flag>
0

> <version>
0

> <s_m_source_file>
/data/baiqing/PycharmProjects/Reinvent-master-3.2/result/LINK_invent/BTK/process_docking_weight1_custom_product_contain_oxygen_bond_distance_aromatic_linkinvent_7_9_3/rearranged_h_0070.sdf

> <i_m_source_file_index>
9

> <r_mmod_Potential_Energy-OPLS-2005>
558.321655273438

> <r_mmod_Stretch_Energy-OPLS-2005>
200.341217041016

> <r_mmod_Bend_Energy-OPLS-2005>
265.931610107422

> <r_mmod_Torsional_Energy-OPLS-2005>
300.809265136719

> <r_mmod_Improper_Torsional_Energy-OPLS-2005>
6.85955429077148

> <r_mmod_Van_der_Waal_Energy-OPLS-2005>
159.968643188477

> <r_mmod_Electrostatic_Energy-OPLS-2005>
-277.056396484375

> <r_mmod_Solvation_Energy-OPLS-2005>
-231.210174560547

> <b_mmod_Minimization_Converged-OPLS-2005>
0

> <r_mmod_RMS_Derivative-OPLS-2005>
4.63447999954224

$$$$
9
                    3D
 Structure written by MMmdl.
161170  0  0  1  0            999 V2000
  -30.5433  -14.7749   20.5144 C   0  0  0  0  0  0
  -30.4610  -12.4850   19.4783 C   0  0  0  0  0  0
  -29.5244  -12.5212   18.2441 C   0  0  0  0  0  0
  -28.0515  -12.3244   18.6591 C   0  0  0  0  0  0
  -27.6507  -13.2182   19.8604 C   0  0  2  0  0  0
  -28.6898  -13.1126   20.9972 C   0  0  0  0  0  0
  -25.2540  -13.8161   20.5669 C   0  0  0  0  0  0
  -24.1812  -13.0446   20.9237 C   0  0  0  0  0  0
  -24.6372  -11.6909   20.8758 C   0  0  0  0  0  0
  -23.9035  -10.4316   21.0424 C   0  0  0  0  0  0
  -24.3606   -9.4226   21.9195 C   0  0  0  0  0  0
  -23.6284   -8.2258   22.0775 C   0  0  0  0  0  0
  -22.4254   -8.0317   21.3582 C   0  0  0  0  0  0
  -21.9871   -9.0284   20.4668 C   0  0  0  0  0  0
  -22.7207  -10.2153   20.3073 C   0  0  0  0  0  0
  -21.6851   -6.0733   22.5308 C   0  0  0  0  0  0
  -21.3990   -6.5635   23.8237 C   0  0  0  0  0  0
  -21.3659   -5.6786   24.9208 C   0  0  0  0  0  0
  -21.6067   -4.3063   24.7229 C   0  0  0  0  0  0
  -21.8814   -3.8146   23.4355 C   0  0  0  0  0  0
  -21.9174   -4.6962   22.3402 C   0  0  0  0  0  0
  -22.7832  -13.5281   21.1870 C   0  0  0  0  0  0
  -22.1659   -4.2159   21.0973 F   0  0  0  0  0  0
  -21.5610   -3.4546   25.7729 F   0  0  0  0  0  0
  -29.9916  -13.5119   20.4386 N   0  0  0  0  0  0
  -26.2970  -12.9344   20.3263 N   0  0  0  0  0  0
  -25.9298  -11.6522   20.5741 N   0  0  0  0  0  0
  -22.0408  -12.8322   22.0414 N   0  0  0  0  0  0
  -25.4184  -15.1870   20.3961 N   0  0  0  0  0  0
  -31.7096  -14.9641   20.1439 O   0  0  0  0  0  0
  -21.6641   -6.8905   21.4286 O   0  0  0  0  0  0
  -22.3548  -14.5567   20.6662 O   0  0  0  0  0  0
  -24.6301  -31.8530   23.1977 C   0  0  0  0  0  0
  -25.9119  -32.4748   23.8308 C   0  0  1  0  0  0
  -27.2380  -27.2702   20.1203 C   0  0  0  0  0  0
  -25.5924  -33.8561   24.2244 N   0  0  0  0  0  0
  -23.4290  -30.4732   21.5357 C   0  0  2  0  0  0
  -24.8816  -28.9187   20.1044 C   0  0  0  0  0  0
  -22.7513  -29.4564   22.4862 C   0  0  0  0  0  0
  -18.0299  -28.1399   22.8458 C   0  0  0  0  0  0
  -24.1497  -36.7297   23.2645 C   0  0  0  0  0  0
  -25.9733  -30.7653   21.3795 C   0  0  0  0  0  0
  -26.0469  -29.3892   20.7202 C   0  0  0  0  0  0
  -27.2208  -28.5706   20.7298 C   0  0  0  0  0  0
  -26.0463  -26.8583   19.4879 C   0  0  0  0  0  0
  -24.8822  -27.6603   19.4818 C   0  0  0  0  0  0
  -23.6504  -29.8057   20.1510 C   0  0  0  0  0  0
  -25.4118  -36.3063   24.0319 C   0  0  1  0  0  0
  -20.5913  -28.3682   23.1238 C   0  0  2  0  0  0
  -20.6782  -26.9402   22.5388 C   0  0  0  0  0  0
  -19.5762  -26.6369   21.5191 C   0  0  0  0  0  0
  -18.1941  -26.7931   22.1606 C   0  0  0  0  0  0
  -19.1543  -28.8869   23.2844 C   0  0  0  0  0  0
  -18.9482  -30.1465   23.8872 C   0  0  0  0  0  0
  -17.6482  -30.6566   24.0554 C   0  0  0  0  0  0
  -25.9053  -34.9435   23.5088 C   0  0  0  0  0  0
  -16.5375  -29.9078   23.6328 C   0  0  0  0  0  0
  -16.7300  -28.6516   23.0334 C   0  0  0  0  0  0
  -26.4474  -31.6608   25.0730 C   0  0  0  0  0  0
  -25.3703  -31.3784   26.1465 C   0  0  0  0  0  0
  -27.0308  -30.3025   24.6251 C   0  0  0  0  0  0
  -27.6030  -32.4350   25.7484 C   0  0  0  0  0  0
  -27.5578  -37.1799   24.8451 C   0  0  0  0  0  0
  -21.4222  -29.3028   22.3633 N   0  0  0  0  0  0
  -26.4290  -37.3761   23.9394 N   0  0  0  0  0  0
  -24.6963  -31.0474   22.0956 N   0  0  0  0  0  0
  -23.4211  -28.8123   23.2960 O   0  0  0  0  0  0
  -28.3443  -26.3934   20.2357 O   0  0  0  0  0  0
  -26.5619  -34.8901   22.4654 O   0  0  0  0  0  0
  -23.5437  -32.1358   23.7266 O   0  0  0  0  0  0
  -30.4183  -19.6552   20.6851 C   0  0  0  0  0  0
  -30.6524  -18.2314   20.7832 C   0  0  0  0  0  0
  -28.3206  -17.8974   20.5983 C   0  0  0  0  0  0
  -28.0880  -19.3163   20.4813 C   0  0  0  0  0  0
  -29.1456  -20.3056   20.5066 C   0  0  0  0  0  0
  -29.5966  -17.2817   20.7234 C   0  0  0  0  0  0
  -29.8705  -22.9486   20.2719 C   0  0  0  0  0  0
  -26.6555  -19.6771   20.3276 C   0  0  0  0  0  0
  -27.8359  -22.6371   20.1111 C   0  0  0  0  0  0
  -28.7710  -23.6670   19.3734 C   0  0  2  0  0  0
  -29.1099  -23.2731   17.9089 C   0  0  0  0  0  0
  -28.6266  -25.3023   19.2627 C   0  0  0  0  0  0
  -25.8953  -20.1466   21.5649 C   0  0  0  0  0  0
  -26.0415  -19.5539   19.2240 N   0  0  0  0  0  0
  -29.0429  -21.8029   20.3427 N   0  0  0  0  0  0
  -29.6743  -15.7980   20.8756 N   0  0  0  0  0  0
  -30.9841  -23.1751   20.6940 O   0  0  0  0  0  0
  -24.9779  -21.0669   21.2554 F   0  0  0  0  0  0
  -26.6992  -20.6435   22.5037 F   0  0  0  0  0  0
  -31.4947  -12.6653   19.1720 H   0  0  0  0  0  0
  -30.4564  -11.4976   19.9442 H   0  0  0  0  0  0
  -29.8138  -11.7534   17.5228 H   0  0  0  0  0  0
  -29.6358  -13.4766   17.7278 H   0  0  0  0  0  0
  -27.9256  -11.2742   18.9250 H   0  0  0  0  0  0
  -27.3935  -12.5145   17.8125 H   0  0  0  0  0  0
  -27.6530  -14.2423   19.4893 H   0  0  0  0  0  0
  -28.7307  -12.0866   21.3659 H   0  0  0  0  0  0
  -28.4107  -13.7342   21.8511 H   0  0  0  0  0  0
  -25.2770   -9.5659   22.4771 H   0  0  0  0  0  0
  -23.9998   -7.4604   22.7449 H   0  0  0  0  0  0
  -21.0820   -8.8798   19.8954 H   0  0  0  0  0  0
  -22.3703  -10.9687   19.6183 H   0  0  0  0  0  0
  -21.1994   -7.6145   23.9734 H   0  0  0  0  0  0
  -21.1484   -6.0527   25.9103 H   0  0  0  0  0  0
  -22.0570   -2.7607   23.2854 H   0  0  0  0  0  0
  -22.3985  -12.0071   22.4996 H   0  0  0  0  0  0
  -21.1004  -13.1385   22.2497 H   0  0  0  0  0  0
  -24.6088  -15.7972   20.4267 H   0  0  0  0  0  0
  -26.1885  -15.5753   19.8661 H   0  0  0  0  0  0
  -26.7200  -32.5403   23.1045 H   0  0  0  0  0  0
  -25.0027  -33.9679   25.0354 H   0  0  0  0  0  0
  -22.7248  -31.2944   21.3866 H   0  0  0  0  0  0
  -23.3741  -35.9652   23.3317 H   0  0  0  0  0  0
  -24.3580  -36.8928   22.2061 H   0  0  0  0  0  0
  -23.7273  -37.6508   23.6676 H   0  0  0  0  0  0
  -26.1191  -31.5284   20.6109 H   0  0  0  0  0  0
  -26.8503  -30.8081   22.0180 H   0  0  0  0  0  0
  -28.1109  -28.9154   21.2362 H   0  0  0  0  0  0
  -25.9763  -25.8788   19.0374 H   0  0  0  0  0  0
  -23.9837  -27.2885   19.0088 H   0  0  0  0  0  0
  -23.7835  -30.5853   19.3971 H   0  0  0  0  0  0
  -22.7670  -29.2419   19.8412 H   0  0  0  0  0  0
  -25.1292  -36.1901   25.0809 H   0  0  0  0  0  0
  -20.9988  -28.3283   24.1359 H   0  0  0  0  0  0
  -20.5639  -26.2304   23.3583 H   0  0  0  0  0  0
  -21.6656  -26.7382   22.1208 H   0  0  0  0  0  0
  -19.6911  -25.6275   21.1235 H   0  0  0  0  0  0
  -19.6709  -27.3150   20.6701 H   0  0  0  0  0  0
  -17.4192  -26.6644   21.4044 H   0  0  0  0  0  0
  -18.0364  -26.0084   22.9010 H   0  0  0  0  0  0
  -19.7962  -30.7291   24.2218 H   0  0  0  0  0  0
  -17.5031  -31.6256   24.5175 H   0  0  0  0  0  0
  -15.5369  -30.2978   23.7660 H   0  0  0  0  0  0
  -15.8679  -28.0820   22.7037 H   0  0  0  0  0  0
  -24.5817  -30.7202   25.7789 H   0  0  0  0  0  0
  -24.8966  -32.2982   26.4918 H   0  0  0  0  0  0
  -25.8006  -30.8913   27.0226 H   0  0  0  0  0  0
  -26.2904  -29.6779   24.1254 H   0  0  0  0  0  0
  -27.3945  -29.7270   25.4761 H   0  0  0  0  0  0
  -27.8791  -30.4284   23.9525 H   0  0  0  0  0  0
  -27.2652  -33.3635   26.2089 H   0  0  0  0  0  0
  -28.3823  -32.6962   25.0316 H   0  0  0  0  0  0
  -28.0740  -31.8490   26.5381 H   0  0  0  0  0  0
  -28.2588  -38.0097   24.7462 H   0  0  0  0  0  0
  -28.1070  -36.2619   24.6301 H   0  0  0  0  0  0
  -27.2292  -37.1492   25.8854 H   0  0  0  0  0  0
  -20.9396  -29.8807   21.6880 H   0  0  0  0  0  0
  -26.0165  -38.2836   24.1392 H   0  0  0  0  0  0
  -31.2997  -20.2786   20.7485 H   0  0  0  0  0  0
  -31.6642  -17.8857   20.9325 H   0  0  0  0  0  0
  -27.4586  -17.2469   20.5858 H   0  0  0  0  0  0
  -27.0852  -22.2180   19.4423 H   0  0  0  0  0  0
  -27.3861  -23.0239   21.0308 H   0  0  0  0  0  0
  -29.1331  -22.1921   17.7559 H   0  0  0  0  0  0
  -30.0890  -23.6460   17.6047 H   0  0  0  0  0  0
  -28.3837  -23.6615   17.1963 H   0  0  0  0  0  0
  -28.0023  -25.5089   18.3940 H   0  0  0  0  0  0
  -29.5994  -25.6399   18.9031 H   0  0  0  0  0  0
  -25.3686  -19.2991   22.0057 H   0  0  0  0  0  0
  -26.6417  -19.2104   18.4827 H   0  0  0  0  0  0
  -28.7940  -15.3972   21.1574 H   0  0  0  0  0  0
  1 25  1  0  0  0
  1 30  2  0  0  0
  1 86  1  0  0  0
  2  3  1  0  0  0
  2 25  1  0  0  0
  2 90  1  0  0  0
  2 91  1  0  0  0
  3  4  1  0  0  0
  3 92  1  0  0  0
  3 93  1  0  0  0
  4  5  1  0  0  0
  4 94  1  0  0  0
  4 95  1  0  0  0
  5  6  1  0  0  0
  5 26  1  0  0  0
  5 96  1  0  0  0
  6 25  1  0  0  0
  6 97  1  0  0  0
  6 98  1  0  0  0
  7  8  2  0  0  0
  7 26  1  0  0  0
  7 29  1  0  0  0
  8  9  1  0  0  0
  8 22  1  0  0  0
  9 10  1  0  0  0
  9 27  2  0  0  0
 10 11  2  0  0  0
 10 15  1  0  0  0
 11 12  1  0  0  0
 11 99  1  0  0  0
 12 13  2  0  0  0
 12100  1  0  0  0
 13 14  1  0  0  0
 13 31  1  0  0  0
 14 15  2  0  0  0
 14101  1  0  0  0
 15102  1  0  0  0
 16 17  2  0  0  0
 16 21  1  0  0  0
 16 31  1  0  0  0
 17 18  1  0  0  0
 17103  1  0  0  0
 18 19  2  0  0  0
 18104  1  0  0  0
 19 20  1  0  0  0
 19 24  1  0  0  0
 20 21  2  0  0  0
 20105  1  0  0  0
 21 23  1  0  0  0
 22 28  1  0  0  0
 22 32  2  0  0  0
 26 27  1  0  0  0
 28106  1  0  0  0
 28107  1  0  0  0
 29108  1  0  0  0
 29109  1  0  0  0
 33 34  1  0  0  0
 33 66  1  0  0  0
 33 70  2  0  0  0
 34 36  1  0  0  0
 34 59  1  0  0  0
 34110  1  0  0  0
 35 44  2  0  0  0
 35 45  1  0  0  0
 35 68  1  0  0  0
 36 56  1  0  0  0
 36111  1  0  0  0
 37 39  1  0  0  0
 37 47  1  0  0  0
 37 66  1  0  0  0
 37112  1  0  0  0
 38 43  2  0  0  0
 38 46  1  0  0  0
 38 47  1  0  0  0
 39 64  1  0  0  0
 39 67  2  0  0  0
 40 52  1  0  0  0
 40 53  2  0  0  0
 40 58  1  0  0  0
 41113  1  0  0  0
 41114  1  0  0  0
 41115  1  0  0  0
 41 48  1  0  0  0
 42 43  1  0  0  0
 42 66  1  0  0  0
 42116  1  0  0  0
 42117  1  0  0  0
 43 44  1  0  0  0
 44118  1  0  0  0
 45 46  2  0  0  0
 45119  1  0  0  0
 46120  1  0  0  0
 47121  1  0  0  0
 47122  1  0  0  0
 48 56  1  0  0  0
 48 65  1  0  0  0
 48123  1  0  0  0
 49 50  1  0  0  0
 49 53  1  0  0  0
 49 64  1  0  0  0
 49124  1  0  0  0
 50 51  1  0  0  0
 50125  1  0  0  0
 50126  1  0  0  0
 51 52  1  0  0  0
 51127  1  0  0  0
 51128  1  0  0  0
 52129  1  0  0  0
 52130  1  0  0  0
 53 54  1  0  0  0
 54 55  2  0  0  0
 54131  1  0  0  0
 55 57  1  0  0  0
 55132  1  0  0  0
 56 69  2  0  0  0
 57 58  2  0  0  0
 57133  1  0  0  0
 58134  1  0  0  0
 59 60  1  0  0  0
 59 61  1  0  0  0
 59 62  1  0  0  0
 60135  1  0  0  0
 60136  1  0  0  0
 60137  1  0  0  0
 61138  1  0  0  0
 61139  1  0  0  0
 61140  1  0  0  0
 62141  1  0  0  0
 62142  1  0  0  0
 62143  1  0  0  0
 63 65  1  0  0  0
 63144  1  0  0  0
 63145  1  0  0  0
 63146  1  0  0  0
 64147  1  0  0  0
 65148  1  0  0  0
 68 82  1  0  0  0
 71 72  2  0  0  0
 71 75  1  0  0  0
 71149  1  0  0  0
 72 76  1  0  0  0
 72150  1  0  0  0
 73 74  1  0  0  0
 73 76  2  0  0  0
 73151  1  0  0  0
 74 75  2  0  0  0
 74 78  1  0  0  0
 75 85  1  0  0  0
 76 86  1  0  0  0
 77 80  1  0  0  0
 77 85  1  0  0  0
 77 87  2  0  0  0
 78 83  1  0  0  0
 78 84  2  0  0  0
 79 80  1  0  0  0
 79 85  1  0  0  0
 79152  1  0  0  0
 79153  1  0  0  0
 80 81  1  0  0  0
 80 82  1  0  0  0
 81154  1  0  0  0
 81155  1  0  0  0
 81156  1  0  0  0
 82157  1  0  0  0
 82158  1  0  0  0
 83 88  1  0  0  0
 83 89  1  0  0  0
 83159  1  0  0  0
 84160  1  0  0  0
 86161  1  0  0  0
M  ISO  4   1 100  68 101  82 101  86 100
M  END
> <chiral flag>
0

> <version>
0

> <s_m_source_file>
/data/baiqing/PycharmProjects/Reinvent-master-3.2/result/LINK_invent/BTK/process_docking_weight1_custom_product_contain_oxygen_bond_distance_aromatic_linkinvent_7_9_3/rearranged_h_0070.sdf

> <i_m_source_file_index>
10

> <r_mmod_Potential_Energy-OPLS-2005>
342.30517578125

> <r_mmod_Stretch_Energy-OPLS-2005>
133.20246887207

> <r_mmod_Bend_Energy-OPLS-2005>
299.598449707031

> <r_mmod_Torsional_Energy-OPLS-2005>
256.123291015625

> <r_mmod_Improper_Torsional_Energy-OPLS-2005>
6.73672294616699

> <r_mmod_Van_der_Waal_Energy-OPLS-2005>
139.624298095703

> <r_mmod_Electrostatic_Energy-OPLS-2005>
-355.885650634766

> <r_mmod_Solvation_Energy-OPLS-2005>
-230.671096801758

> <b_mmod_Minimization_Converged-OPLS-2005>
0

> <r_mmod_RMS_Derivative-OPLS-2005>
5.57309722900391

$$$$
10
                    3D
 Structure written by MMmdl.
157165  0  0  1  0            999 V2000
  -30.5020  -15.0533   20.4078 C   0  0  0  0  0  0
  -30.4418  -12.6654   19.4954 C   0  0  0  0  0  0
  -29.5226  -12.5390   18.2580 C   0  0  0  0  0  0
  -28.0622  -12.3025   18.6848 C   0  0  0  0  0  0
  -27.6207  -13.2541   19.8265 C   0  0  2  0  0  0
  -28.6625  -13.3360   20.9606 C   0  0  0  0  0  0
  -25.2433  -13.8219   20.5711 C   0  0  0  0  0  0
  -24.1766  -13.0435   20.9244 C   0  0  0  0  0  0
  -24.6394  -11.6924   20.8761 C   0  0  0  0  0  0
  -23.9081  -10.4291   21.0416 C   0  0  0  0  0  0
  -24.3631   -9.4203   21.9190 C   0  0  0  0  0  0
  -23.6297   -8.2242   22.0755 C   0  0  0  0  0  0
  -22.4277   -8.0285   21.3547 C   0  0  0  0  0  0
  -21.9924   -9.0259   20.4645 C   0  0  0  0  0  0
  -22.7259  -10.2135   20.3056 C   0  0  0  0  0  0
  -21.6855   -6.0738   22.5277 C   0  0  0  0  0  0
  -21.4016   -6.5641   23.8210 C   0  0  0  0  0  0
  -21.3656   -5.6793   24.9173 C   0  0  0  0  0  0
  -21.6045   -4.3054   24.7225 C   0  0  0  0  0  0
  -21.8818   -3.8148   23.4344 C   0  0  0  0  0  0
  -21.9193   -4.6965   22.3402 C   0  0  0  0  0  0
  -22.7787  -13.5205   21.1894 C   0  0  0  0  0  0
  -22.1662   -4.2152   21.0977 F   0  0  0  0  0  0
  -21.5627   -3.4536   25.7735 F   0  0  0  0  0  0
  -29.9186  -13.7801   20.3442 N   0  0  0  0  0  0
  -26.2851  -12.9456   20.3212 N   0  0  0  0  0  0
  -25.9325  -11.6581   20.5729 N   0  0  0  0  0  0
  -22.0430  -12.8193   22.0442 N   0  0  0  0  0  0
  -25.4062  -15.1949   20.4121 N   0  0  0  0  0  0
  -31.7220  -15.0886   20.2060 O   0  0  0  0  0  0
  -21.6639   -6.8883   21.4239 O   0  0  0  0  0  0
  -22.3475  -14.5506   20.6725 O   0  0  0  0  0  0
  -24.6505  -31.8376   23.1820 C   0  0  0  0  0  0
  -25.9247  -32.4660   23.8234 C   0  0  1  0  0  0
  -27.2138  -27.0643   20.1598 C   0  0  0  0  0  0
  -25.5966  -33.8469   24.2151 N   0  0  0  0  0  0
  -23.4581  -30.4545   21.5294 C   0  0  2  0  0  0
  -24.9087  -28.8704   20.1085 C   0  0  0  0  0  0
  -22.7606  -29.4507   22.4826 C   0  0  0  0  0  0
  -18.0309  -28.1391   22.8466 C   0  0  0  0  0  0
  -24.1493  -36.7245   23.2645 C   0  0  0  0  0  0
  -26.0186  -30.6882   21.3913 C   0  0  0  0  0  0
  -26.0891  -29.2923   20.7337 C   0  0  0  0  0  0
  -27.2420  -28.4066   20.7410 C   0  0  0  0  0  0
  -26.0070  -26.7652   19.4888 C   0  0  0  0  0  0
  -24.8842  -27.6226   19.4695 C   0  0  0  0  0  0
  -23.6891  -29.7819   20.1500 C   0  0  0  0  0  0
  -25.4123  -36.3008   24.0310 C   0  0  1  0  0  0
  -20.5927  -28.3724   23.1212 C   0  0  2  0  0  0
  -20.6786  -26.9416   22.5397 C   0  0  0  0  0  0
  -19.5760  -26.6370   21.5208 C   0  0  0  0  0  0
  -18.1945  -26.7925   22.1618 C   0  0  0  0  0  0
  -19.1569  -28.8875   23.2829 C   0  0  0  0  0  0
  -18.9481  -30.1468   23.8859 C   0  0  0  0  0  0
  -17.6477  -30.6585   24.0552 C   0  0  0  0  0  0
  -25.9078  -34.9389   23.5046 C   0  0  0  0  0  0
  -16.5368  -29.9078   23.6333 C   0  0  0  0  0  0
  -16.7297  -28.6495   23.0356 C   0  0  0  0  0  0
  -26.4541  -31.6553   25.0709 C   0  0  0  0  0  0
  -25.3698  -31.3759   26.1382 C   0  0  0  0  0  0
  -27.0428  -30.2945   24.6339 C   0  0  0  0  0  0
  -27.6051  -32.4334   25.7501 C   0  0  0  0  0  0
  -27.5572  -37.1773   24.8458 C   0  0  0  0  0  0
  -21.4287  -29.3047   22.3580 N   0  0  0  0  0  0
  -26.4276  -37.3733   23.9409 N   0  0  0  0  0  0
  -24.7295  -31.0161   22.0892 N   0  0  0  0  0  0
  -23.4223  -28.8042   23.2989 O   0  0  0  0  0  0
  -28.2350  -26.0242   20.2382 O   0  0  0  0  0  0
  -26.5682  -34.8905   22.4633 O   0  0  0  0  0  0
  -23.5608  -32.1279   23.7004 O   0  0  0  0  0  0
  -30.7587  -20.5752   21.1893 C   0  0  0  0  0  0
  -31.2091  -18.1322   21.2246 C   0  0  0  0  0  0
  -29.1550  -19.0087   20.2857 C   0  0  0  0  0  0
  -31.5821  -19.4672   21.5296 C   0  0  0  0  0  0
  -29.5044  -20.4567   20.5452 C   0  0  0  0  0  0
  -29.9928  -17.7906   20.6013 C   0  0  0  0  0  0
  -28.9642  -23.2047   20.3805 C   0  0  0  0  0  0
  -32.8426  -19.0975   23.6948 C   0  0  0  0  0  0
  -34.1065  -19.1672   21.4953 C   0  0  0  0  0  0
  -27.8988  -24.4774   20.0718 C   0  0  0  0  0  0
  -32.8977  -19.6975   22.2808 C   0  0  0  0  0  0
  -28.7012  -21.7798   20.2626 N   0  0  0  0  0  0
  -29.7062  -16.2619   20.4347 N   0  0  0  0  0  0
  -30.0905  -23.5684   20.7246 O   0  0  0  0  0  0
  -33.1198  -21.0025   22.4457 F   0  0  0  0  0  0
  -31.4667  -12.8518   19.1707 H   0  0  0  0  0  0
  -30.4727  -11.7318   20.0589 H   0  0  0  0  0  0
  -29.8626  -11.7271   17.6142 H   0  0  0  0  0  0
  -29.5858  -13.4507   17.6621 H   0  0  0  0  0  0
  -27.9830  -11.2675   19.0196 H   0  0  0  0  0  0
  -27.3942  -12.3972   17.8276 H   0  0  0  0  0  0
  -27.5649  -14.2424   19.3696 H   0  0  0  0  0  0
  -28.7814  -12.3756   21.4637 H   0  0  0  0  0  0
  -28.3442  -14.0513   21.7206 H   0  0  0  0  0  0
  -25.2770   -9.5678   22.4774 H   0  0  0  0  0  0
  -23.9997   -7.4636   22.7483 H   0  0  0  0  0  0
  -21.0852   -8.8791   19.8954 H   0  0  0  0  0  0
  -22.3722  -10.9679   19.6167 H   0  0  0  0  0  0
  -21.2008   -7.6148   23.9717 H   0  0  0  0  0  0
  -21.1479   -6.0521   25.9078 H   0  0  0  0  0  0
  -22.0598   -2.7610   23.2844 H   0  0  0  0  0  0
  -22.4053  -11.9864   22.4838 H   0  0  0  0  0  0
  -21.1046  -13.1213   22.2633 H   0  0  0  0  0  0
  -24.6297  -15.8386   20.5169 H   0  0  0  0  0  0
  -26.2385  -15.6385   20.0483 H   0  0  0  0  0  0
  -26.7313  -32.5247   23.0954 H   0  0  0  0  0  0
  -25.0067  -33.9561   25.0266 H   0  0  0  0  0  0
  -22.7646  -31.2825   21.3700 H   0  0  0  0  0  0
  -23.3766  -35.9566   23.3276 H   0  0  0  0  0  0
  -24.3573  -36.8920   22.2065 H   0  0  0  0  0  0
  -23.7237  -37.6422   23.6713 H   0  0  0  0  0  0
  -26.1812  -31.4381   20.6159 H   0  0  0  0  0  0
  -26.8866  -30.7429   22.0363 H   0  0  0  0  0  0
  -28.1370  -28.7230   21.2588 H   0  0  0  0  0  0
  -25.8919  -25.8142   18.9923 H   0  0  0  0  0  0
  -23.9848  -27.2943   18.9667 H   0  0  0  0  0  0
  -23.8327  -30.5562   19.3952 H   0  0  0  0  0  0
  -22.8023  -29.2288   19.8356 H   0  0  0  0  0  0
  -25.1309  -36.1831   25.0800 H   0  0  0  0  0  0
  -21.0014  -28.3330   24.1337 H   0  0  0  0  0  0
  -20.5679  -26.2337   23.3628 H   0  0  0  0  0  0
  -21.6651  -26.7410   22.1196 H   0  0  0  0  0  0
  -19.6925  -25.6279   21.1253 H   0  0  0  0  0  0
  -19.6706  -27.3168   20.6729 H   0  0  0  0  0  0
  -17.4210  -26.6672   21.4025 H   0  0  0  0  0  0
  -18.0337  -26.0077   22.9020 H   0  0  0  0  0  0
  -19.7965  -30.7277   24.2230 H   0  0  0  0  0  0
  -17.5039  -31.6268   24.5153 H   0  0  0  0  0  0
  -15.5370  -30.2969   23.7677 H   0  0  0  0  0  0
  -15.8693  -28.0803   22.7095 H   0  0  0  0  0  0
  -24.5894  -30.7093   25.7681 H   0  0  0  0  0  0
  -24.8862  -32.2944   26.4719 H   0  0  0  0  0  0
  -25.7947  -30.8979   27.0217 H   0  0  0  0  0  0
  -26.3070  -29.6637   24.1336 H   0  0  0  0  0  0
  -27.4012  -29.7276   25.4939 H   0  0  0  0  0  0
  -27.8986  -30.4165   23.9695 H   0  0  0  0  0  0
  -27.2645  -33.3679   26.1974 H   0  0  0  0  0  0
  -28.3919  -32.6824   25.0365 H   0  0  0  0  0  0
  -28.0660  -31.8528   26.5504 H   0  0  0  0  0  0
  -28.2550  -38.0108   24.7527 H   0  0  0  0  0  0
  -28.1111  -36.2630   24.6256 H   0  0  0  0  0  0
  -27.2290  -37.1375   25.8862 H   0  0  0  0  0  0
  -20.9512  -29.8787   21.6768 H   0  0  0  0  0  0
  -26.0145  -38.2797   24.1437 H   0  0  0  0  0  0
  -31.1100  -21.5551   21.4649 H   0  0  0  0  0  0
  -31.8789  -17.3404   21.5257 H   0  0  0  0  0  0
  -28.1947  -18.8245   19.8252 H   0  0  0  0  0  0
  -32.6863  -18.0192   23.6736 H   0  0  0  0  0  0
  -32.0313  -19.5357   24.2764 H   0  0  0  0  0  0
  -33.7708  -19.2808   24.2358 H   0  0  0  0  0  0
  -34.0742  -18.0840   21.3760 H   0  0  0  0  0  0
  -35.0383  -19.4099   22.0068 H   0  0  0  0  0  0
  -34.1543  -19.6111   20.5004 H   0  0  0  0  0  0
  -27.0181  -24.2817   20.6843 H   0  0  0  0  0  0
  -27.5763  -24.3331   19.0410 H   0  0  0  0  0  0
  -27.7615  -21.6111   19.9267 H   0  0  0  0  0  0
  -28.7230  -16.0495   20.3619 H   0  0  0  0  0  0
  1 25  1  0  0  0
  1 30  2  0  0  0
  1 83  1  0  0  0
  2  3  1  0  0  0
  2 25  1  0  0  0
  2 86  1  0  0  0
  2 87  1  0  0  0
  3  4  1  0  0  0
  3 88  1  0  0  0
  3 89  1  0  0  0
  4  5  1  0  0  0
  4 90  1  0  0  0
  4 91  1  0  0  0
  5  6  1  0  0  0
  5 26  1  0  0  0
  5 92  1  0  0  0
  6 25  1  0  0  0
  6 93  1  0  0  0
  6 94  1  0  0  0
  7  8  2  0  0  0
  7 26  1  0  0  0
  7 29  1  0  0  0
  8  9  1  0  0  0
  8 22  1  0  0  0
  9 10  1  0  0  0
  9 27  2  0  0  0
 10 11  2  0  0  0
 10 15  1  0  0  0
 11 12  1  0  0  0
 11 95  1  0  0  0
 12 13  2  0  0  0
 12 96  1  0  0  0
 13 14  1  0  0  0
 13 31  1  0  0  0
 14 15  2  0  0  0
 14 97  1  0  0  0
 15 98  1  0  0  0
 16 17  2  0  0  0
 16 21  1  0  0  0
 16 31  1  0  0  0
 17 18  1  0  0  0
 17 99  1  0  0  0
 18 19  2  0  0  0
 18100  1  0  0  0
 19 20  1  0  0  0
 19 24  1  0  0  0
 20 21  2  0  0  0
 20101  1  0  0  0
 21 23  1  0  0  0
 22 28  1  0  0  0
 22 32  2  0  0  0
 26 27  1  0  0  0
 28102  1  0  0  0
 28103  1  0  0  0
 29104  1  0  0  0
 29105  1  0  0  0
 33 34  1  0  0  0
 33 66  1  0  0  0
 33 70  2  0  0  0
 34 36  1  0  0  0
 34 59  1  0  0  0
 34106  1  0  0  0
 35 44  2  0  0  0
 35 45  1  0  0  0
 35 68  1  0  0  0
 36 56  1  0  0  0
 36107  1  0  0  0
 37 39  1  0  0  0
 37 47  1  0  0  0
 37 66  1  0  0  0
 37108  1  0  0  0
 38 43  2  0  0  0
 38 46  1  0  0  0
 38 47  1  0  0  0
 39 64  1  0  0  0
 39 67  2  0  0  0
 40 52  1  0  0  0
 40 53  2  0  0  0
 40 58  1  0  0  0
 41109  1  0  0  0
 41110  1  0  0  0
 41111  1  0  0  0
 41 48  1  0  0  0
 42 43  1  0  0  0
 42 66  1  0  0  0
 42112  1  0  0  0
 42113  1  0  0  0
 43 44  1  0  0  0
 44114  1  0  0  0
 45 46  2  0  0  0
 45115  1  0  0  0
 46116  1  0  0  0
 47117  1  0  0  0
 47118  1  0  0  0
 48 56  1  0  0  0
 48 65  1  0  0  0
 48119  1  0  0  0
 49 50  1  0  0  0
 49 53  1  0  0  0
 49 64  1  0  0  0
 49120  1  0  0  0
 50 51  1  0  0  0
 50121  1  0  0  0
 50122  1  0  0  0
 51 52  1  0  0  0
 51123  1  0  0  0
 51124  1  0  0  0
 52125  1  0  0  0
 52126  1  0  0  0
 53 54  1  0  0  0
 54 55  2  0  0  0
 54127  1  0  0  0
 55 57  1  0  0  0
 55128  1  0  0  0
 56 69  2  0  0  0
 57 58  2  0  0  0
 57129  1  0  0  0
 58130  1  0  0  0
 59 60  1  0  0  0
 59 61  1  0  0  0
 59 62  1  0  0  0
 60131  1  0  0  0
 60132  1  0  0  0
 60133  1  0  0  0
 61134  1  0  0  0
 61135  1  0  0  0
 61136  1  0  0  0
 62137  1  0  0  0
 62138  1  0  0  0
 62139  1  0  0  0
 63 65  1  0  0  0
 63140  1  0  0  0
 63141  1  0  0  0
 63142  1  0  0  0
 64143  1  0  0  0
 65144  1  0  0  0
 68 80  1  0  0  0
 71 74  2  0  0  0
 71 75  1  0  0  0
 71145  1  0  0  0
 72 74  1  0  0  0
 72 76  2  0  0  0
 72146  1  0  0  0
 73 75  2  0  0  0
 73 76  1  0  0  0
 73147  1  0  0  0
 74 81  1  0  0  0
 75 82  1  0  0  0
 76 83  1  0  0  0
 77 80  1  0  0  0
 77 82  1  0  0  0
 77 84  2  0  0  0
 78148  1  0  0  0
 78149  1  0  0  0
 78150  1  0  0  0
 78 81  1  0  0  0
 79 81  1  0  0  0
 79151  1  0  0  0
 79152  1  0  0  0
 79153  1  0  0  0
 80154  1  0  0  0
 80155  1  0  0  0
 81 85  1  0  0  0
 82156  1  0  0  0
 83157  1  0  0  0
M  ISO  4   1 100  68 101  80 101  83 100
M  END
> <chiral flag>
0

> <version>
0

> <s_m_source_file>
/data/baiqing/PycharmProjects/Reinvent-master-3.2/result/LINK_invent/BTK/process_docking_weight1_custom_product_contain_oxygen_bond_distance_aromatic_linkinvent_7_9_3/rearranged_h_0070.sdf

> <i_m_source_file_index>
11

> <r_mmod_Potential_Energy-OPLS-2005>
625.776550292969

> <r_mmod_Stretch_Energy-OPLS-2005>
344.584991455078

> <r_mmod_Bend_Energy-OPLS-2005>
270.595581054688

> <r_mmod_Torsional_Energy-OPLS-2005>
226.026519775391

> <r_mmod_Improper_Torsional_Energy-OPLS-2005>
6.24618673324585

> <r_mmod_Van_der_Waal_Energy-OPLS-2005>
136.242889404297

> <r_mmod_Electrostatic_Energy-OPLS-2005>
-385.290557861328

> <r_mmod_Solvation_Energy-OPLS-2005>
-245.521987915039

> <b_mmod_Minimization_Converged-OPLS-2005>
0

> <r_mmod_RMS_Derivative-OPLS-2005>
1.31330347061157

$$$$
11
                    3D
 Structure written by MMmdl.
162171  0  0  1  0            999 V2000
  -30.6101  -14.6510   20.5069 C   0  0  0  0  0  0
  -30.4439  -12.4007   19.4534 C   0  0  0  0  0  0
  -29.5096  -12.5137   18.2268 C   0  0  0  0  0  0
  -28.0325  -12.3486   18.6385 C   0  0  0  0  0  0
  -27.6552  -13.2164   19.8685 C   0  0  2  0  0  0
  -28.7009  -13.0616   20.9967 C   0  0  0  0  0  0
  -25.2553  -13.8159   20.5683 C   0  0  0  0  0  0
  -24.1816  -13.0421   20.9157 C   0  0  0  0  0  0
  -24.6396  -11.6897   20.8723 C   0  0  0  0  0  0
  -23.9065  -10.4284   21.0397 C   0  0  0  0  0  0
  -24.3616   -9.4203   21.9180 C   0  0  0  0  0  0
  -23.6291   -8.2239   22.0751 C   0  0  0  0  0  0
  -22.4272   -8.0279   21.3543 C   0  0  0  0  0  0
  -21.9907   -9.0251   20.4644 C   0  0  0  0  0  0
  -22.7236  -10.2128   20.3050 C   0  0  0  0  0  0
  -21.6851   -6.0735   22.5282 C   0  0  0  0  0  0
  -21.4012   -6.5638   23.8215 C   0  0  0  0  0  0
  -21.3660   -5.6789   24.9176 C   0  0  0  0  0  0
  -21.6044   -4.3052   24.7225 C   0  0  0  0  0  0
  -21.8820   -3.8146   23.4346 C   0  0  0  0  0  0
  -21.9191   -4.6964   22.3404 C   0  0  0  0  0  0
  -22.7842  -13.5221   21.1839 C   0  0  0  0  0  0
  -22.1660   -4.2150   21.0980 F   0  0  0  0  0  0
  -21.5632   -3.4534   25.7738 F   0  0  0  0  0  0
  -30.0171  -13.4154   20.4380 N   0  0  0  0  0  0
  -26.3001  -12.9349   20.3354 N   0  0  0  0  0  0
  -25.9331  -11.6501   20.5765 N   0  0  0  0  0  0
  -22.0489  -12.8215   22.0403 N   0  0  0  0  0  0
  -25.4240  -15.1880   20.4160 N   0  0  0  0  0  0
  -31.7624  -14.8334   20.1020 O   0  0  0  0  0  0
  -21.6635   -6.8878   21.4244 O   0  0  0  0  0  0
  -22.3521  -14.5531   20.6703 O   0  0  0  0  0  0
  -24.6261  -31.8603   23.2028 C   0  0  0  0  0  0
  -25.9107  -32.4782   23.8360 C   0  0  1  0  0  0
  -27.2220  -27.3153   20.1229 C   0  0  0  0  0  0
  -25.5924  -33.8581   24.2285 N   0  0  0  0  0  0
  -23.4201  -30.4841   21.5454 C   0  0  2  0  0  0
  -24.8671  -28.9388   20.1128 C   0  0  0  0  0  0
  -22.7475  -29.4627   22.4937 C   0  0  0  0  0  0
  -18.0289  -28.1384   22.8487 C   0  0  0  0  0  0
  -24.1489  -36.7292   23.2639 C   0  0  0  0  0  0
  -25.9618  -30.7893   21.3754 C   0  0  0  0  0  0
  -26.0361  -29.4158   20.7197 C   0  0  0  0  0  0
  -27.2180  -28.6160   20.7151 C   0  0  0  0  0  0
  -26.0355  -26.8998   19.4777 C   0  0  0  0  0  0
  -24.8689  -27.6862   19.4818 C   0  0  0  0  0  0
  -23.6354  -29.8195   20.1607 C   0  0  0  0  0  0
  -25.4113  -36.3084   24.0332 C   0  0  1  0  0  0
  -20.5889  -28.3685   23.1283 C   0  0  2  0  0  0
  -20.6775  -26.9409   22.5409 C   0  0  0  0  0  0
  -19.5751  -26.6385   21.5210 C   0  0  0  0  0  0
  -18.1933  -26.7927   22.1625 C   0  0  0  0  0  0
  -19.1542  -28.8852   23.2880 C   0  0  0  0  0  0
  -18.9465  -30.1455   23.8894 C   0  0  0  0  0  0
  -17.6465  -30.6584   24.0565 C   0  0  0  0  0  0
  -25.9051  -34.9454   23.5107 C   0  0  0  0  0  0
  -16.5355  -29.9084   23.6332 C   0  0  0  0  0  0
  -16.7278  -28.6503   23.0352 C   0  0  0  0  0  0
  -26.4492  -31.6589   25.0727 C   0  0  0  0  0  0
  -25.3726  -31.3727   26.1456 C   0  0  0  0  0  0
  -27.0336  -30.3015   24.6174 C   0  0  0  0  0  0
  -27.6053  -32.4322   25.7497 C   0  0  0  0  0  0
  -27.5579  -37.1803   24.8467 C   0  0  0  0  0  0
  -21.4188  -29.3043   22.3679 N   0  0  0  0  0  0
  -26.4292  -37.3776   23.9409 N   0  0  0  0  0  0
  -24.6881  -31.0616   22.0979 N   0  0  0  0  0  0
  -23.4198  -28.8163   23.3015 O   0  0  0  0  0  0
  -28.3313  -26.4555   20.1529 O   0  0  0  0  0  0
  -26.5619  -34.8919   22.4675 O   0  0  0  0  0  0
  -23.5424  -32.1404   23.7352 O   0  0  0  0  0  0
  -30.6655  -19.3435   20.0587 C   0  0  0  0  0  0
  -30.8313  -17.9332   20.2231 C   0  0  0  0  0  0
  -28.3851  -19.2118   20.8653 C   0  0  0  0  0  0
  -29.4537  -20.0316   20.3679 C   0  0  0  0  0  0
  -29.7793  -17.1236   20.7205 C   0  0  0  0  0  0
  -28.5765  -17.8013   21.0471 C   0  0  0  0  0  0
  -29.3483  -22.0358   18.8433 C   0  0  0  0  0  0
  -27.0235  -19.7286   21.1634 C   0  0  0  0  0  0
  -29.0593  -22.5615   21.0858 C   0  0  0  0  0  0
  -29.1785  -23.9103   20.2827 C   0  0  2  0  0  0
  -24.1098  -20.8561   19.8161 C   0  0  0  0  0  0
  -28.0804  -25.0398   20.5333 C   0  0  0  0  0  0
  -25.0993  -21.0549   20.9682 C   0  0  0  0  0  0
  -26.4319  -20.6710   20.5392 N   0  0  0  0  0  0
  -29.3575  -21.4851   20.1177 N   0  0  0  0  0  0
  -29.7950  -15.6711   20.9185 N   0  0  0  0  0  0
  -29.4788  -21.4515   17.7664 O   0  0  0  0  0  0
  -29.1608  -23.3809   18.9573 O   0  0  0  0  0  0
  -27.5556  -17.0377   21.5140 F   0  0  0  0  0  0
  -31.4837  -12.5353   19.1503 H   0  0  0  0  0  0
  -30.3872  -11.4022   19.8900 H   0  0  0  0  0  0
  -29.7753  -11.7639   17.4804 H   0  0  0  0  0  0
  -29.6491  -13.4841   17.7473 H   0  0  0  0  0  0
  -27.8707  -11.2948   18.8682 H   0  0  0  0  0  0
  -27.3772  -12.5794   17.7979 H   0  0  0  0  0  0
  -27.6739  -14.2532   19.5320 H   0  0  0  0  0  0
  -28.7148  -12.0348   21.3654 H   0  0  0  0  0  0
  -28.4417  -13.6787   21.8584 H   0  0  0  0  0  0
  -25.2764   -9.5680   22.4750 H   0  0  0  0  0  0
  -24.0003   -7.4629   22.7467 H   0  0  0  0  0  0
  -21.0839   -8.8769   19.8949 H   0  0  0  0  0  0
  -22.3698  -10.9665   19.6154 H   0  0  0  0  0  0
  -21.2001   -7.6145   23.9719 H   0  0  0  0  0  0
  -21.1483   -6.0517   25.9079 H   0  0  0  0  0  0
  -22.0598   -2.7608   23.2842 H   0  0  0  0  0  0
  -22.4106  -11.9875   22.4789 H   0  0  0  0  0  0
  -21.1112  -13.1247   22.2622 H   0  0  0  0  0  0
  -24.6648  -15.8406   20.5720 H   0  0  0  0  0  0
  -26.3063  -15.6484   20.2336 H   0  0  0  0  0  0
  -26.7175  -32.5453   23.1109 H   0  0  0  0  0  0
  -25.0077  -33.9729   25.0433 H   0  0  0  0  0  0
  -22.7142  -31.3051   21.4027 H   0  0  0  0  0  0
  -23.3749  -35.9625   23.3306 H   0  0  0  0  0  0
  -24.3581  -36.8906   22.2053 H   0  0  0  0  0  0
  -23.7243  -37.6498   23.6656 H   0  0  0  0  0  0
  -26.0943  -31.5512   20.6060 H   0  0  0  0  0  0
  -26.8418  -30.8392   22.0048 H   0  0  0  0  0  0
  -28.1142  -28.9771   21.2001 H   0  0  0  0  0  0
  -25.9908  -25.9556   18.9561 H   0  0  0  0  0  0
  -23.9771  -27.3205   18.9914 H   0  0  0  0  0  0
  -23.7556  -30.5961   19.4045 H   0  0  0  0  0  0
  -22.7551  -29.2496   19.8581 H   0  0  0  0  0  0
  -25.1293  -36.1937   25.0825 H   0  0  0  0  0  0
  -20.9991  -28.3258   24.1400 H   0  0  0  0  0  0
  -20.5674  -26.2297   23.3608 H   0  0  0  0  0  0
  -21.6644  -26.7438   22.1205 H   0  0  0  0  0  0
  -19.6911  -25.6297   21.1243 H   0  0  0  0  0  0
  -19.6687  -27.3196   20.6740 H   0  0  0  0  0  0
  -17.4203  -26.6677   21.4027 H   0  0  0  0  0  0
  -18.0333  -26.0068   22.9022 H   0  0  0  0  0  0
  -19.7941  -30.7273   24.2257 H   0  0  0  0  0  0
  -17.5022  -31.6264   24.5166 H   0  0  0  0  0  0
  -15.5357  -30.2987   23.7654 H   0  0  0  0  0  0
  -15.8680  -28.0824   22.7061 H   0  0  0  0  0  0
  -24.5902  -30.7072   25.7790 H   0  0  0  0  0  0
  -24.8914  -32.2893   26.4878 H   0  0  0  0  0  0
  -25.8055  -30.8913   27.0233 H   0  0  0  0  0  0
  -26.2911  -29.6768   24.1198 H   0  0  0  0  0  0
  -27.4043  -29.7266   25.4670 H   0  0  0  0  0  0
  -27.8775  -30.4311   23.9394 H   0  0  0  0  0  0
  -27.2667  -33.3625   26.2069 H   0  0  0  0  0  0
  -28.3866  -32.6877   25.0326 H   0  0  0  0  0  0
  -28.0717  -31.8449   26.5416 H   0  0  0  0  0  0
  -28.2602  -38.0096   24.7510 H   0  0  0  0  0  0
  -28.1071  -36.2628   24.6298 H   0  0  0  0  0  0
  -27.2300  -37.1460   25.8871 H   0  0  0  0  0  0
  -20.9361  -29.8776   21.6901 H   0  0  0  0  0  0
  -26.0174  -38.2853   24.1402 H   0  0  0  0  0  0
  -31.5010  -19.9097   19.6717 H   0  0  0  0  0  0
  -31.7779  -17.4843   19.9578 H   0  0  0  0  0  0
  -26.5129  -19.2134   21.9827 H   0  0  0  0  0  0
  -28.0577  -22.4549   21.4977 H   0  0  0  0  0  0
  -29.7604  -22.5402   21.9205 H   0  0  0  0  0  0
  -30.1675  -24.3321   20.4639 H   0  0  0  0  0  0
  -23.1111  -21.1866   20.1038 H   0  0  0  0  0  0
  -24.0383  -19.8060   19.5309 H   0  0  0  0  0  0
  -24.4032  -21.4270   18.9341 H   0  0  0  0  0  0
  -27.9058  -25.0723   21.6091 H   0  0  0  0  0  0
  -27.1501  -24.6568   20.1205 H   0  0  0  0  0  0
  -24.7464  -20.5054   21.8455 H   0  0  0  0  0  0
  -25.1046  -22.1066   21.2599 H   0  0  0  0  0  0
  -28.9203  -15.3289   21.2881 H   0  0  0  0  0  0
  1 25  1  0  0  0
  1 30  2  0  0  0
  1 86  1  0  0  0
  2  3  1  0  0  0
  2 25  1  0  0  0
  2 90  1  0  0  0
  2 91  1  0  0  0
  3  4  1  0  0  0
  3 92  1  0  0  0
  3 93  1  0  0  0
  4  5  1  0  0  0
  4 94  1  0  0  0
  4 95  1  0  0  0
  5  6  1  0  0  0
  5 26  1  0  0  0
  5 96  1  0  0  0
  6 25  1  0  0  0
  6 97  1  0  0  0
  6 98  1  0  0  0
  7  8  2  0  0  0
  7 26  1  0  0  0
  7 29  1  0  0  0
  8  9  1  0  0  0
  8 22  1  0  0  0
  9 10  1  0  0  0
  9 27  2  0  0  0
 10 11  2  0  0  0
 10 15  1  0  0  0
 11 12  1  0  0  0
 11 99  1  0  0  0
 12 13  2  0  0  0
 12100  1  0  0  0
 13 14  1  0  0  0
 13 31  1  0  0  0
 14 15  2  0  0  0
 14101  1  0  0  0
 15102  1  0  0  0
 16 17  2  0  0  0
 16 21  1  0  0  0
 16 31  1  0  0  0
 17 18  1  0  0  0
 17103  1  0  0  0
 18 19  2  0  0  0
 18104  1  0  0  0
 19 20  1  0  0  0
 19 24  1  0  0  0
 20 21  2  0  0  0
 20105  1  0  0  0
 21 23  1  0  0  0
 22 28  1  0  0  0
 22 32  2  0  0  0
 26 27  1  0  0  0
 28106  1  0  0  0
 28107  1  0  0  0
 29108  1  0  0  0
 29109  1  0  0  0
 33 34  1  0  0  0
 33 66  1  0  0  0
 33 70  2  0  0  0
 34 36  1  0  0  0
 34 59  1  0  0  0
 34110  1  0  0  0
 35 44  2  0  0  0
 35 45  1  0  0  0
 35 68  1  0  0  0
 36 56  1  0  0  0
 36111  1  0  0  0
 37 39  1  0  0  0
 37 47  1  0  0  0
 37 66  1  0  0  0
 37112  1  0  0  0
 38 43  2  0  0  0
 38 46  1  0  0  0
 38 47  1  0  0  0
 39 64  1  0  0  0
 39 67  2  0  0  0
 40 52  1  0  0  0
 40 53  2  0  0  0
 40 58  1  0  0  0
 41113  1  0  0  0
 41114  1  0  0  0
 41115  1  0  0  0
 41 48  1  0  0  0
 42 43  1  0  0  0
 42 66  1  0  0  0
 42116  1  0  0  0
 42117  1  0  0  0
 43 44  1  0  0  0
 44118  1  0  0  0
 45 46  2  0  0  0
 45119  1  0  0  0
 46120  1  0  0  0
 47121  1  0  0  0
 47122  1  0  0  0
 48 56  1  0  0  0
 48 65  1  0  0  0
 48123  1  0  0  0
 49 50  1  0  0  0
 49 53  1  0  0  0
 49 64  1  0  0  0
 49124  1  0  0  0
 50 51  1  0  0  0
 50125  1  0  0  0
 50126  1  0  0  0
 51 52  1  0  0  0
 51127  1  0  0  0
 51128  1  0  0  0
 52129  1  0  0  0
 52130  1  0  0  0
 53 54  1  0  0  0
 54 55  2  0  0  0
 54131  1  0  0  0
 55 57  1  0  0  0
 55132  1  0  0  0
 56 69  2  0  0  0
 57 58  2  0  0  0
 57133  1  0  0  0
 58134  1  0  0  0
 59 60  1  0  0  0
 59 61  1  0  0  0
 59 62  1  0  0  0
 60135  1  0  0  0
 60136  1  0  0  0
 60137  1  0  0  0
 61138  1  0  0  0
 61139  1  0  0  0
 61140  1  0  0  0
 62141  1  0  0  0
 62142  1  0  0  0
 62143  1  0  0  0
 63 65  1  0  0  0
 63144  1  0  0  0
 63145  1  0  0  0
 63146  1  0  0  0
 64147  1  0  0  0
 65148  1  0  0  0
 68 82  1  0  0  0
 71 72  2  0  0  0
 71 74  1  0  0  0
 71149  1  0  0  0
 72 75  1  0  0  0
 72150  1  0  0  0
 73 74  2  0  0  0
 73 76  1  0  0  0
 73 78  1  0  0  0
 74 85  1  0  0  0
 75 76  2  0  0  0
 75 86  1  0  0  0
 76 89  1  0  0  0
 77 85  1  0  0  0
 77 87  2  0  0  0
 77 88  1  0  0  0
 78 84  2  0  0  0
 78151  1  0  0  0
 79 80  1  0  0  0
 79 85  1  0  0  0
 79152  1  0  0  0
 79153  1  0  0  0
 80 82  1  0  0  0
 80 88  1  0  0  0
 80154  1  0  0  0
 81 83  1  0  0  0
 81155  1  0  0  0
 81156  1  0  0  0
 81157  1  0  0  0
 82158  1  0  0  0
 82159  1  0  0  0
 83 84  1  0  0  0
 83160  1  0  0  0
 83161  1  0  0  0
 86162  1  0  0  0
M  ISO  4   1 100  68 101  82 101  86 100
M  END
> <chiral flag>
0

> <version>
0

> <s_m_source_file>
/data/baiqing/PycharmProjects/Reinvent-master-3.2/result/LINK_invent/BTK/process_docking_weight1_custom_product_contain_oxygen_bond_distance_aromatic_linkinvent_7_9_3/rearranged_h_0070.sdf

> <i_m_source_file_index>
12

> <r_mmod_Potential_Energy-OPLS-2005>
98.4583969116211

> <r_mmod_Stretch_Energy-OPLS-2005>
82.9972915649414

> <r_mmod_Bend_Energy-OPLS-2005>
168.242660522461

> <r_mmod_Torsional_Energy-OPLS-2005>
282.593383789062

> <r_mmod_Improper_Torsional_Energy-OPLS-2005>
4.053626537323

> <r_mmod_Van_der_Waal_Energy-OPLS-2005>
140.407302856445

> <r_mmod_Electrostatic_Energy-OPLS-2005>
-400.507751464844

> <r_mmod_Solvation_Energy-OPLS-2005>
-230.400573730469

> <b_mmod_Minimization_Converged-OPLS-2005>
0

> <r_mmod_RMS_Derivative-OPLS-2005>
0.530332565307617

$$$$
12
                    3D
 Structure written by MMmdl.
166175  0  0  1  0            999 V2000
  -30.5649  -14.7562   20.5485 C   0  0  0  0  0  0
  -30.4588  -12.4835   19.4690 C   0  0  0  0  0  0
  -29.5201  -12.5493   18.2403 C   0  0  0  0  0  0
  -28.0450  -12.3597   18.6480 C   0  0  0  0  0  0
  -27.6585  -13.2227   19.8774 C   0  0  2  0  0  0
  -28.7063  -13.0706   21.0042 C   0  0  0  0  0  0
  -25.2525  -13.8126   20.5547 C   0  0  0  0  0  0
  -24.1811  -13.0421   20.9149 C   0  0  0  0  0  0
  -24.6403  -11.6900   20.8749 C   0  0  0  0  0  0
  -23.9064  -10.4288   21.0417 C   0  0  0  0  0  0
  -24.3612   -9.4203   21.9195 C   0  0  0  0  0  0
  -23.6283   -8.2242   22.0760 C   0  0  0  0  0  0
  -22.4271   -8.0283   21.3543 C   0  0  0  0  0  0
  -21.9906   -9.0260   20.4652 C   0  0  0  0  0  0
  -22.7236  -10.2135   20.3067 C   0  0  0  0  0  0
  -21.6853   -6.0730   22.5275 C   0  0  0  0  0  0
  -21.4016   -6.5632   23.8207 C   0  0  0  0  0  0
  -21.3658   -5.6785   24.9172 C   0  0  0  0  0  0
  -21.6047   -4.3048   24.7222 C   0  0  0  0  0  0
  -21.8821   -3.8140   23.4341 C   0  0  0  0  0  0
  -21.9193   -4.6959   22.3399 C   0  0  0  0  0  0
  -22.7844  -13.5235   21.1829 C   0  0  0  0  0  0
  -22.1663   -4.2143   21.0975 F   0  0  0  0  0  0
  -21.5628   -3.4534   25.7735 F   0  0  0  0  0  0
  -30.0094  -13.4917   20.4618 N   0  0  0  0  0  0
  -26.3016  -12.9340   20.3388 N   0  0  0  0  0  0
  -25.9354  -11.6492   20.5821 N   0  0  0  0  0  0
  -22.0497  -12.8240   22.0407 N   0  0  0  0  0  0
  -25.4218  -15.1779   20.3646 N   0  0  0  0  0  0
  -31.6556  -14.9856   20.0148 O   0  0  0  0  0  0
  -21.6639   -6.8876   21.4236 O   0  0  0  0  0  0
  -22.3519  -14.5545   20.6698 O   0  0  0  0  0  0
  -24.6330  -31.8532   23.1961 C   0  0  0  0  0  0
  -25.9147  -32.4743   23.8317 C   0  0  1  0  0  0
  -27.2273  -27.2452   20.1454 C   0  0  0  0  0  0
  -25.5934  -33.8544   24.2240 N   0  0  0  0  0  0
  -23.4319  -30.4734   21.5397 C   0  0  2  0  0  0
  -24.8828  -28.9153   20.1129 C   0  0  0  0  0  0
  -22.7515  -29.4587   22.4906 C   0  0  0  0  0  0
  -18.0296  -28.1392   22.8485 C   0  0  0  0  0  0
  -24.1488  -36.7279   23.2639 C   0  0  0  0  0  0
  -25.9784  -30.7620   21.3784 C   0  0  0  0  0  0
  -26.0542  -29.3813   20.7244 C   0  0  0  0  0  0
  -27.2307  -28.5607   20.7262 C   0  0  0  0  0  0
  -26.0367  -26.8544   19.4948 C   0  0  0  0  0  0
  -24.8800  -27.6603   19.4845 C   0  0  0  0  0  0
  -23.6532  -29.8041   20.1573 C   0  0  0  0  0  0
  -25.4114  -36.3059   24.0323 C   0  0  1  0  0  0
  -20.5900  -28.3705   23.1267 C   0  0  2  0  0  0
  -20.6784  -26.9420   22.5411 C   0  0  0  0  0  0
  -19.5757  -26.6386   21.5218 C   0  0  0  0  0  0
  -18.1937  -26.7934   22.1628 C   0  0  0  0  0  0
  -19.1549  -28.8866   23.2870 C   0  0  0  0  0  0
  -18.9469  -30.1466   23.8889 C   0  0  0  0  0  0
  -17.6467  -30.6589   24.0567 C   0  0  0  0  0  0
  -25.9059  -34.9432   23.5085 C   0  0  0  0  0  0
  -16.5359  -29.9087   23.6332 C   0  0  0  0  0  0
  -16.7282  -28.6506   23.0350 C   0  0  0  0  0  0
  -26.4504  -31.6574   25.0716 C   0  0  0  0  0  0
  -25.3717  -31.3739   26.1432 C   0  0  0  0  0  0
  -27.0354  -30.2983   24.6221 C   0  0  0  0  0  0
  -27.6047  -32.4323   25.7496 C   0  0  0  0  0  0
  -27.5575  -37.1794   24.8463 C   0  0  0  0  0  0
  -21.4220  -29.3041   22.3646 N   0  0  0  0  0  0
  -26.4284  -37.3762   23.9408 N   0  0  0  0  0  0
  -24.7001  -31.0482   22.0944 N   0  0  0  0  0  0
  -23.4202  -28.8135   23.3023 O   0  0  0  0  0  0
  -28.3134  -26.3328   20.1738 O   0  0  0  0  0  0
  -26.5637  -34.8911   22.4657 O   0  0  0  0  0  0
  -23.5477  -32.1366   23.7242 O   0  0  0  0  0  0
  -29.6480  -18.3674   20.7576 C   0  0  0  0  0  0
  -27.1067  -18.0429   21.9451 C   0  0  0  0  0  0
  -28.7845  -19.5606   20.9006 C   0  0  0  0  0  0
  -29.2343  -17.0254   21.1906 C   0  0  0  0  0  0
  -27.5013  -19.3082   21.4651 C   0  0  0  0  0  0
  -27.9701  -16.9386   21.8079 C   0  0  0  0  0  0
  -30.2988  -21.6104   20.5191 C   0  0  0  0  0  0
  -28.1075  -22.1661   20.5906 C   0  0  0  0  0  0
  -28.7630  -23.5380   20.1388 C   0  0  2  0  0  0
  -30.2408  -23.1820   20.4751 C   0  0  0  0  0  0
  -30.6667  -23.7201   21.8579 C   0  0  0  0  0  0
  -31.1971  -23.7370   19.4001 C   0  0  0  0  0  0
  -28.0644  -24.9256   20.6747 C   0  0  0  0  0  0
  -25.7553  -17.9132   22.6632 C   0  0  0  0  0  0
  -29.0893  -21.0121   20.5791 N   0  0  0  0  0  0
  -24.6242  -17.9397   21.7635 N   0  0  0  0  0  0
  -29.9044  -15.6936   21.3228 N   0  0  0  0  0  0
  -31.3769  -21.0088   20.5047 O   0  0  0  0  0  0
  -26.6023  -20.3088   21.6107 F   0  0  0  0  0  0
  -27.6035  -15.7371   22.3158 F   0  0  0  0  0  0
  -25.6592  -16.7942   23.3782 F   0  0  0  0  0  0
  -25.6072  -18.9164   23.5270 F   0  0  0  0  0  0
  -31.4926  -12.6504   19.1622 H   0  0  0  0  0  0
  -30.4420  -11.4859   19.9098 H   0  0  0  0  0  0
  -29.8046  -11.7940   17.5061 H   0  0  0  0  0  0
  -29.6375  -13.5145   17.7455 H   0  0  0  0  0  0
  -27.8959  -11.3040   18.8777 H   0  0  0  0  0  0
  -27.3886  -12.5839   17.8064 H   0  0  0  0  0  0
  -27.6762  -14.2613   19.5463 H   0  0  0  0  0  0
  -28.7532  -12.0316   21.3336 H   0  0  0  0  0  0
  -28.4282  -13.6286   21.8941 H   0  0  0  0  0  0
  -25.2757   -9.5673   22.4768 H   0  0  0  0  0  0
  -23.9990   -7.4631   22.7479 H   0  0  0  0  0  0
  -21.0837   -8.8784   19.8952 H   0  0  0  0  0  0
  -22.3704  -10.9677   19.6176 H   0  0  0  0  0  0
  -21.2009   -7.6141   23.9710 H   0  0  0  0  0  0
  -21.1479   -6.0515   25.9073 H   0  0  0  0  0  0
  -22.0599   -2.7602   23.2847 H   0  0  0  0  0  0
  -22.4107  -11.9900   22.4793 H   0  0  0  0  0  0
  -21.1127  -13.1282   22.2631 H   0  0  0  0  0  0
  -24.6955  -15.8685   20.5145 H   0  0  0  0  0  0
  -26.3120  -15.5981   20.1411 H   0  0  0  0  0  0
  -26.7214  -32.5393   23.1060 H   0  0  0  0  0  0
  -25.0065  -33.9677   25.0376 H   0  0  0  0  0  0
  -22.7289  -31.2956   21.3904 H   0  0  0  0  0  0
  -23.3748  -35.9613   23.3297 H   0  0  0  0  0  0
  -24.3581  -36.8911   22.2055 H   0  0  0  0  0  0
  -23.7247  -37.6478   23.6674 H   0  0  0  0  0  0
  -26.1176  -31.5201   20.6065 H   0  0  0  0  0  0
  -26.8552  -30.8145   22.0121 H   0  0  0  0  0  0
  -28.1272  -28.9141   21.2160 H   0  0  0  0  0  0
  -25.9876  -25.8956   18.9986 H   0  0  0  0  0  0
  -23.9865  -27.3004   18.9929 H   0  0  0  0  0  0
  -23.7800  -30.5793   19.4007 H   0  0  0  0  0  0
  -22.7717  -29.2379   19.8510 H   0  0  0  0  0  0
  -25.1296  -36.1898   25.0815 H   0  0  0  0  0  0
  -20.9992  -28.3290   24.1389 H   0  0  0  0  0  0
  -20.5694  -26.2314   23.3617 H   0  0  0  0  0  0
  -21.6651  -26.7448   22.1202 H   0  0  0  0  0  0
  -19.6920  -25.6298   21.1248 H   0  0  0  0  0  0
  -19.6689  -27.3194   20.6746 H   0  0  0  0  0  0
  -17.4207  -26.6682   21.4031 H   0  0  0  0  0  0
  -18.0330  -26.0079   22.9025 H   0  0  0  0  0  0
  -19.7944  -30.7287   24.2251 H   0  0  0  0  0  0
  -17.5020  -31.6267   24.5171 H   0  0  0  0  0  0
  -15.5359  -30.2983   23.7662 H   0  0  0  0  0  0
  -15.8684  -28.0823   22.7066 H   0  0  0  0  0  0
  -24.5899  -30.7079   25.7765 H   0  0  0  0  0  0
  -24.8905  -32.2917   26.4823 H   0  0  0  0  0  0
  -25.8029  -30.8945   27.0230 H   0  0  0  0  0  0
  -26.2947  -29.6724   24.1231 H   0  0  0  0  0  0
  -27.4006  -29.7251   25.4753 H   0  0  0  0  0  0
  -27.8835  -30.4241   23.9487 H   0  0  0  0  0  0
  -27.2644  -33.3631   26.2046 H   0  0  0  0  0  0
  -28.3875  -32.6873   25.0340 H   0  0  0  0  0  0
  -28.0695  -31.8469   26.5441 H   0  0  0  0  0  0
  -28.2586  -38.0095   24.7508 H   0  0  0  0  0  0
  -28.1077  -36.2627   24.6286 H   0  0  0  0  0  0
  -27.2298  -37.1438   25.8867 H   0  0  0  0  0  0
  -20.9411  -29.8751   21.6836 H   0  0  0  0  0  0
  -26.0158  -38.2832   24.1413 H   0  0  0  0  0  0
  -30.6413  -18.4886   20.3506 H   0  0  0  0  0  0
  -27.2414  -21.9448   19.9665 H   0  0  0  0  0  0
  -27.7532  -22.3021   21.6134 H   0  0  0  0  0  0
  -28.6692  -23.5644   19.0521 H   0  0  0  0  0  0
  -30.0121  -23.3541   22.6502 H   0  0  0  0  0  0
  -30.6442  -24.8098   21.8869 H   0  0  0  0  0  0
  -31.6834  -23.4137   22.1088 H   0  0  0  0  0  0
  -30.9849  -23.3158   18.4166 H   0  0  0  0  0  0
  -32.2382  -23.5106   19.6344 H   0  0  0  0  0  0
  -31.1081  -24.8207   19.3196 H   0  0  0  0  0  0
  -28.2262  -24.9769   21.7512 H   0  0  0  0  0  0
  -26.9954  -24.7309   20.6059 H   0  0  0  0  0  0
  -24.0364  -17.1626   22.0333 H   0  0  0  0  0  0
  -24.0780  -18.7520   22.0157 H   0  0  0  0  0  0
  -29.3078  -15.1478   21.9312 H   0  0  0  0  0  0
  1 25  1  0  0  0
  1 30  2  0  0  0
  1 87  1  0  0  0
  2  3  1  0  0  0
  2 25  1  0  0  0
  2 93  1  0  0  0
  2 94  1  0  0  0
  3  4  1  0  0  0
  3 95  1  0  0  0
  3 96  1  0  0  0
  4  5  1  0  0  0
  4 97  1  0  0  0
  4 98  1  0  0  0
  5  6  1  0  0  0
  5 26  1  0  0  0
  5 99  1  0  0  0
  6 25  1  0  0  0
  6100  1  0  0  0
  6101  1  0  0  0
  7  8  2  0  0  0
  7 26  1  0  0  0
  7 29  1  0  0  0
  8  9  1  0  0  0
  8 22  1  0  0  0
  9 10  1  0  0  0
  9 27  2  0  0  0
 10 11  2  0  0  0
 10 15  1  0  0  0
 11 12  1  0  0  0
 11102  1  0  0  0
 12 13  2  0  0  0
 12103  1  0  0  0
 13 14  1  0  0  0
 13 31  1  0  0  0
 14 15  2  0  0  0
 14104  1  0  0  0
 15105  1  0  0  0
 16 17  2  0  0  0
 16 21  1  0  0  0
 16 31  1  0  0  0
 17 18  1  0  0  0
 17106  1  0  0  0
 18 19  2  0  0  0
 18107  1  0  0  0
 19 20  1  0  0  0
 19 24  1  0  0  0
 20 21  2  0  0  0
 20108  1  0  0  0
 21 23  1  0  0  0
 22 28  1  0  0  0
 22 32  2  0  0  0
 26 27  1  0  0  0
 28109  1  0  0  0
 28110  1  0  0  0
 29111  1  0  0  0
 29112  1  0  0  0
 33 34  1  0  0  0
 33 66  1  0  0  0
 33 70  2  0  0  0
 34 36  1  0  0  0
 34 59  1  0  0  0
 34113  1  0  0  0
 35 44  2  0  0  0
 35 45  1  0  0  0
 35 68  1  0  0  0
 36 56  1  0  0  0
 36114  1  0  0  0
 37 39  1  0  0  0
 37 47  1  0  0  0
 37 66  1  0  0  0
 37115  1  0  0  0
 38 43  2  0  0  0
 38 46  1  0  0  0
 38 47  1  0  0  0
 39 64  1  0  0  0
 39 67  2  0  0  0
 40 52  1  0  0  0
 40 53  2  0  0  0
 40 58  1  0  0  0
 41116  1  0  0  0
 41117  1  0  0  0
 41118  1  0  0  0
 41 48  1  0  0  0
 42 43  1  0  0  0
 42 66  1  0  0  0
 42119  1  0  0  0
 42120  1  0  0  0
 43 44  1  0  0  0
 44121  1  0  0  0
 45 46  2  0  0  0
 45122  1  0  0  0
 46123  1  0  0  0
 47124  1  0  0  0
 47125  1  0  0  0
 48 56  1  0  0  0
 48 65  1  0  0  0
 48126  1  0  0  0
 49 50  1  0  0  0
 49 53  1  0  0  0
 49 64  1  0  0  0
 49127  1  0  0  0
 50 51  1  0  0  0
 50128  1  0  0  0
 50129  1  0  0  0
 51 52  1  0  0  0
 51130  1  0  0  0
 51131  1  0  0  0
 52132  1  0  0  0
 52133  1  0  0  0
 53 54  1  0  0  0
 54 55  2  0  0  0
 54134  1  0  0  0
 55 57  1  0  0  0
 55135  1  0  0  0
 56 69  2  0  0  0
 57 58  2  0  0  0
 57136  1  0  0  0
 58137  1  0  0  0
 59 60  1  0  0  0
 59 61  1  0  0  0
 59 62  1  0  0  0
 60138  1  0  0  0
 60139  1  0  0  0
 60140  1  0  0  0
 61141  1  0  0  0
 61142  1  0  0  0
 61143  1  0  0  0
 62144  1  0  0  0
 62145  1  0  0  0
 62146  1  0  0  0
 63 65  1  0  0  0
 63147  1  0  0  0
 63148  1  0  0  0
 63149  1  0  0  0
 64150  1  0  0  0
 65151  1  0  0  0
 68 83  1  0  0  0
 71 73  2  0  0  0
 71 74  1  0  0  0
 71152  1  0  0  0
 72 75  2  0  0  0
 72 76  1  0  0  0
 72 84  1  0  0  0
 73 75  1  0  0  0
 73 85  1  0  0  0
 74 76  2  0  0  0
 74 87  1  0  0  0
 75 89  1  0  0  0
 76 90  1  0  0  0
 77 80  1  0  0  0
 77 85  1  0  0  0
 77 88  2  0  0  0
 78 79  1  0  0  0
 78 85  1  0  0  0
 78153  1  0  0  0
 78154  1  0  0  0
 79 80  1  0  0  0
 79 83  1  0  0  0
 79155  1  0  0  0
 80 81  1  0  0  0
 80 82  1  0  0  0
 81156  1  0  0  0
 81157  1  0  0  0
 81158  1  0  0  0
 82159  1  0  0  0
 82160  1  0  0  0
 82161  1  0  0  0
 83162  1  0  0  0
 83163  1  0  0  0
 84 86  1  0  0  0
 84 91  1  0  0  0
 84 92  1  0  0  0
 86164  1  0  0  0
 86165  1  0  0  0
 87166  1  0  0  0
M  ISO  4   1 100  68 101  83 101  87 100
M  END
> <chiral flag>
0

> <version>
0

> <s_m_source_file>
/data/baiqing/PycharmProjects/Reinvent-master-3.2/result/LINK_invent/BTK/process_docking_weight1_custom_product_contain_oxygen_bond_distance_aromatic_linkinvent_7_9_3/rearranged_h_0070.sdf

> <i_m_source_file_index>
13

> <r_mmod_Potential_Energy-OPLS-2005>
312.617370605469

> <r_mmod_Stretch_Energy-OPLS-2005>
152.636383056641

> <r_mmod_Bend_Energy-OPLS-2005>
281.768463134766

> <r_mmod_Torsional_Energy-OPLS-2005>
308.637054443359

> <r_mmod_Improper_Torsional_Energy-OPLS-2005>
8.06884479522705

> <r_mmod_Van_der_Waal_Energy-OPLS-2005>
148.58122253418

> <r_mmod_Electrostatic_Energy-OPLS-2005>
-469.959381103516

> <r_mmod_Solvation_Energy-OPLS-2005>
-210.838226318359

> <b_mmod_Minimization_Converged-OPLS-2005>
0

> <r_mmod_RMS_Derivative-OPLS-2005>
0.935098648071289

$$$$
13
                    3D
 Structure written by MMmdl.
166175  0  0  1  0            999 V2000
  -30.5003  -15.0181   20.4190 C   0  0  0  0  0  0
  -30.4214  -12.6286   19.5214 C   0  0  0  0  0  0
  -29.5298  -12.5712   18.2594 C   0  0  0  0  0  0
  -28.0538  -12.3530   18.6493 C   0  0  0  0  0  0
  -27.6166  -13.2648   19.8290 C   0  0  2  0  0  0
  -28.6515  -13.3024   20.9710 C   0  0  0  0  0  0
  -25.2372  -13.8218   20.5690 C   0  0  0  0  0  0
  -24.1718  -13.0452   20.9207 C   0  0  0  0  0  0
  -24.6361  -11.6942   20.8734 C   0  0  0  0  0  0
  -23.9100  -10.4303   21.0393 C   0  0  0  0  0  0
  -24.3640   -9.4220   21.9187 C   0  0  0  0  0  0
  -23.6295   -8.2264   22.0765 C   0  0  0  0  0  0
  -22.4286   -8.0280   21.3557 C   0  0  0  0  0  0
  -21.9942   -9.0264   20.4663 C   0  0  0  0  0  0
  -22.7275  -10.2139   20.3051 C   0  0  0  0  0  0
  -21.6850   -6.0757   22.5293 C   0  0  0  0  0  0
  -21.4006   -6.5646   23.8237 C   0  0  0  0  0  0
  -21.3663   -5.6784   24.9201 C   0  0  0  0  0  0
  -21.6044   -4.3049   24.7233 C   0  0  0  0  0  0
  -21.8810   -3.8156   23.4350 C   0  0  0  0  0  0
  -21.9185   -4.6982   22.3412 C   0  0  0  0  0  0
  -22.7730  -13.5183   21.1886 C   0  0  0  0  0  0
  -22.1649   -4.2160   21.0998 F   0  0  0  0  0  0
  -21.5633   -3.4541   25.7753 F   0  0  0  0  0  0
  -29.9184  -13.7420   20.3798 N   0  0  0  0  0  0
  -26.2796  -12.9499   20.3148 N   0  0  0  0  0  0
  -25.9287  -11.6626   20.5680 N   0  0  0  0  0  0
  -22.0376  -12.8199   22.0447 N   0  0  0  0  0  0
  -25.4021  -15.1969   20.4131 N   0  0  0  0  0  0
  -31.7048  -15.0461   20.1377 O   0  0  0  0  0  0
  -21.6621   -6.8900   21.4268 O   0  0  0  0  0  0
  -22.3450  -14.5519   20.6732 O   0  0  0  0  0  0
  -24.6521  -31.8360   23.1778 C   0  0  0  0  0  0
  -25.9287  -32.4636   23.8181 C   0  0  1  0  0  0
  -27.2078  -27.0554   20.1772 C   0  0  0  0  0  0
  -25.6054  -33.8456   24.2158 N   0  0  0  0  0  0
  -23.4536  -30.4592   21.5170 C   0  0  2  0  0  0
  -24.9134  -28.8705   20.0992 C   0  0  0  0  0  0
  -22.7616  -29.4535   22.4768 C   0  0  0  0  0  0
  -18.0314  -28.1379   22.8450 C   0  0  0  0  0  0
  -24.1493  -36.7188   23.2613 C   0  0  0  0  0  0
  -26.0159  -30.6866   21.3818 C   0  0  0  0  0  0
  -26.0878  -29.2890   20.7329 C   0  0  0  0  0  0
  -27.2380  -28.3990   20.7545 C   0  0  0  0  0  0
  -26.0125  -26.7539   19.4981 C   0  0  0  0  0  0
  -24.8943  -27.6206   19.4589 C   0  0  0  0  0  0
  -23.6893  -29.7833   20.1351 C   0  0  0  0  0  0
  -25.4132  -36.3020   24.0317 C   0  0  1  0  0  0
  -20.5952  -28.3693   23.1226 C   0  0  2  0  0  0
  -20.6798  -26.9382   22.5416 C   0  0  0  0  0  0
  -19.5766  -26.6341   21.5223 C   0  0  0  0  0  0
  -18.1939  -26.7939   22.1600 C   0  0  0  0  0  0
  -19.1584  -28.8857   23.2844 C   0  0  0  0  0  0
  -18.9502  -30.1465   23.8851 C   0  0  0  0  0  0
  -17.6508  -30.6581   24.0529 C   0  0  0  0  0  0
  -25.9093  -34.9388   23.5042 C   0  0  0  0  0  0
  -16.5394  -29.9063   23.6319 C   0  0  0  0  0  0
  -16.7307  -28.6486   23.0319 C   0  0  0  0  0  0
  -26.4545  -31.6512   25.0659 C   0  0  0  0  0  0
  -25.3724  -31.3710   26.1345 C   0  0  0  0  0  0
  -27.0402  -30.2910   24.6245 C   0  0  0  0  0  0
  -27.6083  -32.4212   25.7489 C   0  0  0  0  0  0
  -27.5554  -37.1776   24.8502 C   0  0  0  0  0  0
  -21.4291  -29.3032   22.3601 N   0  0  0  0  0  0
  -26.4279  -37.3759   23.9445 N   0  0  0  0  0  0
  -24.7261  -31.0210   22.0799 N   0  0  0  0  0  0
  -23.4297  -28.8102   23.2916 O   0  0  0  0  0  0
  -28.2481  -26.0329   20.1750 O   0  0  0  0  0  0
  -26.5646  -34.8927   22.4611 O   0  0  0  0  0  0
  -23.5652  -32.1223   23.6986 O   0  0  0  0  0  0
  -30.1299  -18.8184   23.1492 C   0  0  0  0  0  0
  -28.9816  -19.0126   22.3533 C   0  0  0  0  0  0
  -31.3152  -17.9090   21.2215 C   0  0  0  0  0  0
  -31.3385  -18.3977   22.5460 C   0  0  0  0  0  0
  -29.1426  -18.9364   20.9498 C   0  0  0  0  0  0
  -30.0513  -17.7613   20.6103 C   0  0  0  0  0  0
  -28.1808  -21.5068   20.7019 C   0  0  0  0  0  0
  -29.8111  -22.6081   19.4968 C   0  0  0  0  0  0
  -30.0128  -21.0277   19.4691 C   0  0  0  0  0  0
  -28.3512  -22.9545   19.9174 C   0  0  1  0  0  0
  -25.8815  -22.8437   18.8997 C   0  0  0  0  0  0
  -27.4177  -22.9016   18.6576 C   0  0  0  0  0  0
  -28.0725  -24.5164   20.6447 C   0  0  0  0  0  0
  -32.6178  -18.2934   23.3612 C   0  0  0  0  0  0
  -29.0371  -20.4094   20.3831 N   0  0  0  0  0  0
  -32.8434  -16.9403   23.7862 N   0  0  0  0  0  0
  -29.7182  -16.2338   20.5358 N   0  0  0  0  0  0
  -27.2728  -21.4115   21.5320 O   0  0  0  0  0  0
  -33.6606  -18.6734   22.6307 F   0  0  0  0  0  0
  -32.5641  -19.0630   24.4492 F   0  0  0  0  0  0
  -31.4644  -12.7644   19.2396 H   0  0  0  0  0  0
  -30.3830  -11.6757   20.0542 H   0  0  0  0  0  0
  -29.8662  -11.7808   17.5870 H   0  0  0  0  0  0
  -29.6290  -13.5072   17.7047 H   0  0  0  0  0  0
  -27.9350  -11.3054   18.9290 H   0  0  0  0  0  0
  -27.4095  -12.5187   17.7831 H   0  0  0  0  0  0
  -27.5719  -14.2689   19.4057 H   0  0  0  0  0  0
  -28.7472  -12.3207   21.4354 H   0  0  0  0  0  0
  -28.3350  -13.9902   21.7549 H   0  0  0  0  0  0
  -25.2787   -9.5682   22.4787 H   0  0  0  0  0  0
  -23.9985   -7.4656   22.7486 H   0  0  0  0  0  0
  -21.0872   -8.8788   19.8964 H   0  0  0  0  0  0
  -22.3724  -10.9682   19.6148 H   0  0  0  0  0  0
  -21.1978   -7.6145   23.9750 H   0  0  0  0  0  0
  -21.1495   -6.0520   25.9107 H   0  0  0  0  0  0
  -22.0577   -2.7619   23.2858 H   0  0  0  0  0  0
  -22.3930  -11.9823   22.4817 H   0  0  0  0  0  0
  -21.1001  -13.1279   22.2634 H   0  0  0  0  0  0
  -24.6317  -15.8496   20.5159 H   0  0  0  0  0  0
  -26.2402  -15.6405   20.0663 H   0  0  0  0  0  0
  -26.7337  -32.5225   23.0872 H   0  0  0  0  0  0
  -25.0423  -33.9515   25.0448 H   0  0  0  0  0  0
  -22.7586  -31.2914   21.3594 H   0  0  0  0  0  0
  -23.3814  -35.9463   23.3287 H   0  0  0  0  0  0
  -24.3570  -36.8778   22.2016 H   0  0  0  0  0  0
  -23.7169  -37.6367   23.6609 H   0  0  0  0  0  0
  -26.1824  -31.4249   20.5953 H   0  0  0  0  0  0
  -26.8784  -30.7350   22.0308 H   0  0  0  0  0  0
  -28.1306  -28.7168   21.2750 H   0  0  0  0  0  0
  -25.9396  -25.8054   18.9877 H   0  0  0  0  0  0
  -24.0046  -27.3031   18.9326 H   0  0  0  0  0  0
  -23.8235  -30.5489   19.3678 H   0  0  0  0  0  0
  -22.8033  -29.2292   19.8234 H   0  0  0  0  0  0
  -25.1313  -36.1783   25.0797 H   0  0  0  0  0  0
  -21.0048  -28.3202   24.1339 H   0  0  0  0  0  0
  -20.5662  -26.2277   23.3610 H   0  0  0  0  0  0
  -21.6665  -26.7341   22.1247 H   0  0  0  0  0  0
  -19.6918  -25.6255   21.1206 H   0  0  0  0  0  0
  -19.6712  -27.3187   20.6810 H   0  0  0  0  0  0
  -17.4244  -26.6674   21.3963 H   0  0  0  0  0  0
  -18.0295  -26.0086   22.8999 H   0  0  0  0  0  0
  -19.7974  -30.7270   24.2197 H   0  0  0  0  0  0
  -17.5071  -31.6267   24.5123 H   0  0  0  0  0  0
  -15.5393  -30.2973   23.7718 H   0  0  0  0  0  0
  -15.8685  -28.0835   22.7050 H   0  0  0  0  0  0
  -24.6226  -30.6639   25.7769 H   0  0  0  0  0  0
  -24.8565  -32.2835   26.4327 H   0  0  0  0  0  0
  -25.8033  -30.9352   27.0362 H   0  0  0  0  0  0
  -26.3011  -29.6639   24.1268 H   0  0  0  0  0  0
  -27.4063  -29.7173   25.4766 H   0  0  0  0  0  0
  -27.8875  -30.4148   23.9512 H   0  0  0  0  0  0
  -27.2829  -33.3747   26.1639 H   0  0  0  0  0  0
  -28.4150  -32.6303   25.0457 H   0  0  0  0  0  0
  -28.0412  -31.8540   26.5741 H   0  0  0  0  0  0
  -28.2639  -38.0028   24.7598 H   0  0  0  0  0  0
  -28.0984  -36.2565   24.6298 H   0  0  0  0  0  0
  -27.2280  -37.1408   25.8915 H   0  0  0  0  0  0
  -20.9514  -29.8773   21.6797 H   0  0  0  0  0  0
  -26.0121  -38.2816   24.1472 H   0  0  0  0  0  0
  -30.1110  -19.0888   24.1983 H   0  0  0  0  0  0
  -28.1831  -19.5768   22.8164 H   0  0  0  0  0  0
  -32.1688  -17.3134   20.9240 H   0  0  0  0  0  0
  -30.0745  -23.0562   18.5355 H   0  0  0  0  0  0
  -30.4978  -23.0343   20.2306 H   0  0  0  0  0  0
  -31.0342  -20.7630   19.7587 H   0  0  0  0  0  0
  -29.8644  -20.6362   18.4616 H   0  0  0  0  0  0
  -25.5345  -21.8850   19.3004 H   0  0  0  0  0  0
  -25.3429  -22.9952   17.9619 H   0  0  0  0  0  0
  -25.5405  -23.6220   19.5836 H   0  0  0  0  0  0
  -27.6375  -23.7731   18.0348 H   0  0  0  0  0  0
  -27.6854  -22.0523   18.0214 H   0  0  0  0  0  0
  -27.0610  -24.4686   21.0500 H   0  0  0  0  0  0
  -28.6917  -24.4968   21.5441 H   0  0  0  0  0  0
  -33.7492  -16.6931   23.4126 H   0  0  0  0  0  0
  -32.9927  -16.9804   24.7858 H   0  0  0  0  0  0
  -28.7325  -16.0338   20.6280 H   0  0  0  0  0  0
  1 25  1  0  0  0
  1 30  2  0  0  0
  1 87  1  0  0  0
  2  3  1  0  0  0
  2 25  1  0  0  0
  2 91  1  0  0  0
  2 92  1  0  0  0
  3  4  1  0  0  0
  3 93  1  0  0  0
  3 94  1  0  0  0
  4  5  1  0  0  0
  4 95  1  0  0  0
  4 96  1  0  0  0
  5  6  1  0  0  0
  5 26  1  0  0  0
  5 97  1  0  0  0
  6 25  1  0  0  0
  6 98  1  0  0  0
  6 99  1  0  0  0
  7  8  2  0  0  0
  7 26  1  0  0  0
  7 29  1  0  0  0
  8  9  1  0  0  0
  8 22  1  0  0  0
  9 10  1  0  0  0
  9 27  2  0  0  0
 10 11  2  0  0  0
 10 15  1  0  0  0
 11 12  1  0  0  0
 11100  1  0  0  0
 12 13  2  0  0  0
 12101  1  0  0  0
 13 14  1  0  0  0
 13 31  1  0  0  0
 14 15  2  0  0  0
 14102  1  0  0  0
 15103  1  0  0  0
 16 17  2  0  0  0
 16 21  1  0  0  0
 16 31  1  0  0  0
 17 18  1  0  0  0
 17104  1  0  0  0
 18 19  2  0  0  0
 18105  1  0  0  0
 19 20  1  0  0  0
 19 24  1  0  0  0
 20 21  2  0  0  0
 20106  1  0  0  0
 21 23  1  0  0  0
 22 28  1  0  0  0
 22 32  2  0  0  0
 26 27  1  0  0  0
 28107  1  0  0  0
 28108  1  0  0  0
 29109  1  0  0  0
 29110  1  0  0  0
 33 34  1  0  0  0
 33 66  1  0  0  0
 33 70  2  0  0  0
 34 36  1  0  0  0
 34 59  1  0  0  0
 34111  1  0  0  0
 35 44  2  0  0  0
 35 45  1  0  0  0
 35 68  1  0  0  0
 36 56  1  0  0  0
 36112  1  0  0  0
 37 39  1  0  0  0
 37 47  1  0  0  0
 37 66  1  0  0  0
 37113  1  0  0  0
 38 43  2  0  0  0
 38 46  1  0  0  0
 38 47  1  0  0  0
 39 64  1  0  0  0
 39 67  2  0  0  0
 40 52  1  0  0  0
 40 53  2  0  0  0
 40 58  1  0  0  0
 41114  1  0  0  0
 41115  1  0  0  0
 41116  1  0  0  0
 41 48  1  0  0  0
 42 43  1  0  0  0
 42 66  1  0  0  0
 42117  1  0  0  0
 42118  1  0  0  0
 43 44  1  0  0  0
 44119  1  0  0  0
 45 46  2  0  0  0
 45120  1  0  0  0
 46121  1  0  0  0
 47122  1  0  0  0
 47123  1  0  0  0
 48 56  1  0  0  0
 48 65  1  0  0  0
 48124  1  0  0  0
 49 50  1  0  0  0
 49 53  1  0  0  0
 49 64  1  0  0  0
 49125  1  0  0  0
 50 51  1  0  0  0
 50126  1  0  0  0
 50127  1  0  0  0
 51 52  1  0  0  0
 51128  1  0  0  0
 51129  1  0  0  0
 52130  1  0  0  0
 52131  1  0  0  0
 53 54  1  0  0  0
 54 55  2  0  0  0
 54132  1  0  0  0
 55 57  1  0  0  0
 55133  1  0  0  0
 56 69  2  0  0  0
 57 58  2  0  0  0
 57134  1  0  0  0
 58135  1  0  0  0
 59 60  1  0  0  0
 59 61  1  0  0  0
 59 62  1  0  0  0
 60136  1  0  0  0
 60137  1  0  0  0
 60138  1  0  0  0
 61139  1  0  0  0
 61140  1  0  0  0
 61141  1  0  0  0
 62142  1  0  0  0
 62143  1  0  0  0
 62144  1  0  0  0
 63 65  1  0  0  0
 63145  1  0  0  0
 63146  1  0  0  0
 63147  1  0  0  0
 64148  1  0  0  0
 65149  1  0  0  0
 68 83  1  0  0  0
 71 72  2  0  0  0
 71 74  1  0  0  0
 71150  1  0  0  0
 72 75  1  0  0  0
 72151  1  0  0  0
 73 74  2  0  0  0
 73 76  1  0  0  0
 73152  1  0  0  0
 74 84  1  0  0  0
 75 76  2  0  0  0
 75 85  1  0  0  0
 76 87  1  0  0  0
 77 80  1  0  0  0
 77 85  1  0  0  0
 77 88  2  0  0  0
 78 79  1  0  0  0
 78 80  1  0  0  0
 78153  1  0  0  0
 78154  1  0  0  0
 79 85  1  0  0  0
 79155  1  0  0  0
 79156  1  0  0  0
 80 82  1  0  0  0
 80 83  1  0  0  0
 81 82  1  0  0  0
 81157  1  0  0  0
 81158  1  0  0  0
 81159  1  0  0  0
 82160  1  0  0  0
 82161  1  0  0  0
 83162  1  0  0  0
 83163  1  0  0  0
 84 86  1  0  0  0
 84 89  1  0  0  0
 84 90  1  0  0  0
 86164  1  0  0  0
 86165  1  0  0  0
 87166  1  0  0  0
M  ISO  4   1 100  68 101  83 101  87 100
M  END
> <chiral flag>
0

> <version>
0

> <s_m_source_file>
/data/baiqing/PycharmProjects/Reinvent-master-3.2/result/LINK_invent/BTK/process_docking_weight1_custom_product_contain_oxygen_bond_distance_aromatic_linkinvent_7_9_3/rearranged_h_0070.sdf

> <i_m_source_file_index>
14

> <r_mmod_Potential_Energy-OPLS-2005>
1014.04962158203

> <r_mmod_Stretch_Energy-OPLS-2005>
372.134948730469

> <r_mmod_Bend_Energy-OPLS-2005>
376.267395019531

> <r_mmod_Torsional_Energy-OPLS-2005>
514.608520507812

> <r_mmod_Improper_Torsional_Energy-OPLS-2005>
38.0002288818359

> <r_mmod_Van_der_Waal_Energy-OPLS-2005>
131.151412963867

> <r_mmod_Electrostatic_Energy-OPLS-2005>
-446.436187744141

> <r_mmod_Solvation_Energy-OPLS-2005>
-222.619277954102

> <b_mmod_Minimization_Converged-OPLS-2005>
0

> <r_mmod_RMS_Derivative-OPLS-2005>
7.52096891403198

$$$$
14
                    3D
 Structure written by MMmdl.
157165  0  0  1  0            999 V2000
  -30.6636  -14.5362   20.5357 C   0  0  0  0  0  0
  -30.4272  -12.3336   19.4477 C   0  0  0  0  0  0
  -29.5077  -12.5202   18.2221 C   0  0  0  0  0  0
  -28.0250  -12.3763   18.6242 C   0  0  0  0  0  0
  -27.6615  -13.2150   19.8775 C   0  0  2  0  0  0
  -28.7002  -13.0165   21.0048 C   0  0  0  0  0  0
  -25.2582  -13.8170   20.5703 C   0  0  0  0  0  0
  -24.1829  -13.0438   20.9168 C   0  0  0  0  0  0
  -24.6383  -11.6906   20.8712 C   0  0  0  0  0  0
  -23.9051  -10.4284   21.0372 C   0  0  0  0  0  0
  -24.3600   -9.4211   21.9159 C   0  0  0  0  0  0
  -23.6284   -8.2241   22.0738 C   0  0  0  0  0  0
  -22.4266   -8.0271   21.3530 C   0  0  0  0  0  0
  -21.9887   -9.0244   20.4638 C   0  0  0  0  0  0
  -22.7216  -10.2122   20.3038 C   0  0  0  0  0  0
  -21.6850   -6.0722   22.5273 C   0  0  0  0  0  0
  -21.4019   -6.5625   23.8207 C   0  0  0  0  0  0
  -21.3670   -5.6786   24.9170 C   0  0  0  0  0  0
  -21.6042   -4.3048   24.7221 C   0  0  0  0  0  0
  -21.8824   -3.8138   23.4345 C   0  0  0  0  0  0
  -21.9192   -4.6950   22.3399 C   0  0  0  0  0  0
  -22.7854  -13.5238   21.1844 C   0  0  0  0  0  0
  -22.1667   -4.2141   21.0972 F   0  0  0  0  0  0
  -21.5631   -3.4531   25.7734 F   0  0  0  0  0  0
  -30.0294  -13.3308   20.4570 N   0  0  0  0  0  0
  -26.3020  -12.9356   20.3362 N   0  0  0  0  0  0
  -25.9317  -11.6505   20.5738 N   0  0  0  0  0  0
  -22.0487  -12.8236   22.0397 N   0  0  0  0  0  0
  -25.4310  -15.1885   20.4131 N   0  0  0  0  0  0
  -31.7910  -14.7193   20.0694 O   0  0  0  0  0  0
  -21.6640   -6.8864   21.4232 O   0  0  0  0  0  0
  -22.3543  -14.5562   20.6714 O   0  0  0  0  0  0
  -24.6167  -31.8634   23.2059 C   0  0  0  0  0  0
  -25.9042  -32.4799   23.8364 C   0  0  1  0  0  0
  -27.2460  -27.3946   20.1001 C   0  0  0  0  0  0
  -25.5880  -33.8604   24.2295 N   0  0  0  0  0  0
  -23.4087  -30.4835   21.5475 C   0  0  2  0  0  0
  -24.8568  -28.9389   20.1198 C   0  0  0  0  0  0
  -22.7417  -29.4633   22.4977 C   0  0  0  0  0  0
  -18.0271  -28.1404   22.8484 C   0  0  0  0  0  0
  -24.1479  -36.7298   23.2638 C   0  0  0  0  0  0
  -25.9394  -30.8180   21.3627 C   0  0  0  0  0  0
  -26.0185  -29.4486   20.7102 C   0  0  0  0  0  0
  -27.2138  -28.6866   20.6891 C   0  0  0  0  0  0
  -26.0576  -26.9032   19.5123 C   0  0  0  0  0  0
  -24.8727  -27.6676   19.5202 C   0  0  0  0  0  0
  -23.6208  -29.8114   20.1650 C   0  0  0  0  0  0
  -25.4104  -36.3092   24.0328 C   0  0  1  0  0  0
  -20.5860  -28.3680   23.1316 C   0  0  2  0  0  0
  -20.6766  -26.9416   22.5422 C   0  0  0  0  0  0
  -19.5751  -26.6403   21.5213 C   0  0  0  0  0  0
  -18.1924  -26.7947   22.1624 C   0  0  0  0  0  0
  -19.1523  -28.8860   23.2897 C   0  0  0  0  0  0
  -18.9453  -30.1464   23.8912 C   0  0  0  0  0  0
  -17.6458  -30.6609   24.0569 C   0  0  0  0  0  0
  -25.9033  -34.9462   23.5113 C   0  0  0  0  0  0
  -16.5345  -29.9113   23.6336 C   0  0  0  0  0  0
  -16.7259  -28.6535   23.0338 C   0  0  0  0  0  0
  -26.4472  -31.6606   25.0718 C   0  0  0  0  0  0
  -25.3726  -31.3727   26.1459 C   0  0  0  0  0  0
  -27.0320  -30.3044   24.6131 C   0  0  0  0  0  0
  -27.6056  -32.4324   25.7469 C   0  0  0  0  0  0
  -27.5575  -37.1787   24.8463 C   0  0  0  0  0  0
  -21.4142  -29.3029   22.3709 N   0  0  0  0  0  0
  -26.4276  -37.3789   23.9412 N   0  0  0  0  0  0
  -24.6735  -31.0699   22.0974 N   0  0  0  0  0  0
  -23.4163  -28.8170   23.3041 O   0  0  0  0  0  0
  -28.4352  -26.6752   20.1067 O   0  0  0  0  0  0
  -26.5616  -34.8927   22.4687 O   0  0  0  0  0  0
  -23.5348  -32.1400   23.7434 O   0  0  0  0  0  0
  -30.1099  -18.7212   18.9666 C   0  0  0  0  0  0
  -30.0575  -17.3502   19.3220 C   0  0  0  0  0  0
  -29.9562  -17.9787   21.6579 C   0  0  0  0  0  0
  -30.1344  -19.7505   19.9457 C   0  0  0  0  0  0
  -30.0115  -16.9511   20.6797 C   0  0  0  0  0  0
  -30.0299  -19.3553   21.3033 C   0  0  0  0  0  0
  -30.4402  -21.1554   19.5232 C   0  0  0  0  0  0
  -30.4386  -23.5618   19.9608 C   0  0  0  0  0  0
  -31.9489  -23.6982   20.0201 C   0  0  0  0  0  0
  -28.4257  -25.2675   19.8954 C   0  0  0  0  0  0
  -31.4112  -21.2564   18.5996 N   0  3  0  0  0  0
  -29.9392  -15.5595   21.0527 N   0  0  0  0  0  0
  -29.8409  -22.3132   19.9591 N   0  0  0  0  0  0
  -29.8271  -24.7912   19.9825 N   0  3  0  0  0  0
  -30.0533  -20.2905   22.2844 F   0  0  0  0  0  0
  -31.4755  -12.4292   19.1582 H   0  0  0  0  0  0
  -30.3239  -11.3273   19.8545 H   0  0  0  0  0  0
  -29.7587  -11.7972   17.4448 H   0  0  0  0  0  0
  -29.6760  -13.5066   17.7875 H   0  0  0  0  0  0
  -27.8302  -11.3206   18.8167 H   0  0  0  0  0  0
  -27.3830  -12.6591   17.7890 H   0  0  0  0  0  0
  -27.6984  -14.2608   19.5708 H   0  0  0  0  0  0
  -28.6846  -11.9863   21.3630 H   0  0  0  0  0  0
  -28.4529  -13.6280   21.8739 H   0  0  0  0  0  0
  -25.2721   -9.5716   22.4758 H   0  0  0  0  0  0
  -23.9993   -7.4636   22.7457 H   0  0  0  0  0  0
  -21.0817   -8.8756   19.8948 H   0  0  0  0  0  0
  -22.3643  -10.9661   19.6172 H   0  0  0  0  0  0
  -21.2018   -7.6136   23.9712 H   0  0  0  0  0  0
  -21.1495   -6.0509   25.9076 H   0  0  0  0  0  0
  -22.0597   -2.7596   23.2843 H   0  0  0  0  0  0
  -22.4084  -11.9899   22.4798 H   0  0  0  0  0  0
  -21.1115  -13.1299   22.2605 H   0  0  0  0  0  0
  -24.6652  -15.8464   20.5186 H   0  0  0  0  0  0
  -26.2890  -15.6250   20.1004 H   0  0  0  0  0  0
  -26.7105  -32.5504   23.1122 H   0  0  0  0  0  0
  -24.9991  -33.9762   25.0406 H   0  0  0  0  0  0
  -22.6990  -31.3009   21.4048 H   0  0  0  0  0  0
  -23.3746  -35.9623   23.3301 H   0  0  0  0  0  0
  -24.3563  -36.8918   22.2051 H   0  0  0  0  0  0
  -23.7228  -37.6496   23.6663 H   0  0  0  0  0  0
  -26.0550  -31.5837   20.5947 H   0  0  0  0  0  0
  -26.8240  -30.8726   21.9850 H   0  0  0  0  0  0
  -28.1128  -29.0848   21.1391 H   0  0  0  0  0  0
  -26.0262  -25.9324   19.0408 H   0  0  0  0  0  0
  -23.9772  -27.2658   19.0670 H   0  0  0  0  0  0
  -23.7375  -30.5862   19.4068 H   0  0  0  0  0  0
  -22.7432  -29.2359   19.8635 H   0  0  0  0  0  0
  -25.1283  -36.1943   25.0818 H   0  0  0  0  0  0
  -20.9950  -28.3258   24.1437 H   0  0  0  0  0  0
  -20.5688  -26.2276   23.3603 H   0  0  0  0  0  0
  -21.6633  -26.7475   22.1198 H   0  0  0  0  0  0
  -19.6912  -25.6316   21.1237 H   0  0  0  0  0  0
  -19.6701  -27.3219   20.6748 H   0  0  0  0  0  0
  -17.4184  -26.6669   21.4035 H   0  0  0  0  0  0
  -18.0345  -26.0105   22.9048 H   0  0  0  0  0  0
  -19.7929  -30.7275   24.2283 H   0  0  0  0  0  0
  -17.5019  -31.6286   24.5168 H   0  0  0  0  0  0
  -15.5352  -30.3018   23.7675 H   0  0  0  0  0  0
  -15.8649  -28.0875   22.7035 H   0  0  0  0  0  0
  -24.5885  -30.7098   25.7783 H   0  0  0  0  0  0
  -24.8936  -32.2891   26.4911 H   0  0  0  0  0  0
  -25.8057  -30.8878   27.0214 H   0  0  0  0  0  0
  -26.2883  -29.6785   24.1188 H   0  0  0  0  0  0
  -27.4079  -29.7310   25.4616 H   0  0  0  0  0  0
  -27.8716  -30.4360   23.9304 H   0  0  0  0  0  0
  -27.2691  -33.3617   26.2075 H   0  0  0  0  0  0
  -28.3842  -32.6887   25.0275 H   0  0  0  0  0  0
  -28.0750  -31.8429   26.5353 H   0  0  0  0  0  0
  -28.2583  -38.0094   24.7531 H   0  0  0  0  0  0
  -28.1077  -36.2626   24.6261 H   0  0  0  0  0  0
  -27.2293  -37.1407   25.8865 H   0  0  0  0  0  0
  -20.9306  -29.8714   21.6897 H   0  0  0  0  0  0
  -26.0166  -38.2849   24.1463 H   0  0  0  0  0  0
  -30.1718  -18.9705   17.9165 H   0  0  0  0  0  0
  -30.0584  -16.6072   18.5346 H   0  0  0  0  0  0
  -29.9003  -17.7183   22.7044 H   0  0  0  0  0  0
  -32.4117  -22.8715   20.5607 H   0  0  0  0  0  0
  -32.2418  -24.6056   20.5495 H   0  0  0  0  0  0
  -32.3794  -23.7522   19.0193 H   0  0  0  0  0  0
  -27.8342  -24.7723   20.6666 H   0  0  0  0  0  0
  -28.0467  -25.0173   18.9027 H   0  0  0  0  0  0
  -31.9168  -20.4274   18.3327 H   0  0  0  0  0  0
  -31.5392  -22.0906   18.0517 H   0  0  0  0  0  0
  -29.1403  -15.2907   21.6077 H   0  0  0  0  0  0
  -28.8941  -22.2115   20.2895 H   0  0  0  0  0  0
  -30.5054  -25.5421   19.9659 H   0  0  0  0  0  0
  1 25  1  0  0  0
  1 30  2  0  0  0
  1 82  1  0  0  0
  2  3  1  0  0  0
  2 25  1  0  0  0
  2 86  1  0  0  0
  2 87  1  0  0  0
  3  4  1  0  0  0
  3 88  1  0  0  0
  3 89  1  0  0  0
  4  5  1  0  0  0
  4 90  1  0  0  0
  4 91  1  0  0  0
  5  6  1  0  0  0
  5 26  1  0  0  0
  5 92  1  0  0  0
  6 25  1  0  0  0
  6 93  1  0  0  0
  6 94  1  0  0  0
  7  8  2  0  0  0
  7 26  1  0  0  0
  7 29  1  0  0  0
  8  9  1  0  0  0
  8 22  1  0  0  0
  9 10  1  0  0  0
  9 27  2  0  0  0
 10 11  2  0  0  0
 10 15  1  0  0  0
 11 12  1  0  0  0
 11 95  1  0  0  0
 12 13  2  0  0  0
 12 96  1  0  0  0
 13 14  1  0  0  0
 13 31  1  0  0  0
 14 15  2  0  0  0
 14 97  1  0  0  0
 15 98  1  0  0  0
 16 17  2  0  0  0
 16 21  1  0  0  0
 16 31  1  0  0  0
 17 18  1  0  0  0
 17 99  1  0  0  0
 18 19  2  0  0  0
 18100  1  0  0  0
 19 20  1  0  0  0
 19 24  1  0  0  0
 20 21  2  0  0  0
 20101  1  0  0  0
 21 23  1  0  0  0
 22 28  1  0  0  0
 22 32  2  0  0  0
 26 27  1  0  0  0
 28102  1  0  0  0
 28103  1  0  0  0
 29104  1  0  0  0
 29105  1  0  0  0
 33 34  1  0  0  0
 33 66  1  0  0  0
 33 70  2  0  0  0
 34 36  1  0  0  0
 34 59  1  0  0  0
 34106  1  0  0  0
 35 44  2  0  0  0
 35 45  1  0  0  0
 35 68  1  0  0  0
 36 56  1  0  0  0
 36107  1  0  0  0
 37 39  1  0  0  0
 37 47  1  0  0  0
 37 66  1  0  0  0
 37108  1  0  0  0
 38 43  2  0  0  0
 38 46  1  0  0  0
 38 47  1  0  0  0
 39 64  1  0  0  0
 39 67  2  0  0  0
 40 52  1  0  0  0
 40 53  2  0  0  0
 40 58  1  0  0  0
 41109  1  0  0  0
 41110  1  0  0  0
 41111  1  0  0  0
 41 48  1  0  0  0
 42 43  1  0  0  0
 42 66  1  0  0  0
 42112  1  0  0  0
 42113  1  0  0  0
 43 44  1  0  0  0
 44114  1  0  0  0
 45 46  2  0  0  0
 45115  1  0  0  0
 46116  1  0  0  0
 47117  1  0  0  0
 47118  1  0  0  0
 48 56  1  0  0  0
 48 65  1  0  0  0
 48119  1  0  0  0
 49 50  1  0  0  0
 49 53  1  0  0  0
 49 64  1  0  0  0
 49120  1  0  0  0
 50 51  1  0  0  0
 50121  1  0  0  0
 50122  1  0  0  0
 51 52  1  0  0  0
 51123  1  0  0  0
 51124  1  0  0  0
 52125  1  0  0  0
 52126  1  0  0  0
 53 54  1  0  0  0
 54 55  2  0  0  0
 54127  1  0  0  0
 55 57  1  0  0  0
 55128  1  0  0  0
 56 69  2  0  0  0
 57 58  2  0  0  0
 57129  1  0  0  0
 58130  1  0  0  0
 59 60  1  0  0  0
 59 61  1  0  0  0
 59 62  1  0  0  0
 60131  1  0  0  0
 60132  1  0  0  0
 60133  1  0  0  0
 61134  1  0  0  0
 61135  1  0  0  0
 61136  1  0  0  0
 62137  1  0  0  0
 62138  1  0  0  0
 62139  1  0  0  0
 63 65  1  0  0  0
 63140  1  0  0  0
 63141  1  0  0  0
 63142  1  0  0  0
 64143  1  0  0  0
 65144  1  0  0  0
 68 80  1  0  0  0
 71 72  2  0  0  0
 71 74  1  0  0  0
 71145  1  0  0  0
 72 75  1  0  0  0
 72146  1  0  0  0
 73 75  2  0  0  0
 73 76  1  0  0  0
 73147  1  0  0  0
 74 76  2  0  0  0
 74 77  1  0  0  0
 75 82  1  0  0  0
 76 85  1  0  0  0
 77 81  2  0  0  0
 77 83  1  0  0  0
 78 79  1  0  0  0
 78 83  1  0  0  0
 78 84  2  0  0  0
 79148  1  0  0  0
 79149  1  0  0  0
 79150  1  0  0  0
 80 84  1  0  0  0
 80151  1  0  0  0
 80152  1  0  0  0
 81153  1  0  0  0
 81154  1  0  0  0
 82155  1  0  0  0
 83156  1  0  0  0
 84157  1  0  0  0
M  CHG  2  81   1  84   1
M  ISO  4   1 100  68 101  80 101  82 100
M  END
> <chiral flag>
0

> <version>
0

> <s_m_source_file>
/data/baiqing/PycharmProjects/Reinvent-master-3.2/result/LINK_invent/BTK/process_docking_weight1_custom_product_contain_oxygen_bond_distance_aromatic_linkinvent_7_9_3/rearranged_h_0070.sdf

> <i_m_source_file_index>
15

> <r_mmod_Potential_Energy-OPLS-2005>
-305.008056640625

> <r_mmod_Stretch_Energy-OPLS-2005>
55.946704864502

> <r_mmod_Bend_Energy-OPLS-2005>
136.13005065918

> <r_mmod_Torsional_Energy-OPLS-2005>
249.761001586914

> <r_mmod_Improper_Torsional_Energy-OPLS-2005>
5.00904273986816

> <r_mmod_Van_der_Waal_Energy-OPLS-2005>
160.057815551758

> <r_mmod_Electrostatic_Energy-OPLS-2005>
83.6482543945312

> <r_mmod_Solvation_Energy-OPLS-2005>
-1015.56384277344

> <b_mmod_Minimization_Converged-OPLS-2005>
0

> <r_mmod_RMS_Derivative-OPLS-2005>
2.29582738876343

$$$$
15
                    3D
 Structure written by MMmdl.
163172  0  0  1  0            999 V2000
  -30.5411  -14.7517   20.4663 C   0  0  0  0  0  0
  -30.4325  -12.4494   19.4629 C   0  0  0  0  0  0
  -29.5025  -12.4991   18.2285 C   0  0  0  0  0  0
  -28.0289  -12.2952   18.6424 C   0  0  0  0  0  0
  -27.6322  -13.2059   19.8364 C   0  0  2  0  0  0
  -28.6763  -13.1198   20.9692 C   0  0  0  0  0  0
  -25.2500  -13.8096   20.5652 C   0  0  0  0  0  0
  -24.1769  -13.0364   20.9197 C   0  0  0  0  0  0
  -24.6296  -11.6842   20.8728 C   0  0  0  0  0  0
  -23.9002  -10.4235   21.0364 C   0  0  0  0  0  0
  -24.3569   -9.4176   21.9159 C   0  0  0  0  0  0
  -23.6264   -8.2196   22.0741 C   0  0  0  0  0  0
  -22.4250   -8.0216   21.3526 C   0  0  0  0  0  0
  -21.9860   -9.0186   20.4636 C   0  0  0  0  0  0
  -22.7170  -10.2070   20.3039 C   0  0  0  0  0  0
  -21.6819   -6.0688   22.5262 C   0  0  0  0  0  0
  -21.3995   -6.5610   23.8194 C   0  0  0  0  0  0
  -21.3686   -5.6789   24.9186 C   0  0  0  0  0  0
  -21.6063   -4.3053   24.7248 C   0  0  0  0  0  0
  -21.8837   -3.8119   23.4375 C   0  0  0  0  0  0
  -21.9187   -4.6918   22.3406 C   0  0  0  0  0  0
  -22.7821  -13.5164   21.1924 C   0  0  0  0  0  0
  -22.1670   -4.2084   21.0993 F   0  0  0  0  0  0
  -21.5650   -3.4563   25.7779 F   0  0  0  0  0  0
  -29.9688  -13.5011   20.3909 N   0  0  0  0  0  0
  -26.2846  -12.9250   20.3188 N   0  0  0  0  0  0
  -25.9213  -11.6413   20.5701 N   0  0  0  0  0  0
  -22.0532  -12.8077   22.0493 N   0  0  0  0  0  0
  -25.4300  -15.1793   20.4030 N   0  0  0  0  0  0
  -31.7457  -14.8968   20.2409 O   0  0  0  0  0  0
  -21.6642   -6.8799   21.4216 O   0  0  0  0  0  0
  -22.3495  -14.5485   20.6833 O   0  0  0  0  0  0
  -24.6495  -31.8499   23.1967 C   0  0  0  0  0  0
  -25.9287  -32.4712   23.8325 C   0  0  1  0  0  0
  -27.2163  -27.2126   20.1198 C   0  0  0  0  0  0
  -25.6012  -33.8508   24.2226 N   0  0  0  0  0  0
  -23.4596  -30.4798   21.5456 C   0  0  2  0  0  0
  -24.8912  -28.9091   20.1007 C   0  0  0  0  0  0
  -22.7816  -29.4787   22.5081 C   0  0  0  0  0  0
  -17.9952  -28.1220   22.8732 C   0  0  0  0  0  0
  -24.1510  -36.7283   23.2639 C   0  0  0  0  0  0
  -25.9976  -30.7429   21.3823 C   0  0  0  0  0  0
  -26.0568  -29.3535   20.7387 C   0  0  0  0  0  0
  -27.2119  -28.5052   20.7596 C   0  0  0  0  0  0
  -26.0416  -26.8530   19.4325 C   0  0  0  0  0  0
  -24.8925  -27.6703   19.4358 C   0  0  0  0  0  0
  -23.6630  -29.7977   20.1579 C   0  0  0  0  0  0
  -25.4119  -36.3002   24.0296 C   0  0  1  0  0  0
  -20.4815  -28.4580   22.7816 C   0  0  2  0  0  0
  -20.6890  -26.9573   22.5350 C   0  0  0  0  0  0
  -19.5533  -26.4527   21.6203 C   0  0  0  0  0  0
  -18.1548  -26.7515   22.2095 C   0  0  0  0  0  0
  -19.1189  -28.8967   23.2505 C   0  0  0  0  0  0
  -18.9421  -30.1470   23.8766 C   0  0  0  0  0  0
  -17.6448  -30.6521   24.0780 C   0  0  0  0  0  0
  -25.9079  -34.9399   23.5066 C   0  0  0  0  0  0
  -16.5281  -29.9033   23.6726 C   0  0  0  0  0  0
  -16.7009  -28.6335   23.0915 C   0  0  0  0  0  0
  -26.4540  -31.6512   25.0737 C   0  0  0  0  0  0
  -25.3759  -31.3813   26.1491 C   0  0  0  0  0  0
  -27.0367  -30.2903   24.6228 C   0  0  0  0  0  0
  -27.5987  -32.4278   25.7598 C   0  0  0  0  0  0
  -27.5548  -37.1821   24.8440 C   0  0  0  0  0  0
  -21.4576  -29.4450   22.3931 N   0  0  0  0  0  0
  -26.4244  -37.3732   23.9412 N   0  0  0  0  0  0
  -24.7246  -31.0479   22.0940 N   0  0  0  0  0  0
  -23.4231  -28.7560   23.2708 O   0  0  0  0  0  0
  -28.2879  -26.2942   20.2298 O   0  0  0  0  0  0
  -26.5624  -34.8855   22.4617 O   0  0  0  0  0  0
  -23.5634  -32.1268   23.7294 O   0  0  0  0  0  0
  -29.8604  -17.4467   22.2832 C   0  0  0  0  0  0
  -29.3006  -18.4159   20.1376 C   0  0  0  0  0  0
  -29.6039  -18.6987   22.8898 C   0  0  0  0  0  0
  -29.2637  -19.8541   22.1235 C   0  0  0  0  0  0
  -29.1122  -19.7508   20.7093 C   0  0  0  0  0  0
  -29.6969  -17.2376   20.9014 C   0  0  0  0  0  0
  -26.7363  -23.1838   20.0492 C   0  0  0  0  0  0
  -28.0350  -23.5296   19.9170 C   0  0  0  0  0  0
  -26.2327  -21.7471   20.1838 C   0  0  0  0  0  0
  -29.0784  -22.3224   19.8632 C   0  0  0  0  0  0
  -27.1754  -20.6822   19.5791 C   0  0  0  0  0  0
  -29.5880  -18.7439   24.4135 C   0  0  0  0  0  0
  -28.9544  -21.1734   22.8373 C   0  0  0  0  0  0
  -28.4377  -25.0108   19.4379 C   0  0  0  0  0  0
  -28.5686  -20.8857   19.9681 N   0  0  0  0  0  0
  -29.6521  -15.8243   20.4389 N   0  0  0  0  0  0
  -31.4770  -12.5740   19.1690 H   0  0  0  0  0  0
  -30.3794  -11.4762   19.9542 H   0  0  0  0  0  0
  -29.7840  -11.7395   17.4993 H   0  0  0  0  0  0
  -29.6130  -13.4659   17.7312 H   0  0  0  0  0  0
  -27.9094  -11.2461   18.9287 H   0  0  0  0  0  0
  -27.3598  -12.4539   17.7946 H   0  0  0  0  0  0
  -27.6275  -14.2244   19.4456 H   0  0  0  0  0  0
  -28.7145  -12.1054   21.3698 H   0  0  0  0  0  0
  -28.4097  -13.7713   21.8008 H   0  0  0  0  0  0
  -25.2680   -9.5659   22.4767 H   0  0  0  0  0  0
  -23.9982   -7.4561   22.7425 H   0  0  0  0  0  0
  -21.0810   -8.8643   19.8915 H   0  0  0  0  0  0
  -22.3566  -10.9607   19.6162 H   0  0  0  0  0  0
  -21.1974   -7.6115   23.9669 H   0  0  0  0  0  0
  -21.1512   -6.0545   25.9076 H   0  0  0  0  0  0
  -22.0594   -2.7573   23.2911 H   0  0  0  0  0  0
  -22.4225  -11.9637   22.4657 H   0  0  0  0  0  0
  -21.1191  -13.1058   22.2933 H   0  0  0  0  0  0
  -24.6663  -15.8437   20.4806 H   0  0  0  0  0  0
  -26.2739  -15.5952   20.0354 H   0  0  0  0  0  0
  -26.7391  -32.5313   23.1087 H   0  0  0  0  0  0
  -25.0112  -33.9594   25.0333 H   0  0  0  0  0  0
  -22.7647  -31.3122   21.3901 H   0  0  0  0  0  0
  -23.3675  -35.9715   23.3269 H   0  0  0  0  0  0
  -24.3662  -36.8940   22.2072 H   0  0  0  0  0  0
  -23.7359  -37.6512   23.6699 H   0  0  0  0  0  0
  -26.1337  -31.4853   20.5966 H   0  0  0  0  0  0
  -26.8798  -30.8166   22.0055 H   0  0  0  0  0  0
  -28.0900  -28.8122   21.3152 H   0  0  0  0  0  0
  -25.9835  -25.9096   18.9065 H   0  0  0  0  0  0
  -24.0127  -27.3369   18.9015 H   0  0  0  0  0  0
  -23.7666  -30.5639   19.3877 H   0  0  0  0  0  0
  -22.7770  -29.2270   19.8733 H   0  0  0  0  0  0
  -25.1338  -36.1781   25.0780 H   0  0  0  0  0  0
  -20.1567  -28.6797   21.7645 H   0  0  0  0  0  0
  -20.6735  -26.4183   23.4838 H   0  0  0  0  0  0
  -21.6571  -26.7622   22.0752 H   0  0  0  0  0  0
  -19.6478  -25.3826   21.4406 H   0  0  0  0  0  0
  -19.6370  -26.9159   20.6349 H   0  0  0  0  0  0
  -17.3964  -26.6302   21.4317 H   0  0  0  0  0  0
  -17.9307  -26.0074   22.9730 H   0  0  0  0  0  0
  -19.7946  -30.7528   24.1459 H   0  0  0  0  0  0
  -17.5133  -31.6261   24.5328 H   0  0  0  0  0  0
  -15.5336  -30.3023   23.8275 H   0  0  0  0  0  0
  -15.8321  -28.0619   22.7993 H   0  0  0  0  0  0
  -24.5839  -30.7178   25.7998 H   0  0  0  0  0  0
  -24.9022  -32.3073   26.4799 H   0  0  0  0  0  0
  -25.8068  -30.9142   27.0365 H   0  0  0  0  0  0
  -26.3007  -29.6715   24.1062 H   0  0  0  0  0  0
  -27.3866  -29.7065   25.4759 H   0  0  0  0  0  0
  -27.8957  -30.4150   23.9611 H   0  0  0  0  0  0
  -27.2436  -33.3545   26.2143 H   0  0  0  0  0  0
  -28.3876  -32.6914   25.0537 H   0  0  0  0  0  0
  -28.0564  -31.8426   26.5594 H   0  0  0  0  0  0
  -28.2529  -38.0135   24.7457 H   0  0  0  0  0  0
  -28.1049  -36.2663   24.6262 H   0  0  0  0  0  0
  -27.2301  -37.1517   25.8845 H   0  0  0  0  0  0
  -21.0653  -30.1585   21.7911 H   0  0  0  0  0  0
  -26.0047  -38.2778   24.1366 H   0  0  0  0  0  0
  -30.0920  -16.6018   22.9192 H   0  0  0  0  0  0
  -29.0861  -18.2869   19.0847 H   0  0  0  0  0  0
  -25.9645  -23.9328   19.9634 H   0  0  0  0  0  0
  -25.2740  -21.6846   19.6663 H   0  0  0  0  0  0
  -26.0251  -21.5292   21.2314 H   0  0  0  0  0  0
  -29.9076  -22.5225   20.5405 H   0  0  0  0  0  0
  -29.5286  -22.3921   18.8685 H   0  0  0  0  0  0
  -27.1294  -20.7174   18.4884 H   0  0  0  0  0  0
  -26.8260  -19.6831   19.8534 H   0  0  0  0  0  0
  -29.7767  -17.7621   24.8448 H   0  0  0  0  0  0
  -28.6072  -19.0665   24.7733 H   0  0  0  0  0  0
  -30.3505  -19.4194   24.7997 H   0  0  0  0  0  0
  -29.1421  -21.1611   23.9091 H   0  0  0  0  0  0
  -27.9088  -21.4524   22.7067 H   0  0  0  0  0  0
  -29.5625  -21.9894   22.4629 H   0  0  0  0  0  0
  -28.0456  -25.1487   18.4312 H   0  0  0  0  0  0
  -29.5144  -24.9270   19.2925 H   0  0  0  0  0  0
  -28.7123  -15.4879   20.3093 H   0  0  0  0  0  0
  1 25  1  0  0  0
  1 30  2  0  0  0
  1 86  1  0  0  0
  2  3  1  0  0  0
  2 25  1  0  0  0
  2 87  1  0  0  0
  2 88  1  0  0  0
  3  4  1  0  0  0
  3 89  1  0  0  0
  3 90  1  0  0  0
  4  5  1  0  0  0
  4 91  1  0  0  0
  4 92  1  0  0  0
  5  6  1  0  0  0
  5 26  1  0  0  0
  5 93  1  0  0  0
  6 25  1  0  0  0
  6 94  1  0  0  0
  6 95  1  0  0  0
  7  8  2  0  0  0
  7 26  1  0  0  0
  7 29  1  0  0  0
  8  9  1  0  0  0
  8 22  1  0  0  0
  9 10  1  0  0  0
  9 27  2  0  0  0
 10 11  2  0  0  0
 10 15  1  0  0  0
 11 12  1  0  0  0
 11 96  1  0  0  0
 12 13  2  0  0  0
 12 97  1  0  0  0
 13 14  1  0  0  0
 13 31  1  0  0  0
 14 15  2  0  0  0
 14 98  1  0  0  0
 15 99  1  0  0  0
 16 17  2  0  0  0
 16 21  1  0  0  0
 16 31  1  0  0  0
 17 18  1  0  0  0
 17100  1  0  0  0
 18 19  2  0  0  0
 18101  1  0  0  0
 19 20  1  0  0  0
 19 24  1  0  0  0
 20 21  2  0  0  0
 20102  1  0  0  0
 21 23  1  0  0  0
 22 28  1  0  0  0
 22 32  2  0  0  0
 26 27  1  0  0  0
 28103  1  0  0  0
 28104  1  0  0  0
 29105  1  0  0  0
 29106  1  0  0  0
 33 34  1  0  0  0
 33 66  1  0  0  0
 33 70  2  0  0  0
 34 36  1  0  0  0
 34 59  1  0  0  0
 34107  1  0  0  0
 35 44  2  0  0  0
 35 45  1  0  0  0
 35 68  1  0  0  0
 36 56  1  0  0  0
 36108  1  0  0  0
 37 39  1  0  0  0
 37 47  1  0  0  0
 37 66  1  0  0  0
 37109  1  0  0  0
 38 43  2  0  0  0
 38 46  1  0  0  0
 38 47  1  0  0  0
 39 64  1  0  0  0
 39 67  2  0  0  0
 40 52  1  0  0  0
 40 53  2  0  0  0
 40 58  1  0  0  0
 41110  1  0  0  0
 41111  1  0  0  0
 41112  1  0  0  0
 41 48  1  0  0  0
 42 43  1  0  0  0
 42 66  1  0  0  0
 42113  1  0  0  0
 42114  1  0  0  0
 43 44  1  0  0  0
 44115  1  0  0  0
 45 46  2  0  0  0
 45116  1  0  0  0
 46117  1  0  0  0
 47118  1  0  0  0
 47119  1  0  0  0
 48 56  1  0  0  0
 48 65  1  0  0  0
 48120  1  0  0  0
 49 50  1  0  0  0
 49 53  1  0  0  0
 49 64  1  0  0  0
 49121  1  0  0  0
 50 51  1  0  0  0
 50122  1  0  0  0
 50123  1  0  0  0
 51 52  1  0  0  0
 51124  1  0  0  0
 51125  1  0  0  0
 52126  1  0  0  0
 52127  1  0  0  0
 53 54  1  0  0  0
 54 55  2  0  0  0
 54128  1  0  0  0
 55 57  1  0  0  0
 55129  1  0  0  0
 56 69  2  0  0  0
 57 58  2  0  0  0
 57130  1  0  0  0
 58131  1  0  0  0
 59 60  1  0  0  0
 59 61  1  0  0  0
 59 62  1  0  0  0
 60132  1  0  0  0
 60133  1  0  0  0
 60134  1  0  0  0
 61135  1  0  0  0
 61136  1  0  0  0
 61137  1  0  0  0
 62138  1  0  0  0
 62139  1  0  0  0
 62140  1  0  0  0
 63 65  1  0  0  0
 63141  1  0  0  0
 63142  1  0  0  0
 63143  1  0  0  0
 64144  1  0  0  0
 65145  1  0  0  0
 68 84  1  0  0  0
 71 73  2  0  0  0
 71 76  1  0  0  0
 71146  1  0  0  0
 72 75  1  0  0  0
 72 76  2  0  0  0
 72147  1  0  0  0
 73 74  1  0  0  0
 73 82  1  0  0  0
 74 75  2  0  0  0
 74 83  1  0  0  0
 75 85  1  0  0  0
 76 86  1  0  0  0
 77 78  2  0  0  0
 77 79  1  0  0  0
 77148  1  0  0  0
 78 80  1  0  0  0
 78 84  1  0  0  0
 79 81  1  0  0  0
 79149  1  0  0  0
 79150  1  0  0  0
 80 85  1  0  0  0
 80151  1  0  0  0
 80152  1  0  0  0
 81 85  1  0  0  0
 81153  1  0  0  0
 81154  1  0  0  0
 82155  1  0  0  0
 82156  1  0  0  0
 82157  1  0  0  0
 83158  1  0  0  0
 83159  1  0  0  0
 83160  1  0  0  0
 84161  1  0  0  0
 84162  1  0  0  0
 86163  1  0  0  0
M  ISO  4   1 100  68 101  84 101  86 100
M  END
> <chiral flag>
0

> <version>
0

> <s_m_source_file>
/data/baiqing/PycharmProjects/Reinvent-master-3.2/result/LINK_invent/BTK/process_docking_weight1_custom_product_contain_oxygen_bond_distance_aromatic_linkinvent_7_9_3/rearranged_h_0070.sdf

> <i_m_source_file_index>
16

> <r_mmod_Potential_Energy-OPLS-2005>
471.85693359375

> <r_mmod_Stretch_Energy-OPLS-2005>
136.376159667969

> <r_mmod_Bend_Energy-OPLS-2005>
318.158050537109

> <r_mmod_Torsional_Energy-OPLS-2005>
288.748565673828

> <r_mmod_Improper_Torsional_Energy-OPLS-2005>
17.7965354919434

> <r_mmod_Van_der_Waal_Energy-OPLS-2005>
152.013916015625

> <r_mmod_Electrostatic_Energy-OPLS-2005>
-340.512939453125

> <r_mmod_Solvation_Energy-OPLS-2005>
-230.474517822266

> <b_mmod_Minimization_Converged-OPLS-2005>
0

> <r_mmod_RMS_Derivative-OPLS-2005>
7.68059921264648

$$$$
16
                    3D
 Structure written by MMmdl.
161170  0  0  1  0            999 V2000
  -30.5852  -14.7721   20.4532 C   0  0  0  0  0  0
  -30.4342  -12.4649   19.4879 C   0  0  0  0  0  0
  -29.5167  -12.5219   18.2460 C   0  0  0  0  0  0
  -28.0381  -12.3543   18.6462 C   0  0  0  0  0  0
  -27.6464  -13.2347   19.8632 C   0  0  2  0  0  0
  -28.6887  -13.1562   21.0007 C   0  0  0  0  0  0
  -25.2525  -13.8199   20.5696 C   0  0  0  0  0  0
  -24.1822  -13.0440   20.9200 C   0  0  0  0  0  0
  -24.6425  -11.6922   20.8751 C   0  0  0  0  0  0
  -23.9086  -10.4307   21.0397 C   0  0  0  0  0  0
  -24.3635   -9.4223   21.9175 C   0  0  0  0  0  0
  -23.6310   -8.2258   22.0747 C   0  0  0  0  0  0
  -22.4289   -8.0290   21.3531 C   0  0  0  0  0  0
  -21.9921   -9.0272   20.4639 C   0  0  0  0  0  0
  -22.7250  -10.2156   20.3049 C   0  0  0  0  0  0
  -21.6865   -6.0741   22.5272 C   0  0  0  0  0  0
  -21.4026   -6.5642   23.8206 C   0  0  0  0  0  0
  -21.3662   -5.6793   24.9166 C   0  0  0  0  0  0
  -21.6042   -4.3054   24.7214 C   0  0  0  0  0  0
  -21.8824   -3.8147   23.4334 C   0  0  0  0  0  0
  -21.9205   -4.6969   22.3394 C   0  0  0  0  0  0
  -22.7846  -13.5216   21.1854 C   0  0  0  0  0  0
  -22.1660   -4.2152   21.0969 F   0  0  0  0  0  0
  -21.5634   -3.4534   25.7722 F   0  0  0  0  0  0
  -29.9920  -13.5233   20.4314 N   0  0  0  0  0  0
  -26.2967  -12.9414   20.3323 N   0  0  0  0  0  0
  -25.9360  -11.6555   20.5775 N   0  0  0  0  0  0
  -22.0487  -12.8221   22.0421 N   0  0  0  0  0  0
  -25.4231  -15.1933   20.4125 N   0  0  0  0  0  0
  -31.7423  -14.8986   20.0413 O   0  0  0  0  0  0
  -21.6652   -6.8884   21.4230 O   0  0  0  0  0  0
  -22.3517  -14.5509   20.6675 O   0  0  0  0  0  0
  -24.6329  -31.8525   23.1980 C   0  0  0  0  0  0
  -25.9150  -32.4742   23.8317 C   0  0  1  0  0  0
  -27.2121  -27.2366   20.1402 C   0  0  0  0  0  0
  -25.5934  -33.8543   24.2236 N   0  0  0  0  0  0
  -23.4328  -30.4743   21.5398 C   0  0  2  0  0  0
  -24.8827  -28.9207   20.1035 C   0  0  0  0  0  0
  -22.7504  -29.4580   22.4876 C   0  0  0  0  0  0
  -18.0291  -28.1385   22.8488 C   0  0  0  0  0  0
  -24.1491  -36.7280   23.2641 C   0  0  0  0  0  0
  -25.9812  -30.7541   21.3864 C   0  0  0  0  0  0
  -26.0525  -29.3755   20.7282 C   0  0  0  0  0  0
  -27.2210  -28.5440   20.7403 C   0  0  0  0  0  0
  -26.0338  -26.8712   19.4539 C   0  0  0  0  0  0
  -24.8790  -27.6776   19.4525 C   0  0  0  0  0  0
  -23.6545  -29.8097   20.1551 C   0  0  0  0  0  0
  -25.4121  -36.3061   24.0322 C   0  0  1  0  0  0
  -20.5892  -28.3700   23.1250 C   0  0  2  0  0  0
  -20.6783  -26.9413   22.5399 C   0  0  0  0  0  0
  -19.5768  -26.6386   21.5201 C   0  0  0  0  0  0
  -18.1948  -26.7931   22.1617 C   0  0  0  0  0  0
  -19.1546  -28.8857   23.2876 C   0  0  0  0  0  0
  -18.9469  -30.1457   23.8900 C   0  0  0  0  0  0
  -17.6470  -30.6593   24.0548 C   0  0  0  0  0  0
  -25.9052  -34.9429   23.5082 C   0  0  0  0  0  0
  -16.5357  -29.9088   23.6329 C   0  0  0  0  0  0
  -16.7274  -28.6491   23.0370 C   0  0  0  0  0  0
  -26.4501  -31.6591   25.0724 C   0  0  0  0  0  0
  -25.3712  -31.3768   26.1442 C   0  0  0  0  0  0
  -27.0365  -30.3000   24.6263 C   0  0  0  0  0  0
  -27.6028  -32.4354   25.7517 C   0  0  0  0  0  0
  -27.5585  -37.1801   24.8455 C   0  0  0  0  0  0
  -21.4207  -29.3051   22.3638 N   0  0  0  0  0  0
  -26.4293  -37.3766   23.9398 N   0  0  0  0  0  0
  -24.7011  -31.0467   22.0972 N   0  0  0  0  0  0
  -23.4186  -28.8103   23.2980 O   0  0  0  0  0  0
  -28.2594  -26.2781   20.2201 O   0  0  0  0  0  0
  -26.5616  -34.8891   22.4643 O   0  0  0  0  0  0
  -23.5471  -32.1348   23.7267 O   0  0  0  0  0  0
  -28.6555  -19.5697   18.8354 C   0  0  0  0  0  0
  -29.6725  -18.5238   20.7847 C   0  0  0  0  0  0
  -29.2251  -19.7483   20.1147 C   0  0  0  0  0  0
  -28.5623  -18.2945   18.2346 C   0  0  0  0  0  0
  -29.5884  -17.1847   20.1953 C   0  0  0  0  0  0
  -29.0345  -17.1330   18.8937 C   0  0  0  0  0  0
  -28.7215  -23.7524   20.2043 C   0  0  0  0  0  0
  -29.9574  -23.8643   19.3917 C   0  0  0  0  0  0
  -27.9975  -24.8972   20.5730 C   0  0  0  0  0  0
  -28.3414  -22.2214   20.5343 C   0  0  0  0  0  0
  -30.8147  -22.6015   19.2014 C   0  0  0  0  0  0
  -30.7484  -21.6234   20.3953 C   0  0  0  0  0  0
  -26.8091  -24.7468   21.5224 C   0  0  0  0  0  0
  -29.3929  -21.1182   20.5967 N   0  0  0  0  0  0
  -27.9855  -18.1744   16.9659 N   0  0  0  0  0  0
  -29.8528  -15.8781   20.8767 N   0  0  0  0  0  0
  -30.3308  -24.9063   18.8418 O   0  0  0  0  0  0
  -28.9003  -15.9389   18.2662 F   0  0  0  0  0  0
  -31.4758  -12.5918   19.1883 H   0  0  0  0  0  0
  -30.3806  -11.4835   19.9622 H   0  0  0  0  0  0
  -29.7981  -11.7500   17.5289 H   0  0  0  0  0  0
  -29.6549  -13.4770   17.7342 H   0  0  0  0  0  0
  -27.8774  -11.3023   18.8846 H   0  0  0  0  0  0
  -27.3899  -12.5764   17.7978 H   0  0  0  0  0  0
  -27.6410  -14.2628   19.5058 H   0  0  0  0  0  0
  -28.7251  -12.1498   21.4218 H   0  0  0  0  0  0
  -28.4153  -13.8196   21.8226 H   0  0  0  0  0  0
  -25.2771   -9.5711   22.4760 H   0  0  0  0  0  0
  -24.0020   -7.4652   22.7477 H   0  0  0  0  0  0
  -21.0840   -8.8799   19.8957 H   0  0  0  0  0  0
  -22.3689  -10.9704   19.6178 H   0  0  0  0  0  0
  -21.2016   -7.6153   23.9703 H   0  0  0  0  0  0
  -21.1471   -6.0520   25.9065 H   0  0  0  0  0  0
  -22.0604   -2.7606   23.2827 H   0  0  0  0  0  0
  -22.4064  -11.9893   22.4853 H   0  0  0  0  0  0
  -21.1102  -13.1264   22.2586 H   0  0  0  0  0  0
  -24.6587  -15.8509   20.5222 H   0  0  0  0  0  0
  -26.2682  -15.6224   20.0579 H   0  0  0  0  0  0
  -26.7208  -32.5366   23.1044 H   0  0  0  0  0  0
  -25.0092  -33.9674   25.0390 H   0  0  0  0  0  0
  -22.7322  -31.2987   21.3904 H   0  0  0  0  0  0
  -23.3752  -35.9614   23.3292 H   0  0  0  0  0  0
  -24.3579  -36.8918   22.2056 H   0  0  0  0  0  0
  -23.7236  -37.6476   23.6671 H   0  0  0  0  0  0
  -26.1256  -31.5145   20.6182 H   0  0  0  0  0  0
  -26.8580  -30.8001   22.0215 H   0  0  0  0  0  0
  -28.1121  -28.8776   21.2547 H   0  0  0  0  0  0
  -25.9871  -25.9137   18.9546 H   0  0  0  0  0  0
  -23.9886  -27.3288   18.9464 H   0  0  0  0  0  0
  -23.7748  -30.5864   19.3991 H   0  0  0  0  0  0
  -22.7735  -29.2420   19.8487 H   0  0  0  0  0  0
  -25.1306  -36.1916   25.0819 H   0  0  0  0  0  0
  -20.9987  -28.3282   24.1368 H   0  0  0  0  0  0
  -20.5679  -26.2305   23.3604 H   0  0  0  0  0  0
  -21.6658  -26.7441   22.1204 H   0  0  0  0  0  0
  -19.6938  -25.6283   21.1269 H   0  0  0  0  0  0
  -19.6730  -27.3160   20.6701 H   0  0  0  0  0  0
  -17.4223  -26.6656   21.4021 H   0  0  0  0  0  0
  -18.0361  -26.0062   22.8999 H   0  0  0  0  0  0
  -19.7941  -30.7269   24.2281 H   0  0  0  0  0  0
  -17.5024  -31.6275   24.5140 H   0  0  0  0  0  0
  -15.5358  -30.3000   23.7667 H   0  0  0  0  0  0
  -15.8660  -28.0813   22.7118 H   0  0  0  0  0  0
  -24.5854  -30.7156   25.7773 H   0  0  0  0  0  0
  -24.8939  -32.2951   26.4876 H   0  0  0  0  0  0
  -25.8008  -30.8929   27.0222 H   0  0  0  0  0  0
  -26.2971  -29.6737   24.1257 H   0  0  0  0  0  0
  -27.3977  -29.7278   25.4817 H   0  0  0  0  0  0
  -27.8878  -30.4252   23.9567 H   0  0  0  0  0  0
  -27.2601  -33.3636   26.2111 H   0  0  0  0  0  0
  -28.3853  -32.6967   25.0379 H   0  0  0  0  0  0
  -28.0694  -31.8481   26.5442 H   0  0  0  0  0  0
  -28.2589  -38.0114   24.7505 H   0  0  0  0  0  0
  -28.1095  -36.2633   24.6283 H   0  0  0  0  0  0
  -27.2285  -37.1453   25.8855 H   0  0  0  0  0  0
  -20.9380  -29.8768   21.6843 H   0  0  0  0  0  0
  -26.0168  -38.2835   24.1413 H   0  0  0  0  0  0
  -28.3119  -20.4329   18.2845 H   0  0  0  0  0  0
  -30.0798  -18.6149   21.7808 H   0  0  0  0  0  0
  -27.5891  -21.9395   19.7984 H   0  0  0  0  0  0
  -27.8186  -22.1967   21.4896 H   0  0  0  0  0  0
  -31.8495  -22.9045   19.0423 H   0  0  0  0  0  0
  -30.4909  -22.1018   18.2888 H   0  0  0  0  0  0
  -31.0800  -22.1211   21.3076 H   0  0  0  0  0  0
  -31.4457  -20.8003   20.2294 H   0  0  0  0  0  0
  -25.9234  -24.4175   20.9788 H   0  0  0  0  0  0
  -26.5742  -25.6696   22.0539 H   0  0  0  0  0  0
  -27.0185  -24.0119   22.2990 H   0  0  0  0  0  0
  -27.7330  -18.9802   16.4042 H   0  0  0  0  0  0
  -28.0205  -17.2880   16.4717 H   0  0  0  0  0  0
  -29.0894  -15.6036   21.4749 H   0  0  0  0  0  0
  1 25  1  0  0  0
  1 30  2  0  0  0
  1 86  1  0  0  0
  2  3  1  0  0  0
  2 25  1  0  0  0
  2 89  1  0  0  0
  2 90  1  0  0  0
  3  4  1  0  0  0
  3 91  1  0  0  0
  3 92  1  0  0  0
  4  5  1  0  0  0
  4 93  1  0  0  0
  4 94  1  0  0  0
  5  6  1  0  0  0
  5 26  1  0  0  0
  5 95  1  0  0  0
  6 25  1  0  0  0
  6 96  1  0  0  0
  6 97  1  0  0  0
  7  8  2  0  0  0
  7 26  1  0  0  0
  7 29  1  0  0  0
  8  9  1  0  0  0
  8 22  1  0  0  0
  9 10  1  0  0  0
  9 27  2  0  0  0
 10 11  2  0  0  0
 10 15  1  0  0  0
 11 12  1  0  0  0
 11 98  1  0  0  0
 12 13  2  0  0  0
 12 99  1  0  0  0
 13 14  1  0  0  0
 13 31  1  0  0  0
 14 15  2  0  0  0
 14100  1  0  0  0
 15101  1  0  0  0
 16 17  2  0  0  0
 16 21  1  0  0  0
 16 31  1  0  0  0
 17 18  1  0  0  0
 17102  1  0  0  0
 18 19  2  0  0  0
 18103  1  0  0  0
 19 20  1  0  0  0
 19 24  1  0  0  0
 20 21  2  0  0  0
 20104  1  0  0  0
 21 23  1  0  0  0
 22 28  1  0  0  0
 22 32  2  0  0  0
 26 27  1  0  0  0
 28105  1  0  0  0
 28106  1  0  0  0
 29107  1  0  0  0
 29108  1  0  0  0
 33 34  1  0  0  0
 33 66  1  0  0  0
 33 70  2  0  0  0
 34 36  1  0  0  0
 34 59  1  0  0  0
 34109  1  0  0  0
 35 44  2  0  0  0
 35 45  1  0  0  0
 35 68  1  0  0  0
 36 56  1  0  0  0
 36110  1  0  0  0
 37 39  1  0  0  0
 37 47  1  0  0  0
 37 66  1  0  0  0
 37111  1  0  0  0
 38 43  2  0  0  0
 38 46  1  0  0  0
 38 47  1  0  0  0
 39 64  1  0  0  0
 39 67  2  0  0  0
 40 52  1  0  0  0
 40 53  2  0  0  0
 40 58  1  0  0  0
 41112  1  0  0  0
 41113  1  0  0  0
 41114  1  0  0  0
 41 48  1  0  0  0
 42 43  1  0  0  0
 42 66  1  0  0  0
 42115  1  0  0  0
 42116  1  0  0  0
 43 44  1  0  0  0
 44117  1  0  0  0
 45 46  2  0  0  0
 45118  1  0  0  0
 46119  1  0  0  0
 47120  1  0  0  0
 47121  1  0  0  0
 48 56  1  0  0  0
 48 65  1  0  0  0
 48122  1  0  0  0
 49 50  1  0  0  0
 49 53  1  0  0  0
 49 64  1  0  0  0
 49123  1  0  0  0
 50 51  1  0  0  0
 50124  1  0  0  0
 50125  1  0  0  0
 51 52  1  0  0  0
 51126  1  0  0  0
 51127  1  0  0  0
 52128  1  0  0  0
 52129  1  0  0  0
 53 54  1  0  0  0
 54 55  2  0  0  0
 54130  1  0  0  0
 55 57  1  0  0  0
 55131  1  0  0  0
 56 69  2  0  0  0
 57 58  2  0  0  0
 57132  1  0  0  0
 58133  1  0  0  0
 59 60  1  0  0  0
 59 61  1  0  0  0
 59 62  1  0  0  0
 60134  1  0  0  0
 60135  1  0  0  0
 60136  1  0  0  0
 61137  1  0  0  0
 61138  1  0  0  0
 61139  1  0  0  0
 62140  1  0  0  0
 62141  1  0  0  0
 62142  1  0  0  0
 63 65  1  0  0  0
 63143  1  0  0  0
 63144  1  0  0  0
 63145  1  0  0  0
 64146  1  0  0  0
 65147  1  0  0  0
 68 79  1  0  0  0
 71 73  2  0  0  0
 71 74  1  0  0  0
 71148  1  0  0  0
 72 73  1  0  0  0
 72 75  2  0  0  0
 72149  1  0  0  0
 73 84  1  0  0  0
 74 76  2  0  0  0
 74 85  1  0  0  0
 75 76  1  0  0  0
 75 86  1  0  0  0
 76 88  1  0  0  0
 77 78  1  0  0  0
 77 79  2  0  0  0
 77 80  1  0  0  0
 78 81  1  0  0  0
 78 87  2  0  0  0
 79 83  1  0  0  0
 80 84  1  0  0  0
 80150  1  0  0  0
 80151  1  0  0  0
 81 82  1  0  0  0
 81152  1  0  0  0
 81153  1  0  0  0
 82 84  1  0  0  0
 82154  1  0  0  0
 82155  1  0  0  0
 83156  1  0  0  0
 83157  1  0  0  0
 83158  1  0  0  0
 85159  1  0  0  0
 85160  1  0  0  0
 86161  1  0  0  0
M  ISO  4   1 100  68 101  79 101  86 100
M  END
> <chiral flag>
0

> <version>
0

> <s_m_source_file>
/data/baiqing/PycharmProjects/Reinvent-master-3.2/result/LINK_invent/BTK/process_docking_weight1_custom_product_contain_oxygen_bond_distance_aromatic_linkinvent_7_9_3/rearranged_h_0070.sdf

> <i_m_source_file_index>
17

> <r_mmod_Potential_Energy-OPLS-2005>
319.941162109375

> <r_mmod_Stretch_Energy-OPLS-2005>
143.815734863281

> <r_mmod_Bend_Energy-OPLS-2005>
175.386642456055

> <r_mmod_Torsional_Energy-OPLS-2005>
269.086456298828

> <r_mmod_Improper_Torsional_Energy-OPLS-2005>
9.14797019958496

> <r_mmod_Van_der_Waal_Energy-OPLS-2005>
148.427169799805

> <r_mmod_Electrostatic_Energy-OPLS-2005>
-288.001129150391

> <r_mmod_Solvation_Energy-OPLS-2005>
-242.532150268555

> <b_mmod_Minimization_Converged-OPLS-2005>
0

> <r_mmod_RMS_Derivative-OPLS-2005>
2.17716264724731

$$$$
17
                    3D
 Structure written by MMmdl.
162170  0  0  1  0            999 V2000
  -30.6595  -14.4565   20.4957 C   0  0  0  0  0  0
  -30.4320  -12.2817   19.3963 C   0  0  0  0  0  0
  -29.4865  -12.4853   18.1910 C   0  0  0  0  0  0
  -28.0054  -12.3578   18.6102 C   0  0  0  0  0  0
  -27.6602  -13.1846   19.8792 C   0  0  2  0  0  0
  -28.7189  -12.9256   20.9794 C   0  0  0  0  0  0
  -25.2590  -13.8085   20.5641 C   0  0  0  0  0  0
  -24.1835  -13.0405   20.9180 C   0  0  0  0  0  0
  -24.6364  -11.6865   20.8767 C   0  0  0  0  0  0
  -23.9022  -10.4267   21.0422 C   0  0  0  0  0  0
  -24.3583   -9.4185   21.9192 C   0  0  0  0  0  0
  -23.6272   -8.2217   22.0748 C   0  0  0  0  0  0
  -22.4257   -8.0258   21.3534 C   0  0  0  0  0  0
  -21.9884   -9.0233   20.4640 C   0  0  0  0  0  0
  -22.7201  -10.2119   20.3061 C   0  0  0  0  0  0
  -21.6843   -6.0722   22.5275 C   0  0  0  0  0  0
  -21.4013   -6.5629   23.8210 C   0  0  0  0  0  0
  -21.3664   -5.6785   24.9174 C   0  0  0  0  0  0
  -21.6044   -4.3048   24.7226 C   0  0  0  0  0  0
  -21.8821   -3.8139   23.4347 C   0  0  0  0  0  0
  -21.9196   -4.6954   22.3403 C   0  0  0  0  0  0
  -22.7871  -13.5237   21.1846 C   0  0  0  0  0  0
  -22.1660   -4.2142   21.0981 F   0  0  0  0  0  0
  -21.5630   -3.4532   25.7740 F   0  0  0  0  0  0
  -30.0334  -13.2559   20.4163 N   0  0  0  0  0  0
  -26.3030  -12.9216   20.3445 N   0  0  0  0  0  0
  -25.9293  -11.6399   20.5840 N   0  0  0  0  0  0
  -22.0503  -12.8259   22.0413 N   0  0  0  0  0  0
  -25.4256  -15.1785   20.3871 N   0  0  0  0  0  0
  -31.8566  -14.6130   20.2493 O   0  0  0  0  0  0
  -21.6621   -6.8860   21.4233 O   0  0  0  0  0  0
  -22.3570  -14.5553   20.6698 O   0  0  0  0  0  0
  -24.6103  -31.8699   23.2119 C   0  0  0  0  0  0
  -25.9011  -32.4826   23.8406 C   0  0  1  0  0  0
  -27.2380  -27.4690   20.0972 C   0  0  0  0  0  0
  -25.5882  -33.8626   24.2339 N   0  0  0  0  0  0
  -23.3960  -30.4934   21.5520 C   0  0  2  0  0  0
  -24.8433  -28.9594   20.1208 C   0  0  0  0  0  0
  -22.7378  -29.4674   22.5016 C   0  0  0  0  0  0
  -18.0267  -28.1369   22.8496 C   0  0  0  0  0  0
  -24.1484  -36.7324   23.2642 C   0  0  0  0  0  0
  -25.9203  -30.8478   21.3581 C   0  0  0  0  0  0
  -25.9995  -29.4829   20.7105 C   0  0  0  0  0  0
  -27.2014  -28.7455   20.6925 C   0  0  0  0  0  0
  -26.0664  -26.9504   19.5014 C   0  0  0  0  0  0
  -24.8683  -27.6900   19.5151 C   0  0  0  0  0  0
  -23.6022  -29.8210   20.1681 C   0  0  0  0  0  0
  -25.4102  -36.3115   24.0345 C   0  0  1  0  0  0
  -20.5853  -28.3649   23.1333 C   0  0  2  0  0  0
  -20.6759  -26.9389   22.5422 C   0  0  0  0  0  0
  -19.5739  -26.6381   21.5212 C   0  0  0  0  0  0
  -18.1918  -26.7917   22.1622 C   0  0  0  0  0  0
  -19.1516  -28.8824   23.2913 C   0  0  0  0  0  0
  -18.9448  -30.1437   23.8918 C   0  0  0  0  0  0
  -17.6451  -30.6580   24.0569 C   0  0  0  0  0  0
  -25.9028  -34.9477   23.5140 C   0  0  0  0  0  0
  -16.5342  -29.9086   23.6324 C   0  0  0  0  0  0
  -16.7260  -28.6501   23.0348 C   0  0  0  0  0  0
  -26.4467  -31.6591   25.0709 C   0  0  0  0  0  0
  -25.3755  -31.3677   26.1470 C   0  0  0  0  0  0
  -27.0303  -30.3043   24.6056 C   0  0  0  0  0  0
  -27.6057  -32.4309   25.7452 C   0  0  0  0  0  0
  -27.5581  -37.1811   24.8465 C   0  0  0  0  0  0
  -21.4113  -29.3023   22.3742 N   0  0  0  0  0  0
  -26.4293  -37.3793   23.9413 N   0  0  0  0  0  0
  -24.6603  -31.0836   22.1000 N   0  0  0  0  0  0
  -23.4168  -28.8224   23.3044 O   0  0  0  0  0  0
  -28.4297  -26.7873   20.0599 O   0  0  0  0  0  0
  -26.5591  -34.8925   22.4700 O   0  0  0  0  0  0
  -23.5304  -32.1439   23.7530 O   0  0  0  0  0  0
  -28.1919  -18.7031   22.3476 C   0  0  0  0  0  0
  -29.8411  -17.8139   20.7822 C   0  0  0  0  0  0
  -28.3014  -16.3079   21.9199 C   0  0  0  0  0  0
  -29.2425  -18.9128   21.4325 C   0  0  0  0  0  0
  -27.7093  -17.3996   22.5876 C   0  0  0  0  0  0
  -29.3694  -16.5052   21.0147 C   0  0  0  0  0  0
  -25.4908  -17.5543   23.0507 C   0  0  0  0  0  0
  -29.6698  -20.3039   21.0999 C   0  0  0  0  0  0
  -28.6918  -22.2694   20.0420 C   0  0  0  0  0  0
  -24.2356  -17.3713   23.8637 C   0  0  0  0  0  0
  -29.8151  -23.2604   20.4025 C   0  0  0  0  0  0
  -29.6008  -24.7050   19.9021 C   0  0  0  0  0  0
  -28.4142  -25.4483   20.5403 C   0  0  0  0  0  0
  -26.6377  -17.1784   23.4513 N   0  0  0  0  0  0
  -29.8498  -15.4744   20.1703 N   0  0  0  0  0  0
  -28.7074  -21.0035   20.4806 N   0  0  0  0  0  0
  -30.8149  -20.6853   21.3587 O   0  0  0  0  0  0
  -27.7468  -22.6467   19.3453 O   0  0  0  0  0  0
  -31.4712  -12.4028   19.0871 H   0  0  0  0  0  0
  -30.3498  -11.2674   19.7890 H   0  0  0  0  0  0
  -29.7140  -11.7631   17.4051 H   0  0  0  0  0  0
  -29.6541  -13.4713   17.7537 H   0  0  0  0  0  0
  -27.8034  -11.3016   18.7938 H   0  0  0  0  0  0
  -27.3572  -12.6506   17.7835 H   0  0  0  0  0  0
  -27.6959  -14.2318   19.5881 H   0  0  0  0  0  0
  -28.7008  -11.8732   21.2677 H   0  0  0  0  0  0
  -28.5324  -13.4593   21.9047 H   0  0  0  0  0  0
  -25.2718   -9.5677   22.4776 H   0  0  0  0  0  0
  -23.9987   -7.4608   22.7467 H   0  0  0  0  0  0
  -21.0812   -8.8748   19.8946 H   0  0  0  0  0  0
  -22.3645  -10.9668   19.6183 H   0  0  0  0  0  0
  -21.1997   -7.6138   23.9711 H   0  0  0  0  0  0
  -21.1484   -6.0514   25.9077 H   0  0  0  0  0  0
  -22.0598   -2.7600   23.2849 H   0  0  0  0  0  0
  -22.4083  -11.9919   22.4834 H   0  0  0  0  0  0
  -21.1120  -13.1311   22.2573 H   0  0  0  0  0  0
  -24.6443  -15.8212   20.4383 H   0  0  0  0  0  0
  -26.2812  -15.6124   20.0650 H   0  0  0  0  0  0
  -26.7080  -32.5561   23.1180 H   0  0  0  0  0  0
  -25.0015  -33.9790   25.0472 H   0  0  0  0  0  0
  -22.6830  -31.3086   21.4121 H   0  0  0  0  0  0
  -23.3731  -35.9672   23.3310 H   0  0  0  0  0  0
  -24.3575  -36.8923   22.2053 H   0  0  0  0  0  0
  -23.7250  -37.6541   23.6644 H   0  0  0  0  0  0
  -26.0245  -31.6131   20.5875 H   0  0  0  0  0  0
  -26.8119  -30.9039   21.9714 H   0  0  0  0  0  0
  -28.0996  -29.1523   21.1351 H   0  0  0  0  0  0
  -26.0764  -25.9895   19.0074 H   0  0  0  0  0  0
  -23.9785  -27.2832   19.0555 H   0  0  0  0  0  0
  -23.7054  -30.5911   19.4030 H   0  0  0  0  0  0
  -22.7283  -29.2349   19.8777 H   0  0  0  0  0  0
  -25.1276  -36.1982   25.0838 H   0  0  0  0  0  0
  -20.9955  -28.3212   24.1450 H   0  0  0  0  0  0
  -20.5655  -26.2254   23.3602 H   0  0  0  0  0  0
  -21.6633  -26.7438   22.1218 H   0  0  0  0  0  0
  -19.6895  -25.6297   21.1227 H   0  0  0  0  0  0
  -19.6677  -27.3204   20.6753 H   0  0  0  0  0  0
  -17.4190  -26.6669   21.4023 H   0  0  0  0  0  0
  -18.0318  -26.0056   22.9015 H   0  0  0  0  0  0
  -19.7929  -30.7244   24.2292 H   0  0  0  0  0  0
  -17.5013  -31.6263   24.5168 H   0  0  0  0  0  0
  -15.5345  -30.2995   23.7636 H   0  0  0  0  0  0
  -15.8658  -28.0828   22.7050 H   0  0  0  0  0  0
  -24.5915  -30.7039   25.7804 H   0  0  0  0  0  0
  -24.8959  -32.2825   26.4965 H   0  0  0  0  0  0
  -25.8132  -30.8813   27.0196 H   0  0  0  0  0  0
  -26.2833  -29.6773   24.1175 H   0  0  0  0  0  0
  -27.4154  -29.7301   25.4491 H   0  0  0  0  0  0
  -27.8627  -30.4374   23.9141 H   0  0  0  0  0  0
  -27.2692  -33.3587   26.2091 H   0  0  0  0  0  0
  -28.3827  -32.6904   25.0248 H   0  0  0  0  0  0
  -28.0777  -31.8398   26.5308 H   0  0  0  0  0  0
  -28.2610  -38.0099   24.7506 H   0  0  0  0  0  0
  -28.1067  -36.2633   24.6295 H   0  0  0  0  0  0
  -27.2305  -37.1472   25.8870 H   0  0  0  0  0  0
  -20.9261  -29.8746   21.6976 H   0  0  0  0  0  0
  -26.0181  -38.2872   24.1404 H   0  0  0  0  0  0
  -27.7369  -19.5502   22.8434 H   0  0  0  0  0  0
  -30.6223  -17.9920   20.0557 H   0  0  0  0  0  0
  -27.8582  -15.3408   22.0696 H   0  0  0  0  0  0
  -25.3318  -18.0354   22.0804 H   0  0  0  0  0  0
  -23.3905  -17.8373   23.3577 H   0  0  0  0  0  0
  -24.3484  -17.8289   24.8457 H   0  0  0  0  0  0
  -24.0191  -16.3105   23.9870 H   0  0  0  0  0  0
  -30.7448  -22.8860   19.9735 H   0  0  0  0  0  0
  -29.9470  -23.2693   21.4850 H   0  0  0  0  0  0
  -29.4856  -24.7010   18.8177 H   0  0  0  0  0  0
  -30.5120  -25.2707   20.1013 H   0  0  0  0  0  0
  -28.5160  -25.4674   21.6258 H   0  0  0  0  0  0
  -27.4775  -24.9368   20.3289 H   0  0  0  0  0  0
  -30.2266  -15.8747   19.3246 H   0  0  0  0  0  0
  -27.8821  -20.4686   20.2687 H   0  0  0  0  0  0
  1 25  1  0  0  0
  1 30  2  0  0  0
  1 85  1  0  0  0
  2  3  1  0  0  0
  2 25  1  0  0  0
  2 89  1  0  0  0
  2 90  1  0  0  0
  3  4  1  0  0  0
  3 91  1  0  0  0
  3 92  1  0  0  0
  4  5  1  0  0  0
  4 93  1  0  0  0
  4 94  1  0  0  0
  5  6  1  0  0  0
  5 26  1  0  0  0
  5 95  1  0  0  0
  6 25  1  0  0  0
  6 96  1  0  0  0
  6 97  1  0  0  0
  7  8  2  0  0  0
  7 26  1  0  0  0
  7 29  1  0  0  0
  8  9  1  0  0  0
  8 22  1  0  0  0
  9 10  1  0  0  0
  9 27  2  0  0  0
 10 11  2  0  0  0
 10 15  1  0  0  0
 11 12  1  0  0  0
 11 98  1  0  0  0
 12 13  2  0  0  0
 12 99  1  0  0  0
 13 14  1  0  0  0
 13 31  1  0  0  0
 14 15  2  0  0  0
 14100  1  0  0  0
 15101  1  0  0  0
 16 17  2  0  0  0
 16 21  1  0  0  0
 16 31  1  0  0  0
 17 18  1  0  0  0
 17102  1  0  0  0
 18 19  2  0  0  0
 18103  1  0  0  0
 19 20  1  0  0  0
 19 24  1  0  0  0
 20 21  2  0  0  0
 20104  1  0  0  0
 21 23  1  0  0  0
 22 28  1  0  0  0
 22 32  2  0  0  0
 26 27  1  0  0  0
 28105  1  0  0  0
 28106  1  0  0  0
 29107  1  0  0  0
 29108  1  0  0  0
 33 34  1  0  0  0
 33 66  1  0  0  0
 33 70  2  0  0  0
 34 36  1  0  0  0
 34 59  1  0  0  0
 34109  1  0  0  0
 35 44  2  0  0  0
 35 45  1  0  0  0
 35 68  1  0  0  0
 36 56  1  0  0  0
 36110  1  0  0  0
 37 39  1  0  0  0
 37 47  1  0  0  0
 37 66  1  0  0  0
 37111  1  0  0  0
 38 43  2  0  0  0
 38 46  1  0  0  0
 38 47  1  0  0  0
 39 64  1  0  0  0
 39 67  2  0  0  0
 40 52  1  0  0  0
 40 53  2  0  0  0
 40 58  1  0  0  0
 41112  1  0  0  0
 41113  1  0  0  0
 41114  1  0  0  0
 41 48  1  0  0  0
 42 43  1  0  0  0
 42 66  1  0  0  0
 42115  1  0  0  0
 42116  1  0  0  0
 43 44  1  0  0  0
 44117  1  0  0  0
 45 46  2  0  0  0
 45118  1  0  0  0
 46119  1  0  0  0
 47120  1  0  0  0
 47121  1  0  0  0
 48 56  1  0  0  0
 48 65  1  0  0  0
 48122  1  0  0  0
 49 50  1  0  0  0
 49 53  1  0  0  0
 49 64  1  0  0  0
 49123  1  0  0  0
 50 51  1  0  0  0
 50124  1  0  0  0
 50125  1  0  0  0
 51 52  1  0  0  0
 51126  1  0  0  0
 51127  1  0  0  0
 52128  1  0  0  0
 52129  1  0  0  0
 53 54  1  0  0  0
 54 55  2  0  0  0
 54130  1  0  0  0
 55 57  1  0  0  0
 55131  1  0  0  0
 56 69  2  0  0  0
 57 58  2  0  0  0
 57132  1  0  0  0
 58133  1  0  0  0
 59 60  1  0  0  0
 59 61  1  0  0  0
 59 62  1  0  0  0
 60134  1  0  0  0
 60135  1  0  0  0
 60136  1  0  0  0
 61137  1  0  0  0
 61138  1  0  0  0
 61139  1  0  0  0
 62140  1  0  0  0
 62141  1  0  0  0
 62142  1  0  0  0
 63 65  1  0  0  0
 63143  1  0  0  0
 63144  1  0  0  0
 63145  1  0  0  0
 64146  1  0  0  0
 65147  1  0  0  0
 68 83  1  0  0  0
 71 74  2  0  0  0
 71 75  1  0  0  0
 71148  1  0  0  0
 72 74  1  0  0  0
 72 76  2  0  0  0
 72149  1  0  0  0
 73 75  2  0  0  0
 73 76  1  0  0  0
 73150  1  0  0  0
 74 78  1  0  0  0
 75 84  1  0  0  0
 76 85  1  0  0  0
 77 80  1  0  0  0
 77 84  2  0  0  0
 77151  1  0  0  0
 78 86  1  0  0  0
 78 87  2  0  0  0
 79 81  1  0  0  0
 79 86  1  0  0  0
 79 88  2  0  0  0
 80152  1  0  0  0
 80153  1  0  0  0
 80154  1  0  0  0
 81 82  1  0  0  0
 81155  1  0  0  0
 81156  1  0  0  0
 82 83  1  0  0  0
 82157  1  0  0  0
 82158  1  0  0  0
 83159  1  0  0  0
 83160  1  0  0  0
 85161  1  0  0  0
 86162  1  0  0  0
M  ISO  4   1 100  68 101  83 101  85 100
M  END
> <chiral flag>
0

> <version>
0

> <s_m_source_file>
/data/baiqing/PycharmProjects/Reinvent-master-3.2/result/LINK_invent/BTK/process_docking_weight1_custom_product_contain_oxygen_bond_distance_aromatic_linkinvent_7_9_3/rearranged_h_0070.sdf

> <i_m_source_file_index>
18

> <r_mmod_Potential_Energy-OPLS-2005>
-160.299102783203

> <r_mmod_Stretch_Energy-OPLS-2005>
31.0711555480957

> <r_mmod_Bend_Energy-OPLS-2005>
122.447044372559

> <r_mmod_Torsional_Energy-OPLS-2005>
326.608215332031

> <r_mmod_Improper_Torsional_Energy-OPLS-2005>
30.8427295684814

> <r_mmod_Van_der_Waal_Energy-OPLS-2005>
151.195297241211

> <r_mmod_Electrostatic_Energy-OPLS-2005>
-600.770263671875

> <r_mmod_Solvation_Energy-OPLS-2005>
-238.896133422852

> <b_mmod_Minimization_Converged-OPLS-2005>
0

> <r_mmod_RMS_Derivative-OPLS-2005>
1.52961468696594

$$$$
18
                    3D
 Structure written by MMmdl.
156165  0  0  1  0            999 V2000
  -30.5842  -14.7522   20.4452 C   0  0  0  0  0  0
  -30.4252  -12.4533   19.4836 C   0  0  0  0  0  0
  -29.5110  -12.5320   18.2412 C   0  0  0  0  0  0
  -28.0364  -12.3483   18.6473 C   0  0  0  0  0  0
  -27.6433  -13.2314   19.8603 C   0  0  2  0  0  0
  -28.6818  -13.1495   20.9997 C   0  0  0  0  0  0
  -25.2518  -13.8201   20.5697 C   0  0  0  0  0  0
  -24.1784  -13.0448   20.9156 C   0  0  0  0  0  0
  -24.6367  -11.6919   20.8694 C   0  0  0  0  0  0
  -23.9043  -10.4298   21.0352 C   0  0  0  0  0  0
  -24.3593   -9.4225   21.9139 C   0  0  0  0  0  0
  -23.6263   -8.2261   22.0730 C   0  0  0  0  0  0
  -22.4247   -8.0290   21.3526 C   0  0  0  0  0  0
  -21.9875   -9.0260   20.4622 C   0  0  0  0  0  0
  -22.7209  -10.2137   20.3023 C   0  0  0  0  0  0
  -21.6872   -6.0731   22.5264 C   0  0  0  0  0  0
  -21.4056   -6.5639   23.8201 C   0  0  0  0  0  0
  -21.3666   -5.6791   24.9160 C   0  0  0  0  0  0
  -21.6044   -4.3053   24.7208 C   0  0  0  0  0  0
  -21.8821   -3.8144   23.4332 C   0  0  0  0  0  0
  -21.9194   -4.6954   22.3386 C   0  0  0  0  0  0
  -22.7813  -13.5225   21.1841 C   0  0  0  0  0  0
  -22.1640   -4.2136   21.0955 F   0  0  0  0  0  0
  -21.5619   -3.4542   25.7727 F   0  0  0  0  0  0
  -29.9866  -13.5080   20.4317 N   0  0  0  0  0  0
  -26.2937  -12.9398   20.3304 N   0  0  0  0  0  0
  -25.9308  -11.6544   20.5740 N   0  0  0  0  0  0
  -22.0482  -12.8195   22.0401 N   0  0  0  0  0  0
  -25.4283  -15.1919   20.4152 N   0  0  0  0  0  0
  -31.7507  -14.8664   20.0538 O   0  0  0  0  0  0
  -21.6638   -6.8862   21.4219 O   0  0  0  0  0  0
  -22.3493  -14.5537   20.6712 O   0  0  0  0  0  0
  -24.6324  -31.8534   23.1922 C   0  0  0  0  0  0
  -25.9133  -32.4756   23.8291 C   0  0  1  0  0  0
  -27.2298  -27.2369   20.1156 C   0  0  0  0  0  0
  -25.5923  -33.8561   24.2214 N   0  0  0  0  0  0
  -23.4315  -30.4697   21.5374 C   0  0  2  0  0  0
  -24.8798  -28.9050   20.1089 C   0  0  0  0  0  0
  -22.7492  -29.4603   22.4915 C   0  0  0  0  0  0
  -18.0292  -28.1394   22.8509 C   0  0  0  0  0  0
  -24.1499  -36.7283   23.2642 C   0  0  0  0  0  0
  -25.9776  -30.7500   21.3804 C   0  0  0  0  0  0
  -26.0500  -29.3705   20.7191 C   0  0  0  0  0  0
  -27.2211  -28.5454   20.7153 C   0  0  0  0  0  0
  -26.0327  -26.8374   19.4823 C   0  0  0  0  0  0
  -24.8777  -27.6483   19.4811 C   0  0  0  0  0  0
  -23.6486  -29.7908   20.1586 C   0  0  0  0  0  0
  -25.4138  -36.3078   24.0310 C   0  0  1  0  0  0
  -20.5891  -28.3729   23.1262 C   0  0  2  0  0  0
  -20.6780  -26.9444   22.5411 C   0  0  0  0  0  0
  -19.5751  -26.6386   21.5228 C   0  0  0  0  0  0
  -18.1927  -26.7945   22.1628 C   0  0  0  0  0  0
  -19.1542  -28.8874   23.2880 C   0  0  0  0  0  0
  -18.9468  -30.1469   23.8907 C   0  0  0  0  0  0
  -17.6470  -30.6614   24.0565 C   0  0  0  0  0  0
  -25.9071  -34.9447   23.5073 C   0  0  0  0  0  0
  -16.5363  -29.9106   23.6338 C   0  0  0  0  0  0
  -16.7276  -28.6504   23.0396 C   0  0  0  0  0  0
  -26.4484  -31.6622   25.0722 C   0  0  0  0  0  0
  -25.3660  -31.3769   26.1406 C   0  0  0  0  0  0
  -27.0367  -30.3036   24.6279 C   0  0  0  0  0  0
  -27.6046  -32.4379   25.7482 C   0  0  0  0  0  0
  -27.5595  -37.1793   24.8457 C   0  0  0  0  0  0
  -21.4200  -29.3068   22.3643 N   0  0  0  0  0  0
  -26.4316  -37.3772   23.9387 N   0  0  0  0  0  0
  -24.6993  -31.0446   22.0927 N   0  0  0  0  0  0
  -23.4167  -28.8149   23.3046 O   0  0  0  0  0  0
  -28.3454  -26.3644   20.2060 O   0  0  0  0  0  0
  -26.5666  -34.8926   22.4661 O   0  0  0  0  0  0
  -23.5467  -32.1398   23.7186 O   0  0  0  0  0  0
  -29.1747  -19.4579   18.3491 C   0  0  0  0  0  0
  -29.6338  -17.0586   18.6072 C   0  0  0  0  0  0
  -29.4859  -18.5071   20.5649 C   0  0  0  0  0  0
  -29.3594  -18.1739   17.7920 C   0  0  0  0  0  0
  -29.2374  -19.6988   19.7422 C   0  0  0  0  0  0
  -29.6964  -17.1624   20.0135 C   0  0  0  0  0  0
  -29.5786  -21.7480   21.2915 C   0  0  0  0  0  0
  -28.4728  -22.2323   19.3376 C   0  0  0  0  0  0
  -28.3400  -23.5317   20.2429 C   0  0  2  0  0  0
  -29.2285  -17.9719   16.2930 C   0  0  0  0  0  0
  -28.4831  -25.0095   19.5431 C   0  0  0  0  0  0
  -29.0225  -21.1229   20.1787 N   0  0  0  0  0  0
  -29.8286  -15.8790   20.7630 N   0  0  0  0  0  0
  -30.2260  -21.2285   22.2005 O   0  0  0  0  0  0
  -29.3124  -23.1143   21.2157 O   0  0  0  0  0  0
  -31.4688  -12.5689   19.1871 H   0  0  0  0  0  0
  -30.3544  -11.4695   19.9499 H   0  0  0  0  0  0
  -29.7983  -11.7794   17.5056 H   0  0  0  0  0  0
  -29.6382  -13.5024   17.7577 H   0  0  0  0  0  0
  -27.8855  -11.2956   18.8912 H   0  0  0  0  0  0
  -27.3827  -12.5612   17.8003 H   0  0  0  0  0  0
  -27.6446  -14.2577   19.4938 H   0  0  0  0  0  0
  -28.7139  -12.1459   21.4271 H   0  0  0  0  0  0
  -28.4120  -13.8187   21.8175 H   0  0  0  0  0  0
  -25.2741   -9.5740   22.4692 H   0  0  0  0  0  0
  -23.9982   -7.4679   22.7478 H   0  0  0  0  0  0
  -21.0800   -8.8798   19.8919 H   0  0  0  0  0  0
  -22.3656  -10.9671   19.6136 H   0  0  0  0  0  0
  -21.2085   -7.6156   23.9712 H   0  0  0  0  0  0
  -21.1480   -6.0512   25.9060 H   0  0  0  0  0  0
  -22.0586   -2.7602   23.2844 H   0  0  0  0  0  0
  -22.4124  -11.9826   22.4696 H   0  0  0  0  0  0
  -21.1129  -13.1239   22.2706 H   0  0  0  0  0  0
  -24.6715  -15.8575   20.5349 H   0  0  0  0  0  0
  -26.2921  -15.6217   20.1094 H   0  0  0  0  0  0
  -26.7210  -32.5380   23.1034 H   0  0  0  0  0  0
  -25.0030  -33.9698   25.0334 H   0  0  0  0  0  0
  -22.7321  -31.2934   21.3829 H   0  0  0  0  0  0
  -23.3785  -35.9592   23.3305 H   0  0  0  0  0  0
  -24.3564  -36.8940   22.2058 H   0  0  0  0  0  0
  -23.7242  -37.6468   23.6693 H   0  0  0  0  0  0
  -26.1275  -31.5085   20.6119 H   0  0  0  0  0  0
  -26.8502  -30.7948   22.0210 H   0  0  0  0  0  0
  -28.1178  -28.8914   21.2090 H   0  0  0  0  0  0
  -25.9518  -25.8700   19.0102 H   0  0  0  0  0  0
  -23.9765  -27.2842   19.0062 H   0  0  0  0  0  0
  -23.7600  -30.5570   19.3907 H   0  0  0  0  0  0
  -22.7688  -29.2130   19.8684 H   0  0  0  0  0  0
  -25.1332  -36.1929   25.0803 H   0  0  0  0  0  0
  -20.9988  -28.3343   24.1385 H   0  0  0  0  0  0
  -20.5706  -26.2347   23.3635 H   0  0  0  0  0  0
  -21.6647  -26.7481   22.1202 H   0  0  0  0  0  0
  -19.6912  -25.6283   21.1293 H   0  0  0  0  0  0
  -19.6687  -27.3167   20.6740 H   0  0  0  0  0  0
  -17.4206  -26.6734   21.4020 H   0  0  0  0  0  0
  -18.0304  -26.0067   22.9000 H   0  0  0  0  0  0
  -19.7939  -30.7282   24.2296 H   0  0  0  0  0  0
  -17.5026  -31.6297   24.5156 H   0  0  0  0  0  0
  -15.5364  -30.3026   23.7635 H   0  0  0  0  0  0
  -15.8675  -28.0802   22.7160 H   0  0  0  0  0  0
  -24.5825  -30.7172   25.7653 H   0  0  0  0  0  0
  -24.8843  -32.2935   26.4822 H   0  0  0  0  0  0
  -25.7891  -30.8892   27.0194 H   0  0  0  0  0  0
  -26.2980  -29.6757   24.1282 H   0  0  0  0  0  0
  -27.4009  -29.7348   25.4843 H   0  0  0  0  0  0
  -27.8868  -30.4325   23.9576 H   0  0  0  0  0  0
  -27.2690  -33.3708   26.2021 H   0  0  0  0  0  0
  -28.3848  -32.6909   25.0289 H   0  0  0  0  0  0
  -28.0732  -31.8534   26.5415 H   0  0  0  0  0  0
  -28.2607  -38.0099   24.7551 H   0  0  0  0  0  0
  -28.1110  -36.2634   24.6265 H   0  0  0  0  0  0
  -27.2290  -37.1434   25.8852 H   0  0  0  0  0  0
  -20.9389  -29.8782   21.6829 H   0  0  0  0  0  0
  -26.0208  -38.2850   24.1390 H   0  0  0  0  0  0
  -28.9811  -20.2761   17.6707 H   0  0  0  0  0  0
  -29.7494  -16.0938   18.1306 H   0  0  0  0  0  0
  -29.4996  -18.6251   21.6382 H   0  0  0  0  0  0
  -29.1745  -22.4293   18.5254 H   0  0  0  0  0  0
  -27.5153  -21.9638   18.8882 H   0  0  0  0  0  0
  -27.3689  -23.4933   20.7359 H   0  0  0  0  0  0
  -28.9332  -18.8887   15.7810 H   0  0  0  0  0  0
  -28.4708  -17.2161   16.0791 H   0  0  0  0  0  0
  -30.1736  -17.6336   15.8665 H   0  0  0  0  0  0
  -27.8537  -24.9993   18.6544 H   0  0  0  0  0  0
  -29.4874  -25.0273   19.1178 H   0  0  0  0  0  0
  -29.0479  -15.6812   21.3708 H   0  0  0  0  0  0
  1 25  1  0  0  0
  1 30  2  0  0  0
  1 83  1  0  0  0
  2  3  1  0  0  0
  2 25  1  0  0  0
  2 86  1  0  0  0
  2 87  1  0  0  0
  3  4  1  0  0  0
  3 88  1  0  0  0
  3 89  1  0  0  0
  4  5  1  0  0  0
  4 90  1  0  0  0
  4 91  1  0  0  0
  5  6  1  0  0  0
  5 26  1  0  0  0
  5 92  1  0  0  0
  6 25  1  0  0  0
  6 93  1  0  0  0
  6 94  1  0  0  0
  7  8  2  0  0  0
  7 26  1  0  0  0
  7 29  1  0  0  0
  8  9  1  0  0  0
  8 22  1  0  0  0
  9 10  1  0  0  0
  9 27  2  0  0  0
 10 11  2  0  0  0
 10 15  1  0  0  0
 11 12  1  0  0  0
 11 95  1  0  0  0
 12 13  2  0  0  0
 12 96  1  0  0  0
 13 14  1  0  0  0
 13 31  1  0  0  0
 14 15  2  0  0  0
 14 97  1  0  0  0
 15 98  1  0  0  0
 16 17  2  0  0  0
 16 21  1  0  0  0
 16 31  1  0  0  0
 17 18  1  0  0  0
 17 99  1  0  0  0
 18 19  2  0  0  0
 18100  1  0  0  0
 19 20  1  0  0  0
 19 24  1  0  0  0
 20 21  2  0  0  0
 20101  1  0  0  0
 21 23  1  0  0  0
 22 28  1  0  0  0
 22 32  2  0  0  0
 26 27  1  0  0  0
 28102  1  0  0  0
 28103  1  0  0  0
 29104  1  0  0  0
 29105  1  0  0  0
 33 34  1  0  0  0
 33 66  1  0  0  0
 33 70  2  0  0  0
 34 36  1  0  0  0
 34 59  1  0  0  0
 34106  1  0  0  0
 35 44  2  0  0  0
 35 45  1  0  0  0
 35 68  1  0  0  0
 36 56  1  0  0  0
 36107  1  0  0  0
 37 39  1  0  0  0
 37 47  1  0  0  0
 37 66  1  0  0  0
 37108  1  0  0  0
 38 43  2  0  0  0
 38 46  1  0  0  0
 38 47  1  0  0  0
 39 64  1  0  0  0
 39 67  2  0  0  0
 40 52  1  0  0  0
 40 53  2  0  0  0
 40 58  1  0  0  0
 41109  1  0  0  0
 41110  1  0  0  0
 41111  1  0  0  0
 41 48  1  0  0  0
 42 43  1  0  0  0
 42 66  1  0  0  0
 42112  1  0  0  0
 42113  1  0  0  0
 43 44  1  0  0  0
 44114  1  0  0  0
 45 46  2  0  0  0
 45115  1  0  0  0
 46116  1  0  0  0
 47117  1  0  0  0
 47118  1  0  0  0
 48 56  1  0  0  0
 48 65  1  0  0  0
 48119  1  0  0  0
 49 50  1  0  0  0
 49 53  1  0  0  0
 49 64  1  0  0  0
 49120  1  0  0  0
 50 51  1  0  0  0
 50121  1  0  0  0
 50122  1  0  0  0
 51 52  1  0  0  0
 51123  1  0  0  0
 51124  1  0  0  0
 52125  1  0  0  0
 52126  1  0  0  0
 53 54  1  0  0  0
 54 55  2  0  0  0
 54127  1  0  0  0
 55 57  1  0  0  0
 55128  1  0  0  0
 56 69  2  0  0  0
 57 58  2  0  0  0
 57129  1  0  0  0
 58130  1  0  0  0
 59 60  1  0  0  0
 59 61  1  0  0  0
 59 62  1  0  0  0
 60131  1  0  0  0
 60132  1  0  0  0
 60133  1  0  0  0
 61134  1  0  0  0
 61135  1  0  0  0
 61136  1  0  0  0
 62137  1  0  0  0
 62138  1  0  0  0
 62139  1  0  0  0
 63 65  1  0  0  0
 63140  1  0  0  0
 63141  1  0  0  0
 63142  1  0  0  0
 64143  1  0  0  0
 65144  1  0  0  0
 68 81  1  0  0  0
 71 74  2  0  0  0
 71 75  1  0  0  0
 71145  1  0  0  0
 72 74  1  0  0  0
 72 76  2  0  0  0
 72146  1  0  0  0
 73 75  2  0  0  0
 73 76  1  0  0  0
 73147  1  0  0  0
 74 80  1  0  0  0
 75 82  1  0  0  0
 76 83  1  0  0  0
 77 82  1  0  0  0
 77 84  2  0  0  0
 77 85  1  0  0  0
 78 79  1  0  0  0
 78 82  1  0  0  0
 78148  1  0  0  0
 78149  1  0  0  0
 79 81  1  0  0  0
 79 85  1  0  0  0
 79150  1  0  0  0
 80151  1  0  0  0
 80152  1  0  0  0
 80153  1  0  0  0
 81154  1  0  0  0
 81155  1  0  0  0
 83156  1  0  0  0
M  ISO  4   1 100  68 101  81 101  83 100
M  END
> <chiral flag>
0

> <version>
0

> <s_m_source_file>
/data/baiqing/PycharmProjects/Reinvent-master-3.2/result/LINK_invent/BTK/process_docking_weight1_custom_product_contain_oxygen_bond_distance_aromatic_linkinvent_7_9_3/rearranged_h_0070.sdf

> <i_m_source_file_index>
19

> <r_mmod_Potential_Energy-OPLS-2005>
253.982131958008

> <r_mmod_Stretch_Energy-OPLS-2005>
140.550384521484

> <r_mmod_Bend_Energy-OPLS-2005>
219.365203857422

> <r_mmod_Torsional_Energy-OPLS-2005>
260.03173828125

> <r_mmod_Improper_Torsional_Energy-OPLS-2005>
5.7453784942627

> <r_mmod_Van_der_Waal_Energy-OPLS-2005>
129.924392700195

> <r_mmod_Electrostatic_Energy-OPLS-2005>
-358.002471923828

> <r_mmod_Solvation_Energy-OPLS-2005>
-234.99723815918

> <b_mmod_Minimization_Converged-OPLS-2005>
0

> <r_mmod_RMS_Derivative-OPLS-2005>
2.56920528411865

$$$$
19
                    3D
 Structure written by MMmdl.
156164  0  0  1  0            999 V2000
  -30.6179  -14.7168   20.4465 C   0  0  0  0  0  0
  -30.4286  -12.4319   19.4758 C   0  0  0  0  0  0
  -29.5100  -12.5123   18.2369 C   0  0  0  0  0  0
  -28.0341  -12.3443   18.6442 C   0  0  0  0  0  0
  -27.6455  -13.2330   19.8565 C   0  0  2  0  0  0
  -28.6886  -13.1483   20.9930 C   0  0  0  0  0  0
  -25.2525  -13.8211   20.5705 C   0  0  0  0  0  0
  -24.1811  -13.0449   20.9208 C   0  0  0  0  0  0
  -24.6404  -11.6928   20.8740 C   0  0  0  0  0  0
  -23.9080  -10.4301   21.0391 C   0  0  0  0  0  0
  -24.3629   -9.4221   21.9177 C   0  0  0  0  0  0
  -23.6302   -8.2257   22.0750 C   0  0  0  0  0  0
  -22.4281   -8.0290   21.3548 C   0  0  0  0  0  0
  -21.9916   -9.0261   20.4650 C   0  0  0  0  0  0
  -22.7246  -10.2140   20.3051 C   0  0  0  0  0  0
  -21.6858   -6.0741   22.5279 C   0  0  0  0  0  0
  -21.4021   -6.5642   23.8215 C   0  0  0  0  0  0
  -21.3662   -5.6794   24.9176 C   0  0  0  0  0  0
  -21.6043   -4.3055   24.7223 C   0  0  0  0  0  0
  -21.8821   -3.8152   23.4345 C   0  0  0  0  0  0
  -21.9197   -4.6970   22.3402 C   0  0  0  0  0  0
  -22.7831  -13.5225   21.1861 C   0  0  0  0  0  0
  -22.1660   -4.2157   21.0977 F   0  0  0  0  0  0
  -21.5628   -3.4536   25.7734 F   0  0  0  0  0  0
  -29.9958  -13.4889   20.4190 N   0  0  0  0  0  0
  -26.2954  -12.9420   20.3299 N   0  0  0  0  0  0
  -25.9340  -11.6558   20.5753 N   0  0  0  0  0  0
  -22.0477  -12.8222   22.0425 N   0  0  0  0  0  0
  -25.4223  -15.1933   20.4125 N   0  0  0  0  0  0
  -31.8073  -14.8091   20.1304 O   0  0  0  0  0  0
  -21.6651   -6.8882   21.4240 O   0  0  0  0  0  0
  -22.3515  -14.5523   20.6696 O   0  0  0  0  0  0
  -24.6310  -31.8558   23.2003 C   0  0  0  0  0  0
  -25.9144  -32.4755   23.8343 C   0  0  1  0  0  0
  -27.2172  -27.2648   20.1293 C   0  0  0  0  0  0
  -25.5944  -33.8557   24.2266 N   0  0  0  0  0  0
  -23.4280  -30.4801   21.5431 C   0  0  2  0  0  0
  -24.8751  -28.9319   20.1071 C   0  0  0  0  0  0
  -22.7505  -29.4609   22.4913 C   0  0  0  0  0  0
  -18.0293  -28.1389   22.8489 C   0  0  0  0  0  0
  -24.1496  -36.7281   23.2639 C   0  0  0  0  0  0
  -25.9745  -30.7676   21.3835 C   0  0  0  0  0  0
  -26.0459  -29.3929   20.7220 C   0  0  0  0  0  0
  -27.2181  -28.5709   20.7252 C   0  0  0  0  0  0
  -26.0275  -26.8828   19.4659 C   0  0  0  0  0  0
  -24.8715  -27.6856   19.4663 C   0  0  0  0  0  0
  -23.6457  -29.8172   20.1578 C   0  0  0  0  0  0
  -25.4124  -36.3070   24.0328 C   0  0  1  0  0  0
  -20.5899  -28.3706   23.1260 C   0  0  2  0  0  0
  -20.6786  -26.9422   22.5406 C   0  0  0  0  0  0
  -19.5758  -26.6385   21.5211 C   0  0  0  0  0  0
  -18.1938  -26.7931   22.1623 C   0  0  0  0  0  0
  -19.1548  -28.8864   23.2871 C   0  0  0  0  0  0
  -18.9463  -30.1462   23.8896 C   0  0  0  0  0  0
  -17.6460  -30.6589   24.0563 C   0  0  0  0  0  0
  -25.9063  -34.9438   23.5100 C   0  0  0  0  0  0
  -16.5354  -29.9085   23.6329 C   0  0  0  0  0  0
  -16.7277  -28.6500   23.0359 C   0  0  0  0  0  0
  -26.4508  -31.6573   25.0728 C   0  0  0  0  0  0
  -25.3727  -31.3716   26.1443 C   0  0  0  0  0  0
  -27.0356  -30.2987   24.6217 C   0  0  0  0  0  0
  -27.6065  -32.4313   25.7498 C   0  0  0  0  0  0
  -27.5585  -37.1797   24.8462 C   0  0  0  0  0  0
  -21.4214  -29.3049   22.3651 N   0  0  0  0  0  0
  -26.4300  -37.3768   23.9399 N   0  0  0  0  0  0
  -24.6967  -31.0527   22.0981 N   0  0  0  0  0  0
  -23.4204  -28.8150   23.3015 O   0  0  0  0  0  0
  -28.3032  -26.3599   20.2191 O   0  0  0  0  0  0
  -26.5630  -34.8911   22.4663 O   0  0  0  0  0  0
  -23.5458  -32.1387   23.7293 O   0  0  0  0  0  0
  -30.0686  -19.6794   18.6047 C   0  0  0  0  0  0
  -29.5757  -18.4566   20.6415 C   0  0  0  0  0  0
  -30.3811  -18.4665   17.9509 C   0  0  0  0  0  0
  -29.6182  -19.7343   19.9409 C   0  0  0  0  0  0
  -29.9416  -17.1859   20.0241 C   0  0  0  0  0  0
  -30.3129  -17.2384   18.6545 C   0  0  0  0  0  0
  -28.9028  -22.2416   19.8847 C   0  0  0  0  0  0
  -28.9942  -23.7008   20.5419 C   0  0  0  0  0  0
  -28.0688  -24.8953   19.9533 C   0  0  0  0  0  0
  -30.8464  -18.5070   16.4937 C   0  0  0  0  0  0
  -30.2429  -19.5694   15.7187 N   0  0  0  0  0  0
  -29.3216  -21.0748   20.5212 N   0  0  0  0  0  0
  -29.8556  -15.8525   20.6801 N   0  0  0  0  0  0
  -28.4142  -22.1806   18.7537 O   0  0  0  0  0  0
  -30.5731  -16.0878   17.9881 F   0  0  0  0  0  0
  -32.1634  -18.6974   16.4825 F   0  0  0  0  0  0
  -30.5844  -17.3710   15.8504 F   0  0  0  0  0  0
  -31.4718  -12.5437   19.1760 H   0  0  0  0  0  0
  -30.3583  -11.4489   19.9438 H   0  0  0  0  0  0
  -29.7865  -11.7491   17.5079 H   0  0  0  0  0  0
  -29.6478  -13.4743   17.7406 H   0  0  0  0  0  0
  -27.8796  -11.2933   18.8907 H   0  0  0  0  0  0
  -27.3811  -12.5578   17.7968 H   0  0  0  0  0  0
  -27.6465  -14.2603   19.4910 H   0  0  0  0  0  0
  -28.7107  -12.1459   21.4237 H   0  0  0  0  0  0
  -28.4287  -13.8248   21.8082 H   0  0  0  0  0  0
  -25.2770   -9.5700   22.4760 H   0  0  0  0  0  0
  -24.0018   -7.4645   22.7464 H   0  0  0  0  0  0
  -21.0852   -8.8773   19.8952 H   0  0  0  0  0  0
  -22.3691  -10.9681   19.6166 H   0  0  0  0  0  0
  -21.2011   -7.6148   23.9723 H   0  0  0  0  0  0
  -21.1481   -6.0520   25.9081 H   0  0  0  0  0  0
  -22.0597   -2.7616   23.2841 H   0  0  0  0  0  0
  -22.4087  -11.9882   22.4819 H   0  0  0  0  0  0
  -21.1089  -13.1244   22.2608 H   0  0  0  0  0  0
  -24.6556  -15.8476   20.5226 H   0  0  0  0  0  0
  -26.2712  -15.6337   20.0816 H   0  0  0  0  0  0
  -26.7212  -32.5403   23.1084 H   0  0  0  0  0  0
  -25.0096  -33.9696   25.0415 H   0  0  0  0  0  0
  -22.7253  -31.3034   21.3989 H   0  0  0  0  0  0
  -23.3763  -35.9608   23.3297 H   0  0  0  0  0  0
  -24.3592  -36.8903   22.2054 H   0  0  0  0  0  0
  -23.7243  -37.6478   23.6667 H   0  0  0  0  0  0
  -26.1197  -31.5301   20.6177 H   0  0  0  0  0  0
  -26.8504  -30.8113   22.0191 H   0  0  0  0  0  0
  -28.1097  -28.9135   21.2315 H   0  0  0  0  0  0
  -25.9528  -25.9367   18.9515 H   0  0  0  0  0  0
  -23.9791  -27.3314   18.9683 H   0  0  0  0  0  0
  -23.7696  -30.5946   19.4034 H   0  0  0  0  0  0
  -22.7640  -29.2507   19.8534 H   0  0  0  0  0  0
  -25.1305  -36.1927   25.0823 H   0  0  0  0  0  0
  -20.9992  -28.3290   24.1380 H   0  0  0  0  0  0
  -20.5685  -26.2319   23.3616 H   0  0  0  0  0  0
  -21.6656  -26.7448   22.1196 H   0  0  0  0  0  0
  -19.6923  -25.6293   21.1249 H   0  0  0  0  0  0
  -19.6697  -27.3189   20.6737 H   0  0  0  0  0  0
  -17.4212  -26.6682   21.4022 H   0  0  0  0  0  0
  -18.0336  -26.0068   22.9011 H   0  0  0  0  0  0
  -19.7941  -30.7278   24.2266 H   0  0  0  0  0  0
  -17.5015  -31.6267   24.5164 H   0  0  0  0  0  0
  -15.5354  -30.2983   23.7654 H   0  0  0  0  0  0
  -15.8678  -28.0808   22.7083 H   0  0  0  0  0  0
  -24.5916  -30.7054   25.7759 H   0  0  0  0  0  0
  -24.8906  -32.2879   26.4857 H   0  0  0  0  0  0
  -25.8041  -30.8897   27.0224 H   0  0  0  0  0  0
  -26.2938  -29.6728   24.1246 H   0  0  0  0  0  0
  -27.4034  -29.7260   25.4739 H   0  0  0  0  0  0
  -27.8822  -30.4253   23.9468 H   0  0  0  0  0  0
  -27.2681  -33.3618   26.2066 H   0  0  0  0  0  0
  -28.3880  -32.6860   25.0326 H   0  0  0  0  0  0
  -28.0733  -31.8444   26.5418 H   0  0  0  0  0  0
  -28.2597  -38.0098   24.7515 H   0  0  0  0  0  0
  -28.1092  -36.2630   24.6293 H   0  0  0  0  0  0
  -27.2302  -37.1440   25.8865 H   0  0  0  0  0  0
  -20.9408  -29.8762   21.6844 H   0  0  0  0  0  0
  -26.0182  -38.2844   24.1394 H   0  0  0  0  0  0
  -30.1976  -20.6002   18.0581 H   0  0  0  0  0  0
  -29.2583  -18.4493   21.6743 H   0  0  0  0  0  0
  -30.0358  -24.0062   20.4410 H   0  0  0  0  0  0
  -28.8181  -23.6080   21.6129 H   0  0  0  0  0  0
  -27.0689  -24.6474   20.3095 H   0  0  0  0  0  0
  -28.0337  -24.7917   18.8683 H   0  0  0  0  0  0
  -30.9890  -20.1924   15.4377 H   0  0  0  0  0  0
  -29.6640  -20.1164   16.3411 H   0  0  0  0  0  0
  -29.5128  -21.1723   21.5103 H   0  0  0  0  0  0
  -28.9937  -15.6823   21.1744 H   0  0  0  0  0  0
  1 25  1  0  0  0
  1 30  2  0  0  0
  1 83  1  0  0  0
  2  3  1  0  0  0
  2 25  1  0  0  0
  2 88  1  0  0  0
  2 89  1  0  0  0
  3  4  1  0  0  0
  3 90  1  0  0  0
  3 91  1  0  0  0
  4  5  1  0  0  0
  4 92  1  0  0  0
  4 93  1  0  0  0
  5  6  1  0  0  0
  5 26  1  0  0  0
  5 94  1  0  0  0
  6 25  1  0  0  0
  6 95  1  0  0  0
  6 96  1  0  0  0
  7  8  2  0  0  0
  7 26  1  0  0  0
  7 29  1  0  0  0
  8  9  1  0  0  0
  8 22  1  0  0  0
  9 10  1  0  0  0
  9 27  2  0  0  0
 10 11  2  0  0  0
 10 15  1  0  0  0
 11 12  1  0  0  0
 11 97  1  0  0  0
 12 13  2  0  0  0
 12 98  1  0  0  0
 13 14  1  0  0  0
 13 31  1  0  0  0
 14 15  2  0  0  0
 14 99  1  0  0  0
 15100  1  0  0  0
 16 17  2  0  0  0
 16 21  1  0  0  0
 16 31  1  0  0  0
 17 18  1  0  0  0
 17101  1  0  0  0
 18 19  2  0  0  0
 18102  1  0  0  0
 19 20  1  0  0  0
 19 24  1  0  0  0
 20 21  2  0  0  0
 20103  1  0  0  0
 21 23  1  0  0  0
 22 28  1  0  0  0
 22 32  2  0  0  0
 26 27  1  0  0  0
 28104  1  0  0  0
 28105  1  0  0  0
 29106  1  0  0  0
 29107  1  0  0  0
 33 34  1  0  0  0
 33 66  1  0  0  0
 33 70  2  0  0  0
 34 36  1  0  0  0
 34 59  1  0  0  0
 34108  1  0  0  0
 35 44  2  0  0  0
 35 45  1  0  0  0
 35 68  1  0  0  0
 36 56  1  0  0  0
 36109  1  0  0  0
 37 39  1  0  0  0
 37 47  1  0  0  0
 37 66  1  0  0  0
 37110  1  0  0  0
 38 43  2  0  0  0
 38 46  1  0  0  0
 38 47  1  0  0  0
 39 64  1  0  0  0
 39 67  2  0  0  0
 40 52  1  0  0  0
 40 53  2  0  0  0
 40 58  1  0  0  0
 41111  1  0  0  0
 41112  1  0  0  0
 41113  1  0  0  0
 41 48  1  0  0  0
 42 43  1  0  0  0
 42 66  1  0  0  0
 42114  1  0  0  0
 42115  1  0  0  0
 43 44  1  0  0  0
 44116  1  0  0  0
 45 46  2  0  0  0
 45117  1  0  0  0
 46118  1  0  0  0
 47119  1  0  0  0
 47120  1  0  0  0
 48 56  1  0  0  0
 48 65  1  0  0  0
 48121  1  0  0  0
 49 50  1  0  0  0
 49 53  1  0  0  0
 49 64  1  0  0  0
 49122  1  0  0  0
 50 51  1  0  0  0
 50123  1  0  0  0
 50124  1  0  0  0
 51 52  1  0  0  0
 51125  1  0  0  0
 51126  1  0  0  0
 52127  1  0  0  0
 52128  1  0  0  0
 53 54  1  0  0  0
 54 55  2  0  0  0
 54129  1  0  0  0
 55 57  1  0  0  0
 55130  1  0  0  0
 56 69  2  0  0  0
 57 58  2  0  0  0
 57131  1  0  0  0
 58132  1  0  0  0
 59 60  1  0  0  0
 59 61  1  0  0  0
 59 62  1  0  0  0
 60133  1  0  0  0
 60134  1  0  0  0
 60135  1  0  0  0
 61136  1  0  0  0
 61137  1  0  0  0
 61138  1  0  0  0
 62139  1  0  0  0
 62140  1  0  0  0
 62141  1  0  0  0
 63 65  1  0  0  0
 63142  1  0  0  0
 63143  1  0  0  0
 63144  1  0  0  0
 64145  1  0  0  0
 65146  1  0  0  0
 68 79  1  0  0  0
 71 73  2  0  0  0
 71 74  1  0  0  0
 71147  1  0  0  0
 72 74  2  0  0  0
 72 75  1  0  0  0
 72148  1  0  0  0
 73 76  1  0  0  0
 73 80  1  0  0  0
 74 82  1  0  0  0
 75 76  2  0  0  0
 75 83  1  0  0  0
 76 85  1  0  0  0
 77 78  1  0  0  0
 77 82  1  0  0  0
 77 84  2  0  0  0
 78 79  1  0  0  0
 78149  1  0  0  0
 78150  1  0  0  0
 79151  1  0  0  0
 79152  1  0  0  0
 80 81  1  0  0  0
 80 86  1  0  0  0
 80 87  1  0  0  0
 81153  1  0  0  0
 81154  1  0  0  0
 82155  1  0  0  0
 83156  1  0  0  0
M  ISO  4   1 100  68 101  79 101  83 100
M  END
> <chiral flag>
0

> <version>
0

> <s_m_source_file>
/data/baiqing/PycharmProjects/Reinvent-master-3.2/result/LINK_invent/BTK/process_docking_weight1_custom_product_contain_oxygen_bond_distance_aromatic_linkinvent_7_9_3/rearranged_h_0070.sdf

> <i_m_source_file_index>
20

> <r_mmod_Potential_Energy-OPLS-2005>
14.6081008911133

> <r_mmod_Stretch_Energy-OPLS-2005>
124.257453918457

> <r_mmod_Bend_Energy-OPLS-2005>
154.179641723633

> <r_mmod_Torsional_Energy-OPLS-2005>
253.799102783203

> <r_mmod_Improper_Torsional_Energy-OPLS-2005>
4.86181402206421

> <r_mmod_Van_der_Waal_Energy-OPLS-2005>
158.318252563477

> <r_mmod_Electrostatic_Energy-OPLS-2005>
-512.634155273438

> <r_mmod_Solvation_Energy-OPLS-2005>
-248.514266967773

> <b_mmod_Minimization_Converged-OPLS-2005>
0

> <r_mmod_RMS_Derivative-OPLS-2005>
1.17168796062469

$$$$
20
                    3D
 Structure written by MMmdl.
174184  0  0  1  0            999 V2000
  -30.5895  -14.7919   20.4546 C   0  0  0  0  0  0
  -30.4330  -12.4890   19.4742 C   0  0  0  0  0  0
  -29.5103  -12.5072   18.2358 C   0  0  0  0  0  0
  -28.0378  -12.3282   18.6512 C   0  0  0  0  0  0
  -27.6365  -13.2346   19.8452 C   0  0  2  0  0  0
  -28.6798  -13.1920   20.9801 C   0  0  0  0  0  0
  -25.2495  -13.8189   20.5715 C   0  0  0  0  0  0
  -24.1798  -13.0428   20.9228 C   0  0  0  0  0  0
  -24.6393  -11.6909   20.8754 C   0  0  0  0  0  0
  -23.9075  -10.4289   21.0415 C   0  0  0  0  0  0
  -24.3619   -9.4199   21.9197 C   0  0  0  0  0  0
  -23.6293   -8.2235   22.0761 C   0  0  0  0  0  0
  -22.4273   -8.0287   21.3551 C   0  0  0  0  0  0
  -21.9917   -9.0265   20.4648 C   0  0  0  0  0  0
  -22.7248  -10.2141   20.3058 C   0  0  0  0  0  0
  -21.6852   -6.0746   22.5284 C   0  0  0  0  0  0
  -21.4015   -6.5649   23.8215 C   0  0  0  0  0  0
  -21.3651   -5.6799   24.9175 C   0  0  0  0  0  0
  -21.6044   -4.3065   24.7228 C   0  0  0  0  0  0
  -21.8821   -3.8159   23.4350 C   0  0  0  0  0  0
  -21.9193   -4.6977   22.3402 C   0  0  0  0  0  0
  -22.7822  -13.5214   21.1898 C   0  0  0  0  0  0
  -22.1675   -4.2166   21.0981 F   0  0  0  0  0  0
  -21.5610   -3.4545   25.7740 F   0  0  0  0  0  0
  -29.9705  -13.5605   20.3890 N   0  0  0  0  0  0
  -26.2913  -12.9403   20.3263 N   0  0  0  0  0  0
  -25.9322  -11.6544   20.5751 N   0  0  0  0  0  0
  -22.0464  -12.8201   22.0437 N   0  0  0  0  0  0
  -25.4160  -15.1915   20.4164 N   0  0  0  0  0  0
  -31.7899  -14.8644   20.1703 O   0  0  0  0  0  0
  -21.6627   -6.8894   21.4248 O   0  0  0  0  0  0
  -22.3513  -14.5527   20.6761 O   0  0  0  0  0  0
  -24.6351  -31.8503   23.1953 C   0  0  0  0  0  0
  -25.9168  -32.4722   23.8290 C   0  0  1  0  0  0
  -27.2215  -27.2297   20.1227 C   0  0  0  0  0  0
  -25.5947  -33.8518   24.2239 N   0  0  0  0  0  0
  -23.4324  -30.4715   21.5386 C   0  0  2  0  0  0
  -24.8813  -28.9141   20.1002 C   0  0  0  0  0  0
  -22.7531  -29.4566   22.4893 C   0  0  0  0  0  0
  -18.0300  -28.1411   22.8498 C   0  0  0  0  0  0
  -24.1473  -36.7234   23.2644 C   0  0  0  0  0  0
  -25.9791  -30.7512   21.3800 C   0  0  0  0  0  0
  -26.0496  -29.3707   20.7206 C   0  0  0  0  0  0
  -27.2164  -28.5369   20.7285 C   0  0  0  0  0  0
  -26.0284  -26.8433   19.4746 C   0  0  0  0  0  0
  -24.8774  -27.6612   19.4660 C   0  0  0  0  0  0
  -23.6525  -29.8061   20.1523 C   0  0  0  0  0  0
  -25.4106  -36.3039   24.0337 C   0  0  1  0  0  0
  -20.5910  -28.3701   23.1279 C   0  0  2  0  0  0
  -20.6777  -26.9413   22.5419 C   0  0  0  0  0  0
  -19.5742  -26.6398   21.5229 C   0  0  0  0  0  0
  -18.1928  -26.7956   22.1646 C   0  0  0  0  0  0
  -19.1558  -28.8879   23.2884 C   0  0  0  0  0  0
  -18.9479  -30.1484   23.8900 C   0  0  0  0  0  0
  -17.6470  -30.6603   24.0569 C   0  0  0  0  0  0
  -25.9057  -34.9412   23.5095 C   0  0  0  0  0  0
  -16.5361  -29.9094   23.6340 C   0  0  0  0  0  0
  -16.7285  -28.6519   23.0354 C   0  0  0  0  0  0
  -26.4535  -31.6559   25.0691 C   0  0  0  0  0  0
  -25.3760  -31.3722   26.1422 C   0  0  0  0  0  0
  -27.0384  -30.2976   24.6182 C   0  0  0  0  0  0
  -27.6084  -32.4308   25.7468 C   0  0  0  0  0  0
  -27.5569  -37.1777   24.8477 C   0  0  0  0  0  0
  -21.4231  -29.3027   22.3650 N   0  0  0  0  0  0
  -26.4269  -37.3753   23.9438 N   0  0  0  0  0  0
  -24.7015  -31.0437   22.0941 N   0  0  0  0  0  0
  -23.4227  -28.8110   23.3002 O   0  0  0  0  0  0
  -28.3016  -26.3160   20.2474 O   0  0  0  0  0  0
  -26.5614  -34.8901   22.4659 O   0  0  0  0  0  0
  -23.5492  -32.1323   23.7246 O   0  0  0  0  0  0
  -27.6616  -22.6575   18.8741 C   0  0  0  0  0  0
  -31.0592  -20.1379   20.9646 C   0  0  0  0  0  0
  -31.4591  -17.7174   21.2060 C   0  0  0  0  0  0
  -28.4546  -23.5470   19.6650 C   0  0  0  0  0  0
  -29.7433  -19.9650   20.4702 C   0  0  0  0  0  0
  -31.8728  -19.0525   21.3500 C   0  0  0  0  0  0
  -30.1863  -17.3993   20.6911 C   0  0  0  0  0  0
  -29.3216  -18.5477   20.3715 C   0  0  0  0  0  0
  -28.0306  -21.3476   19.0789 C   0  0  0  0  0  0
  -29.1886  -22.6264   20.4411 C   0  0  0  0  0  0
  -35.3058  -19.1888   22.6022 C   0  0  0  0  0  0
  -34.3452  -18.8191   21.6428 C   0  0  0  0  0  0
  -36.6033  -18.8368   22.5698 C   0  0  0  0  0  0
  -33.1540  -20.0802   23.2208 C   0  0  0  0  0  0
  -34.6259  -20.0127   23.6922 C   0  0  0  0  0  0
  -35.2367  -21.4235   23.7860 C   0  0  0  0  0  0
  -34.7390  -19.3029   25.0558 C   0  0  0  0  0  0
  -28.5238  -25.1378   19.3376 C   0  0  0  0  0  0
  -29.0092  -21.2303   20.0653 N   0  0  0  0  0  0
  -33.1420  -19.3043   21.9803 N   0  0  0  0  0  0
  -29.8089  -15.9467   20.5947 N   0  0  0  0  0  0
  -34.6150  -18.0884   20.5477 N   0  3  0  0  0  0
  -27.6041  -20.2648   18.3762 O   0  0  0  0  0  0
  -30.0665  -22.9563   21.4278 O   0  0  0  0  0  0
  -28.0592  -18.2435   19.9888 F   0  0  0  0  0  0
  -31.4691  -12.6305   19.1639 H   0  0  0  0  0  0
  -30.4007  -11.5191   19.9730 H   0  0  0  0  0  0
  -29.7979  -11.7188   17.5382 H   0  0  0  0  0  0
  -29.6288  -13.4500   17.6990 H   0  0  0  0  0  0
  -27.9003  -11.2811   18.9247 H   0  0  0  0  0  0
  -27.3795  -12.5109   17.8007 H   0  0  0  0  0  0
  -27.6211  -14.2523   19.4555 H   0  0  0  0  0  0
  -28.7284  -12.1992   21.4307 H   0  0  0  0  0  0
  -28.4071  -13.8805   21.7820 H   0  0  0  0  0  0
  -25.2764   -9.5663   22.4775 H   0  0  0  0  0  0
  -24.0008   -7.4615   22.7466 H   0  0  0  0  0  0
  -21.0857   -8.8788   19.8937 H   0  0  0  0  0  0
  -22.3725  -10.9690   19.6158 H   0  0  0  0  0  0
  -21.2017   -7.6159   23.9731 H   0  0  0  0  0  0
  -21.1460   -6.0522   25.9076 H   0  0  0  0  0  0
  -22.0606   -2.7627   23.2840 H   0  0  0  0  0  0
  -22.4082  -11.9853   22.4813 H   0  0  0  0  0  0
  -21.1076  -13.1213   22.2634 H   0  0  0  0  0  0
  -24.6449  -15.8409   20.5294 H   0  0  0  0  0  0
  -26.2586  -15.6402   20.0812 H   0  0  0  0  0  0
  -26.7217  -32.5369   23.1004 H   0  0  0  0  0  0
  -25.0116  -33.9624   25.0401 H   0  0  0  0  0  0
  -22.7287  -31.2938   21.3924 H   0  0  0  0  0  0
  -23.3754  -35.9543   23.3293 H   0  0  0  0  0  0
  -24.3545  -36.8860   22.2055 H   0  0  0  0  0  0
  -23.7191  -37.6425   23.6656 H   0  0  0  0  0  0
  -26.1209  -31.5111   20.6104 H   0  0  0  0  0  0
  -26.8558  -30.8017   22.0137 H   0  0  0  0  0  0
  -28.1067  -28.8735   21.2408 H   0  0  0  0  0  0
  -25.9464  -25.8705   19.0128 H   0  0  0  0  0  0
  -23.9801  -27.3062   18.9782 H   0  0  0  0  0  0
  -23.7800  -30.5825   19.3968 H   0  0  0  0  0  0
  -22.7691  -29.2438   19.8460 H   0  0  0  0  0  0
  -25.1279  -36.1871   25.0822 H   0  0  0  0  0  0
  -21.0014  -28.3289   24.1400 H   0  0  0  0  0  0
  -20.5695  -26.2302   23.3625 H   0  0  0  0  0  0
  -21.6638  -26.7426   22.1210 H   0  0  0  0  0  0
  -19.6876  -25.6318   21.1242 H   0  0  0  0  0  0
  -19.6680  -27.3228   20.6776 H   0  0  0  0  0  0
  -17.4200  -26.6730   21.4043 H   0  0  0  0  0  0
  -18.0299  -26.0108   22.9048 H   0  0  0  0  0  0
  -19.7944  -30.7308   24.2273 H   0  0  0  0  0  0
  -17.5013  -31.6285   24.5169 H   0  0  0  0  0  0
  -15.5364  -30.2982   23.7668 H   0  0  0  0  0  0
  -15.8690  -28.0828   22.7060 H   0  0  0  0  0  0
  -24.5949  -30.7036   25.7782 H   0  0  0  0  0  0
  -24.8938  -32.2898   26.4806 H   0  0  0  0  0  0
  -25.8106  -30.8953   27.0216 H   0  0  0  0  0  0
  -26.2962  -29.6724   24.1213 H   0  0  0  0  0  0
  -27.4074  -29.7237   25.4692 H   0  0  0  0  0  0
  -27.8825  -30.4245   23.9401 H   0  0  0  0  0  0
  -27.2692  -33.3629   26.1986 H   0  0  0  0  0  0
  -28.3930  -32.6841   25.0324 H   0  0  0  0  0  0
  -28.0696  -31.8462   26.5439 H   0  0  0  0  0  0
  -28.2599  -38.0069   24.7542 H   0  0  0  0  0  0
  -28.1054  -36.2606   24.6276 H   0  0  0  0  0  0
  -27.2283  -37.1394   25.8879 H   0  0  0  0  0  0
  -20.9432  -29.8720   21.6827 H   0  0  0  0  0  0
  -26.0139  -38.2811   24.1494 H   0  0  0  0  0  0
  -26.9593  -22.9706   18.1132 H   0  0  0  0  0  0
  -31.4824  -21.1228   21.0551 H   0  0  0  0  0  0
  -32.1259  -16.9377   21.5438 H   0  0  0  0  0  0
  -37.0126  -18.2326   21.7744 H   0  0  0  0  0  0
  -37.2791  -19.1473   23.3522 H   0  0  0  0  0  0
  -32.8271  -21.1036   23.0340 H   0  0  0  0  0  0
  -32.4711  -19.6304   23.9422 H   0  0  0  0  0  0
  -35.1954  -21.9411   22.8266 H   0  0  0  0  0  0
  -36.2814  -21.3902   24.0949 H   0  0  0  0  0  0
  -34.7027  -22.0368   24.5134 H   0  0  0  0  0  0
  -34.3431  -18.2870   25.0136 H   0  0  0  0  0  0
  -34.1858  -19.8360   25.8300 H   0  0  0  0  0  0
  -35.7761  -19.2351   25.3872 H   0  0  0  0  0  0
  -27.9668  -25.2972   18.4151 H   0  0  0  0  0  0
  -29.5567  -25.2727   19.0153 H   0  0  0  0  0  0
  -28.8157  -15.7756   20.6075 H   0  0  0  0  0  0
  -35.5573  -17.7731   20.3792 H   0  0  0  0  0  0
  -33.9126  -17.8505   19.8642 H   0  0  0  0  0  0
  -27.0103  -20.5687   17.6972 H   0  0  0  0  0  0
  -29.9454  -23.8795   21.6273 H   0  0  0  0  0  0
  1 25  1  0  0  0
  1 30  2  0  0  0
  1 91  1  0  0  0
  2  3  1  0  0  0
  2 25  1  0  0  0
  2 96  1  0  0  0
  2 97  1  0  0  0
  3  4  1  0  0  0
  3 98  1  0  0  0
  3 99  1  0  0  0
  4  5  1  0  0  0
  4100  1  0  0  0
  4101  1  0  0  0
  5  6  1  0  0  0
  5 26  1  0  0  0
  5102  1  0  0  0
  6 25  1  0  0  0
  6103  1  0  0  0
  6104  1  0  0  0
  7  8  2  0  0  0
  7 26  1  0  0  0
  7 29  1  0  0  0
  8  9  1  0  0  0
  8 22  1  0  0  0
  9 10  1  0  0  0
  9 27  2  0  0  0
 10 11  2  0  0  0
 10 15  1  0  0  0
 11 12  1  0  0  0
 11105  1  0  0  0
 12 13  2  0  0  0
 12106  1  0  0  0
 13 14  1  0  0  0
 13 31  1  0  0  0
 14 15  2  0  0  0
 14107  1  0  0  0
 15108  1  0  0  0
 16 17  2  0  0  0
 16 21  1  0  0  0
 16 31  1  0  0  0
 17 18  1  0  0  0
 17109  1  0  0  0
 18 19  2  0  0  0
 18110  1  0  0  0
 19 20  1  0  0  0
 19 24  1  0  0  0
 20 21  2  0  0  0
 20111  1  0  0  0
 21 23  1  0  0  0
 22 28  1  0  0  0
 22 32  2  0  0  0
 26 27  1  0  0  0
 28112  1  0  0  0
 28113  1  0  0  0
 29114  1  0  0  0
 29115  1  0  0  0
 33 34  1  0  0  0
 33 66  1  0  0  0
 33 70  2  0  0  0
 34 36  1  0  0  0
 34 59  1  0  0  0
 34116  1  0  0  0
 35 44  2  0  0  0
 35 45  1  0  0  0
 35 68  1  0  0  0
 36 56  1  0  0  0
 36117  1  0  0  0
 37 39  1  0  0  0
 37 47  1  0  0  0
 37 66  1  0  0  0
 37118  1  0  0  0
 38 43  2  0  0  0
 38 46  1  0  0  0
 38 47  1  0  0  0
 39 64  1  0  0  0
 39 67  2  0  0  0
 40 52  1  0  0  0
 40 53  2  0  0  0
 40 58  1  0  0  0
 41119  1  0  0  0
 41120  1  0  0  0
 41121  1  0  0  0
 41 48  1  0  0  0
 42 43  1  0  0  0
 42 66  1  0  0  0
 42122  1  0  0  0
 42123  1  0  0  0
 43 44  1  0  0  0
 44124  1  0  0  0
 45 46  2  0  0  0
 45125  1  0  0  0
 46126  1  0  0  0
 47127  1  0  0  0
 47128  1  0  0  0
 48 56  1  0  0  0
 48 65  1  0  0  0
 48129  1  0  0  0
 49 50  1  0  0  0
 49 53  1  0  0  0
 49 64  1  0  0  0
 49130  1  0  0  0
 50 51  1  0  0  0
 50131  1  0  0  0
 50132  1  0  0  0
 51 52  1  0  0  0
 51133  1  0  0  0
 51134  1  0  0  0
 52135  1  0  0  0
 52136  1  0  0  0
 53 54  1  0  0  0
 54 55  2  0  0  0
 54137  1  0  0  0
 55 57  1  0  0  0
 55138  1  0  0  0
 56 69  2  0  0  0
 57 58  2  0  0  0
 57139  1  0  0  0
 58140  1  0  0  0
 59 60  1  0  0  0
 59 61  1  0  0  0
 59 62  1  0  0  0
 60141  1  0  0  0
 60142  1  0  0  0
 60143  1  0  0  0
 61144  1  0  0  0
 61145  1  0  0  0
 61146  1  0  0  0
 62147  1  0  0  0
 62148  1  0  0  0
 62149  1  0  0  0
 63 65  1  0  0  0
 63150  1  0  0  0
 63151  1  0  0  0
 63152  1  0  0  0
 64153  1  0  0  0
 65154  1  0  0  0
 68 88  1  0  0  0
 71 74  1  0  0  0
 71 79  2  0  0  0
 71155  1  0  0  0
 72 75  2  0  0  0
 72 76  1  0  0  0
 72156  1  0  0  0
 73 76  2  0  0  0
 73 77  1  0  0  0
 73157  1  0  0  0
 74 80  2  0  0  0
 74 88  1  0  0  0
 75 78  1  0  0  0
 75 89  1  0  0  0
 76 90  1  0  0  0
 77 78  2  0  0  0
 77 91  1  0  0  0
 78 95  1  0  0  0
 79 89  1  0  0  0
 79 93  1  0  0  0
 80 89  1  0  0  0
 80 94  1  0  0  0
 81 82  1  0  0  0
 81 83  2  0  0  0
 81 85  1  0  0  0
 82 90  1  0  0  0
 82 92  2  0  0  0
 83158  1  0  0  0
 83159  1  0  0  0
 84 85  1  0  0  0
 84 90  1  0  0  0
 84160  1  0  0  0
 84161  1  0  0  0
 85 86  1  0  0  0
 85 87  1  0  0  0
 86162  1  0  0  0
 86163  1  0  0  0
 86164  1  0  0  0
 87165  1  0  0  0
 87166  1  0  0  0
 87167  1  0  0  0
 88168  1  0  0  0
 88169  1  0  0  0
 91170  1  0  0  0
 92171  1  0  0  0
 92172  1  0  0  0
 93173  1  0  0  0
 94174  1  0  0  0
M  CHG  1  92   1
M  ISO  4   1 100  68 101  88 101  91 100
M  END
> <chiral flag>
0

> <version>
0

> <s_m_source_file>
/data/baiqing/PycharmProjects/Reinvent-master-3.2/result/LINK_invent/BTK/process_docking_weight1_custom_product_contain_oxygen_bond_distance_aromatic_linkinvent_7_9_3/rearranged_h_0070.sdf

> <i_m_source_file_index>
21

> <r_mmod_Potential_Energy-OPLS-2005>
244.41667175293

> <r_mmod_Stretch_Energy-OPLS-2005>
162.420822143555

> <r_mmod_Bend_Energy-OPLS-2005>
268.574249267578

> <r_mmod_Torsional_Energy-OPLS-2005>
270.272796630859

> <r_mmod_Improper_Torsional_Energy-OPLS-2005>
9.44786357879639

> <r_mmod_Van_der_Waal_Energy-OPLS-2005>
141.448501586914

> <r_mmod_Electrostatic_Energy-OPLS-2005>
-304.21142578125

> <r_mmod_Solvation_Energy-OPLS-2005>
-413.523651123047

> <b_mmod_Minimization_Converged-OPLS-2005>
0

> <r_mmod_RMS_Derivative-OPLS-2005>
2.13021802902222

$$$$
21
                    3D
 Structure written by MMmdl.
155164  0  0  1  0            999 V2000
  -30.5860  -14.7573   20.4409 C   0  0  0  0  0  0
  -30.4259  -12.4560   19.4899 C   0  0  0  0  0  0
  -29.5114  -12.5248   18.2461 C   0  0  0  0  0  0
  -28.0358  -12.3421   18.6492 C   0  0  0  0  0  0
  -27.6413  -13.2327   19.8577 C   0  0  2  0  0  0
  -28.6809  -13.1600   20.9997 C   0  0  0  0  0  0
  -25.2488  -13.8200   20.5689 C   0  0  0  0  0  0
  -24.1772  -13.0451   20.9192 C   0  0  0  0  0  0
  -24.6363  -11.6926   20.8729 C   0  0  0  0  0  0
  -23.9046  -10.4304   21.0379 C   0  0  0  0  0  0
  -24.3606   -9.4233   21.9153 C   0  0  0  0  0  0
  -23.6282   -8.2265   22.0732 C   0  0  0  0  0  0
  -22.4266   -8.0294   21.3530 C   0  0  0  0  0  0
  -21.9900   -9.0258   20.4627 C   0  0  0  0  0  0
  -22.7220  -10.2142   20.3034 C   0  0  0  0  0  0
  -21.6856   -6.0755   22.5267 C   0  0  0  0  0  0
  -21.4033   -6.5647   23.8209 C   0  0  0  0  0  0
  -21.3662   -5.6798   24.9166 C   0  0  0  0  0  0
  -21.6042   -4.3061   24.7216 C   0  0  0  0  0  0
  -21.8817   -3.8165   23.4331 C   0  0  0  0  0  0
  -21.9190   -4.6982   22.3394 C   0  0  0  0  0  0
  -22.7803  -13.5231   21.1875 C   0  0  0  0  0  0
  -22.1637   -4.2180   21.0970 F   0  0  0  0  0  0
  -21.5630   -3.4536   25.7724 F   0  0  0  0  0  0
  -29.9850  -13.5156   20.4290 N   0  0  0  0  0  0
  -26.2910  -12.9398   20.3283 N   0  0  0  0  0  0
  -25.9290  -11.6542   20.5739 N   0  0  0  0  0  0
  -22.0462  -12.8197   22.0428 N   0  0  0  0  0  0
  -25.4243  -15.1923   20.4127 N   0  0  0  0  0  0
  -31.7555  -14.8676   20.0586 O   0  0  0  0  0  0
  -21.6640   -6.8895   21.4225 O   0  0  0  0  0  0
  -22.3475  -14.5547   20.6760 O   0  0  0  0  0  0
  -24.6337  -31.8529   23.1911 C   0  0  0  0  0  0
  -25.9148  -32.4737   23.8294 C   0  0  1  0  0  0
  -27.2330  -27.2405   20.1189 C   0  0  0  0  0  0
  -25.5932  -33.8540   24.2209 N   0  0  0  0  0  0
  -23.4313  -30.4699   21.5362 C   0  0  2  0  0  0
  -24.8794  -28.9056   20.1061 C   0  0  0  0  0  0
  -22.7497  -29.4602   22.4916 C   0  0  0  0  0  0
  -18.0298  -28.1396   22.8510 C   0  0  0  0  0  0
  -24.1495  -36.7267   23.2645 C   0  0  0  0  0  0
  -25.9780  -30.7525   21.3768 C   0  0  0  0  0  0
  -26.0491  -29.3731   20.7173 C   0  0  0  0  0  0
  -27.2226  -28.5502   20.7148 C   0  0  0  0  0  0
  -26.0372  -26.8373   19.4866 C   0  0  0  0  0  0
  -24.8801  -27.6467   19.4815 C   0  0  0  0  0  0
  -23.6472  -29.7912   20.1566 C   0  0  0  0  0  0
  -25.4133  -36.3053   24.0317 C   0  0  1  0  0  0
  -20.5892  -28.3718   23.1257 C   0  0  2  0  0  0
  -20.6780  -26.9433   22.5409 C   0  0  0  0  0  0
  -19.5748  -26.6389   21.5223 C   0  0  0  0  0  0
  -18.1929  -26.7941   22.1633 C   0  0  0  0  0  0
  -19.1550  -28.8880   23.2881 C   0  0  0  0  0  0
  -18.9465  -30.1473   23.8914 C   0  0  0  0  0  0
  -17.6465  -30.6606   24.0568 C   0  0  0  0  0  0
  -25.9080  -34.9428   23.5070 C   0  0  0  0  0  0
  -16.5363  -29.9093   23.6342 C   0  0  0  0  0  0
  -16.7281  -28.6499   23.0390 C   0  0  0  0  0  0
  -26.4495  -31.6597   25.0716 C   0  0  0  0  0  0
  -25.3679  -31.3747   26.1400 C   0  0  0  0  0  0
  -27.0364  -30.3016   24.6257 C   0  0  0  0  0  0
  -27.6066  -32.4345   25.7474 C   0  0  0  0  0  0
  -27.5585  -37.1783   24.8468 C   0  0  0  0  0  0
  -21.4206  -29.3057   22.3648 N   0  0  0  0  0  0
  -26.4297  -37.3760   23.9403 N   0  0  0  0  0  0
  -24.7002  -31.0449   22.0905 N   0  0  0  0  0  0
  -23.4180  -28.8171   23.3048 O   0  0  0  0  0  0
  -28.3527  -26.3734   20.2114 O   0  0  0  0  0  0
  -26.5671  -34.8917   22.4655 O   0  0  0  0  0  0
  -23.5480  -32.1389   23.7178 O   0  0  0  0  0  0
  -29.2818  -19.5000   18.3420 C   0  0  0  0  0  0
  -29.4710  -18.5156   20.5583 C   0  0  0  0  0  0
  -29.7546  -17.1037   18.5894 C   0  0  0  0  0  0
  -29.2622  -19.7179   19.7407 C   0  0  0  0  0  0
  -29.5253  -18.2305   17.7764 C   0  0  0  0  0  0
  -29.7266  -17.1822   19.9998 C   0  0  0  0  0  0
  -29.5304  -21.7544   21.3213 C   0  0  0  0  0  0
  -28.4957  -22.2511   19.3331 C   0  0  0  0  0  0
  -28.3311  -23.5452   20.2379 C   0  0  2  0  0  0
  -28.5016  -25.0216   19.5476 C   0  0  0  0  0  0
  -29.0161  -21.1353   20.1855 N   0  0  0  0  0  0
  -29.5250  -18.0833   16.3888 N   0  0  0  0  0  0
  -29.8288  -15.8887   20.7428 N   0  0  0  0  0  0
  -30.1465  -21.2300   22.2509 O   0  0  0  0  0  0
  -29.2700  -23.1224   21.2398 O   0  0  0  0  0  0
  -31.4689  -12.5716   19.1930 H   0  0  0  0  0  0
  -30.3593  -11.4726   19.9602 H   0  0  0  0  0  0
  -29.8006  -11.7677   17.5159 H   0  0  0  0  0  0
  -29.6363  -13.4886   17.7499 H   0  0  0  0  0  0
  -27.8864  -11.2897   18.8946 H   0  0  0  0  0  0
  -27.3853  -12.5501   17.7985 H   0  0  0  0  0  0
  -27.6401  -14.2573   19.4824 H   0  0  0  0  0  0
  -28.7143  -12.1611   21.4371 H   0  0  0  0  0  0
  -28.4057  -13.8367   21.8101 H   0  0  0  0  0  0
  -25.2743   -9.5732   22.4728 H   0  0  0  0  0  0
  -24.0002   -7.4673   22.7446 H   0  0  0  0  0  0
  -21.0840   -8.8771   19.8933 H   0  0  0  0  0  0
  -22.3653  -10.9677   19.6154 H   0  0  0  0  0  0
  -21.2043   -7.6156   23.9730 H   0  0  0  0  0  0
  -21.1476   -6.0521   25.9072 H   0  0  0  0  0  0
  -22.0597   -2.7625   23.2821 H   0  0  0  0  0  0
  -22.4069  -11.9816   22.4747 H   0  0  0  0  0  0
  -21.1104  -13.1243   22.2712 H   0  0  0  0  0  0
  -24.6694  -15.8585   20.5329 H   0  0  0  0  0  0
  -26.2856  -15.6235   20.1026 H   0  0  0  0  0  0
  -26.7222  -32.5363   23.1040 H   0  0  0  0  0  0
  -25.0064  -33.9684   25.0339 H   0  0  0  0  0  0
  -22.7311  -31.2934   21.3805 H   0  0  0  0  0  0
  -23.3771  -35.9583   23.3304 H   0  0  0  0  0  0
  -24.3594  -36.8916   22.2067 H   0  0  0  0  0  0
  -23.7232  -37.6453   23.6689 H   0  0  0  0  0  0
  -26.1267  -31.5119   20.6089 H   0  0  0  0  0  0
  -26.8508  -30.7966   22.0167 H   0  0  0  0  0  0
  -28.1165  -28.9032   21.2103 H   0  0  0  0  0  0
  -25.9610  -25.8674   19.0216 H   0  0  0  0  0  0
  -23.9827  -27.2784   19.0035 H   0  0  0  0  0  0
  -23.7578  -30.5588   19.3893 H   0  0  0  0  0  0
  -22.7691  -29.2114   19.8658 H   0  0  0  0  0  0
  -25.1314  -36.1905   25.0807 H   0  0  0  0  0  0
  -21.0003  -28.3313   24.1368 H   0  0  0  0  0  0
  -20.5688  -26.2342   23.3628 H   0  0  0  0  0  0
  -21.6644  -26.7458   22.1191 H   0  0  0  0  0  0
  -19.6910  -25.6283   21.1285 H   0  0  0  0  0  0
  -19.6681  -27.3183   20.6739 H   0  0  0  0  0  0
  -17.4199  -26.6727   21.4031 H   0  0  0  0  0  0
  -18.0315  -26.0055   22.9006 H   0  0  0  0  0  0
  -19.7940  -30.7285   24.2289 H   0  0  0  0  0  0
  -17.5020  -31.6291   24.5149 H   0  0  0  0  0  0
  -15.5365  -30.3006   23.7644 H   0  0  0  0  0  0
  -15.8681  -28.0802   22.7138 H   0  0  0  0  0  0
  -24.5860  -30.7120   25.7662 H   0  0  0  0  0  0
  -24.8846  -32.2908   26.4813 H   0  0  0  0  0  0
  -25.7932  -30.8893   27.0192 H   0  0  0  0  0  0
  -26.2967  -29.6743   24.1270 H   0  0  0  0  0  0
  -27.4020  -29.7318   25.4815 H   0  0  0  0  0  0
  -27.8848  -30.4296   23.9528 H   0  0  0  0  0  0
  -27.2716  -33.3680   26.2009 H   0  0  0  0  0  0
  -28.3873  -32.6867   25.0278 H   0  0  0  0  0  0
  -28.0734  -31.8493   26.5409 H   0  0  0  0  0  0
  -28.2588  -38.0093   24.7540 H   0  0  0  0  0  0
  -28.1091  -36.2633   24.6259 H   0  0  0  0  0  0
  -27.2307  -37.1394   25.8868 H   0  0  0  0  0  0
  -20.9412  -29.8757   21.6821 H   0  0  0  0  0  0
  -26.0180  -38.2833   24.1393 H   0  0  0  0  0  0
  -29.1197  -20.3294   17.6685 H   0  0  0  0  0  0
  -29.4227  -18.6148   21.6331 H   0  0  0  0  0  0
  -29.9126  -16.1458   18.1123 H   0  0  0  0  0  0
  -29.2241  -22.4527   18.5461 H   0  0  0  0  0  0
  -27.5573  -21.9784   18.8496 H   0  0  0  0  0  0
  -27.3454  -23.5082   20.7015 H   0  0  0  0  0  0
  -27.8975  -25.0223   18.6422 H   0  0  0  0  0  0
  -29.5195  -25.0370   19.1563 H   0  0  0  0  0  0
  -29.0639  -18.7838   15.8154 H   0  0  0  0  0  0
  -29.4783  -17.1518   15.9867 H   0  0  0  0  0  0
  -29.0424  -15.7011   21.3487 H   0  0  0  0  0  0
  1 25  1  0  0  0
  1 30  2  0  0  0
  1 83  1  0  0  0
  2  3  1  0  0  0
  2 25  1  0  0  0
  2 86  1  0  0  0
  2 87  1  0  0  0
  3  4  1  0  0  0
  3 88  1  0  0  0
  3 89  1  0  0  0
  4  5  1  0  0  0
  4 90  1  0  0  0
  4 91  1  0  0  0
  5  6  1  0  0  0
  5 26  1  0  0  0
  5 92  1  0  0  0
  6 25  1  0  0  0
  6 93  1  0  0  0
  6 94  1  0  0  0
  7  8  2  0  0  0
  7 26  1  0  0  0
  7 29  1  0  0  0
  8  9  1  0  0  0
  8 22  1  0  0  0
  9 10  1  0  0  0
  9 27  2  0  0  0
 10 11  2  0  0  0
 10 15  1  0  0  0
 11 12  1  0  0  0
 11 95  1  0  0  0
 12 13  2  0  0  0
 12 96  1  0  0  0
 13 14  1  0  0  0
 13 31  1  0  0  0
 14 15  2  0  0  0
 14 97  1  0  0  0
 15 98  1  0  0  0
 16 17  2  0  0  0
 16 21  1  0  0  0
 16 31  1  0  0  0
 17 18  1  0  0  0
 17 99  1  0  0  0
 18 19  2  0  0  0
 18100  1  0  0  0
 19 20  1  0  0  0
 19 24  1  0  0  0
 20 21  2  0  0  0
 20101  1  0  0  0
 21 23  1  0  0  0
 22 28  1  0  0  0
 22 32  2  0  0  0
 26 27  1  0  0  0
 28102  1  0  0  0
 28103  1  0  0  0
 29104  1  0  0  0
 29105  1  0  0  0
 33 34  1  0  0  0
 33 66  1  0  0  0
 33 70  2  0  0  0
 34 36  1  0  0  0
 34 59  1  0  0  0
 34106  1  0  0  0
 35 44  2  0  0  0
 35 45  1  0  0  0
 35 68  1  0  0  0
 36 56  1  0  0  0
 36107  1  0  0  0
 37 39  1  0  0  0
 37 47  1  0  0  0
 37 66  1  0  0  0
 37108  1  0  0  0
 38 43  2  0  0  0
 38 46  1  0  0  0
 38 47  1  0  0  0
 39 64  1  0  0  0
 39 67  2  0  0  0
 40 52  1  0  0  0
 40 53  2  0  0  0
 40 58  1  0  0  0
 41109  1  0  0  0
 41110  1  0  0  0
 41111  1  0  0  0
 41 48  1  0  0  0
 42 43  1  0  0  0
 42 66  1  0  0  0
 42112  1  0  0  0
 42113  1  0  0  0
 43 44  1  0  0  0
 44114  1  0  0  0
 45 46  2  0  0  0
 45115  1  0  0  0
 46116  1  0  0  0
 47117  1  0  0  0
 47118  1  0  0  0
 48 56  1  0  0  0
 48 65  1  0  0  0
 48119  1  0  0  0
 49 50  1  0  0  0
 49 53  1  0  0  0
 49 64  1  0  0  0
 49120  1  0  0  0
 50 51  1  0  0  0
 50121  1  0  0  0
 50122  1  0  0  0
 51 52  1  0  0  0
 51123  1  0  0  0
 51124  1  0  0  0
 52125  1  0  0  0
 52126  1  0  0  0
 53 54  1  0  0  0
 54 55  2  0  0  0
 54127  1  0  0  0
 55 57  1  0  0  0
 55128  1  0  0  0
 56 69  2  0  0  0
 57 58  2  0  0  0
 57129  1  0  0  0
 58130  1  0  0  0
 59 60  1  0  0  0
 59 61  1  0  0  0
 59 62  1  0  0  0
 60131  1  0  0  0
 60132  1  0  0  0
 60133  1  0  0  0
 61134  1  0  0  0
 61135  1  0  0  0
 61136  1  0  0  0
 62137  1  0  0  0
 62138  1  0  0  0
 62139  1  0  0  0
 63 65  1  0  0  0
 63140  1  0  0  0
 63141  1  0  0  0
 63142  1  0  0  0
 64143  1  0  0  0
 65144  1  0  0  0
 68 80  1  0  0  0
 71 74  2  0  0  0
 71 75  1  0  0  0
 71145  1  0  0  0
 72 74  1  0  0  0
 72 76  2  0  0  0
 72146  1  0  0  0
 73 75  2  0  0  0
 73 76  1  0  0  0
 73147  1  0  0  0
 74 81  1  0  0  0
 75 82  1  0  0  0
 76 83  1  0  0  0
 77 81  1  0  0  0
 77 84  2  0  0  0
 77 85  1  0  0  0
 78 79  1  0  0  0
 78 81  1  0  0  0
 78148  1  0  0  0
 78149  1  0  0  0
 79 80  1  0  0  0
 79 85  1  0  0  0
 79150  1  0  0  0
 80151  1  0  0  0
 80152  1  0  0  0
 82153  1  0  0  0
 82154  1  0  0  0
 83155  1  0  0  0
M  ISO  4   1 100  68 101  80 101  83 100
M  END
> <chiral flag>
0

> <version>
0

> <s_m_source_file>
/data/baiqing/PycharmProjects/Reinvent-master-3.2/result/LINK_invent/BTK/process_docking_weight1_custom_product_contain_oxygen_bond_distance_aromatic_linkinvent_7_9_3/rearranged_h_0070.sdf

> <i_m_source_file_index>
22

> <r_mmod_Potential_Energy-OPLS-2005>
275.470611572266

> <r_mmod_Stretch_Energy-OPLS-2005>
140.595291137695

> <r_mmod_Bend_Energy-OPLS-2005>
222.046676635742

> <r_mmod_Torsional_Energy-OPLS-2005>
261.827667236328

> <r_mmod_Improper_Torsional_Energy-OPLS-2005>
8.24552440643311

> <r_mmod_Van_der_Waal_Energy-OPLS-2005>
129.342224121094

> <r_mmod_Electrostatic_Energy-OPLS-2005>
-329.017944335938

> <r_mmod_Solvation_Energy-OPLS-2005>
-249.671249389648

> <b_mmod_Minimization_Converged-OPLS-2005>
0

> <r_mmod_RMS_Derivative-OPLS-2005>
2.6439905166626

$$$$
22
                    3D
 Structure written by MMmdl.
158167  0  0  1  0            999 V2000
  -30.4233  -15.0426   20.4458 C   0  0  0  0  0  0
  -30.4275  -12.6635   19.5297 C   0  0  0  0  0  0
  -29.5178  -12.5488   18.2800 C   0  0  0  0  0  0
  -28.0602  -12.2920   18.6986 C   0  0  0  0  0  0
  -27.6065  -13.2463   19.8322 C   0  0  2  0  0  0
  -28.6245  -13.3124   20.9887 C   0  0  0  0  0  0
  -25.2394  -13.8198   20.5706 C   0  0  0  0  0  0
  -24.1767  -13.0460   20.9298 C   0  0  0  0  0  0
  -24.6391  -11.6924   20.8885 C   0  0  0  0  0  0
  -23.9100  -10.4299   21.0513 C   0  0  0  0  0  0
  -24.3637   -9.4180   21.9282 C   0  0  0  0  0  0
  -23.6305   -8.2220   22.0773 C   0  0  0  0  0  0
  -22.4289   -8.0309   21.3555 C   0  0  0  0  0  0
  -21.9961   -9.0304   20.4670 C   0  0  0  0  0  0
  -22.7294  -10.2170   20.3131 C   0  0  0  0  0  0
  -21.6821   -6.0783   22.5310 C   0  0  0  0  0  0
  -21.3978   -6.5683   23.8245 C   0  0  0  0  0  0
  -21.3626   -5.6849   24.9216 C   0  0  0  0  0  0
  -21.6019   -4.3110   24.7268 C   0  0  0  0  0  0
  -21.8787   -3.8193   23.4392 C   0  0  0  0  0  0
  -21.9172   -4.7015   22.3445 C   0  0  0  0  0  0
  -22.7756  -13.5175   21.1972 C   0  0  0  0  0  0
  -22.1661   -4.2208   21.1035 F   0  0  0  0  0  0
  -21.5595   -3.4588   25.7775 F   0  0  0  0  0  0
  -29.8803  -13.7589   20.3907 N   0  0  0  0  0  0
  -26.2775  -12.9423   20.3153 N   0  0  0  0  0  0
  -25.9300  -11.6574   20.5747 N   0  0  0  0  0  0
  -22.0423  -12.8180   22.0461 N   0  0  0  0  0  0
  -25.4084  -15.1972   20.4013 N   0  0  0  0  0  0
  -31.6276  -15.0929   20.1552 O   0  0  0  0  0  0
  -21.6608   -6.8939   21.4269 O   0  0  0  0  0  0
  -22.3462  -14.5544   20.6842 O   0  0  0  0  0  0
  -24.6602  -31.8298   23.1801 C   0  0  0  0  0  0
  -25.9334  -32.4633   23.8160 C   0  0  1  0  0  0
  -27.1612  -26.9926   20.1596 C   0  0  0  0  0  0
  -25.5990  -33.8442   24.2080 N   0  0  0  0  0  0
  -23.4634  -30.4539   21.5330 C   0  0  2  0  0  0
  -24.8933  -28.8536   20.1155 C   0  0  0  0  0  0
  -22.7618  -29.4520   22.4880 C   0  0  0  0  0  0
  -18.0326  -28.1426   22.8461 C   0  0  0  0  0  0
  -24.1495  -36.7229   23.2637 C   0  0  0  0  0  0
  -26.0284  -30.6639   21.3871 C   0  0  0  0  0  0
  -26.0855  -29.2598   20.7289 C   0  0  0  0  0  0
  -27.2277  -28.3504   20.7160 C   0  0  0  0  0  0
  -25.9391  -26.7111   19.5199 C   0  0  0  0  0  0
  -24.8426  -27.5988   19.4927 C   0  0  0  0  0  0
  -23.6831  -29.7783   20.1553 C   0  0  0  0  0  0
  -25.4142  -36.2996   24.0289 C   0  0  1  0  0  0
  -20.5914  -28.3786   23.1247 C   0  0  2  0  0  0
  -20.6850  -26.9471   22.5501 C   0  0  0  0  0  0
  -19.5873  -26.6384   21.5270 C   0  0  0  0  0  0
  -18.2025  -26.7950   22.1645 C   0  0  0  0  0  0
  -19.1551  -28.8926   23.2839 C   0  0  0  0  0  0
  -18.9457  -30.1503   23.8882 C   0  0  0  0  0  0
  -17.6453  -30.6612   24.0565 C   0  0  0  0  0  0
  -25.9106  -34.9376   23.4997 C   0  0  0  0  0  0
  -16.5349  -29.9077   23.6373 C   0  0  0  0  0  0
  -16.7293  -28.6524   23.0355 C   0  0  0  0  0  0
  -26.4589  -31.6559   25.0673 C   0  0  0  0  0  0
  -25.3685  -31.3850   26.1319 C   0  0  0  0  0  0
  -27.0454  -30.2921   24.6363 C   0  0  0  0  0  0
  -27.6042  -32.4355   25.7522 C   0  0  0  0  0  0
  -27.5573  -37.1762   24.8453 C   0  0  0  0  0  0
  -21.4268  -29.3116   22.3622 N   0  0  0  0  0  0
  -26.4281  -37.3736   23.9404 N   0  0  0  0  0  0
  -24.7388  -31.0056   22.0891 N   0  0  0  0  0  0
  -23.4197  -28.8064   23.3068 O   0  0  0  0  0  0
  -28.1589  -25.9198   20.1565 O   0  0  0  0  0  0
  -26.5722  -34.8898   22.4607 O   0  0  0  0  0  0
  -23.5676  -32.1231   23.6931 O   0  0  0  0  0  0
  -30.0740  -18.7097   23.5509 C   0  0  0  0  0  0
  -31.1477  -18.0124   22.9819 C   0  0  0  0  0  0
  -29.1016  -19.2471   22.6883 C   0  0  0  0  0  0
  -31.1466  -17.7166   21.6004 C   0  0  0  0  0  0
  -29.0670  -18.9444   21.2947 C   0  0  0  0  0  0
  -29.9218  -17.7414   20.8935 C   0  0  0  0  0  0
  -28.9291  -21.5945   20.8314 C   0  0  0  0  0  0
  -27.1561  -21.8471   19.3193 C   0  0  0  0  0  0
  -27.4515  -20.3212   19.6642 C   0  0  0  0  0  0
  -28.2899  -22.7833   19.9113 C   0  0  1  0  0  0
  -29.3616  -22.9004   18.7897 C   0  0  0  0  0  0
  -27.8974  -24.3784   20.5697 C   0  0  0  0  0  0
  -28.6300  -20.2366   20.5448 N   0  0  0  0  0  0
  -29.6033  -16.2356   20.6013 N   0  0  0  0  0  0
  -29.7340  -21.9186   21.7141 O   0  0  0  0  0  0
  -31.4532  -12.8643   19.2236 H   0  0  0  0  0  0
  -30.4648  -11.7240   20.0828 H   0  0  0  0  0  0
  -29.8574  -11.7475   17.6284 H   0  0  0  0  0  0
  -29.5741  -13.4735   17.7039 H   0  0  0  0  0  0
  -27.9964  -11.2575   19.0320 H   0  0  0  0  0  0
  -27.3915  -12.3729   17.8437 H   0  0  0  0  0  0
  -27.5624  -14.2342   19.3754 H   0  0  0  0  0  0
  -28.7282  -12.3545   21.4984 H   0  0  0  0  0  0
  -28.2889  -14.0228   21.7447 H   0  0  0  0  0  0
  -25.2780   -9.5597   22.4882 H   0  0  0  0  0  0
  -23.9964   -7.4567   22.7513 H   0  0  0  0  0  0
  -21.0854   -8.8924   19.8973 H   0  0  0  0  0  0
  -22.3837  -10.9784   19.6249 H   0  0  0  0  0  0
  -21.1968   -7.6205   23.9767 H   0  0  0  0  0  0
  -21.1438   -6.0593   25.9115 H   0  0  0  0  0  0
  -22.0567   -2.7676   23.2904 H   0  0  0  0  0  0
  -22.4015  -11.9725   22.4670 H   0  0  0  0  0  0
  -21.1093  -13.1253   22.2810 H   0  0  0  0  0  0
  -24.6151  -15.8240   20.4399 H   0  0  0  0  0  0
  -26.2023  -15.6025   19.9232 H   0  0  0  0  0  0
  -26.7400  -32.5156   23.0853 H   0  0  0  0  0  0
  -25.0035  -33.9527   25.0166 H   0  0  0  0  0  0
  -22.7739  -31.2873   21.3794 H   0  0  0  0  0  0
  -23.3759  -35.9550   23.3299 H   0  0  0  0  0  0
  -24.3542  -36.8889   22.2034 H   0  0  0  0  0  0
  -23.7233  -37.6413   23.6719 H   0  0  0  0  0  0
  -26.1914  -31.4091   20.6042 H   0  0  0  0  0  0
  -26.8976  -30.7076   22.0316 H   0  0  0  0  0  0
  -28.1495  -28.6686   21.1855 H   0  0  0  0  0  0
  -25.8071  -25.7470   19.0520 H   0  0  0  0  0  0
  -23.9297  -27.2819   19.0063 H   0  0  0  0  0  0
  -23.8207  -30.5478   19.3931 H   0  0  0  0  0  0
  -22.7850  -29.2326   19.8599 H   0  0  0  0  0  0
  -25.1331  -36.1783   25.0773 H   0  0  0  0  0  0
  -20.9950  -28.3437   24.1413 H   0  0  0  0  0  0
  -20.5733  -26.2409   23.3771 H   0  0  0  0  0  0
  -21.6781  -26.7466   22.1456 H   0  0  0  0  0  0
  -19.7080  -25.6280   21.1359 H   0  0  0  0  0  0
  -19.6886  -27.3121   20.6737 H   0  0  0  0  0  0
  -17.4329  -26.6655   21.4004 H   0  0  0  0  0  0
  -18.0451  -26.0098   22.9055 H   0  0  0  0  0  0
  -19.7897  -30.7369   24.2213 H   0  0  0  0  0  0
  -17.4998  -31.6279   24.5144 H   0  0  0  0  0  0
  -15.5332  -30.2985   23.7767 H   0  0  0  0  0  0
  -15.8693  -28.0886   22.7018 H   0  0  0  0  0  0
  -24.5847  -30.7259   25.7641 H   0  0  0  0  0  0
  -24.8901  -32.3069   26.4603 H   0  0  0  0  0  0
  -25.7813  -30.9074   27.0204 H   0  0  0  0  0  0
  -26.3102  -29.6636   24.1336 H   0  0  0  0  0  0
  -27.3991  -29.7275   25.5011 H   0  0  0  0  0  0
  -27.9056  -30.4168   23.9777 H   0  0  0  0  0  0
  -27.2599  -33.3688   26.2027 H   0  0  0  0  0  0
  -28.3928  -32.6878   25.0417 H   0  0  0  0  0  0
  -28.0683  -31.8528   26.5505 H   0  0  0  0  0  0
  -28.2581  -38.0073   24.7488 H   0  0  0  0  0  0
  -28.1061  -36.2565   24.6289 H   0  0  0  0  0  0
  -27.2260  -37.1435   25.8855 H   0  0  0  0  0  0
  -20.9555  -29.8773   21.6703 H   0  0  0  0  0  0
  -26.0119  -38.2801   24.1398 H   0  0  0  0  0  0
  -30.0975  -18.9750   24.6041 H   0  0  0  0  0  0
  -31.9671  -17.6867   23.6056 H   0  0  0  0  0  0
  -28.5284  -20.0686   23.0978 H   0  0  0  0  0  0
  -31.9778  -17.1506   21.2093 H   0  0  0  0  0  0
  -26.1472  -22.1080   19.6461 H   0  0  0  0  0  0
  -27.1076  -21.9221   18.2265 H   0  0  0  0  0  0
  -27.5824  -19.7097   18.7672 H   0  0  0  0  0  0
  -26.5846  -19.8950   20.1804 H   0  0  0  0  0  0
  -29.3278  -22.0206   18.1386 H   0  0  0  0  0  0
  -30.3839  -22.9134   19.1773 H   0  0  0  0  0  0
  -29.2179  -23.7540   18.1327 H   0  0  0  0  0  0
  -28.4834  -24.3669   21.5006 H   0  0  0  0  0  0
  -26.8813  -24.3233   20.9844 H   0  0  0  0  0  0
  -28.6153  -16.0120   20.6491 H   0  0  0  0  0  0
  1 25  1  0  0  0
  1 30  2  0  0  0
  1 84  1  0  0  0
  2  3  1  0  0  0
  2 25  1  0  0  0
  2 86  1  0  0  0
  2 87  1  0  0  0
  3  4  1  0  0  0
  3 88  1  0  0  0
  3 89  1  0  0  0
  4  5  1  0  0  0
  4 90  1  0  0  0
  4 91  1  0  0  0
  5  6  1  0  0  0
  5 26  1  0  0  0
  5 92  1  0  0  0
  6 25  1  0  0  0
  6 93  1  0  0  0
  6 94  1  0  0  0
  7  8  2  0  0  0
  7 26  1  0  0  0
  7 29  1  0  0  0
  8  9  1  0  0  0
  8 22  1  0  0  0
  9 10  1  0  0  0
  9 27  2  0  0  0
 10 11  2  0  0  0
 10 15  1  0  0  0
 11 12  1  0  0  0
 11 95  1  0  0  0
 12 13  2  0  0  0
 12 96  1  0  0  0
 13 14  1  0  0  0
 13 31  1  0  0  0
 14 15  2  0  0  0
 14 97  1  0  0  0
 15 98  1  0  0  0
 16 17  2  0  0  0
 16 21  1  0  0  0
 16 31  1  0  0  0
 17 18  1  0  0  0
 17 99  1  0  0  0
 18 19  2  0  0  0
 18100  1  0  0  0
 19 20  1  0  0  0
 19 24  1  0  0  0
 20 21  2  0  0  0
 20101  1  0  0  0
 21 23  1  0  0  0
 22 28  1  0  0  0
 22 32  2  0  0  0
 26 27  1  0  0  0
 28102  1  0  0  0
 28103  1  0  0  0
 29104  1  0  0  0
 29105  1  0  0  0
 33 34  1  0  0  0
 33 66  1  0  0  0
 33 70  2  0  0  0
 34 36  1  0  0  0
 34 59  1  0  0  0
 34106  1  0  0  0
 35 44  2  0  0  0
 35 45  1  0  0  0
 35 68  1  0  0  0
 36 56  1  0  0  0
 36107  1  0  0  0
 37 39  1  0  0  0
 37 47  1  0  0  0
 37 66  1  0  0  0
 37108  1  0  0  0
 38 43  2  0  0  0
 38 46  1  0  0  0
 38 47  1  0  0  0
 39 64  1  0  0  0
 39 67  2  0  0  0
 40 52  1  0  0  0
 40 53  2  0  0  0
 40 58  1  0  0  0
 41109  1  0  0  0
 41110  1  0  0  0
 41111  1  0  0  0
 41 48  1  0  0  0
 42 43  1  0  0  0
 42 66  1  0  0  0
 42112  1  0  0  0
 42113  1  0  0  0
 43 44  1  0  0  0
 44114  1  0  0  0
 45 46  2  0  0  0
 45115  1  0  0  0
 46116  1  0  0  0
 47117  1  0  0  0
 47118  1  0  0  0
 48 56  1  0  0  0
 48 65  1  0  0  0
 48119  1  0  0  0
 49 50  1  0  0  0
 49 53  1  0  0  0
 49 64  1  0  0  0
 49120  1  0  0  0
 50 51  1  0  0  0
 50121  1  0  0  0
 50122  1  0  0  0
 51 52  1  0  0  0
 51123  1  0  0  0
 51124  1  0  0  0
 52125  1  0  0  0
 52126  1  0  0  0
 53 54  1  0  0  0
 54 55  2  0  0  0
 54127  1  0  0  0
 55 57  1  0  0  0
 55128  1  0  0  0
 56 69  2  0  0  0
 57 58  2  0  0  0
 57129  1  0  0  0
 58130  1  0  0  0
 59 60  1  0  0  0
 59 61  1  0  0  0
 59 62  1  0  0  0
 60131  1  0  0  0
 60132  1  0  0  0
 60133  1  0  0  0
 61134  1  0  0  0
 61135  1  0  0  0
 61136  1  0  0  0
 62137  1  0  0  0
 62138  1  0  0  0
 62139  1  0  0  0
 63 65  1  0  0  0
 63140  1  0  0  0
 63141  1  0  0  0
 63142  1  0  0  0
 64143  1  0  0  0
 65144  1  0  0  0
 68 82  1  0  0  0
 71 72  2  0  0  0
 71 73  1  0  0  0
 71145  1  0  0  0
 72 74  1  0  0  0
 72146  1  0  0  0
 73 75  2  0  0  0
 73147  1  0  0  0
 74 76  2  0  0  0
 74148  1  0  0  0
 75 76  1  0  0  0
 75 83  1  0  0  0
 76 84  1  0  0  0
 77 80  1  0  0  0
 77 83  1  0  0  0
 77 85  2  0  0  0
 78 79  1  0  0  0
 78 80  1  0  0  0
 78149  1  0  0  0
 78150  1  0  0  0
 79 83  1  0  0  0
 79151  1  0  0  0
 79152  1  0  0  0
 80 81  1  0  0  0
 80 82  1  0  0  0
 81153  1  0  0  0
 81154  1  0  0  0
 81155  1  0  0  0
 82156  1  0  0  0
 82157  1  0  0  0
 84158  1  0  0  0
M  ISO  4   1 100  68 101  82 101  84 100
M  END
> <chiral flag>
0

> <version>
0

> <s_m_source_file>
/data/baiqing/PycharmProjects/Reinvent-master-3.2/result/LINK_invent/BTK/process_docking_weight1_custom_product_contain_oxygen_bond_distance_aromatic_linkinvent_7_9_3/rearranged_h_0070.sdf

> <i_m_source_file_index>
23

> <r_mmod_Potential_Energy-OPLS-2005>
1199.68798828125

> <r_mmod_Stretch_Energy-OPLS-2005>
383.553070068359

> <r_mmod_Bend_Energy-OPLS-2005>
382.315704345703

> <r_mmod_Torsional_Energy-OPLS-2005>
519.648559570312

> <r_mmod_Improper_Torsional_Energy-OPLS-2005>
30.3368721008301

> <r_mmod_Van_der_Waal_Energy-OPLS-2005>
147.810729980469

> <r_mmod_Electrostatic_Energy-OPLS-2005>
-354.187255859375

> <r_mmod_Solvation_Energy-OPLS-2005>
-219.28874206543

> <b_mmod_Minimization_Converged-OPLS-2005>
0

> <r_mmod_RMS_Derivative-OPLS-2005>
14.304181098938

$$$$
23
                    3D
 Structure written by MMmdl.
158167  0  0  1  0            999 V2000
  -30.5847  -14.7892   20.3973 C   0  0  0  0  0  0
  -30.4312  -12.4606   19.4891 C   0  0  0  0  0  0
  -29.5098  -12.4351   18.2496 C   0  0  0  0  0  0
  -28.0296  -12.3102   18.6607 C   0  0  0  0  0  0
  -27.6349  -13.2296   19.8482 C   0  0  2  0  0  0
  -28.6813  -13.1961   20.9834 C   0  0  0  0  0  0
  -25.2478  -13.8191   20.5699 C   0  0  0  0  0  0
  -24.1773  -13.0435   20.9208 C   0  0  0  0  0  0
  -24.6364  -11.6917   20.8766 C   0  0  0  0  0  0
  -23.9052  -10.4298   21.0434 C   0  0  0  0  0  0
  -24.3619   -9.4216   21.9199 C   0  0  0  0  0  0
  -23.6307   -8.2248   22.0766 C   0  0  0  0  0  0
  -22.4290   -8.0283   21.3545 C   0  0  0  0  0  0
  -21.9910   -9.0255   20.4659 C   0  0  0  0  0  0
  -22.7229  -10.2138   20.3079 C   0  0  0  0  0  0
  -21.6858   -6.0736   22.5277 C   0  0  0  0  0  0
  -21.4010   -6.5651   23.8206 C   0  0  0  0  0  0
  -21.3668   -5.6811   24.9172 C   0  0  0  0  0  0
  -21.6040   -4.3066   24.7229 C   0  0  0  0  0  0
  -21.8816   -3.8149   23.4353 C   0  0  0  0  0  0
  -21.9190   -4.6959   22.3408 C   0  0  0  0  0  0
  -22.7813  -13.5238   21.1896 C   0  0  0  0  0  0
  -22.1675   -4.2141   21.0984 F   0  0  0  0  0  0
  -21.5618   -3.4559   25.7745 F   0  0  0  0  0  0
  -29.9765  -13.5496   20.3901 N   0  0  0  0  0  0
  -26.2898  -12.9391   20.3297 N   0  0  0  0  0  0
  -25.9290  -11.6542   20.5799 N   0  0  0  0  0  0
  -22.0491  -12.8170   22.0435 N   0  0  0  0  0  0
  -25.4140  -15.1913   20.4134 N   0  0  0  0  0  0
  -31.7827  -14.8736   20.1173 O   0  0  0  0  0  0
  -21.6660   -6.8876   21.4243 O   0  0  0  0  0  0
  -22.3506  -14.5577   20.6808 O   0  0  0  0  0  0
  -24.6308  -31.8553   23.1990 C   0  0  0  0  0  0
  -25.9144  -32.4752   23.8328 C   0  0  1  0  0  0
  -27.2111  -27.2475   20.1336 C   0  0  0  0  0  0
  -25.5932  -33.8559   24.2244 N   0  0  0  0  0  0
  -23.4287  -30.4767   21.5429 C   0  0  2  0  0  0
  -24.8764  -28.9327   20.1042 C   0  0  0  0  0  0
  -22.7524  -29.4560   22.4906 C   0  0  0  0  0  0
  -18.0297  -28.1381   22.8473 C   0  0  0  0  0  0
  -24.1496  -36.7293   23.2638 C   0  0  0  0  0  0
  -25.9763  -30.7615   21.3874 C   0  0  0  0  0  0
  -26.0466  -29.3857   20.7262 C   0  0  0  0  0  0
  -27.2129  -28.5528   20.7360 C   0  0  0  0  0  0
  -26.0256  -26.8863   19.4489 C   0  0  0  0  0  0
  -24.8724  -27.6927   19.4532 C   0  0  0  0  0  0
  -23.6482  -29.8192   20.1562 C   0  0  0  0  0  0
  -25.4125  -36.3070   24.0313 C   0  0  1  0  0  0
  -20.5901  -28.3681   23.1265 C   0  0  2  0  0  0
  -20.6789  -26.9396   22.5407 C   0  0  0  0  0  0
  -19.5763  -26.6376   21.5209 C   0  0  0  0  0  0
  -18.1941  -26.7921   22.1611 C   0  0  0  0  0  0
  -19.1550  -28.8854   23.2853 C   0  0  0  0  0  0
  -18.9463  -30.1456   23.8868 C   0  0  0  0  0  0
  -17.6459  -30.6578   24.0550 C   0  0  0  0  0  0
  -25.9050  -34.9437   23.5076 C   0  0  0  0  0  0
  -16.5353  -29.9075   23.6327 C   0  0  0  0  0  0
  -16.7281  -28.6497   23.0344 C   0  0  0  0  0  0
  -26.4498  -31.6596   25.0732 C   0  0  0  0  0  0
  -25.3704  -31.3756   26.1438 C   0  0  0  0  0  0
  -27.0350  -30.3002   24.6256 C   0  0  0  0  0  0
  -27.6034  -32.4371   25.7506 C   0  0  0  0  0  0
  -27.5589  -37.1794   24.8457 C   0  0  0  0  0  0
  -21.4226  -29.3007   22.3653 N   0  0  0  0  0  0
  -26.4303  -37.3769   23.9388 N   0  0  0  0  0  0
  -24.6975  -31.0503   22.0984 N   0  0  0  0  0  0
  -23.4209  -28.8102   23.3021 O   0  0  0  0  0  0
  -28.2929  -26.3342   20.2406 O   0  0  0  0  0  0
  -26.5631  -34.8917   22.4646 O   0  0  0  0  0  0
  -23.5457  -32.1387   23.7276 O   0  0  0  0  0  0
  -29.6231  -18.5557   20.6182 C   0  0  0  0  0  0
  -30.0588  -19.8990   18.6421 C   0  0  0  0  0  0
  -30.1152  -17.4372   18.4936 C   0  0  0  0  0  0
  -29.6563  -19.8748   19.9847 C   0  0  0  0  0  0
  -29.8931  -17.2974   19.9094 C   0  0  0  0  0  0
  -30.2874  -18.7241   17.9162 C   0  0  0  0  0  0
  -28.4582  -22.1406   20.2611 C   0  0  0  0  0  0
  -30.2698  -23.5138   20.8574 C   0  0  0  0  0  0
  -30.5781  -21.9995   21.0763 C   0  0  0  0  0  0
  -28.7480  -23.6232   20.7373 C   0  0  1  0  0  0
  -28.1097  -24.8688   19.9124 C   0  0  0  0  0  0
  -30.0316  -16.2537   17.5238 C   0  0  0  0  0  0
  -29.4384  -21.2215   20.5784 N   0  0  0  0  0  0
  -29.8022  -15.9373   20.5548 N   0  0  0  0  0  0
  -27.4095  -21.8545   19.6756 O   0  0  0  0  0  0
  -30.6476  -18.8734   16.6172 F   0  0  0  0  0  0
  -31.1477  -15.5303   17.5110 F   0  0  0  0  0  0
  -28.9986  -15.4959   17.8784 F   0  0  0  0  0  0
  -29.7779  -16.6106   16.2642 F   0  0  0  0  0  0
  -31.4695  -12.5840   19.1767 H   0  0  0  0  0  0
  -30.3858  -11.5002   20.0035 H   0  0  0  0  0  0
  -29.7747  -11.5960   17.6060 H   0  0  0  0  0  0
  -29.6720  -13.3162   17.6380 H   0  0  0  0  0  0
  -27.8649  -11.2693   18.9405 H   0  0  0  0  0  0
  -27.3796  -12.4930   17.8048 H   0  0  0  0  0  0
  -27.6122  -14.2427   19.4529 H   0  0  0  0  0  0
  -28.7268  -12.2098   21.4479 H   0  0  0  0  0  0
  -28.4153  -13.8953   21.7784 H   0  0  0  0  0  0
  -25.2763   -9.5696   22.4762 H   0  0  0  0  0  0
  -24.0016   -7.4632   22.7493 H   0  0  0  0  0  0
  -21.0838   -8.8783   19.8968 H   0  0  0  0  0  0
  -22.3688  -10.9690   19.6201 H   0  0  0  0  0  0
  -21.2015   -7.6165   23.9698 H   0  0  0  0  0  0
  -21.1500   -6.0561   25.9074 H   0  0  0  0  0  0
  -22.0584   -2.7613   23.2867 H   0  0  0  0  0  0
  -22.4175  -11.9802   22.4693 H   0  0  0  0  0  0
  -21.1144  -13.1179   22.2788 H   0  0  0  0  0  0
  -24.6398  -15.8371   20.5254 H   0  0  0  0  0  0
  -26.2475  -15.6302   20.0445 H   0  0  0  0  0  0
  -26.7210  -32.5398   23.1070 H   0  0  0  0  0  0
  -25.0088  -33.9693   25.0393 H   0  0  0  0  0  0
  -22.7208  -31.2957   21.3982 H   0  0  0  0  0  0
  -23.3765  -35.9618   23.3291 H   0  0  0  0  0  0
  -24.3587  -36.8942   22.2055 H   0  0  0  0  0  0
  -23.7242  -37.6478   23.6691 H   0  0  0  0  0  0
  -26.1277  -31.5254   20.6233 H   0  0  0  0  0  0
  -26.8493  -30.8005   22.0262 H   0  0  0  0  0  0
  -28.1031  -28.8843   21.2529 H   0  0  0  0  0  0
  -25.9430  -25.9608   18.9013 H   0  0  0  0  0  0
  -23.9835  -27.3502   18.9402 H   0  0  0  0  0  0
  -23.7685  -30.5985   19.4018 H   0  0  0  0  0  0
  -22.7685  -29.2497   19.8514 H   0  0  0  0  0  0
  -25.1309  -36.1922   25.0807 H   0  0  0  0  0  0
  -20.9969  -28.3283   24.1397 H   0  0  0  0  0  0
  -20.5725  -26.2279   23.3610 H   0  0  0  0  0  0
  -21.6655  -26.7442   22.1177 H   0  0  0  0  0  0
  -19.6923  -25.6288   21.1247 H   0  0  0  0  0  0
  -19.6727  -27.3179   20.6733 H   0  0  0  0  0  0
  -17.4216  -26.6669   21.4014 H   0  0  0  0  0  0
  -18.0323  -26.0071   22.9010 H   0  0  0  0  0  0
  -19.7936  -30.7273   24.2243 H   0  0  0  0  0  0
  -17.5011  -31.6260   24.5148 H   0  0  0  0  0  0
  -15.5353  -30.2956   23.7669 H   0  0  0  0  0  0
  -15.8682  -28.0809   22.7058 H   0  0  0  0  0  0
  -24.5878  -30.7115   25.7761 H   0  0  0  0  0  0
  -24.8900  -32.2929   26.4852 H   0  0  0  0  0  0
  -25.8001  -30.8938   27.0230 H   0  0  0  0  0  0
  -26.2938  -29.6743   24.1274 H   0  0  0  0  0  0
  -27.3984  -29.7285   25.4805 H   0  0  0  0  0  0
  -27.8852  -30.4248   23.9546 H   0  0  0  0  0  0
  -27.2612  -33.3687   26.2029 H   0  0  0  0  0  0
  -28.3857  -32.6920   25.0346 H   0  0  0  0  0  0
  -28.0687  -31.8544   26.5460 H   0  0  0  0  0  0
  -28.2584  -38.0115   24.7526 H   0  0  0  0  0  0
  -28.1111  -36.2637   24.6276 H   0  0  0  0  0  0
  -27.2297  -37.1429   25.8858 H   0  0  0  0  0  0
  -20.9430  -29.8723   21.6842 H   0  0  0  0  0  0
  -26.0190  -38.2846   24.1399 H   0  0  0  0  0  0
  -29.3769  -18.5081   21.6695 H   0  0  0  0  0  0
  -30.1755  -20.8450   18.1323 H   0  0  0  0  0  0
  -30.7443  -23.8739   19.9429 H   0  0  0  0  0  0
  -30.6514  -24.1189   21.6794 H   0  0  0  0  0  0
  -30.7143  -21.7810   22.1362 H   0  0  0  0  0  0
  -31.4963  -21.7098   20.5636 H   0  0  0  0  0  0
  -28.3432  -23.6796   21.7486 H   0  0  0  0  0  0
  -27.0509  -24.6326   19.9847 H   0  0  0  0  0  0
  -28.3644  -24.7511   18.8590 H   0  0  0  0  0  0
  -28.9220  -15.7620   21.0161 H   0  0  0  0  0  0
  1 25  1  0  0  0
  1 30  2  0  0  0
  1 84  1  0  0  0
  2  3  1  0  0  0
  2 25  1  0  0  0
  2 90  1  0  0  0
  2 91  1  0  0  0
  3  4  1  0  0  0
  3 92  1  0  0  0
  3 93  1  0  0  0
  4  5  1  0  0  0
  4 94  1  0  0  0
  4 95  1  0  0  0
  5  6  1  0  0  0
  5 26  1  0  0  0
  5 96  1  0  0  0
  6 25  1  0  0  0
  6 97  1  0  0  0
  6 98  1  0  0  0
  7  8  2  0  0  0
  7 26  1  0  0  0
  7 29  1  0  0  0
  8  9  1  0  0  0
  8 22  1  0  0  0
  9 10  1  0  0  0
  9 27  2  0  0  0
 10 11  2  0  0  0
 10 15  1  0  0  0
 11 12  1  0  0  0
 11 99  1  0  0  0
 12 13  2  0  0  0
 12100  1  0  0  0
 13 14  1  0  0  0
 13 31  1  0  0  0
 14 15  2  0  0  0
 14101  1  0  0  0
 15102  1  0  0  0
 16 17  2  0  0  0
 16 21  1  0  0  0
 16 31  1  0  0  0
 17 18  1  0  0  0
 17103  1  0  0  0
 18 19  2  0  0  0
 18104  1  0  0  0
 19 20  1  0  0  0
 19 24  1  0  0  0
 20 21  2  0  0  0
 20105  1  0  0  0
 21 23  1  0  0  0
 22 28  1  0  0  0
 22 32  2  0  0  0
 26 27  1  0  0  0
 28106  1  0  0  0
 28107  1  0  0  0
 29108  1  0  0  0
 29109  1  0  0  0
 33 34  1  0  0  0
 33 66  1  0  0  0
 33 70  2  0  0  0
 34 36  1  0  0  0
 34 59  1  0  0  0
 34110  1  0  0  0
 35 44  2  0  0  0
 35 45  1  0  0  0
 35 68  1  0  0  0
 36 56  1  0  0  0
 36111  1  0  0  0
 37 39  1  0  0  0
 37 47  1  0  0  0
 37 66  1  0  0  0
 37112  1  0  0  0
 38 43  2  0  0  0
 38 46  1  0  0  0
 38 47  1  0  0  0
 39 64  1  0  0  0
 39 67  2  0  0  0
 40 52  1  0  0  0
 40 53  2  0  0  0
 40 58  1  0  0  0
 41113  1  0  0  0
 41114  1  0  0  0
 41115  1  0  0  0
 41 48  1  0  0  0
 42 43  1  0  0  0
 42 66  1  0  0  0
 42116  1  0  0  0
 42117  1  0  0  0
 43 44  1  0  0  0
 44118  1  0  0  0
 45 46  2  0  0  0
 45119  1  0  0  0
 46120  1  0  0  0
 47121  1  0  0  0
 47122  1  0  0  0
 48 56  1  0  0  0
 48 65  1  0  0  0
 48123  1  0  0  0
 49 50  1  0  0  0
 49 53  1  0  0  0
 49 64  1  0  0  0
 49124  1  0  0  0
 50 51  1  0  0  0
 50125  1  0  0  0
 50126  1  0  0  0
 51 52  1  0  0  0
 51127  1  0  0  0
 51128  1  0  0  0
 52129  1  0  0  0
 52130  1  0  0  0
 53 54  1  0  0  0
 54 55  2  0  0  0
 54131  1  0  0  0
 55 57  1  0  0  0
 55132  1  0  0  0
 56 69  2  0  0  0
 57 58  2  0  0  0
 57133  1  0  0  0
 58134  1  0  0  0
 59 60  1  0  0  0
 59 61  1  0  0  0
 59 62  1  0  0  0
 60135  1  0  0  0
 60136  1  0  0  0
 60137  1  0  0  0
 61138  1  0  0  0
 61139  1  0  0  0
 61140  1  0  0  0
 62141  1  0  0  0
 62142  1  0  0  0
 62143  1  0  0  0
 63 65  1  0  0  0
 63144  1  0  0  0
 63145  1  0  0  0
 63146  1  0  0  0
 64147  1  0  0  0
 65148  1  0  0  0
 68 81  1  0  0  0
 71 74  2  0  0  0
 71 75  1  0  0  0
 71149  1  0  0  0
 72 74  1  0  0  0
 72 76  2  0  0  0
 72150  1  0  0  0
 73 75  2  0  0  0
 73 76  1  0  0  0
 73 82  1  0  0  0
 74 83  1  0  0  0
 75 84  1  0  0  0
 76 86  1  0  0  0
 77 80  1  0  0  0
 77 83  1  0  0  0
 77 85  2  0  0  0
 78 79  1  0  0  0
 78 80  1  0  0  0
 78151  1  0  0  0
 78152  1  0  0  0
 79 83  1  0  0  0
 79153  1  0  0  0
 79154  1  0  0  0
 80 81  1  0  0  0
 80155  1  0  0  0
 81156  1  0  0  0
 81157  1  0  0  0
 82 87  1  0  0  0
 82 88  1  0  0  0
 82 89  1  0  0  0
 84158  1  0  0  0
M  ISO  4   1 100  68 101  81 101  84 100
M  END
> <chiral flag>
0

> <version>
0

> <s_m_source_file>
/data/baiqing/PycharmProjects/Reinvent-master-3.2/result/LINK_invent/BTK/process_docking_weight1_custom_product_contain_oxygen_bond_distance_aromatic_linkinvent_7_9_3/rearranged_h_0070.sdf

> <i_m_source_file_index>
24

> <r_mmod_Potential_Energy-OPLS-2005>
451.671264648438

> <r_mmod_Stretch_Energy-OPLS-2005>
137.562042236328

> <r_mmod_Bend_Energy-OPLS-2005>
207.292297363281

> <r_mmod_Torsional_Energy-OPLS-2005>
336.067504882812

> <r_mmod_Improper_Torsional_Energy-OPLS-2005>
7.36648559570312

> <r_mmod_Van_der_Waal_Energy-OPLS-2005>
145.278823852539

> <r_mmod_Electrostatic_Energy-OPLS-2005>
-265.997283935547

> <r_mmod_Solvation_Energy-OPLS-2005>
-222.72932434082

> <b_mmod_Minimization_Converged-OPLS-2005>
0

> <r_mmod_RMS_Derivative-OPLS-2005>
2.67371010780334

$$$$
24
                    3D
 Structure written by MMmdl.
164173  0  0  1  0            999 V2000
  -30.6354  -14.7793   20.3781 C   0  0  0  0  0  0
  -30.4302  -12.4524   19.4967 C   0  0  0  0  0  0
  -29.5166  -12.4994   18.2534 C   0  0  0  0  0  0
  -28.0371  -12.3503   18.6551 C   0  0  0  0  0  0
  -27.6431  -13.2489   19.8544 C   0  0  2  0  0  0
  -28.6972  -13.2268   20.9889 C   0  0  0  0  0  0
  -25.2471  -13.8191   20.5745 C   0  0  0  0  0  0
  -24.1794  -13.0376   20.9236 C   0  0  0  0  0  0
  -24.6447  -11.6895   20.8778 C   0  0  0  0  0  0
  -23.9137  -10.4258   21.0423 C   0  0  0  0  0  0
  -24.3667   -9.4169   21.9200 C   0  0  0  0  0  0
  -23.6297   -8.2235   22.0779 C   0  0  0  0  0  0
  -22.4289   -8.0297   21.3557 C   0  0  0  0  0  0
  -21.9957   -9.0274   20.4653 C   0  0  0  0  0  0
  -22.7324  -10.2122   20.3045 C   0  0  0  0  0  0
  -21.6858   -6.0752   22.5272 C   0  0  0  0  0  0
  -21.4025   -6.5644   23.8216 C   0  0  0  0  0  0
  -21.3651   -5.6785   24.9167 C   0  0  0  0  0  0
  -21.6033   -4.3052   24.7209 C   0  0  0  0  0  0
  -21.8815   -3.8153   23.4329 C   0  0  0  0  0  0
  -21.9186   -4.6974   22.3389 C   0  0  0  0  0  0
  -22.7809  -13.5159   21.1869 C   0  0  0  0  0  0
  -22.1651   -4.2160   21.0965 F   0  0  0  0  0  0
  -21.5618   -3.4536   25.7718 F   0  0  0  0  0  0
  -30.0085  -13.5482   20.4047 N   0  0  0  0  0  0
  -26.2964  -12.9469   20.3347 N   0  0  0  0  0  0
  -25.9400  -11.6588   20.5803 N   0  0  0  0  0  0
  -22.0444  -12.8118   22.0398 N   0  0  0  0  0  0
  -25.3941  -15.1912   20.4221 N   0  0  0  0  0  0
  -31.8024  -14.8538   19.9921 O   0  0  0  0  0  0
  -21.6633   -6.8905   21.4239 O   0  0  0  0  0  0
  -22.3496  -14.5470   20.6721 O   0  0  0  0  0  0
  -24.6286  -31.8531   23.1918 C   0  0  0  0  0  0
  -25.9102  -32.4722   23.8279 C   0  0  1  0  0  0
  -27.2503  -27.2772   20.1125 C   0  0  0  0  0  0
  -25.5911  -33.8545   24.2196 N   0  0  0  0  0  0
  -23.4252  -30.4791   21.5322 C   0  0  2  0  0  0
  -24.8839  -28.9242   20.1078 C   0  0  0  0  0  0
  -22.7476  -29.4618   22.4821 C   0  0  0  0  0  0
  -18.0291  -28.1391   22.8458 C   0  0  0  0  0  0
  -24.1503  -36.7264   23.2652 C   0  0  0  0  0  0
  -25.9709  -30.7765   21.3662 C   0  0  0  0  0  0
  -26.0507  -29.3956   20.7176 C   0  0  0  0  0  0
  -27.2308  -28.5837   20.7159 C   0  0  0  0  0  0
  -26.0549  -26.8816   19.4622 C   0  0  0  0  0  0
  -24.8892  -27.6735   19.4726 C   0  0  0  0  0  0
  -23.6517  -29.8053   20.1517 C   0  0  0  0  0  0
  -25.4124  -36.3054   24.0327 C   0  0  1  0  0  0
  -20.5887  -28.3705   23.1257 C   0  0  2  0  0  0
  -20.6799  -26.9403   22.5401 C   0  0  0  0  0  0
  -19.5779  -26.6373   21.5198 C   0  0  0  0  0  0
  -18.1953  -26.7923   22.1592 C   0  0  0  0  0  0
  -19.1535  -28.8841   23.2889 C   0  0  0  0  0  0
  -18.9478  -30.1456   23.8918 C   0  0  0  0  0  0
  -17.6481  -30.6599   24.0554 C   0  0  0  0  0  0
  -25.9038  -34.9429   23.5049 C   0  0  0  0  0  0
  -16.5387  -29.9113   23.6340 C   0  0  0  0  0  0
  -16.7278  -28.6533   23.0346 C   0  0  0  0  0  0
  -26.4498  -31.6541   25.0642 C   0  0  0  0  0  0
  -25.3746  -31.3709   26.1365 C   0  0  0  0  0  0
  -27.0307  -30.2976   24.6039 C   0  0  0  0  0  0
  -27.6057  -32.4282   25.7446 C   0  0  0  0  0  0
  -27.5571  -37.1786   24.8480 C   0  0  0  0  0  0
  -21.4185  -29.3060   22.3625 N   0  0  0  0  0  0
  -26.4294  -37.3754   23.9421 N   0  0  0  0  0  0
  -24.6934  -31.0530   22.0860 N   0  0  0  0  0  0
  -23.4226  -28.8141   23.2872 O   0  0  0  0  0  0
  -28.3708  -26.4101   20.1846 O   0  0  0  0  0  0
  -26.5643  -34.8922   22.4631 O   0  0  0  0  0  0
  -23.5437  -32.1324   23.7243 O   0  0  0  0  0  0
  -31.3923  -20.1396   22.0128 C   0  0  0  0  0  0
  -30.7531  -21.3197   21.5749 C   0  0  0  0  0  0
  -29.4448  -19.9502   20.0773 C   0  0  0  0  0  0
  -30.0724  -18.6983   20.5122 C   0  0  0  0  0  0
  -31.0870  -18.8578   21.4986 C   0  0  0  0  0  0
  -29.7499  -21.2820   20.5830 C   0  0  0  0  0  0
  -29.1867  -23.8731   20.4530 C   0  0  0  0  0  0
  -27.8639  -17.1855   18.0931 C   0  0  0  0  0  0
  -29.1335  -16.5797   17.5222 C   0  0  0  0  0  0
  -28.1299  -17.2875   19.6028 C   0  0  0  0  0  0
  -30.2198  -17.2093   18.4004 C   0  0  0  0  0  0
  -29.6705  -17.2715   19.8584 C   0  0  0  0  0  0
  -31.9094  -17.6994   22.0438 C   0  0  0  0  0  0
  -28.3017  -24.9808   19.7079 C   0  0  0  0  0  0
  -29.0817  -22.5264   20.1002 N   0  0  0  0  0  0
  -29.8650  -15.9169   20.5929 N   0  0  0  0  0  0
  -29.9602  -24.2598   21.3338 O   0  0  0  0  0  0
  -31.4751  -12.5400   19.1962 H   0  0  0  0  0  0
  -30.3444  -11.4904   20.0058 H   0  0  0  0  0  0
  -29.7942  -11.7162   17.5469 H   0  0  0  0  0  0
  -29.6648  -13.4393   17.7265 H   0  0  0  0  0  0
  -27.8749  -11.3032   18.9089 H   0  0  0  0  0  0
  -27.3904  -12.5641   17.8032 H   0  0  0  0  0  0
  -27.6186  -14.2606   19.4528 H   0  0  0  0  0  0
  -28.7298  -12.2589   21.4880 H   0  0  0  0  0  0
  -28.4391  -13.9575   21.7571 H   0  0  0  0  0  0
  -25.2818   -9.5611   22.4783 H   0  0  0  0  0  0
  -23.9978   -7.4628   22.7511 H   0  0  0  0  0  0
  -21.0890   -8.8801   19.8961 H   0  0  0  0  0  0
  -22.3816  -10.9653   19.6128 H   0  0  0  0  0  0
  -21.2045   -7.6158   23.9712 H   0  0  0  0  0  0
  -21.1476   -6.0525   25.9062 H   0  0  0  0  0  0
  -22.0613   -2.7616   23.2810 H   0  0  0  0  0  0
  -22.4038  -11.9724   22.4681 H   0  0  0  0  0  0
  -21.1044  -13.1124   22.2561 H   0  0  0  0  0  0
  -24.6326  -15.8358   20.6073 H   0  0  0  0  0  0
  -26.2249  -15.6506   20.0780 H   0  0  0  0  0  0
  -26.7154  -32.5391   23.1033 H   0  0  0  0  0  0
  -25.0120  -33.9700   25.0392 H   0  0  0  0  0  0
  -22.7219  -31.3030   21.3833 H   0  0  0  0  0  0
  -23.3749  -35.9608   23.3317 H   0  0  0  0  0  0
  -24.3595  -36.8859   22.2056 H   0  0  0  0  0  0
  -23.7248  -37.6482   23.6664 H   0  0  0  0  0  0
  -26.0897  -31.5330   20.5891 H   0  0  0  0  0  0
  -26.8590  -30.8374   21.9861 H   0  0  0  0  0  0
  -28.1243  -28.9307   21.2127 H   0  0  0  0  0  0
  -25.9787  -25.9433   18.9393 H   0  0  0  0  0  0
  -24.0013  -27.3104   18.9726 H   0  0  0  0  0  0
  -23.7704  -30.5823   19.3925 H   0  0  0  0  0  0
  -22.7728  -29.2339   19.8500 H   0  0  0  0  0  0
  -25.1300  -36.1875   25.0813 H   0  0  0  0  0  0
  -21.0034  -28.3283   24.1365 H   0  0  0  0  0  0
  -20.5670  -26.2293   23.3600 H   0  0  0  0  0  0
  -21.6675  -26.7404   22.1202 H   0  0  0  0  0  0
  -19.6960  -25.6287   21.1225 H   0  0  0  0  0  0
  -19.6762  -27.3195   20.6738 H   0  0  0  0  0  0
  -17.4220  -26.6670   21.4017 H   0  0  0  0  0  0
  -18.0391  -26.0072   22.8982 H   0  0  0  0  0  0
  -19.7977  -30.7269   24.2279 H   0  0  0  0  0  0
  -17.5056  -31.6282   24.5161 H   0  0  0  0  0  0
  -15.5385  -30.3035   23.7660 H   0  0  0  0  0  0
  -15.8684  -28.0901   22.7027 H   0  0  0  0  0  0
  -24.6013  -30.6920   25.7716 H   0  0  0  0  0  0
  -24.8834  -32.2884   26.4661 H   0  0  0  0  0  0
  -25.8088  -30.9038   27.0208 H   0  0  0  0  0  0
  -26.2841  -29.6769   24.1055 H   0  0  0  0  0  0
  -27.4032  -29.7181   25.4483 H   0  0  0  0  0  0
  -27.8702  -30.4271   23.9205 H   0  0  0  0  0  0
  -27.2680  -33.3644   26.1931 H   0  0  0  0  0  0
  -28.3950  -32.6688   25.0307 H   0  0  0  0  0  0
  -28.0592  -31.8401   26.5444 H   0  0  0  0  0  0
  -28.2564  -38.0100   24.7490 H   0  0  0  0  0  0
  -28.1064  -36.2608   24.6327 H   0  0  0  0  0  0
  -27.2299  -37.1471   25.8892 H   0  0  0  0  0  0
  -20.9295  -29.8797   21.6898 H   0  0  0  0  0  0
  -26.0138  -38.2818   24.1442 H   0  0  0  0  0  0
  -32.1573  -20.2423   22.7706 H   0  0  0  0  0  0
  -31.0610  -22.2524   22.0246 H   0  0  0  0  0  0
  -28.6791  -19.8888   19.3192 H   0  0  0  0  0  0
  -26.9662  -16.6121   17.8495 H   0  0  0  0  0  0
  -27.7312  -18.1862   17.6784 H   0  0  0  0  0  0
  -29.2599  -16.8032   16.4610 H   0  0  0  0  0  0
  -29.1136  -15.4981   17.6281 H   0  0  0  0  0  0
  -27.6502  -16.4458   20.0928 H   0  0  0  0  0  0
  -27.6141  -18.1459   20.0284 H   0  0  0  0  0  0
  -30.3425  -18.2229   18.0102 H   0  0  0  0  0  0
  -31.1937  -16.7361   18.2869 H   0  0  0  0  0  0
  -32.8099  -18.0571   22.5487 H   0  0  0  0  0  0
  -32.2606  -17.0485   21.2477 H   0  0  0  0  0  0
  -31.3371  -17.1212   22.7719 H   0  0  0  0  0  0
  -27.2902  -24.5897   19.7392 H   0  0  0  0  0  0
  -28.6087  -24.9810   18.6596 H   0  0  0  0  0  0
  -28.4133  -22.3708   19.3591 H   0  0  0  0  0  0
  -29.0491  -15.6844   21.1314 H   0  0  0  0  0  0
  1 25  1  0  0  0
  1 30  2  0  0  0
  1 86  1  0  0  0
  2  3  1  0  0  0
  2 25  1  0  0  0
  2 88  1  0  0  0
  2 89  1  0  0  0
  3  4  1  0  0  0
  3 90  1  0  0  0
  3 91  1  0  0  0
  4  5  1  0  0  0
  4 92  1  0  0  0
  4 93  1  0  0  0
  5  6  1  0  0  0
  5 26  1  0  0  0
  5 94  1  0  0  0
  6 25  1  0  0  0
  6 95  1  0  0  0
  6 96  1  0  0  0
  7  8  2  0  0  0
  7 26  1  0  0  0
  7 29  1  0  0  0
  8  9  1  0  0  0
  8 22  1  0  0  0
  9 10  1  0  0  0
  9 27  2  0  0  0
 10 11  2  0  0  0
 10 15  1  0  0  0
 11 12  1  0  0  0
 11 97  1  0  0  0
 12 13  2  0  0  0
 12 98  1  0  0  0
 13 14  1  0  0  0
 13 31  1  0  0  0
 14 15  2  0  0  0
 14 99  1  0  0  0
 15100  1  0  0  0
 16 17  2  0  0  0
 16 21  1  0  0  0
 16 31  1  0  0  0
 17 18  1  0  0  0
 17101  1  0  0  0
 18 19  2  0  0  0
 18102  1  0  0  0
 19 20  1  0  0  0
 19 24  1  0  0  0
 20 21  2  0  0  0
 20103  1  0  0  0
 21 23  1  0  0  0
 22 28  1  0  0  0
 22 32  2  0  0  0
 26 27  1  0  0  0
 28104  1  0  0  0
 28105  1  0  0  0
 29106  1  0  0  0
 29107  1  0  0  0
 33 34  1  0  0  0
 33 66  1  0  0  0
 33 70  2  0  0  0
 34 36  1  0  0  0
 34 59  1  0  0  0
 34108  1  0  0  0
 35 44  2  0  0  0
 35 45  1  0  0  0
 35 68  1  0  0  0
 36 56  1  0  0  0
 36109  1  0  0  0
 37 39  1  0  0  0
 37 47  1  0  0  0
 37 66  1  0  0  0
 37110  1  0  0  0
 38 43  2  0  0  0
 38 46  1  0  0  0
 38 47  1  0  0  0
 39 64  1  0  0  0
 39 67  2  0  0  0
 40 52  1  0  0  0
 40 53  2  0  0  0
 40 58  1  0  0  0
 41111  1  0  0  0
 41112  1  0  0  0
 41113  1  0  0  0
 41 48  1  0  0  0
 42 43  1  0  0  0
 42 66  1  0  0  0
 42114  1  0  0  0
 42115  1  0  0  0
 43 44  1  0  0  0
 44116  1  0  0  0
 45 46  2  0  0  0
 45117  1  0  0  0
 46118  1  0  0  0
 47119  1  0  0  0
 47120  1  0  0  0
 48 56  1  0  0  0
 48 65  1  0  0  0
 48121  1  0  0  0
 49 50  1  0  0  0
 49 53  1  0  0  0
 49 64  1  0  0  0
 49122  1  0  0  0
 50 51  1  0  0  0
 50123  1  0  0  0
 50124  1  0  0  0
 51 52  1  0  0  0
 51125  1  0  0  0
 51126  1  0  0  0
 52127  1  0  0  0
 52128  1  0  0  0
 53 54  1  0  0  0
 54 55  2  0  0  0
 54129  1  0  0  0
 55 57  1  0  0  0
 55130  1  0  0  0
 56 69  2  0  0  0
 57 58  2  0  0  0
 57131  1  0  0  0
 58132  1  0  0  0
 59 60  1  0  0  0
 59 61  1  0  0  0
 59 62  1  0  0  0
 60133  1  0  0  0
 60134  1  0  0  0
 60135  1  0  0  0
 61136  1  0  0  0
 61137  1  0  0  0
 61138  1  0  0  0
 62139  1  0  0  0
 62140  1  0  0  0
 62141  1  0  0  0
 63 65  1  0  0  0
 63142  1  0  0  0
 63143  1  0  0  0
 63144  1  0  0  0
 64145  1  0  0  0
 65146  1  0  0  0
 68 84  1  0  0  0
 71 72  2  0  0  0
 71 75  1  0  0  0
 71147  1  0  0  0
 72 76  1  0  0  0
 72148  1  0  0  0
 73 74  1  0  0  0
 73 76  2  0  0  0
 73149  1  0  0  0
 74 75  2  0  0  0
 74 82  1  0  0  0
 75 83  1  0  0  0
 76 85  1  0  0  0
 77 84  1  0  0  0
 77 85  1  0  0  0
 77 87  2  0  0  0
 78 79  1  0  0  0
 78 80  1  0  0  0
 78150  1  0  0  0
 78151  1  0  0  0
 79 81  1  0  0  0
 79152  1  0  0  0
 79153  1  0  0  0
 80 82  1  0  0  0
 80154  1  0  0  0
 80155  1  0  0  0
 81 82  1  0  0  0
 81156  1  0  0  0
 81157  1  0  0  0
 82 86  1  0  0  0
 83158  1  0  0  0
 83159  1  0  0  0
 83160  1  0  0  0
 84161  1  0  0  0
 84162  1  0  0  0
 85163  1  0  0  0
 86164  1  0  0  0
M  ISO  4   1 100  68 101  84 101  86 100
M  END
> <chiral flag>
0

> <version>
0

> <s_m_source_file>
/data/baiqing/PycharmProjects/Reinvent-master-3.2/result/LINK_invent/BTK/process_docking_weight1_custom_product_contain_oxygen_bond_distance_aromatic_linkinvent_7_9_3/rearranged_h_0070.sdf

> <i_m_source_file_index>
25

> <r_mmod_Potential_Energy-OPLS-2005>
210.920196533203

> <r_mmod_Stretch_Energy-OPLS-2005>
144.102279663086

> <r_mmod_Bend_Energy-OPLS-2005>
219.039993286133

> <r_mmod_Torsional_Energy-OPLS-2005>
264.262176513672

> <r_mmod_Improper_Torsional_Energy-OPLS-2005>
6.17904806137085

> <r_mmod_Van_der_Waal_Energy-OPLS-2005>
144.408828735352

> <r_mmod_Electrostatic_Energy-OPLS-2005>
-416.474945068359

> <r_mmod_Solvation_Energy-OPLS-2005>
-242.006652832031

> <b_mmod_Minimization_Converged-OPLS-2005>
0

> <r_mmod_RMS_Derivative-OPLS-2005>
6.63559818267822

$$$$
25
                    3D
 Structure written by MMmdl.
163172  0  0  1  0            999 V2000
  -30.7041  -14.4728   20.4945 C   0  0  0  0  0  0
  -30.4259  -12.2839   19.4274 C   0  0  0  0  0  0
  -29.4927  -12.4488   18.2074 C   0  0  0  0  0  0
  -28.0141  -12.3363   18.6228 C   0  0  0  0  0  0
  -27.6607  -13.2023   19.8629 C   0  0  2  0  0  0
  -28.7065  -13.0182   20.9877 C   0  0  0  0  0  0
  -25.2600  -13.8160   20.5670 C   0  0  0  0  0  0
  -24.1852  -13.0441   20.9178 C   0  0  0  0  0  0
  -24.6403  -11.6910   20.8751 C   0  0  0  0  0  0
  -23.9056  -10.4304   21.0408 C   0  0  0  0  0  0
  -24.3613   -9.4218   21.9178 C   0  0  0  0  0  0
  -23.6295   -8.2251   22.0752 C   0  0  0  0  0  0
  -22.4275   -8.0286   21.3548 C   0  0  0  0  0  0
  -21.9902   -9.0258   20.4652 C   0  0  0  0  0  0
  -22.7225  -10.2142   20.3061 C   0  0  0  0  0  0
  -21.6862   -6.0736   22.5282 C   0  0  0  0  0  0
  -21.4019   -6.5639   23.8215 C   0  0  0  0  0  0
  -21.3657   -5.6785   24.9173 C   0  0  0  0  0  0
  -21.6043   -4.3051   24.7216 C   0  0  0  0  0  0
  -21.8815   -3.8145   23.4339 C   0  0  0  0  0  0
  -21.9198   -4.6966   22.3401 C   0  0  0  0  0  0
  -22.7872  -13.5249   21.1813 C   0  0  0  0  0  0
  -22.1659   -4.2153   21.0977 F   0  0  0  0  0  0
  -21.5630   -3.4535   25.7729 F   0  0  0  0  0  0
  -30.0389  -13.2912   20.4244 N   0  0  0  0  0  0
  -26.3031  -12.9326   20.3326 N   0  0  0  0  0  0
  -25.9326  -11.6497   20.5774 N   0  0  0  0  0  0
  -22.0490  -12.8285   22.0387 N   0  0  0  0  0  0
  -25.4302  -15.1880   20.4078 N   0  0  0  0  0  0
  -31.8907  -14.6030   20.1838 O   0  0  0  0  0  0
  -21.6647   -6.8882   21.4244 O   0  0  0  0  0  0
  -22.3562  -14.5540   20.6626 O   0  0  0  0  0  0
  -24.6119  -31.8698   23.2112 C   0  0  0  0  0  0
  -25.9035  -32.4831   23.8389 C   0  0  1  0  0  0
  -27.2388  -27.4637   20.0989 C   0  0  0  0  0  0
  -25.5891  -33.8617   24.2328 N   0  0  0  0  0  0
  -23.3993  -30.4925   21.5488 C   0  0  2  0  0  0
  -24.8501  -28.9628   20.1117 C   0  0  0  0  0  0
  -22.7392  -29.4677   22.4993 C   0  0  0  0  0  0
  -18.0267  -28.1395   22.8477 C   0  0  0  0  0  0
  -24.1478  -36.7317   23.2642 C   0  0  0  0  0  0
  -25.9245  -30.8442   21.3621 C   0  0  0  0  0  0
  -26.0046  -29.4791   20.7140 C   0  0  0  0  0  0
  -27.2031  -28.7339   20.7130 C   0  0  0  0  0  0
  -26.0766  -26.9570   19.4842 C   0  0  0  0  0  0
  -24.8788  -27.6989   19.4943 C   0  0  0  0  0  0
  -23.6088  -29.8244   20.1636 C   0  0  0  0  0  0
  -25.4094  -36.3098   24.0340 C   0  0  1  0  0  0
  -20.5857  -28.3680   23.1321 C   0  0  2  0  0  0
  -20.6767  -26.9422   22.5419 C   0  0  0  0  0  0
  -19.5754  -26.6397   21.5210 C   0  0  0  0  0  0
  -18.1924  -26.7941   22.1612 C   0  0  0  0  0  0
  -19.1517  -28.8849   23.2903 C   0  0  0  0  0  0
  -18.9453  -30.1450   23.8920 C   0  0  0  0  0  0
  -17.6459  -30.6595   24.0569 C   0  0  0  0  0  0
  -25.9019  -34.9470   23.5126 C   0  0  0  0  0  0
  -16.5346  -29.9104   23.6321 C   0  0  0  0  0  0
  -16.7258  -28.6525   23.0335 C   0  0  0  0  0  0
  -26.4481  -31.6596   25.0698 C   0  0  0  0  0  0
  -25.3776  -31.3701   26.1464 C   0  0  0  0  0  0
  -27.0312  -30.3030   24.6070 C   0  0  0  0  0  0
  -27.6074  -32.4301   25.7446 C   0  0  0  0  0  0
  -27.5579  -37.1804   24.8463 C   0  0  0  0  0  0
  -21.4121  -29.3043   22.3719 N   0  0  0  0  0  0
  -26.4283  -37.3779   23.9415 N   0  0  0  0  0  0
  -24.6627  -31.0820   22.1004 N   0  0  0  0  0  0
  -23.4167  -28.8235   23.3042 O   0  0  0  0  0  0
  -28.3716  -26.6905   20.1067 O   0  0  0  0  0  0
  -26.5575  -34.8930   22.4684 O   0  0  0  0  0  0
  -23.5319  -32.1445   23.7524 O   0  0  0  0  0  0
  -30.5282  -18.5591   18.4666 C   0  0  0  0  0  0
  -30.2802  -19.5844   19.3862 C   0  0  0  0  0  0
  -29.8647  -17.9313   21.1036 C   0  0  0  0  0  0
  -30.4468  -17.1977   18.8270 C   0  0  0  0  0  0
  -29.9388  -19.3013   20.7260 C   0  0  0  0  0  0
  -30.1188  -16.8788   20.1848 C   0  0  0  0  0  0
  -29.2452  -20.3827   22.8952 C   0  0  0  0  0  0
  -30.6701  -16.4130   16.4259 C   0  0  0  0  0  0
  -30.6372  -16.1927   17.7521 C   0  0  0  0  0  0
  -29.0187  -21.7845   23.4427 C   0  0  0  0  0  0
  -29.7707  -21.8034   21.1570 C   0  0  0  0  0  0
  -29.6688  -22.6922   22.4028 C   0  0  1  0  0  0
  -28.6722  -26.1607   21.4003 C   0  0  0  0  0  0
  -29.4520  -24.8319   21.3053 C   0  0  0  0  0  0
  -29.6734  -20.4104   21.6149 N   0  0  0  0  0  0
  -29.9124  -15.5457   20.6677 N   0  0  0  0  0  0
  -29.0376  -19.3889   23.5977 O   0  0  0  0  0  0
  -28.8959  -23.8796   22.2147 O   0  0  0  0  0  0
  -31.4689  -12.3812   19.1172 H   0  0  0  0  0  0
  -30.3295  -11.2836   19.8516 H   0  0  0  0  0  0
  -29.7239  -11.6899   17.4597 H   0  0  0  0  0  0
  -29.6555  -13.4055   17.7169 H   0  0  0  0  0  0
  -27.8180  -11.2853   18.8378 H   0  0  0  0  0  0
  -27.3679  -12.5974   17.7839 H   0  0  0  0  0  0
  -27.6935  -14.2418   19.5365 H   0  0  0  0  0  0
  -28.6758  -11.9990   21.3741 H   0  0  0  0  0  0
  -28.4836  -13.6687   21.8359 H   0  0  0  0  0  0
  -25.2763   -9.5702   22.4740 H   0  0  0  0  0  0
  -24.0016   -7.4646   22.7473 H   0  0  0  0  0  0
  -21.0825   -8.8767   19.8969 H   0  0  0  0  0  0
  -22.3668  -10.9675   19.6173 H   0  0  0  0  0  0
  -21.2008   -7.6147   23.9720 H   0  0  0  0  0  0
  -21.1483   -6.0517   25.9078 H   0  0  0  0  0  0
  -22.0597   -2.7610   23.2836 H   0  0  0  0  0  0
  -22.4094  -11.9994   22.4872 H   0  0  0  0  0  0
  -21.1092  -13.1322   22.2513 H   0  0  0  0  0  0
  -24.6572  -15.8350   20.5184 H   0  0  0  0  0  0
  -26.2768  -15.6361   20.0799 H   0  0  0  0  0  0
  -26.7103  -32.5557   23.1151 H   0  0  0  0  0  0
  -25.0042  -33.9777   25.0472 H   0  0  0  0  0  0
  -22.6868  -31.3087   21.4096 H   0  0  0  0  0  0
  -23.3721  -35.9672   23.3315 H   0  0  0  0  0  0
  -24.3565  -36.8915   22.2057 H   0  0  0  0  0  0
  -23.7253  -37.6537   23.6648 H   0  0  0  0  0  0
  -26.0308  -31.6096   20.5924 H   0  0  0  0  0  0
  -26.8147  -30.9013   21.9762 H   0  0  0  0  0  0
  -28.0938  -29.1281   21.1837 H   0  0  0  0  0  0
  -26.0955  -25.9835   19.0151 H   0  0  0  0  0  0
  -23.9912  -27.2973   19.0242 H   0  0  0  0  0  0
  -23.7106  -30.5977   19.4008 H   0  0  0  0  0  0
  -22.7363  -29.2380   19.8717 H   0  0  0  0  0  0
  -25.1270  -36.1948   25.0832 H   0  0  0  0  0  0
  -20.9943  -28.3254   24.1449 H   0  0  0  0  0  0
  -20.5675  -26.2291   23.3611 H   0  0  0  0  0  0
  -21.6641  -26.7475   22.1219 H   0  0  0  0  0  0
  -19.6922  -25.6310   21.1242 H   0  0  0  0  0  0
  -19.6713  -27.3205   20.6743 H   0  0  0  0  0  0
  -17.4208  -26.6689   21.4006 H   0  0  0  0  0  0
  -18.0325  -26.0086   22.9012 H   0  0  0  0  0  0
  -19.7932  -30.7246   24.2315 H   0  0  0  0  0  0
  -17.5025  -31.6279   24.5174 H   0  0  0  0  0  0
  -15.5355  -30.3028   23.7637 H   0  0  0  0  0  0
  -15.8654  -28.0861   22.7039 H   0  0  0  0  0  0
  -24.5880  -30.7143   25.7784 H   0  0  0  0  0  0
  -24.9074  -32.2881   26.4997 H   0  0  0  0  0  0
  -25.8144  -30.8761   27.0154 H   0  0  0  0  0  0
  -26.2847  -29.6745   24.1212 H   0  0  0  0  0  0
  -27.4171  -29.7312   25.4522 H   0  0  0  0  0  0
  -27.8640  -30.4341   23.9152 H   0  0  0  0  0  0
  -27.2687  -33.3570   26.2080 H   0  0  0  0  0  0
  -28.3842  -32.6912   25.0246 H   0  0  0  0  0  0
  -28.0793  -31.8396   26.5308 H   0  0  0  0  0  0
  -28.2591  -38.0100   24.7464 H   0  0  0  0  0  0
  -28.1069  -36.2624   24.6309 H   0  0  0  0  0  0
  -27.2308  -37.1482   25.8871 H   0  0  0  0  0  0
  -20.9286  -29.8745   21.6925 H   0  0  0  0  0  0
  -26.0168  -38.2860   24.1404 H   0  0  0  0  0  0
  -30.7733  -18.8558   17.4594 H   0  0  0  0  0  0
  -30.3462  -20.5948   19.0122 H   0  0  0  0  0  0
  -29.6015  -17.6514   22.1115 H   0  0  0  0  0  0
  -30.8357  -15.5893   15.7447 H   0  0  0  0  0  0
  -30.5378  -17.3867   15.9813 H   0  0  0  0  0  0
  -30.7920  -15.1743   18.0432 H   0  0  0  0  0  0
  -29.4574  -21.9081   24.4320 H   0  0  0  0  0  0
  -27.9451  -21.9606   23.5111 H   0  0  0  0  0  0
  -30.7085  -22.0032   20.6367 H   0  0  0  0  0  0
  -28.9450  -21.9986   20.4713 H   0  0  0  0  0  0
  -30.6713  -22.9535   22.7485 H   0  0  0  0  0  0
  -29.2324  -26.8901   21.9865 H   0  0  0  0  0  0
  -27.7432  -25.9770   21.9472 H   0  0  0  0  0  0
  -30.5086  -25.0063   21.5135 H   0  0  0  0  0  0
  -29.3886  -24.4339   20.2920 H   0  0  0  0  0  0
  -29.0020  -15.3527   21.0564 H   0  0  0  0  0  0
  1 25  1  0  0  0
  1 30  2  0  0  0
  1 86  1  0  0  0
  2  3  1  0  0  0
  2 25  1  0  0  0
  2 89  1  0  0  0
  2 90  1  0  0  0
  3  4  1  0  0  0
  3 91  1  0  0  0
  3 92  1  0  0  0
  4  5  1  0  0  0
  4 93  1  0  0  0
  4 94  1  0  0  0
  5  6  1  0  0  0
  5 26  1  0  0  0
  5 95  1  0  0  0
  6 25  1  0  0  0
  6 96  1  0  0  0
  6 97  1  0  0  0
  7  8  2  0  0  0
  7 26  1  0  0  0
  7 29  1  0  0  0
  8  9  1  0  0  0
  8 22  1  0  0  0
  9 10  1  0  0  0
  9 27  2  0  0  0
 10 11  2  0  0  0
 10 15  1  0  0  0
 11 12  1  0  0  0
 11 98  1  0  0  0
 12 13  2  0  0  0
 12 99  1  0  0  0
 13 14  1  0  0  0
 13 31  1  0  0  0
 14 15  2  0  0  0
 14100  1  0  0  0
 15101  1  0  0  0
 16 17  2  0  0  0
 16 21  1  0  0  0
 16 31  1  0  0  0
 17 18  1  0  0  0
 17102  1  0  0  0
 18 19  2  0  0  0
 18103  1  0  0  0
 19 20  1  0  0  0
 19 24  1  0  0  0
 20 21  2  0  0  0
 20104  1  0  0  0
 21 23  1  0  0  0
 22 28  1  0  0  0
 22 32  2  0  0  0
 26 27  1  0  0  0
 28105  1  0  0  0
 28106  1  0  0  0
 29107  1  0  0  0
 29108  1  0  0  0
 33 34  1  0  0  0
 33 66  1  0  0  0
 33 70  2  0  0  0
 34 36  1  0  0  0
 34 59  1  0  0  0
 34109  1  0  0  0
 35 44  2  0  0  0
 35 45  1  0  0  0
 35 68  1  0  0  0
 36 56  1  0  0  0
 36110  1  0  0  0
 37 39  1  0  0  0
 37 47  1  0  0  0
 37 66  1  0  0  0
 37111  1  0  0  0
 38 43  2  0  0  0
 38 46  1  0  0  0
 38 47  1  0  0  0
 39 64  1  0  0  0
 39 67  2  0  0  0
 40 52  1  0  0  0
 40 53  2  0  0  0
 40 58  1  0  0  0
 41112  1  0  0  0
 41113  1  0  0  0
 41114  1  0  0  0
 41 48  1  0  0  0
 42 43  1  0  0  0
 42 66  1  0  0  0
 42115  1  0  0  0
 42116  1  0  0  0
 43 44  1  0  0  0
 44117  1  0  0  0
 45 46  2  0  0  0
 45118  1  0  0  0
 46119  1  0  0  0
 47120  1  0  0  0
 47121  1  0  0  0
 48 56  1  0  0  0
 48 65  1  0  0  0
 48122  1  0  0  0
 49 50  1  0  0  0
 49 53  1  0  0  0
 49 64  1  0  0  0
 49123  1  0  0  0
 50 51  1  0  0  0
 50124  1  0  0  0
 50125  1  0  0  0
 51 52  1  0  0  0
 51126  1  0  0  0
 51127  1  0  0  0
 52128  1  0  0  0
 52129  1  0  0  0
 53 54  1  0  0  0
 54 55  2  0  0  0
 54130  1  0  0  0
 55 57  1  0  0  0
 55131  1  0  0  0
 56 69  2  0  0  0
 57 58  2  0  0  0
 57132  1  0  0  0
 58133  1  0  0  0
 59 60  1  0  0  0
 59 61  1  0  0  0
 59 62  1  0  0  0
 60134  1  0  0  0
 60135  1  0  0  0
 60136  1  0  0  0
 61137  1  0  0  0
 61138  1  0  0  0
 61139  1  0  0  0
 62140  1  0  0  0
 62141  1  0  0  0
 62142  1  0  0  0
 63 65  1  0  0  0
 63143  1  0  0  0
 63144  1  0  0  0
 63145  1  0  0  0
 64146  1  0  0  0
 65147  1  0  0  0
 68 83  1  0  0  0
 71 72  2  0  0  0
 71 74  1  0  0  0
 71148  1  0  0  0
 72 75  1  0  0  0
 72149  1  0  0  0
 73 75  2  0  0  0
 73 76  1  0  0  0
 73150  1  0  0  0
 74 76  2  0  0  0
 74 79  1  0  0  0
 75 85  1  0  0  0
 76 86  1  0  0  0
 77 80  1  0  0  0
 77 85  1  0  0  0
 77 87  2  0  0  0
 78 79  2  0  0  0
 78151  1  0  0  0
 78152  1  0  0  0
 79153  1  0  0  0
 80 82  1  0  0  0
 80154  1  0  0  0
 80155  1  0  0  0
 81 82  1  0  0  0
 81 85  1  0  0  0
 81156  1  0  0  0
 81157  1  0  0  0
 82 88  1  0  0  0
 82158  1  0  0  0
 83 84  1  0  0  0
 83159  1  0  0  0
 83160  1  0  0  0
 84 88  1  0  0  0
 84161  1  0  0  0
 84162  1  0  0  0
 86163  1  0  0  0
M  ISO  4   1 100  68 101  83 101  86 100
M  END
> <chiral flag>
0

> <version>
0

> <s_m_source_file>
/data/baiqing/PycharmProjects/Reinvent-master-3.2/result/LINK_invent/BTK/process_docking_weight1_custom_product_contain_oxygen_bond_distance_aromatic_linkinvent_7_9_3/rearranged_h_0070.sdf

> <i_m_source_file_index>
26

> <r_mmod_Potential_Energy-OPLS-2005>
82.7137603759766

> <r_mmod_Stretch_Energy-OPLS-2005>
40.7092170715332

> <r_mmod_Bend_Energy-OPLS-2005>
128.587585449219

> <r_mmod_Torsional_Energy-OPLS-2005>
315.361633300781

> <r_mmod_Improper_Torsional_Energy-OPLS-2005>
7.05444669723511

> <r_mmod_Van_der_Waal_Energy-OPLS-2005>
167.97102355957

> <r_mmod_Electrostatic_Energy-OPLS-2005>
-371.124877929688

> <r_mmod_Solvation_Energy-OPLS-2005>
-223.437408447266

> <b_mmod_Minimization_Converged-OPLS-2005>
0

> <r_mmod_RMS_Derivative-OPLS-2005>
1.85513293743134

$$$$
26
                    3D
 Structure written by MMmdl.
150158  0  0  1  0            999 V2000
  -30.5904  -14.8018   20.4190 C   0  0  0  0  0  0
  -30.4294  -12.4828   19.4935 C   0  0  0  0  0  0
  -29.5133  -12.5065   18.2495 C   0  0  0  0  0  0
  -28.0413  -12.3215   18.6610 C   0  0  0  0  0  0
  -27.6363  -13.2360   19.8467 C   0  0  2  0  0  0
  -28.6774  -13.2035   20.9867 C   0  0  0  0  0  0
  -25.2485  -13.8208   20.5701 C   0  0  0  0  0  0
  -24.1777  -13.0445   20.9208 C   0  0  0  0  0  0
  -24.6373  -11.6924   20.8750 C   0  0  0  0  0  0
  -23.9052  -10.4292   21.0409 C   0  0  0  0  0  0
  -24.3613   -9.4211   21.9187 C   0  0  0  0  0  0
  -23.6292   -8.2246   22.0757 C   0  0  0  0  0  0
  -22.4275   -8.0279   21.3542 C   0  0  0  0  0  0
  -21.9904   -9.0248   20.4649 C   0  0  0  0  0  0
  -22.7223  -10.2131   20.3055 C   0  0  0  0  0  0
  -21.6861   -6.0734   22.5278 C   0  0  0  0  0  0
  -21.4012   -6.5639   23.8206 C   0  0  0  0  0  0
  -21.3661   -5.6796   24.9173 C   0  0  0  0  0  0
  -21.6037   -4.3056   24.7226 C   0  0  0  0  0  0
  -21.8818   -3.8143   23.4349 C   0  0  0  0  0  0
  -21.9190   -4.6959   22.3403 C   0  0  0  0  0  0
  -22.7800  -13.5219   21.1873 C   0  0  0  0  0  0
  -22.1662   -4.2146   21.0982 F   0  0  0  0  0  0
  -21.5632   -3.4539   25.7742 F   0  0  0  0  0  0
  -29.9761  -13.5638   20.4057 N   0  0  0  0  0  0
  -26.2900  -12.9417   20.3263 N   0  0  0  0  0  0
  -25.9302  -11.6561   20.5755 N   0  0  0  0  0  0
  -22.0449  -12.8210   22.0444 N   0  0  0  0  0  0
  -25.4169  -15.1935   20.4118 N   0  0  0  0  0  0
  -31.7854  -14.8699   20.1150 O   0  0  0  0  0  0
  -21.6638   -6.8878   21.4239 O   0  0  0  0  0  0
  -22.3477  -14.5520   20.6722 O   0  0  0  0  0  0
  -24.6336  -31.8513   23.1934 C   0  0  0  0  0  0
  -25.9151  -32.4725   23.8298 C   0  0  1  0  0  0
  -27.2203  -27.2278   20.1228 C   0  0  0  0  0  0
  -25.5930  -33.8532   24.2223 N   0  0  0  0  0  0
  -23.4330  -30.4726   21.5370 C   0  0  2  0  0  0
  -24.8797  -28.9118   20.1046 C   0  0  0  0  0  0
  -22.7529  -29.4582   22.4878 C   0  0  0  0  0  0
  -18.0299  -28.1399   22.8478 C   0  0  0  0  0  0
  -24.1488  -36.7275   23.2642 C   0  0  0  0  0  0
  -25.9814  -30.7511   21.3796 C   0  0  0  0  0  0
  -26.0514  -29.3718   20.7179 C   0  0  0  0  0  0
  -27.2203  -28.5401   20.7178 C   0  0  0  0  0  0
  -26.0224  -26.8407   19.4831 C   0  0  0  0  0  0
  -24.8709  -27.6559   19.4782 C   0  0  0  0  0  0
  -23.6539  -29.8045   20.1540 C   0  0  0  0  0  0
  -25.4117  -36.3049   24.0318 C   0  0  1  0  0  0
  -20.5906  -28.3715   23.1249 C   0  0  2  0  0  0
  -20.6785  -26.9422   22.5409 C   0  0  0  0  0  0
  -19.5755  -26.6383   21.5221 C   0  0  0  0  0  0
  -18.1939  -26.7938   22.1628 C   0  0  0  0  0  0
  -19.1555  -28.8875   23.2857 C   0  0  0  0  0  0
  -18.9471  -30.1476   23.8874 C   0  0  0  0  0  0
  -17.6474  -30.6592   24.0572 C   0  0  0  0  0  0
  -25.9055  -34.9425   23.5076 C   0  0  0  0  0  0
  -16.5364  -29.9093   23.6328 C   0  0  0  0  0  0
  -16.7289  -28.6514   23.0345 C   0  0  0  0  0  0
  -26.4511  -31.6573   25.0715 C   0  0  0  0  0  0
  -25.3729  -31.3764   26.1440 C   0  0  0  0  0  0
  -27.0372  -30.2965   24.6267 C   0  0  0  0  0  0
  -27.6044  -32.4343   25.7500 C   0  0  0  0  0  0
  -27.5568  -37.1794   24.8468 C   0  0  0  0  0  0
  -21.4232  -29.3046   22.3632 N   0  0  0  0  0  0
  -26.4288  -37.3751   23.9402 N   0  0  0  0  0  0
  -24.7018  -31.0446   22.0923 N   0  0  0  0  0  0
  -23.4217  -28.8128   23.2998 O   0  0  0  0  0  0
  -28.3037  -26.3133   20.2259 O   0  0  0  0  0  0
  -26.5643  -34.8917   22.4655 O   0  0  0  0  0  0
  -23.5475  -32.1356   23.7199 O   0  0  0  0  0  0
  -29.3879  -18.6067   20.5267 C   0  0  0  0  0  0
  -30.2924  -19.8983   18.6751 C   0  0  0  0  0  0
  -30.7363  -17.4852   18.8409 C   0  0  0  0  0  0
  -29.5245  -19.9161   19.8631 C   0  0  0  0  0  0
  -29.9874  -17.3525   20.0341 C   0  0  0  0  0  0
  -30.8833  -18.7201   18.1799 C   0  0  0  0  0  0
  -28.2903  -24.9706   19.7103 C   0  0  0  0  0  0
  -28.6338  -23.7696   20.3436 C   0  0  0  0  0  0
  -28.7126  -22.4230   19.6306 C   0  0  0  0  0  0
  -29.0302  -21.2582   20.3473 N   0  0  0  0  0  0
  -29.8277  -15.9656   20.6077 N   0  0  0  0  0  0
  -28.4825  -22.3386   18.4221 O   0  0  0  0  0  0
  -28.9419  -23.8018   21.6466 O   0  0  0  0  0  0
  -31.6123  -18.7757   17.0401 F   0  0  0  0  0  0
  -31.4713  -12.6029   19.1930 H   0  0  0  0  0  0
  -30.3765  -11.5155   19.9954 H   0  0  0  0  0  0
  -29.8091  -11.7253   17.5482 H   0  0  0  0  0  0
  -29.6306  -13.4537   17.7208 H   0  0  0  0  0  0
  -27.9103  -11.2764   18.9419 H   0  0  0  0  0  0
  -27.3822  -12.4907   17.8082 H   0  0  0  0  0  0
  -27.6220  -14.2502   19.4464 H   0  0  0  0  0  0
  -28.7223  -12.2151   21.4471 H   0  0  0  0  0  0
  -28.3989  -13.9000   21.7792 H   0  0  0  0  0  0
  -25.2758   -9.5697   22.4757 H   0  0  0  0  0  0
  -24.0005   -7.4639   22.7476 H   0  0  0  0  0  0
  -21.0843   -8.8751   19.8960 H   0  0  0  0  0  0
  -22.3669  -10.9667   19.6162 H   0  0  0  0  0  0
  -21.2001   -7.6146   23.9711 H   0  0  0  0  0  0
  -21.1489   -6.0527   25.9078 H   0  0  0  0  0  0
  -22.0595   -2.7604   23.2847 H   0  0  0  0  0  0
  -22.4078  -11.9870   22.4825 H   0  0  0  0  0  0
  -21.1061  -13.1227   22.2652 H   0  0  0  0  0  0
  -24.6478  -15.8458   20.5185 H   0  0  0  0  0  0
  -26.2613  -15.6335   20.0688 H   0  0  0  0  0  0
  -26.7234  -32.5347   23.1046 H   0  0  0  0  0  0
  -25.0067  -33.9670   25.0356 H   0  0  0  0  0  0
  -22.7305  -31.2949   21.3874 H   0  0  0  0  0  0
  -23.3739  -35.9619   23.3321 H   0  0  0  0  0  0
  -24.3559  -36.8883   22.2051 H   0  0  0  0  0  0
  -23.7274  -37.6493   23.6667 H   0  0  0  0  0  0
  -26.1298  -31.5110   20.6116 H   0  0  0  0  0  0
  -26.8561  -30.7953   22.0175 H   0  0  0  0  0  0
  -28.1143  -28.8815   21.2201 H   0  0  0  0  0  0
  -25.9423  -25.8723   19.0117 H   0  0  0  0  0  0
  -23.9702  -27.2965   19.0000 H   0  0  0  0  0  0
  -23.7845  -30.5798   19.3995 H   0  0  0  0  0  0
  -22.7711  -29.2430   19.8449 H   0  0  0  0  0  0
  -25.1305  -36.1878   25.0812 H   0  0  0  0  0  0
  -20.9998  -28.3302   24.1370 H   0  0  0  0  0  0
  -20.5676  -26.2330   23.3636 H   0  0  0  0  0  0
  -21.6653  -26.7433   22.1202 H   0  0  0  0  0  0
  -19.6911  -25.6294   21.1248 H   0  0  0  0  0  0
  -19.6679  -27.3194   20.6758 H   0  0  0  0  0  0
  -17.4206  -26.6692   21.4031 H   0  0  0  0  0  0
  -18.0314  -26.0096   22.9030 H   0  0  0  0  0  0
  -19.7953  -30.7304   24.2209 H   0  0  0  0  0  0
  -17.5028  -31.6254   24.5209 H   0  0  0  0  0  0
  -15.5360  -30.2996   23.7660 H   0  0  0  0  0  0
  -15.8693  -28.0841   22.7053 H   0  0  0  0  0  0
  -24.5894  -30.7111   25.7796 H   0  0  0  0  0  0
  -24.8936  -32.2955   26.4821 H   0  0  0  0  0  0
  -25.8023  -30.8985   27.0252 H   0  0  0  0  0  0
  -26.2979  -29.6697   24.1265 H   0  0  0  0  0  0
  -27.3999  -29.7243   25.4824 H   0  0  0  0  0  0
  -27.8879  -30.4213   23.9566 H   0  0  0  0  0  0
  -27.2624  -33.3648   26.2052 H   0  0  0  0  0  0
  -28.3871  -32.6901   25.0346 H   0  0  0  0  0  0
  -28.0717  -31.8506   26.5450 H   0  0  0  0  0  0
  -28.2603  -38.0070   24.7460 H   0  0  0  0  0  0
  -28.1047  -36.2592   24.6352 H   0  0  0  0  0  0
  -27.2279  -37.1515   25.8873 H   0  0  0  0  0  0
  -20.9426  -29.8785   21.6843 H   0  0  0  0  0  0
  -26.0155  -38.2821   24.1380 H   0  0  0  0  0  0
  -28.8090  -18.5656   21.4391 H   0  0  0  0  0  0
  -30.4709  -20.8086   18.1217 H   0  0  0  0  0  0
  -31.2021  -16.6255   18.3817 H   0  0  0  0  0  0
  -28.0174  -24.9774   18.6644 H   0  0  0  0  0  0
  -29.0035  -21.3847   21.3503 H   0  0  0  0  0  0
  -28.9424  -15.7963   21.0613 H   0  0  0  0  0  0
  -28.8605  -24.7058   21.9236 H   0  0  0  0  0  0
  1 25  1  0  0  0
  1 30  2  0  0  0
  1 81  1  0  0  0
  2  3  1  0  0  0
  2 25  1  0  0  0
  2 85  1  0  0  0
  2 86  1  0  0  0
  3  4  1  0  0  0
  3 87  1  0  0  0
  3 88  1  0  0  0
  4  5  1  0  0  0
  4 89  1  0  0  0
  4 90  1  0  0  0
  5  6  1  0  0  0
  5 26  1  0  0  0
  5 91  1  0  0  0
  6 25  1  0  0  0
  6 92  1  0  0  0
  6 93  1  0  0  0
  7  8  2  0  0  0
  7 26  1  0  0  0
  7 29  1  0  0  0
  8  9  1  0  0  0
  8 22  1  0  0  0
  9 10  1  0  0  0
  9 27  2  0  0  0
 10 11  2  0  0  0
 10 15  1  0  0  0
 11 12  1  0  0  0
 11 94  1  0  0  0
 12 13  2  0  0  0
 12 95  1  0  0  0
 13 14  1  0  0  0
 13 31  1  0  0  0
 14 15  2  0  0  0
 14 96  1  0  0  0
 15 97  1  0  0  0
 16 17  2  0  0  0
 16 21  1  0  0  0
 16 31  1  0  0  0
 17 18  1  0  0  0
 17 98  1  0  0  0
 18 19  2  0  0  0
 18 99  1  0  0  0
 19 20  1  0  0  0
 19 24  1  0  0  0
 20 21  2  0  0  0
 20100  1  0  0  0
 21 23  1  0  0  0
 22 28  1  0  0  0
 22 32  2  0  0  0
 26 27  1  0  0  0
 28101  1  0  0  0
 28102  1  0  0  0
 29103  1  0  0  0
 29104  1  0  0  0
 33 34  1  0  0  0
 33 66  1  0  0  0
 33 70  2  0  0  0
 34 36  1  0  0  0
 34 59  1  0  0  0
 34105  1  0  0  0
 35 44  2  0  0  0
 35 45  1  0  0  0
 35 68  1  0  0  0
 36 56  1  0  0  0
 36106  1  0  0  0
 37 39  1  0  0  0
 37 47  1  0  0  0
 37 66  1  0  0  0
 37107  1  0  0  0
 38 43  2  0  0  0
 38 46  1  0  0  0
 38 47  1  0  0  0
 39 64  1  0  0  0
 39 67  2  0  0  0
 40 52  1  0  0  0
 40 53  2  0  0  0
 40 58  1  0  0  0
 41108  1  0  0  0
 41109  1  0  0  0
 41110  1  0  0  0
 41 48  1  0  0  0
 42 43  1  0  0  0
 42 66  1  0  0  0
 42111  1  0  0  0
 42112  1  0  0  0
 43 44  1  0  0  0
 44113  1  0  0  0
 45 46  2  0  0  0
 45114  1  0  0  0
 46115  1  0  0  0
 47116  1  0  0  0
 47117  1  0  0  0
 48 56  1  0  0  0
 48 65  1  0  0  0
 48118  1  0  0  0
 49 50  1  0  0  0
 49 53  1  0  0  0
 49 64  1  0  0  0
 49119  1  0  0  0
 50 51  1  0  0  0
 50120  1  0  0  0
 50121  1  0  0  0
 51 52  1  0  0  0
 51122  1  0  0  0
 51123  1  0  0  0
 52124  1  0  0  0
 52125  1  0  0  0
 53 54  1  0  0  0
 54 55  2  0  0  0
 54126  1  0  0  0
 55 57  1  0  0  0
 55127  1  0  0  0
 56 69  2  0  0  0
 57 58  2  0  0  0
 57128  1  0  0  0
 58129  1  0  0  0
 59 60  1  0  0  0
 59 61  1  0  0  0
 59 62  1  0  0  0
 60130  1  0  0  0
 60131  1  0  0  0
 60132  1  0  0  0
 61133  1  0  0  0
 61134  1  0  0  0
 61135  1  0  0  0
 62136  1  0  0  0
 62137  1  0  0  0
 62138  1  0  0  0
 63 65  1  0  0  0
 63139  1  0  0  0
 63140  1  0  0  0
 63141  1  0  0  0
 64142  1  0  0  0
 65143  1  0  0  0
 68 77  1  0  0  0
 71 74  2  0  0  0
 71 75  1  0  0  0
 71144  1  0  0  0
 72 74  1  0  0  0
 72 76  2  0  0  0
 72145  1  0  0  0
 73 75  2  0  0  0
 73 76  1  0  0  0
 73146  1  0  0  0
 74 80  1  0  0  0
 75 81  1  0  0  0
 76 84  1  0  0  0
 77 78  2  0  0  0
 77147  1  0  0  0
 78 79  1  0  0  0
 78 83  1  0  0  0
 79 80  1  0  0  0
 79 82  2  0  0  0
 80148  1  0  0  0
 81149  1  0  0  0
 83150  1  0  0  0
M  ISO  4   1 100  68 101  77 101  81 100
M  END
> <chiral flag>
0

> <version>
0

> <s_m_source_file>
/data/baiqing/PycharmProjects/Reinvent-master-3.2/result/LINK_invent/BTK/process_docking_weight1_custom_product_contain_oxygen_bond_distance_aromatic_linkinvent_7_9_3/rearranged_h_0070.sdf

> <i_m_source_file_index>
27

> <r_mmod_Potential_Energy-OPLS-2005>
216.617080688477

> <r_mmod_Stretch_Energy-OPLS-2005>
154.33869934082

> <r_mmod_Bend_Energy-OPLS-2005>
168.503341674805

> <r_mmod_Torsional_Energy-OPLS-2005>
239.565368652344

> <r_mmod_Improper_Torsional_Energy-OPLS-2005>
5.22919082641602

> <r_mmod_Van_der_Waal_Energy-OPLS-2005>
142.711944580078

> <r_mmod_Electrostatic_Energy-OPLS-2005>
-380.899383544922

> <r_mmod_Solvation_Energy-OPLS-2005>
-224.927444458008

> <b_mmod_Minimization_Converged-OPLS-2005>
0

> <r_mmod_RMS_Derivative-OPLS-2005>
2.0337073802948

$$$$
27
                    3D
 Structure written by MMmdl.
163172  0  0  1  0            999 V2000
  -30.7826  -14.3949   20.6971 C   0  0  0  0  0  0
  -30.4368  -12.3059   19.4241 C   0  0  0  0  0  0
  -29.5001  -12.4887   18.2127 C   0  0  0  0  0  0
  -28.0334  -12.3275   18.6491 C   0  0  0  0  0  0
  -27.6746  -13.1971   19.8823 C   0  0  2  0  0  0
  -28.7099  -12.9935   21.0151 C   0  0  0  0  0  0
  -25.2727  -13.8141   20.5830 C   0  0  0  0  0  0
  -24.1895  -13.0479   20.9136 C   0  0  0  0  0  0
  -24.6397  -11.6943   20.8649 C   0  0  0  0  0  0
  -23.9054  -10.4347   21.0357 C   0  0  0  0  0  0
  -24.3617   -9.4289   21.9164 C   0  0  0  0  0  0
  -23.6300   -8.2329   22.0778 C   0  0  0  0  0  0
  -22.4278   -8.0345   21.3567 C   0  0  0  0  0  0
  -21.9892   -9.0308   20.4671 C   0  0  0  0  0  0
  -22.7209  -10.2193   20.3052 C   0  0  0  0  0  0
  -21.6880   -6.0768   22.5275 C   0  0  0  0  0  0
  -21.4034   -6.5661   23.8211 C   0  0  0  0  0  0
  -21.3654   -5.6796   24.9159 C   0  0  0  0  0  0
  -21.6060   -4.3062   24.7198 C   0  0  0  0  0  0
  -21.8823   -3.8168   23.4314 C   0  0  0  0  0  0
  -21.9219   -4.6999   22.3384 C   0  0  0  0  0  0
  -22.7943  -13.5347   21.1793 C   0  0  0  0  0  0
  -22.1673   -4.2187   21.0956 F   0  0  0  0  0  0
  -21.5629   -3.4553   25.7703 F   0  0  0  0  0  0
  -30.0632  -13.2592   20.4838 N   0  0  0  0  0  0
  -26.3098  -12.9284   20.3389 N   0  0  0  0  0  0
  -25.9324  -11.6457   20.5736 N   0  0  0  0  0  0
  -22.0546  -12.8336   22.0292 N   0  0  0  0  0  0
  -25.4620  -15.1874   20.4651 N   0  0  0  0  0  0
  -31.7635  -14.7140   20.0251 O   0  0  0  0  0  0
  -21.6690   -6.8916   21.4236 O   0  0  0  0  0  0
  -22.3685  -14.5704   20.6707 O   0  0  0  0  0  0
  -24.6270  -31.8736   23.2012 C   0  0  0  0  0  0
  -25.9138  -32.4897   23.8367 C   0  0  1  0  0  0
  -27.2130  -27.3860   20.0759 C   0  0  0  0  0  0
  -25.5864  -33.8658   24.2315 N   0  0  0  0  0  0
  -23.4092  -30.4986   21.5458 C   0  0  2  0  0  0
  -24.8496  -28.9789   20.1173 C   0  0  0  0  0  0
  -22.7443  -29.4675   22.4927 C   0  0  0  0  0  0
  -18.0255  -28.1524   22.8109 C   0  0  0  0  0  0
  -24.1469  -36.7358   23.2656 C   0  0  0  0  0  0
  -25.9508  -30.8293   21.3609 C   0  0  0  0  0  0
  -26.0234  -29.4568   20.7106 C   0  0  0  0  0  0
  -27.2121  -28.6696   20.6955 C   0  0  0  0  0  0
  -26.0127  -26.9848   19.4258 C   0  0  0  0  0  0
  -24.8424  -27.7441   19.4694 C   0  0  0  0  0  0
  -23.6248  -29.8524   20.1561 C   0  0  0  0  0  0
  -25.4077  -36.3174   24.0387 C   0  0  1  0  0  0
  -20.5866  -28.3696   23.1377 C   0  0  2  0  0  0
  -20.6639  -26.9158   22.6207 C   0  0  0  0  0  0
  -19.6045  -26.5798   21.5638 C   0  0  0  0  0  0
  -18.1862  -26.8259   22.0923 C   0  0  0  0  0  0
  -19.1483  -28.8846   23.2788 C   0  0  0  0  0  0
  -18.9298  -30.1287   23.9054 C   0  0  0  0  0  0
  -17.6269  -30.6371   24.0688 C   0  0  0  0  0  0
  -25.8987  -34.9533   23.5152 C   0  0  0  0  0  0
  -16.5152  -29.9018   23.6185 C   0  0  0  0  0  0
  -16.7204  -28.6591   22.9920 C   0  0  0  0  0  0
  -26.4472  -31.6659   25.0696 C   0  0  0  0  0  0
  -25.3700  -31.3716   26.1399 C   0  0  0  0  0  0
  -27.0330  -30.3157   24.6064 C   0  0  0  0  0  0
  -27.6062  -32.4326   25.7445 C   0  0  0  0  0  0
  -27.5590  -37.1837   24.8470 C   0  0  0  0  0  0
  -21.4211  -29.2791   22.3470 N   0  0  0  0  0  0
  -26.4280  -37.3832   23.9428 N   0  0  0  0  0  0
  -24.6816  -31.0798   22.0949 N   0  0  0  0  0  0
  -23.4190  -28.8450   23.3214 O   0  0  0  0  0  0
  -28.3342  -26.5423   20.1070 O   0  0  0  0  0  0
  -26.5508  -34.9025   22.4714 O   0  0  0  0  0  0
  -23.5452  -32.1491   23.7363 O   0  0  0  0  0  0
  -29.4178  -19.0131   19.6393 C   0  0  0  0  0  0
  -29.1943  -20.3282   19.2121 C   0  0  0  0  0  0
  -29.0255  -21.0688   21.5113 C   0  0  0  0  0  0
  -29.3513  -18.6819   21.0012 C   0  0  0  0  0  0
  -29.2394  -19.7326   21.9620 C   0  0  0  0  0  0
  -28.8992  -21.3687   20.1327 C   0  0  0  0  0  0
  -27.7270  -23.7518   17.6636 C   0  0  0  0  0  0
  -28.1142  -24.9809   18.1206 C   0  0  0  0  0  0
  -27.5547  -22.6491   18.5883 C   0  0  0  0  0  0
  -28.4662  -18.9775   24.0120 C   0  0  0  0  0  0
  -29.2896  -17.2211   21.3462 C   0  0  0  0  0  0
  -28.8891  -23.9434   20.2469 C   0  0  0  0  0  0
  -28.1183  -25.1620   19.6543 C   0  0  1  0  0  0
  -28.7256  -18.3738   25.3757 C   0  0  0  0  0  0
  -29.4117  -19.4818   23.3299 N   0  0  0  0  0  0
  -28.4533  -22.6486   19.6221 N   0  0  0  0  0  0
  -30.4398  -16.5748   21.5652 N   0  0  0  0  0  0
  -30.3717  -15.1624   21.7116 N   0  0  0  0  0  0
  -28.4621  -26.0058   17.4797 O   0  5  0  0  0  0
  -26.6711  -21.8043   18.4334 O   0  0  0  0  0  0
  -28.1958  -16.6514   21.3819 O   0  0  0  0  0  0
  -31.4775  -12.4154   19.1128 H   0  0  0  0  0  0
  -30.3524  -11.2921   19.8108 H   0  0  0  0  0  0
  -29.7374  -11.7412   17.4549 H   0  0  0  0  0  0
  -29.6632  -13.4617   17.7441 H   0  0  0  0  0  0
  -27.9020  -11.2738   18.9071 H   0  0  0  0  0  0
  -27.3502  -12.5229   17.8235 H   0  0  0  0  0  0
  -27.7297  -14.2373   19.5650 H   0  0  0  0  0  0
  -28.6660  -11.9737   21.4027 H   0  0  0  0  0  0
  -28.4334  -13.6269   21.8592 H   0  0  0  0  0  0
  -25.2799   -9.5838   22.4665 H   0  0  0  0  0  0
  -24.0077   -7.4788   22.7531 H   0  0  0  0  0  0
  -21.0816   -8.8815   19.8989 H   0  0  0  0  0  0
  -22.3674  -10.9724   19.6144 H   0  0  0  0  0  0
  -21.2004   -7.6176   23.9710 H   0  0  0  0  0  0
  -21.1457   -6.0531   25.9061 H   0  0  0  0  0  0
  -22.0591   -2.7637   23.2799 H   0  0  0  0  0  0
  -22.4156  -11.9989   22.4618 H   0  0  0  0  0  0
  -21.1200  -13.1436   22.2518 H   0  0  0  0  0  0
  -24.7557  -15.8286   20.8096 H   0  0  0  0  0  0
  -26.3928  -15.5974   20.4639 H   0  0  0  0  0  0
  -26.7172  -32.5715   23.1115 H   0  0  0  0  0  0
  -25.0103  -33.9727   25.0513 H   0  0  0  0  0  0
  -22.6987  -31.3164   21.4107 H   0  0  0  0  0  0
  -23.3755  -35.9664   23.3351 H   0  0  0  0  0  0
  -24.3570  -36.8945   22.2061 H   0  0  0  0  0  0
  -23.7170  -37.6575   23.6607 H   0  0  0  0  0  0
  -26.0567  -31.5895   20.5860 H   0  0  0  0  0  0
  -26.8355  -30.8865   21.9805 H   0  0  0  0  0  0
  -28.1233  -29.0369   21.1517 H   0  0  0  0  0  0
  -25.9236  -26.0854   18.8352 H   0  0  0  0  0  0
  -23.9506  -27.3875   18.9749 H   0  0  0  0  0  0
  -23.7523  -30.6386   19.4061 H   0  0  0  0  0  0
  -22.7503  -29.2746   19.8527 H   0  0  0  0  0  0
  -25.1251  -36.2066   25.0867 H   0  0  0  0  0  0
  -21.0094  -28.3647   24.1418 H   0  0  0  0  0  0
  -20.4866  -26.2514   23.4718 H   0  0  0  0  0  0
  -21.6705  -26.6812   22.2789 H   0  0  0  0  0  0
  -19.6982  -25.5377   21.2455 H   0  0  0  0  0  0
  -19.7793  -27.1704   20.6634 H   0  0  0  0  0  0
  -17.4937  -26.8109   21.2497 H   0  0  0  0  0  0
  -17.8663  -26.0160   22.7531 H   0  0  0  0  0  0
  -19.7700  -30.6869   24.2829 H   0  0  0  0  0  0
  -17.4833  -31.5855   24.5710 H   0  0  0  0  0  0
  -15.5141  -30.2888   23.7640 H   0  0  0  0  0  0
  -15.8631  -28.1042   22.6349 H   0  0  0  0  0  0
  -24.5760  -30.7264   25.7607 H   0  0  0  0  0  0
  -24.9020  -32.2880   26.5028 H   0  0  0  0  0  0
  -25.8003  -30.8636   27.0046 H   0  0  0  0  0  0
  -26.2894  -29.6867   24.1185 H   0  0  0  0  0  0
  -27.4218  -29.7467   25.4512 H   0  0  0  0  0  0
  -27.8652  -30.4578   23.9175 H   0  0  0  0  0  0
  -27.2706  -33.3544   26.2215 H   0  0  0  0  0  0
  -28.3766  -32.7040   25.0191 H   0  0  0  0  0  0
  -28.0857  -31.8333   26.5201 H   0  0  0  0  0  0
  -28.2623  -38.0118   24.7492 H   0  0  0  0  0  0
  -28.1074  -36.2668   24.6299 H   0  0  0  0  0  0
  -27.2325  -37.1489   25.8875 H   0  0  0  0  0  0
  -20.9494  -29.8161   21.6331 H   0  0  0  0  0  0
  -26.0259  -38.2955   24.1387 H   0  0  0  0  0  0
  -29.5722  -18.2257   18.9116 H   0  0  0  0  0  0
  -29.1974  -20.5089   18.1476 H   0  0  0  0  0  0
  -28.9095  -21.8562   22.2396 H   0  0  0  0  0  0
  -27.6443  -23.5605   16.6013 H   0  0  0  0  0  0
  -27.4359  -18.9018   23.6515 H   0  0  0  0  0  0
  -28.7226  -23.8966   21.3236 H   0  0  0  0  0  0
  -29.9577  -24.0774   20.0855 H   0  0  0  0  0  0
  -27.1236  -24.8921   20.0343 H   0  0  0  0  0  0
  -29.2027  -19.0964   26.0394 H   0  0  0  0  0  0
  -29.3822  -17.5051   25.2783 H   0  0  0  0  0  0
  -27.7928  -18.0363   25.8202 H   0  0  0  0  0  0
  -31.3761  -16.9493   21.4475 H   0  0  0  0  0  0
  -29.5464  -14.9092   22.2373 H   0  0  0  0  0  0
  1 25  1  0  0  0
  1 30  2  0  0  0
  1 88  1  0  0  0
  2  3  1  0  0  0
  2 25  1  0  0  0
  2 92  1  0  0  0
  2 93  1  0  0  0
  3  4  1  0  0  0
  3 94  1  0  0  0
  3 95  1  0  0  0
  4  5  1  0  0  0
  4 96  1  0  0  0
  4 97  1  0  0  0
  5  6  1  0  0  0
  5 26  1  0  0  0
  5 98  1  0  0  0
  6 25  1  0  0  0
  6 99  1  0  0  0
  6100  1  0  0  0
  7  8  2  0  0  0
  7 26  1  0  0  0
  7 29  1  0  0  0
  8  9  1  0  0  0
  8 22  1  0  0  0
  9 10  1  0  0  0
  9 27  2  0  0  0
 10 11  2  0  0  0
 10 15  1  0  0  0
 11 12  1  0  0  0
 11101  1  0  0  0
 12 13  2  0  0  0
 12102  1  0  0  0
 13 14  1  0  0  0
 13 31  1  0  0  0
 14 15  2  0  0  0
 14103  1  0  0  0
 15104  1  0  0  0
 16 17  2  0  0  0
 16 21  1  0  0  0
 16 31  1  0  0  0
 17 18  1  0  0  0
 17105  1  0  0  0
 18 19  2  0  0  0
 18106  1  0  0  0
 19 20  1  0  0  0
 19 24  1  0  0  0
 20 21  2  0  0  0
 20107  1  0  0  0
 21 23  1  0  0  0
 22 28  1  0  0  0
 22 32  2  0  0  0
 26 27  1  0  0  0
 28108  1  0  0  0
 28109  1  0  0  0
 29110  1  0  0  0
 29111  1  0  0  0
 33 34  1  0  0  0
 33 66  1  0  0  0
 33 70  2  0  0  0
 34 36  1  0  0  0
 34 59  1  0  0  0
 34112  1  0  0  0
 35 44  2  0  0  0
 35 45  1  0  0  0
 35 68  1  0  0  0
 36 56  1  0  0  0
 36113  1  0  0  0
 37 39  1  0  0  0
 37 47  1  0  0  0
 37 66  1  0  0  0
 37114  1  0  0  0
 38 43  2  0  0  0
 38 46  1  0  0  0
 38 47  1  0  0  0
 39 64  1  0  0  0
 39 67  2  0  0  0
 40 52  1  0  0  0
 40 53  2  0  0  0
 40 58  1  0  0  0
 41115  1  0  0  0
 41116  1  0  0  0
 41117  1  0  0  0
 41 48  1  0  0  0
 42 43  1  0  0  0
 42 66  1  0  0  0
 42118  1  0  0  0
 42119  1  0  0  0
 43 44  1  0  0  0
 44120  1  0  0  0
 45 46  2  0  0  0
 45121  1  0  0  0
 46122  1  0  0  0
 47123  1  0  0  0
 47124  1  0  0  0
 48 56  1  0  0  0
 48 65  1  0  0  0
 48125  1  0  0  0
 49 50  1  0  0  0
 49 53  1  0  0  0
 49 64  1  0  0  0
 49126  1  0  0  0
 50 51  1  0  0  0
 50127  1  0  0  0
 50128  1  0  0  0
 51 52  1  0  0  0
 51129  1  0  0  0
 51130  1  0  0  0
 52131  1  0  0  0
 52132  1  0  0  0
 53 54  1  0  0  0
 54 55  2  0  0  0
 54133  1  0  0  0
 55 57  1  0  0  0
 55134  1  0  0  0
 56 69  2  0  0  0
 57 58  2  0  0  0
 57135  1  0  0  0
 58136  1  0  0  0
 59 60  1  0  0  0
 59 61  1  0  0  0
 59 62  1  0  0  0
 60137  1  0  0  0
 60138  1  0  0  0
 60139  1  0  0  0
 61140  1  0  0  0
 61141  1  0  0  0
 61142  1  0  0  0
 62143  1  0  0  0
 62144  1  0  0  0
 62145  1  0  0  0
 63 65  1  0  0  0
 63146  1  0  0  0
 63147  1  0  0  0
 63148  1  0  0  0
 64149  1  0  0  0
 65150  1  0  0  0
 68 83  1  0  0  0
 71 72  2  0  0  0
 71 74  1  0  0  0
 71151  1  0  0  0
 72 76  1  0  0  0
 72152  1  0  0  0
 73 75  1  0  0  0
 73 76  2  0  0  0
 73153  1  0  0  0
 74 75  2  0  0  0
 74 81  1  0  0  0
 75 85  1  0  0  0
 76 86  1  0  0  0
 77 78  2  0  0  0
 77 79  1  0  0  0
 77154  1  0  0  0
 78 83  1  0  0  0
 78 89  1  0  0  0
 79 86  1  0  0  0
 79 90  2  0  0  0
 80 84  1  0  0  0
 80 85  2  0  0  0
 80155  1  0  0  0
 81 87  1  0  0  0
 81 91  2  0  0  0
 82 83  1  0  0  0
 82 86  1  0  0  0
 82156  1  0  0  0
 82157  1  0  0  0
 83158  1  0  0  0
 84159  1  0  0  0
 84160  1  0  0  0
 84161  1  0  0  0
 87 88  1  0  0  0
 87162  1  0  0  0
 88163  1  0  0  0
M  CHG  1  89  -1
M  ISO  4   1 100  68 101  83 101  88 100
M  END
> <chiral flag>
0

> <version>
0

> <s_m_source_file>
/data/baiqing/PycharmProjects/Reinvent-master-3.2/result/LINK_invent/BTK/process_docking_weight1_custom_product_contain_oxygen_bond_distance_aromatic_linkinvent_7_9_3/rearranged_h_0070.sdf

> <i_m_source_file_index>
28

> <r_mmod_Potential_Energy-OPLS-2005>
-164.776596069336

> <r_mmod_Stretch_Energy-OPLS-2005>
59.4720001220703

> <r_mmod_Bend_Energy-OPLS-2005>
137.642929077148

> <r_mmod_Torsional_Energy-OPLS-2005>
356.528106689453

> <r_mmod_Improper_Torsional_Energy-OPLS-2005>
8.54224681854248

> <r_mmod_Van_der_Waal_Energy-OPLS-2005>
199.821838378906

> <r_mmod_Electrostatic_Energy-OPLS-2005>
-451.179779052734

> <r_mmod_Solvation_Energy-OPLS-2005>
-499.155883789062

> <b_mmod_Minimization_Converged-OPLS-2005>
0

> <r_mmod_RMS_Derivative-OPLS-2005>
11.0129432678223

$$$$
28
                    3D
 Structure written by MMmdl.
152160  0  0  1  0            999 V2000
  -30.6164  -14.6554   20.4901 C   0  0  0  0  0  0
  -30.4398  -12.4009   19.4540 C   0  0  0  0  0  0
  -29.5083  -12.5066   18.2253 C   0  0  0  0  0  0
  -28.0313  -12.3428   18.6378 C   0  0  0  0  0  0
  -27.6514  -13.2180   19.8620 C   0  0  2  0  0  0
  -28.6975  -13.0819   20.9918 C   0  0  0  0  0  0
  -25.2544  -13.8166   20.5689 C   0  0  0  0  0  0
  -24.1812  -13.0423   20.9167 C   0  0  0  0  0  0
  -24.6392  -11.6900   20.8726 C   0  0  0  0  0  0
  -23.9064  -10.4285   21.0398 C   0  0  0  0  0  0
  -24.3617   -9.4204   21.9179 C   0  0  0  0  0  0
  -23.6290   -8.2242   22.0754 C   0  0  0  0  0  0
  -22.4272   -8.0280   21.3545 C   0  0  0  0  0  0
  -21.9905   -9.0252   20.4647 C   0  0  0  0  0  0
  -22.7235  -10.2129   20.3051 C   0  0  0  0  0  0
  -21.6853   -6.0733   22.5279 C   0  0  0  0  0  0
  -21.4015   -6.5637   23.8213 C   0  0  0  0  0  0
  -21.3659   -5.6790   24.9175 C   0  0  0  0  0  0
  -21.6044   -4.3053   24.7225 C   0  0  0  0  0  0
  -21.8820   -3.8145   23.4346 C   0  0  0  0  0  0
  -21.9193   -4.6961   22.3402 C   0  0  0  0  0  0
  -22.7838  -13.5219   21.1842 C   0  0  0  0  0  0
  -22.1662   -4.2148   21.0979 F   0  0  0  0  0  0
  -21.5628   -3.4537   25.7737 F   0  0  0  0  0  0
  -30.0118  -13.4260   20.4265 N   0  0  0  0  0  0
  -26.2982  -12.9356   20.3326 N   0  0  0  0  0  0
  -25.9324  -11.6506   20.5756 N   0  0  0  0  0  0
  -22.0487  -12.8217   22.0408 N   0  0  0  0  0  0
  -25.4206  -15.1895   20.4178 N   0  0  0  0  0  0
  -31.7849  -14.8123   20.1235 O   0  0  0  0  0  0
  -21.6637   -6.8877   21.4242 O   0  0  0  0  0  0
  -22.3519  -14.5530   20.6702 O   0  0  0  0  0  0
  -24.6259  -31.8595   23.2020 C   0  0  0  0  0  0
  -25.9107  -32.4778   23.8350 C   0  0  1  0  0  0
  -27.2249  -27.3166   20.1243 C   0  0  0  0  0  0
  -25.5922  -33.8578   24.2278 N   0  0  0  0  0  0
  -23.4199  -30.4822   21.5447 C   0  0  2  0  0  0
  -24.8672  -28.9338   20.1141 C   0  0  0  0  0  0
  -22.7473  -29.4622   22.4939 C   0  0  0  0  0  0
  -18.0286  -28.1386   22.8487 C   0  0  0  0  0  0
  -24.1490  -36.7295   23.2640 C   0  0  0  0  0  0
  -25.9606  -30.7895   21.3734 C   0  0  0  0  0  0
  -26.0356  -29.4154   20.7186 C   0  0  0  0  0  0
  -27.2191  -28.6191   20.7118 C   0  0  0  0  0  0
  -26.0380  -26.8900   19.4893 C   0  0  0  0  0  0
  -24.8701  -27.6764   19.4902 C   0  0  0  0  0  0
  -23.6352  -29.8146   20.1610 C   0  0  0  0  0  0
  -25.4115  -36.3084   24.0329 C   0  0  1  0  0  0
  -20.5885  -28.3689   23.1285 C   0  0  2  0  0  0
  -20.6775  -26.9412   22.5411 C   0  0  0  0  0  0
  -19.5751  -26.6385   21.5212 C   0  0  0  0  0  0
  -18.1931  -26.7929   22.1624 C   0  0  0  0  0  0
  -19.1538  -28.8855   23.2881 C   0  0  0  0  0  0
  -18.9461  -30.1457   23.8897 C   0  0  0  0  0  0
  -17.6461  -30.6587   24.0564 C   0  0  0  0  0  0
  -25.9050  -34.9452   23.5105 C   0  0  0  0  0  0
  -16.5352  -29.9085   23.6329 C   0  0  0  0  0  0
  -16.7273  -28.6503   23.0349 C   0  0  0  0  0  0
  -26.4492  -31.6589   25.0721 C   0  0  0  0  0  0
  -25.3727  -31.3727   26.1450 C   0  0  0  0  0  0
  -27.0336  -30.3013   24.6174 C   0  0  0  0  0  0
  -27.6054  -32.4322   25.7488 C   0  0  0  0  0  0
  -27.5579  -37.1804   24.8466 C   0  0  0  0  0  0
  -21.4187  -29.3042   22.3679 N   0  0  0  0  0  0
  -26.4294  -37.3777   23.9406 N   0  0  0  0  0  0
  -24.6876  -31.0606   22.0970 N   0  0  0  0  0  0
  -23.4196  -28.8163   23.3020 O   0  0  0  0  0  0
  -28.3451  -26.4737   20.1387 O   0  0  0  0  0  0
  -26.5620  -34.8918   22.4672 O   0  0  0  0  0  0
  -23.5423  -32.1394   23.7348 O   0  0  0  0  0  0
  -28.6973  -19.3429   20.3677 C   0  0  0  0  0  0
  -31.0989  -17.8876   20.4113 C   0  0  0  0  0  0
  -29.8928  -20.0770   20.1484 C   0  0  0  0  0  0
  -29.8986  -17.1553   20.5923 C   0  0  0  0  0  0
  -28.7048  -17.9290   20.5825 C   0  0  0  0  0  0
  -31.0957  -19.3002   20.1982 C   0  0  0  0  0  0
  -29.9113  -21.5512   19.7457 C   0  0  0  0  0  0
  -29.1507  -24.0284   19.8497 C   0  0  0  0  0  0
  -28.1520  -25.0474   20.5240 C   0  0  0  0  0  0
  -29.7957  -15.7067   20.8027 N   0  0  0  0  0  0
  -29.1262  -22.5848   20.2392 N   0  0  0  0  0  0
  -30.7846  -21.8524   18.7777 N   0  3  0  0  0  0
  -29.9465  -24.4369   18.9922 O   0  0  0  0  0  0
  -27.5245  -17.2867   20.7554 F   0  0  0  0  0  0
  -32.2938  -19.9031   19.9975 F   0  0  0  0  0  0
  -31.4804  -12.5291   19.1508 H   0  0  0  0  0  0
  -30.3788  -11.4072   19.9006 H   0  0  0  0  0  0
  -29.7746  -11.7513   17.4845 H   0  0  0  0  0  0
  -29.6481  -13.4732   17.7389 H   0  0  0  0  0  0
  -27.8711  -11.2903   18.8741 H   0  0  0  0  0  0
  -27.3763  -12.5671   17.7951 H   0  0  0  0  0  0
  -27.6634  -14.2511   19.5143 H   0  0  0  0  0  0
  -28.7117  -12.0624   21.3802 H   0  0  0  0  0  0
  -28.4420  -13.7189   21.8402 H   0  0  0  0  0  0
  -25.2764   -9.5681   22.4749 H   0  0  0  0  0  0
  -24.0000   -7.4634   22.7474 H   0  0  0  0  0  0
  -21.0835   -8.8772   19.8954 H   0  0  0  0  0  0
  -22.3695  -10.9667   19.6159 H   0  0  0  0  0  0
  -21.2008   -7.6146   23.9717 H   0  0  0  0  0  0
  -21.1479   -6.0519   25.9078 H   0  0  0  0  0  0
  -22.0599   -2.7607   23.2847 H   0  0  0  0  0  0
  -22.4101  -11.9876   22.4793 H   0  0  0  0  0  0
  -21.1110  -13.1252   22.2623 H   0  0  0  0  0  0
  -24.6536  -15.8360   20.5620 H   0  0  0  0  0  0
  -26.2862  -15.6629   20.1881 H   0  0  0  0  0  0
  -26.7174  -32.5448   23.1098 H   0  0  0  0  0  0
  -25.0068  -33.9723   25.0422 H   0  0  0  0  0  0
  -22.7138  -31.3026   21.4003 H   0  0  0  0  0  0
  -23.3748  -35.9631   23.3309 H   0  0  0  0  0  0
  -24.3580  -36.8907   22.2053 H   0  0  0  0  0  0
  -23.7247  -37.6501   23.6657 H   0  0  0  0  0  0
  -26.0915  -31.5514   20.6037 H   0  0  0  0  0  0
  -26.8412  -30.8399   22.0021 H   0  0  0  0  0  0
  -28.1174  -28.9858   21.1888 H   0  0  0  0  0  0
  -26.0000  -25.9367   18.9826 H   0  0  0  0  0  0
  -23.9772  -27.3050   19.0063 H   0  0  0  0  0  0
  -23.7547  -30.5895   19.4031 H   0  0  0  0  0  0
  -22.7552  -29.2435   19.8595 H   0  0  0  0  0  0
  -25.1296  -36.1939   25.0822 H   0  0  0  0  0  0
  -20.9978  -28.3264   24.1405 H   0  0  0  0  0  0
  -20.5675  -26.2298   23.3611 H   0  0  0  0  0  0
  -21.6644  -26.7443   22.1205 H   0  0  0  0  0  0
  -19.6912  -25.6295   21.1242 H   0  0  0  0  0  0
  -19.6688  -27.3195   20.6742 H   0  0  0  0  0  0
  -17.4200  -26.6676   21.4027 H   0  0  0  0  0  0
  -18.0331  -26.0071   22.9021 H   0  0  0  0  0  0
  -19.7937  -30.7275   24.2264 H   0  0  0  0  0  0
  -17.5015  -31.6267   24.5167 H   0  0  0  0  0  0
  -15.5353  -30.2986   23.7654 H   0  0  0  0  0  0
  -15.8674  -28.0823   22.7062 H   0  0  0  0  0  0
  -24.5902  -30.7075   25.7781 H   0  0  0  0  0  0
  -24.8917  -32.2892   26.4875 H   0  0  0  0  0  0
  -25.8054  -30.8906   27.0225 H   0  0  0  0  0  0
  -26.2908  -29.6762   24.1203 H   0  0  0  0  0  0
  -27.4041  -29.7272   25.4677 H   0  0  0  0  0  0
  -27.8774  -30.4303   23.9391 H   0  0  0  0  0  0
  -27.2668  -33.3623   26.2066 H   0  0  0  0  0  0
  -28.3861  -32.6882   25.0313 H   0  0  0  0  0  0
  -28.0724  -31.8447   26.5402 H   0  0  0  0  0  0
  -28.2605  -38.0093   24.7504 H   0  0  0  0  0  0
  -28.1067  -36.2625   24.6303 H   0  0  0  0  0  0
  -27.2297  -37.1467   25.8869 H   0  0  0  0  0  0
  -20.9364  -29.8764   21.6890 H   0  0  0  0  0  0
  -26.0178  -38.2855   24.1396 H   0  0  0  0  0  0
  -27.7447  -19.8496   20.3278 H   0  0  0  0  0  0
  -32.0477  -17.3738   20.4203 H   0  0  0  0  0  0
  -28.2873  -24.9788   21.6033 H   0  0  0  0  0  0
  -27.1436  -24.6875   20.3293 H   0  0  0  0  0  0
  -28.8683  -15.4141   21.0685 H   0  0  0  0  0  0
  -28.4892  -22.2666   20.9541 H   0  0  0  0  0  0
  -31.4812  -21.1765   18.4998 H   0  0  0  0  0  0
  -30.8535  -22.8147   18.4657 H   0  0  0  0  0  0
  1 25  1  0  0  0
  1 30  2  0  0  0
  1 80  1  0  0  0
  2  3  1  0  0  0
  2 25  1  0  0  0
  2 86  1  0  0  0
  2 87  1  0  0  0
  3  4  1  0  0  0
  3 88  1  0  0  0
  3 89  1  0  0  0
  4  5  1  0  0  0
  4 90  1  0  0  0
  4 91  1  0  0  0
  5  6  1  0  0  0
  5 26  1  0  0  0
  5 92  1  0  0  0
  6 25  1  0  0  0
  6 93  1  0  0  0
  6 94  1  0  0  0
  7  8  2  0  0  0
  7 26  1  0  0  0
  7 29  1  0  0  0
  8  9  1  0  0  0
  8 22  1  0  0  0
  9 10  1  0  0  0
  9 27  2  0  0  0
 10 11  2  0  0  0
 10 15  1  0  0  0
 11 12  1  0  0  0
 11 95  1  0  0  0
 12 13  2  0  0  0
 12 96  1  0  0  0
 13 14  1  0  0  0
 13 31  1  0  0  0
 14 15  2  0  0  0
 14 97  1  0  0  0
 15 98  1  0  0  0
 16 17  2  0  0  0
 16 21  1  0  0  0
 16 31  1  0  0  0
 17 18  1  0  0  0
 17 99  1  0  0  0
 18 19  2  0  0  0
 18100  1  0  0  0
 19 20  1  0  0  0
 19 24  1  0  0  0
 20 21  2  0  0  0
 20101  1  0  0  0
 21 23  1  0  0  0
 22 28  1  0  0  0
 22 32  2  0  0  0
 26 27  1  0  0  0
 28102  1  0  0  0
 28103  1  0  0  0
 29104  1  0  0  0
 29105  1  0  0  0
 33 34  1  0  0  0
 33 66  1  0  0  0
 33 70  2  0  0  0
 34 36  1  0  0  0
 34 59  1  0  0  0
 34106  1  0  0  0
 35 44  2  0  0  0
 35 45  1  0  0  0
 35 68  1  0  0  0
 36 56  1  0  0  0
 36107  1  0  0  0
 37 39  1  0  0  0
 37 47  1  0  0  0
 37 66  1  0  0  0
 37108  1  0  0  0
 38 43  2  0  0  0
 38 46  1  0  0  0
 38 47  1  0  0  0
 39 64  1  0  0  0
 39 67  2  0  0  0
 40 52  1  0  0  0
 40 53  2  0  0  0
 40 58  1  0  0  0
 41109  1  0  0  0
 41110  1  0  0  0
 41111  1  0  0  0
 41 48  1  0  0  0
 42 43  1  0  0  0
 42 66  1  0  0  0
 42112  1  0  0  0
 42113  1  0  0  0
 43 44  1  0  0  0
 44114  1  0  0  0
 45 46  2  0  0  0
 45115  1  0  0  0
 46116  1  0  0  0
 47117  1  0  0  0
 47118  1  0  0  0
 48 56  1  0  0  0
 48 65  1  0  0  0
 48119  1  0  0  0
 49 50  1  0  0  0
 49 53  1  0  0  0
 49 64  1  0  0  0
 49120  1  0  0  0
 50 51  1  0  0  0
 50121  1  0  0  0
 50122  1  0  0  0
 51 52  1  0  0  0
 51123  1  0  0  0
 51124  1  0  0  0
 52125  1  0  0  0
 52126  1  0  0  0
 53 54  1  0  0  0
 54 55  2  0  0  0
 54127  1  0  0  0
 55 57  1  0  0  0
 55128  1  0  0  0
 56 69  2  0  0  0
 57 58  2  0  0  0
 57129  1  0  0  0
 58130  1  0  0  0
 59 60  1  0  0  0
 59 61  1  0  0  0
 59 62  1  0  0  0
 60131  1  0  0  0
 60132  1  0  0  0
 60133  1  0  0  0
 61134  1  0  0  0
 61135  1  0  0  0
 61136  1  0  0  0
 62137  1  0  0  0
 62138  1  0  0  0
 62139  1  0  0  0
 63 65  1  0  0  0
 63140  1  0  0  0
 63141  1  0  0  0
 63142  1  0  0  0
 64143  1  0  0  0
 65144  1  0  0  0
 68 79  1  0  0  0
 71 73  2  0  0  0
 71 75  1  0  0  0
 71145  1  0  0  0
 72 74  1  0  0  0
 72 76  2  0  0  0
 72146  1  0  0  0
 73 76  1  0  0  0
 73 77  1  0  0  0
 74 75  2  0  0  0
 74 80  1  0  0  0
 75 84  1  0  0  0
 76 85  1  0  0  0
 77 81  1  0  0  0
 77 82  2  0  0  0
 78 79  1  0  0  0
 78 81  1  0  0  0
 78 83  2  0  0  0
 79147  1  0  0  0
 79148  1  0  0  0
 80149  1  0  0  0
 81150  1  0  0  0
 82151  1  0  0  0
 82152  1  0  0  0
M  CHG  1  82   1
M  ISO  4   1 100  68 101  79 101  80 100
M  END
> <chiral flag>
0

> <version>
0

> <s_m_source_file>
/data/baiqing/PycharmProjects/Reinvent-master-3.2/result/LINK_invent/BTK/process_docking_weight1_custom_product_contain_oxygen_bond_distance_aromatic_linkinvent_7_9_3/rearranged_h_0070.sdf

> <i_m_source_file_index>
29

> <r_mmod_Potential_Energy-OPLS-2005>
-275.511352539062

> <r_mmod_Stretch_Energy-OPLS-2005>
87.2251205444336

> <r_mmod_Bend_Energy-OPLS-2005>
144.979293823242

> <r_mmod_Torsional_Energy-OPLS-2005>
223.871215820312

> <r_mmod_Improper_Torsional_Energy-OPLS-2005>
5.30639219284058

> <r_mmod_Van_der_Waal_Energy-OPLS-2005>
159.224716186523

> <r_mmod_Electrostatic_Energy-OPLS-2005>
-479.045654296875

> <r_mmod_Solvation_Energy-OPLS-2005>
-467.777648925781

> <b_mmod_Minimization_Converged-OPLS-2005>
0

> <r_mmod_RMS_Derivative-OPLS-2005>
0.237884268164635

$$$$
29
                    3D
 Structure written by MMmdl.
151159  0  0  1  0            999 V2000
  -30.6239  -14.6589   20.4880 C   0  0  0  0  0  0
  -30.4368  -12.4025   19.4584 C   0  0  0  0  0  0
  -29.5086  -12.5091   18.2279 C   0  0  0  0  0  0
  -28.0322  -12.3430   18.6403 C   0  0  0  0  0  0
  -27.6521  -13.2201   19.8633 C   0  0  2  0  0  0
  -28.6971  -13.0914   20.9949 C   0  0  0  0  0  0
  -25.2551  -13.8173   20.5689 C   0  0  0  0  0  0
  -24.1820  -13.0433   20.9176 C   0  0  0  0  0  0
  -24.6398  -11.6907   20.8729 C   0  0  0  0  0  0
  -23.9069  -10.4288   21.0398 C   0  0  0  0  0  0
  -24.3619   -9.4206   21.9177 C   0  0  0  0  0  0
  -23.6293   -8.2244   22.0750 C   0  0  0  0  0  0
  -22.4273   -8.0282   21.3544 C   0  0  0  0  0  0
  -21.9911   -9.0257   20.4645 C   0  0  0  0  0  0
  -22.7241  -10.2134   20.3052 C   0  0  0  0  0  0
  -21.6854   -6.0735   22.5278 C   0  0  0  0  0  0
  -21.4017   -6.5636   23.8214 C   0  0  0  0  0  0
  -21.3659   -5.6786   24.9173 C   0  0  0  0  0  0
  -21.6046   -4.3050   24.7221 C   0  0  0  0  0  0
  -21.8820   -3.8144   23.4341 C   0  0  0  0  0  0
  -21.9195   -4.6963   22.3399 C   0  0  0  0  0  0
  -22.7844  -13.5225   21.1845 C   0  0  0  0  0  0
  -22.1663   -4.2151   21.0976 F   0  0  0  0  0  0
  -21.5628   -3.4533   25.7733 F   0  0  0  0  0  0
  -30.0112  -13.4327   20.4289 N   0  0  0  0  0  0
  -26.2987  -12.9367   20.3328 N   0  0  0  0  0  0
  -25.9330  -11.6515   20.5756 N   0  0  0  0  0  0
  -22.0492  -12.8214   22.0407 N   0  0  0  0  0  0
  -25.4250  -15.1898   20.4127 N   0  0  0  0  0  0
  -31.7891  -14.8028   20.1088 O   0  0  0  0  0  0
  -21.6638   -6.8879   21.4242 O   0  0  0  0  0  0
  -22.3526  -14.5535   20.6701 O   0  0  0  0  0  0
  -24.6266  -31.8598   23.2030 C   0  0  0  0  0  0
  -25.9113  -32.4777   23.8356 C   0  0  1  0  0  0
  -27.2214  -27.3127   20.1222 C   0  0  0  0  0  0
  -25.5929  -33.8578   24.2283 N   0  0  0  0  0  0
  -23.4206  -30.4839   21.5456 C   0  0  2  0  0  0
  -24.8680  -28.9394   20.1126 C   0  0  0  0  0  0
  -22.7477  -29.4625   22.4940 C   0  0  0  0  0  0
  -18.0286  -28.1389   22.8483 C   0  0  0  0  0  0
  -24.1490  -36.7292   23.2638 C   0  0  0  0  0  0
  -25.9628  -30.7889   21.3763 C   0  0  0  0  0  0
  -26.0373  -29.4153   20.7200 C   0  0  0  0  0  0
  -27.2186  -28.6137   20.7156 C   0  0  0  0  0  0
  -26.0351  -26.9014   19.4745 C   0  0  0  0  0  0
  -24.8691  -27.6879   19.4800 C   0  0  0  0  0  0
  -23.6365  -29.8202   20.1608 C   0  0  0  0  0  0
  -25.4115  -36.3083   24.0329 C   0  0  1  0  0  0
  -20.5886  -28.3693   23.1284 C   0  0  2  0  0  0
  -20.6775  -26.9416   22.5413 C   0  0  0  0  0  0
  -19.5755  -26.6389   21.5212 C   0  0  0  0  0  0
  -18.1932  -26.7931   22.1621 C   0  0  0  0  0  0
  -19.1537  -28.8858   23.2878 C   0  0  0  0  0  0
  -18.9462  -30.1462   23.8893 C   0  0  0  0  0  0
  -17.6462  -30.6588   24.0568 C   0  0  0  0  0  0
  -25.9052  -34.9451   23.5105 C   0  0  0  0  0  0
  -16.5354  -29.9089   23.6330 C   0  0  0  0  0  0
  -16.7273  -28.6509   23.0344 C   0  0  0  0  0  0
  -26.4494  -31.6584   25.0725 C   0  0  0  0  0  0
  -25.3731  -31.3726   26.1456 C   0  0  0  0  0  0
  -27.0333  -30.3005   24.6180 C   0  0  0  0  0  0
  -27.6052  -32.4322   25.7494 C   0  0  0  0  0  0
  -27.5580  -37.1802   24.8464 C   0  0  0  0  0  0
  -21.4191  -29.3045   22.3679 N   0  0  0  0  0  0
  -26.4292  -37.3779   23.9409 N   0  0  0  0  0  0
  -24.6887  -31.0610   22.0982 N   0  0  0  0  0  0
  -23.4198  -28.8163   23.3021 O   0  0  0  0  0  0
  -28.3266  -26.4465   20.1524 O   0  0  0  0  0  0
  -26.5621  -34.8916   22.4672 O   0  0  0  0  0  0
  -23.5429  -32.1398   23.7356 O   0  0  0  0  0  0
  -28.8952  -19.4456   20.8293 C   0  0  0  0  0  0
  -31.0639  -17.8443   20.0546 C   0  0  0  0  0  0
  -30.0026  -20.1209   20.2557 C   0  0  0  0  0  0
  -29.9506  -17.1788   20.6263 C   0  0  0  0  0  0
  -28.8707  -18.0255   21.0062 C   0  0  0  0  0  0
  -31.0918  -19.2600   19.8741 C   0  0  0  0  0  0
  -29.1460  -23.9376   20.1737 C   0  0  0  0  0  0
  -30.0399  -21.6684   20.0496 C   0  0  0  0  0  0
  -28.0655  -25.0276   20.5261 C   0  0  0  0  0  0
  -29.0663  -22.6328   20.3712 N   0  0  0  0  0  0
  -29.8272  -15.7256   20.8256 N   0  0  0  0  0  0
  -31.1408  -22.0903   19.4999 N   0  3  0  0  0  0
  -27.7703  -17.4487   21.5507 F   0  0  0  0  0  0
  -32.2173  -19.7773   19.3080 F   0  0  0  0  0  0
  -31.4787  -12.5230   19.1562 H   0  0  0  0  0  0
  -30.3695  -11.4100   19.9061 H   0  0  0  0  0  0
  -29.7763  -11.7558   17.4856 H   0  0  0  0  0  0
  -29.6480  -13.4770   17.7439 H   0  0  0  0  0  0
  -27.8740  -11.2904   18.8782 H   0  0  0  0  0  0
  -27.3770  -12.5657   17.7976 H   0  0  0  0  0  0
  -27.6654  -14.2528   19.5145 H   0  0  0  0  0  0
  -28.7108  -12.0750   21.3913 H   0  0  0  0  0  0
  -28.4408  -13.7359   21.8372 H   0  0  0  0  0  0
  -25.2767   -9.5683   22.4746 H   0  0  0  0  0  0
  -24.0007   -7.4634   22.7465 H   0  0  0  0  0  0
  -21.0844   -8.8777   19.8948 H   0  0  0  0  0  0
  -22.3703  -10.9672   19.6158 H   0  0  0  0  0  0
  -21.2010   -7.6143   23.9718 H   0  0  0  0  0  0
  -21.1479   -6.0512   25.9076 H   0  0  0  0  0  0
  -22.0600   -2.7608   23.2838 H   0  0  0  0  0  0
  -22.4102  -11.9875   22.4795 H   0  0  0  0  0  0
  -21.1115  -13.1245   22.2618 H   0  0  0  0  0  0
  -24.6629  -15.8447   20.5471 H   0  0  0  0  0  0
  -26.2871  -15.6421   20.1379 H   0  0  0  0  0  0
  -26.7184  -32.5450   23.1108 H   0  0  0  0  0  0
  -25.0085  -33.9723   25.0433 H   0  0  0  0  0  0
  -22.7147  -31.3048   21.4026 H   0  0  0  0  0  0
  -23.3750  -35.9624   23.3300 H   0  0  0  0  0  0
  -24.3585  -36.8913   22.2053 H   0  0  0  0  0  0
  -23.7239  -37.6493   23.6659 H   0  0  0  0  0  0
  -26.0968  -31.5520   20.6081 H   0  0  0  0  0  0
  -26.8422  -30.8374   22.0068 H   0  0  0  0  0  0
  -28.1146  -28.9738   21.2016 H   0  0  0  0  0  0
  -25.9887  -25.9589   18.9497 H   0  0  0  0  0  0
  -23.9777  -27.3227   18.9888 H   0  0  0  0  0  0
  -23.7583  -30.5966   19.4047 H   0  0  0  0  0  0
  -22.7562  -29.2506   19.8570 H   0  0  0  0  0  0
  -25.1294  -36.1936   25.0821 H   0  0  0  0  0  0
  -20.9976  -28.3269   24.1406 H   0  0  0  0  0  0
  -20.5681  -26.2301   23.3612 H   0  0  0  0  0  0
  -21.6646  -26.7452   22.1207 H   0  0  0  0  0  0
  -19.6919  -25.6300   21.1242 H   0  0  0  0  0  0
  -19.6691  -27.3198   20.6740 H   0  0  0  0  0  0
  -17.4204  -26.6677   21.4023 H   0  0  0  0  0  0
  -18.0334  -26.0076   22.9022 H   0  0  0  0  0  0
  -19.7941  -30.7282   24.2254 H   0  0  0  0  0  0
  -17.5017  -31.6263   24.5181 H   0  0  0  0  0  0
  -15.5354  -30.2992   23.7655 H   0  0  0  0  0  0
  -15.8672  -28.0833   22.7052 H   0  0  0  0  0  0
  -24.5907  -30.7069   25.7792 H   0  0  0  0  0  0
  -24.8920  -32.2894   26.4874 H   0  0  0  0  0  0
  -25.8062  -30.8913   27.0234 H   0  0  0  0  0  0
  -26.2904  -29.6761   24.1203 H   0  0  0  0  0  0
  -27.4026  -29.7256   25.4683 H   0  0  0  0  0  0
  -27.8778  -30.4285   23.9405 H   0  0  0  0  0  0
  -27.2656  -33.3623   26.2066 H   0  0  0  0  0  0
  -28.3860  -32.6884   25.0320 H   0  0  0  0  0  0
  -28.0720  -31.8454   26.5416 H   0  0  0  0  0  0
  -28.2597  -38.0100   24.7517 H   0  0  0  0  0  0
  -28.1079  -36.2632   24.6282 H   0  0  0  0  0  0
  -27.2305  -37.1447   25.8869 H   0  0  0  0  0  0
  -20.9369  -29.8769   21.6891 H   0  0  0  0  0  0
  -26.0172  -38.2855   24.1408 H   0  0  0  0  0  0
  -28.0427  -20.0285   21.1360 H   0  0  0  0  0  0
  -31.9261  -17.2821   19.7323 H   0  0  0  0  0  0
  -30.0298  -24.3915   19.7170 H   0  0  0  0  0  0
  -27.9277  -25.0091   21.6076 H   0  0  0  0  0  0
  -27.1281  -24.6575   20.1180 H   0  0  0  0  0  0
  -28.9244  -15.4471   21.1814 H   0  0  0  0  0  0
  -31.8784  -21.4236   19.2469 H   0  0  0  0  0  0
  -31.3524  -23.0596   19.2911 H   0  0  0  0  0  0
  1 25  1  0  0  0
  1 30  2  0  0  0
  1 81  1  0  0  0
  2  3  1  0  0  0
  2 25  1  0  0  0
  2 85  1  0  0  0
  2 86  1  0  0  0
  3  4  1  0  0  0
  3 87  1  0  0  0
  3 88  1  0  0  0
  4  5  1  0  0  0
  4 89  1  0  0  0
  4 90  1  0  0  0
  5  6  1  0  0  0
  5 26  1  0  0  0
  5 91  1  0  0  0
  6 25  1  0  0  0
  6 92  1  0  0  0
  6 93  1  0  0  0
  7  8  2  0  0  0
  7 26  1  0  0  0
  7 29  1  0  0  0
  8  9  1  0  0  0
  8 22  1  0  0  0
  9 10  1  0  0  0
  9 27  2  0  0  0
 10 11  2  0  0  0
 10 15  1  0  0  0
 11 12  1  0  0  0
 11 94  1  0  0  0
 12 13  2  0  0  0
 12 95  1  0  0  0
 13 14  1  0  0  0
 13 31  1  0  0  0
 14 15  2  0  0  0
 14 96  1  0  0  0
 15 97  1  0  0  0
 16 17  2  0  0  0
 16 21  1  0  0  0
 16 31  1  0  0  0
 17 18  1  0  0  0
 17 98  1  0  0  0
 18 19  2  0  0  0
 18 99  1  0  0  0
 19 20  1  0  0  0
 19 24  1  0  0  0
 20 21  2  0  0  0
 20100  1  0  0  0
 21 23  1  0  0  0
 22 28  1  0  0  0
 22 32  2  0  0  0
 26 27  1  0  0  0
 28101  1  0  0  0
 28102  1  0  0  0
 29103  1  0  0  0
 29104  1  0  0  0
 33 34  1  0  0  0
 33 66  1  0  0  0
 33 70  2  0  0  0
 34 36  1  0  0  0
 34 59  1  0  0  0
 34105  1  0  0  0
 35 44  2  0  0  0
 35 45  1  0  0  0
 35 68  1  0  0  0
 36 56  1  0  0  0
 36106  1  0  0  0
 37 39  1  0  0  0
 37 47  1  0  0  0
 37 66  1  0  0  0
 37107  1  0  0  0
 38 43  2  0  0  0
 38 46  1  0  0  0
 38 47  1  0  0  0
 39 64  1  0  0  0
 39 67  2  0  0  0
 40 52  1  0  0  0
 40 53  2  0  0  0
 40 58  1  0  0  0
 41108  1  0  0  0
 41109  1  0  0  0
 41110  1  0  0  0
 41 48  1  0  0  0
 42 43  1  0  0  0
 42 66  1  0  0  0
 42111  1  0  0  0
 42112  1  0  0  0
 43 44  1  0  0  0
 44113  1  0  0  0
 45 46  2  0  0  0
 45114  1  0  0  0
 46115  1  0  0  0
 47116  1  0  0  0
 47117  1  0  0  0
 48 56  1  0  0  0
 48 65  1  0  0  0
 48118  1  0  0  0
 49 50  1  0  0  0
 49 53  1  0  0  0
 49 64  1  0  0  0
 49119  1  0  0  0
 50 51  1  0  0  0
 50120  1  0  0  0
 50121  1  0  0  0
 51 52  1  0  0  0
 51122  1  0  0  0
 51123  1  0  0  0
 52124  1  0  0  0
 52125  1  0  0  0
 53 54  1  0  0  0
 54 55  2  0  0  0
 54126  1  0  0  0
 55 57  1  0  0  0
 55127  1  0  0  0
 56 69  2  0  0  0
 57 58  2  0  0  0
 57128  1  0  0  0
 58129  1  0  0  0
 59 60  1  0  0  0
 59 61  1  0  0  0
 59 62  1  0  0  0
 60130  1  0  0  0
 60131  1  0  0  0
 60132  1  0  0  0
 61133  1  0  0  0
 61134  1  0  0  0
 61135  1  0  0  0
 62136  1  0  0  0
 62137  1  0  0  0
 62138  1  0  0  0
 63 65  1  0  0  0
 63139  1  0  0  0
 63140  1  0  0  0
 63141  1  0  0  0
 64142  1  0  0  0
 65143  1  0  0  0
 68 79  1  0  0  0
 71 73  2  0  0  0
 71 75  1  0  0  0
 71144  1  0  0  0
 72 74  1  0  0  0
 72 76  2  0  0  0
 72145  1  0  0  0
 73 76  1  0  0  0
 73 78  1  0  0  0
 74 75  2  0  0  0
 74 81  1  0  0  0
 75 83  1  0  0  0
 76 84  1  0  0  0
 77 79  1  0  0  0
 77 80  2  0  0  0
 77146  1  0  0  0
 78 80  1  0  0  0
 78 82  2  0  0  0
 79147  1  0  0  0
 79148  1  0  0  0
 81149  1  0  0  0
 82150  1  0  0  0
 82151  1  0  0  0
M  CHG  1  82   1
M  ISO  4   1 100  68 101  79 101  81 100
M  END
> <chiral flag>
0

> <version>
0

> <s_m_source_file>
/data/baiqing/PycharmProjects/Reinvent-master-3.2/result/LINK_invent/BTK/process_docking_weight1_custom_product_contain_oxygen_bond_distance_aromatic_linkinvent_7_9_3/rearranged_h_0070.sdf

> <i_m_source_file_index>
30

> <r_mmod_Potential_Energy-OPLS-2005>
49.4727478027344

> <r_mmod_Stretch_Energy-OPLS-2005>
104.85538482666

> <r_mmod_Bend_Energy-OPLS-2005>
144.009780883789

> <r_mmod_Torsional_Energy-OPLS-2005>
219.950744628906

> <r_mmod_Improper_Torsional_Energy-OPLS-2005>
3.76279473304749

> <r_mmod_Van_der_Waal_Energy-OPLS-2005>
167.67790222168

> <r_mmod_Electrostatic_Energy-OPLS-2005>
-168.501846313477

> <r_mmod_Solvation_Energy-OPLS-2005>
-475.776092529297

> <b_mmod_Minimization_Converged-OPLS-2005>
0

> <r_mmod_RMS_Derivative-OPLS-2005>
0.60376238822937

$$$$
30
                    3D
 Structure written by MMmdl.
157166  0  0  1  0            999 V2000
  -30.6644  -14.5044   20.4984 C   0  0  0  0  0  0
  -30.4255  -12.2971   19.4478 C   0  0  0  0  0  0
  -29.5052  -12.4869   18.2220 C   0  0  0  0  0  0
  -28.0225  -12.3565   18.6248 C   0  0  0  0  0  0
  -27.6605  -13.2036   19.8739 C   0  0  2  0  0  0
  -28.7012  -13.0081   21.0037 C   0  0  0  0  0  0
  -25.2587  -13.8153   20.5679 C   0  0  0  0  0  0
  -24.1840  -13.0429   20.9182 C   0  0  0  0  0  0
  -24.6389  -11.6899   20.8738 C   0  0  0  0  0  0
  -23.9059  -10.4287   21.0404 C   0  0  0  0  0  0
  -24.3612   -9.4203   21.9177 C   0  0  0  0  0  0
  -23.6290   -8.2238   22.0748 C   0  0  0  0  0  0
  -22.4270   -8.0278   21.3546 C   0  0  0  0  0  0
  -21.9904   -9.0255   20.4649 C   0  0  0  0  0  0
  -22.7231  -10.2133   20.3058 C   0  0  0  0  0  0
  -21.6852   -6.0736   22.5282 C   0  0  0  0  0  0
  -21.4013   -6.5640   23.8215 C   0  0  0  0  0  0
  -21.3660   -5.6793   24.9174 C   0  0  0  0  0  0
  -21.6044   -4.3053   24.7223 C   0  0  0  0  0  0
  -21.8819   -3.8148   23.4342 C   0  0  0  0  0  0
  -21.9189   -4.6966   22.3398 C   0  0  0  0  0  0
  -22.7864  -13.5239   21.1841 C   0  0  0  0  0  0
  -22.1659   -4.2151   21.0976 F   0  0  0  0  0  0
  -21.5625   -3.4534   25.7735 F   0  0  0  0  0  0
  -30.0359  -13.2983   20.4535 N   0  0  0  0  0  0
  -26.3017  -12.9314   20.3355 N   0  0  0  0  0  0
  -25.9316  -11.6479   20.5765 N   0  0  0  0  0  0
  -22.0502  -12.8251   22.0402 N   0  0  0  0  0  0
  -25.4298  -15.1876   20.4102 N   0  0  0  0  0  0
  -31.8242  -14.6660   20.1102 O   0  0  0  0  0  0
  -21.6638   -6.8876   21.4242 O   0  0  0  0  0  0
  -22.3555  -14.5546   20.6684 O   0  0  0  0  0  0
  -24.6139  -31.8680   23.2096 C   0  0  0  0  0  0
  -25.9032  -32.4827   23.8393 C   0  0  1  0  0  0
  -27.2334  -27.4303   20.1115 C   0  0  0  0  0  0
  -25.5891  -33.8627   24.2320 N   0  0  0  0  0  0
  -23.4025  -30.4896   21.5495 C   0  0  2  0  0  0
  -24.8515  -28.9526   20.1167 C   0  0  0  0  0  0
  -22.7407  -29.4656   22.4996 C   0  0  0  0  0  0
  -18.0266  -28.1372   22.8498 C   0  0  0  0  0  0
  -24.1484  -36.7318   23.2637 C   0  0  0  0  0  0
  -25.9299  -30.8323   21.3632 C   0  0  0  0  0  0
  -26.0095  -29.4636   20.7183 C   0  0  0  0  0  0
  -27.2050  -28.7083   20.7157 C   0  0  0  0  0  0
  -26.0690  -26.9431   19.4875 C   0  0  0  0  0  0
  -24.8756  -27.6901   19.4986 C   0  0  0  0  0  0
  -23.6119  -29.8178   20.1654 C   0  0  0  0  0  0
  -25.4106  -36.3117   24.0339 C   0  0  1  0  0  0
  -20.5857  -28.3655   23.1322 C   0  0  2  0  0  0
  -20.6759  -26.9392   22.5419 C   0  0  0  0  0  0
  -19.5740  -26.6383   21.5212 C   0  0  0  0  0  0
  -18.1919  -26.7918   22.1624 C   0  0  0  0  0  0
  -19.1518  -28.8832   23.2910 C   0  0  0  0  0  0
  -18.9447  -30.1438   23.8913 C   0  0  0  0  0  0
  -17.6451  -30.6584   24.0562 C   0  0  0  0  0  0
  -25.9034  -34.9483   23.5127 C   0  0  0  0  0  0
  -16.5343  -29.9088   23.6324 C   0  0  0  0  0  0
  -16.7257  -28.6502   23.0356 C   0  0  0  0  0  0
  -26.4457  -31.6607   25.0719 C   0  0  0  0  0  0
  -25.3727  -31.3728   26.1474 C   0  0  0  0  0  0
  -27.0279  -30.3049   24.6090 C   0  0  0  0  0  0
  -27.6033  -32.4323   25.7487 C   0  0  0  0  0  0
  -27.5579  -37.1813   24.8466 C   0  0  0  0  0  0
  -21.4134  -29.3030   22.3736 N   0  0  0  0  0  0
  -26.4292  -37.3803   23.9404 N   0  0  0  0  0  0
  -24.6669  -31.0781   22.0994 N   0  0  0  0  0  0
  -23.4180  -28.8207   23.3045 O   0  0  0  0  0  0
  -28.3885  -26.6816   20.0821 O   0  0  0  0  0  0
  -26.5597  -34.8931   22.4689 O   0  0  0  0  0  0
  -23.5330  -32.1431   23.7490 O   0  0  0  0  0  0
  -30.1222  -20.1525   21.4434 C   0  0  0  0  0  0
  -30.4531  -18.7791   21.2088 C   0  0  0  0  0  0
  -29.5538  -18.0891   20.4370 C   0  0  0  0  0  0
  -28.9340  -20.5426   20.8650 C   0  0  0  0  0  0
  -26.8712  -23.5639   20.7082 C   0  0  0  0  0  0
  -27.0398  -22.0475   20.8032 C   0  0  0  0  0  0
  -29.1579  -23.0365   20.9157 C   0  0  0  0  0  0
  -28.2301  -24.1827   20.4267 C   0  0  2  0  0  0
  -30.4356  -16.7397   18.5061 C   0  0  0  0  0  0
  -28.4750  -25.5995   21.0308 C   0  0  0  0  0  0
  -29.6080  -16.7135   19.8077 C   0  0  2  0  0  0
  -28.3649  -21.7922   20.8609 N   0  0  0  0  0  0
  -29.8286  -15.5471   20.7021 N   0  0  0  0  0  0
  -25.8074  -24.1779   20.8484 O   0  0  0  0  0  0
  -26.1015  -21.2410   20.8406 O   0  0  0  0  0  0
  -31.5704  -18.2569   21.6591 F   0  0  0  0  0  0
  -28.2363  -19.1612   20.0185 S   0  0  0  0  0  0
  -31.4737  -12.3844   19.1565 H   0  0  0  0  0  0
  -30.3135  -11.2920   19.8580 H   0  0  0  0  0  0
  -29.7486  -11.7519   17.4532 H   0  0  0  0  0  0
  -29.6788  -13.4658   17.7734 H   0  0  0  0  0  0
  -27.8268  -11.3031   18.8250 H   0  0  0  0  0  0
  -27.3809  -12.6297   17.7858 H   0  0  0  0  0  0
  -27.6923  -14.2448   19.5563 H   0  0  0  0  0  0
  -28.6733  -11.9835   21.3763 H   0  0  0  0  0  0
  -28.4714  -13.6412   21.8621 H   0  0  0  0  0  0
  -25.2755   -9.5677   22.4751 H   0  0  0  0  0  0
  -24.0000   -7.4629   22.7469 H   0  0  0  0  0  0
  -21.0830   -8.8782   19.8965 H   0  0  0  0  0  0
  -22.3687  -10.9676   19.6176 H   0  0  0  0  0  0
  -21.2013   -7.6149   23.9723 H   0  0  0  0  0  0
  -21.1482   -6.0518   25.9081 H   0  0  0  0  0  0
  -22.0598   -2.7611   23.2842 H   0  0  0  0  0  0
  -22.4102  -11.9916   22.4814 H   0  0  0  0  0  0
  -21.1125  -13.1297   22.2612 H   0  0  0  0  0  0
  -24.6594  -15.8382   20.5218 H   0  0  0  0  0  0
  -26.2763  -15.6301   20.0791 H   0  0  0  0  0  0
  -26.7106  -32.5541   23.1166 H   0  0  0  0  0  0
  -25.0057  -33.9788   25.0481 H   0  0  0  0  0  0
  -22.6903  -31.3058   21.4087 H   0  0  0  0  0  0
  -23.3741  -35.9656   23.3319 H   0  0  0  0  0  0
  -24.3578  -36.8910   22.2045 H   0  0  0  0  0  0
  -23.7242  -37.6536   23.6633 H   0  0  0  0  0  0
  -26.0388  -31.5940   20.5896 H   0  0  0  0  0  0
  -26.8196  -30.8921   21.9786 H   0  0  0  0  0  0
  -28.1000  -29.0990   21.1790 H   0  0  0  0  0  0
  -26.0838  -25.9837   18.9916 H   0  0  0  0  0  0
  -23.9886  -27.2923   19.0245 H   0  0  0  0  0  0
  -23.7171  -30.5892   19.4021 H   0  0  0  0  0  0
  -22.7374  -29.2344   19.8718 H   0  0  0  0  0  0
  -25.1284  -36.1985   25.0834 H   0  0  0  0  0  0
  -20.9949  -28.3211   24.1444 H   0  0  0  0  0  0
  -20.5660  -26.2262   23.3605 H   0  0  0  0  0  0
  -21.6634  -26.7442   22.1213 H   0  0  0  0  0  0
  -19.6905  -25.6301   21.1229 H   0  0  0  0  0  0
  -19.6678  -27.3203   20.6747 H   0  0  0  0  0  0
  -17.4191  -26.6667   21.4022 H   0  0  0  0  0  0
  -18.0320  -26.0053   22.9010 H   0  0  0  0  0  0
  -19.7929  -30.7251   24.2288 H   0  0  0  0  0  0
  -17.5012  -31.6264   24.5162 H   0  0  0  0  0  0
  -15.5348  -30.3000   23.7641 H   0  0  0  0  0  0
  -15.8653  -28.0825   22.7070 H   0  0  0  0  0  0
  -24.5888  -30.7090   25.7818 H   0  0  0  0  0  0
  -24.8942  -32.2897   26.4923 H   0  0  0  0  0  0
  -25.8084  -30.8899   27.0232 H   0  0  0  0  0  0
  -26.2828  -29.6842   24.1103 H   0  0  0  0  0  0
  -27.4005  -29.7251   25.4545 H   0  0  0  0  0  0
  -27.8681  -30.4370   23.9270 H   0  0  0  0  0  0
  -27.2642  -33.3601   26.2107 H   0  0  0  0  0  0
  -28.3822  -32.6920   25.0307 H   0  0  0  0  0  0
  -28.0723  -31.8431   26.5372 H   0  0  0  0  0  0
  -28.2614  -38.0093   24.7502 H   0  0  0  0  0  0
  -28.1055  -36.2629   24.6306 H   0  0  0  0  0  0
  -27.2298  -37.1484   25.8870 H   0  0  0  0  0  0
  -20.9293  -29.8749   21.6959 H   0  0  0  0  0  0
  -26.0184  -38.2887   24.1402 H   0  0  0  0  0  0
  -30.7725  -20.7985   22.0145 H   0  0  0  0  0  0
  -30.0459  -22.9628   20.2870 H   0  0  0  0  0  0
  -29.4879  -23.2078   21.9419 H   0  0  0  0  0  0
  -28.3248  -24.2484   19.3429 H   0  0  0  0  0  0
  -31.4834  -16.9669   18.7024 H   0  0  0  0  0  0
  -30.0614  -17.5077   17.8276 H   0  0  0  0  0  0
  -30.3849  -15.7939   17.9667 H   0  0  0  0  0  0
  -29.4876  -25.6347   21.4326 H   0  0  0  0  0  0
  -27.8229  -25.7798   21.8887 H   0  0  0  0  0  0
  -28.5932  -16.5196   19.4585 H   0  0  0  0  0  0
  -28.9895  -15.2680   21.1878 H   0  0  0  0  0  0
  1 25  1  0  0  0
  1 30  2  0  0  0
  1 83  1  0  0  0
  2  3  1  0  0  0
  2 25  1  0  0  0
  2 88  1  0  0  0
  2 89  1  0  0  0
  3  4  1  0  0  0
  3 90  1  0  0  0
  3 91  1  0  0  0
  4  5  1  0  0  0
  4 92  1  0  0  0
  4 93  1  0  0  0
  5  6  1  0  0  0
  5 26  1  0  0  0
  5 94  1  0  0  0
  6 25  1  0  0  0
  6 95  1  0  0  0
  6 96  1  0  0  0
  7  8  2  0  0  0
  7 26  1  0  0  0
  7 29  1  0  0  0
  8  9  1  0  0  0
  8 22  1  0  0  0
  9 10  1  0  0  0
  9 27  2  0  0  0
 10 11  2  0  0  0
 10 15  1  0  0  0
 11 12  1  0  0  0
 11 97  1  0  0  0
 12 13  2  0  0  0
 12 98  1  0  0  0
 13 14  1  0  0  0
 13 31  1  0  0  0
 14 15  2  0  0  0
 14 99  1  0  0  0
 15100  1  0  0  0
 16 17  2  0  0  0
 16 21  1  0  0  0
 16 31  1  0  0  0
 17 18  1  0  0  0
 17101  1  0  0  0
 18 19  2  0  0  0
 18102  1  0  0  0
 19 20  1  0  0  0
 19 24  1  0  0  0
 20 21  2  0  0  0
 20103  1  0  0  0
 21 23  1  0  0  0
 22 28  1  0  0  0
 22 32  2  0  0  0
 26 27  1  0  0  0
 28104  1  0  0  0
 28105  1  0  0  0
 29106  1  0  0  0
 29107  1  0  0  0
 33 34  1  0  0  0
 33 66  1  0  0  0
 33 70  2  0  0  0
 34 36  1  0  0  0
 34 59  1  0  0  0
 34108  1  0  0  0
 35 44  2  0  0  0
 35 45  1  0  0  0
 35 68  1  0  0  0
 36 56  1  0  0  0
 36109  1  0  0  0
 37 39  1  0  0  0
 37 47  1  0  0  0
 37 66  1  0  0  0
 37110  1  0  0  0
 38 43  2  0  0  0
 38 46  1  0  0  0
 38 47  1  0  0  0
 39 64  1  0  0  0
 39 67  2  0  0  0
 40 52  1  0  0  0
 40 53  2  0  0  0
 40 58  1  0  0  0
 41111  1  0  0  0
 41112  1  0  0  0
 41113  1  0  0  0
 41 48  1  0  0  0
 42 43  1  0  0  0
 42 66  1  0  0  0
 42114  1  0  0  0
 42115  1  0  0  0
 43 44  1  0  0  0
 44116  1  0  0  0
 45 46  2  0  0  0
 45117  1  0  0  0
 46118  1  0  0  0
 47119  1  0  0  0
 47120  1  0  0  0
 48 56  1  0  0  0
 48 65  1  0  0  0
 48121  1  0  0  0
 49 50  1  0  0  0
 49 53  1  0  0  0
 49 64  1  0  0  0
 49122  1  0  0  0
 50 51  1  0  0  0
 50123  1  0  0  0
 50124  1  0  0  0
 51 52  1  0  0  0
 51125  1  0  0  0
 51126  1  0  0  0
 52127  1  0  0  0
 52128  1  0  0  0
 53 54  1  0  0  0
 54 55  2  0  0  0
 54129  1  0  0  0
 55 57  1  0  0  0
 55130  1  0  0  0
 56 69  2  0  0  0
 57 58  2  0  0  0
 57131  1  0  0  0
 58132  1  0  0  0
 59 60  1  0  0  0
 59 61  1  0  0  0
 59 62  1  0  0  0
 60133  1  0  0  0
 60134  1  0  0  0
 60135  1  0  0  0
 61136  1  0  0  0
 61137  1  0  0  0
 61138  1  0  0  0
 62139  1  0  0  0
 62140  1  0  0  0
 62141  1  0  0  0
 63 65  1  0  0  0
 63142  1  0  0  0
 63143  1  0  0  0
 63144  1  0  0  0
 64145  1  0  0  0
 65146  1  0  0  0
 68 80  1  0  0  0
 71 72  1  0  0  0
 71 74  2  0  0  0
 71147  1  0  0  0
 72 73  2  0  0  0
 72 86  1  0  0  0
 73 81  1  0  0  0
 73 87  1  0  0  0
 74 82  1  0  0  0
 74 87  1  0  0  0
 75 76  1  0  0  0
 75 78  1  0  0  0
 75 84  2  0  0  0
 76 82  1  0  0  0
 76 85  2  0  0  0
 77 78  1  0  0  0
 77 82  1  0  0  0
 77148  1  0  0  0
 77149  1  0  0  0
 78 80  1  0  0  0
 78150  1  0  0  0
 79151  1  0  0  0
 79152  1  0  0  0
 79153  1  0  0  0
 79 81  1  0  0  0
 80154  1  0  0  0
 80155  1  0  0  0
 81 83  1  0  0  0
 81156  1  0  0  0
 83157  1  0  0  0
M  ISO  4   1 100  68 101  80 101  83 100
M  END
> <chiral flag>
0

> <version>
0

> <s_m_source_file>
/data/baiqing/PycharmProjects/Reinvent-master-3.2/result/LINK_invent/BTK/process_docking_weight1_custom_product_contain_oxygen_bond_distance_aromatic_linkinvent_7_9_3/rearranged_h_0070.sdf

> <i_m_source_file_index>
31

> <r_mmod_Potential_Energy-OPLS-2005>
60.9397239685059

> <r_mmod_Stretch_Energy-OPLS-2005>
40.0799598693848

> <r_mmod_Bend_Energy-OPLS-2005>
146.806915283203

> <r_mmod_Torsional_Energy-OPLS-2005>
266.651611328125

> <r_mmod_Improper_Torsional_Energy-OPLS-2005>
11.2595710754395

> <r_mmod_Van_der_Waal_Energy-OPLS-2005>
118.521743774414

> <r_mmod_Electrostatic_Energy-OPLS-2005>
-294.950317382812

> <r_mmod_Solvation_Energy-OPLS-2005>
-243.720245361328

> <b_mmod_Minimization_Converged-OPLS-2005>
0

> <r_mmod_RMS_Derivative-OPLS-2005>
1.16084730625153

$$$$
31
                    3D
 Structure written by MMmdl.
155164  0  0  1  0            999 V2000
  -30.5868  -14.7007   20.4933 C   0  0  0  0  0  0
  -30.4479  -12.4305   19.4601 C   0  0  0  0  0  0
  -29.5133  -12.5151   18.2309 C   0  0  0  0  0  0
  -28.0377  -12.3400   18.6433 C   0  0  0  0  0  0
  -27.6531  -13.2174   19.8635 C   0  0  2  0  0  0
  -28.6983  -13.0863   20.9945 C   0  0  0  0  0  0
  -25.2567  -13.8168   20.5689 C   0  0  0  0  0  0
  -24.1832  -13.0436   20.9195 C   0  0  0  0  0  0
  -24.6398  -11.6906   20.8739 C   0  0  0  0  0  0
  -23.9065  -10.4291   21.0405 C   0  0  0  0  0  0
  -24.3617   -9.4206   21.9182 C   0  0  0  0  0  0
  -23.6291   -8.2243   22.0753 C   0  0  0  0  0  0
  -22.4272   -8.0282   21.3545 C   0  0  0  0  0  0
  -21.9907   -9.0256   20.4648 C   0  0  0  0  0  0
  -22.7236  -10.2134   20.3057 C   0  0  0  0  0  0
  -21.6852   -6.0734   22.5278 C   0  0  0  0  0  0
  -21.4015   -6.5639   23.8211 C   0  0  0  0  0  0
  -21.3660   -5.6792   24.9173 C   0  0  0  0  0  0
  -21.6043   -4.3054   24.7225 C   0  0  0  0  0  0
  -21.8820   -3.8146   23.4346 C   0  0  0  0  0  0
  -21.9194   -4.6962   22.3402 C   0  0  0  0  0  0
  -22.7855  -13.5231   21.1854 C   0  0  0  0  0  0
  -22.1661   -4.2146   21.0979 F   0  0  0  0  0  0
  -21.5628   -3.4539   25.7739 F   0  0  0  0  0  0
  -30.0088  -13.4539   20.4329 N   0  0  0  0  0  0
  -26.2991  -12.9346   20.3316 N   0  0  0  0  0  0
  -25.9329  -11.6502   20.5755 N   0  0  0  0  0  0
  -22.0496  -12.8227   22.0412 N   0  0  0  0  0  0
  -25.4286  -15.1890   20.4099 N   0  0  0  0  0  0
  -31.7414  -14.8844   20.0949 O   0  0  0  0  0  0
  -21.6639   -6.8877   21.4239 O   0  0  0  0  0  0
  -22.3542  -14.5537   20.6700 O   0  0  0  0  0  0
  -24.6295  -31.8568   23.2002 C   0  0  0  0  0  0
  -25.9128  -32.4763   23.8340 C   0  0  1  0  0  0
  -27.2252  -27.2835   20.1199 C   0  0  0  0  0  0
  -25.5930  -33.8565   24.2264 N   0  0  0  0  0  0
  -23.4254  -30.4803   21.5434 C   0  0  2  0  0  0
  -24.8730  -28.9326   20.1093 C   0  0  0  0  0  0
  -22.7494  -29.4608   22.4919 C   0  0  0  0  0  0
  -18.0290  -28.1386   22.8484 C   0  0  0  0  0  0
  -24.1489  -36.7290   23.2639 C   0  0  0  0  0  0
  -25.9702  -30.7760   21.3780 C   0  0  0  0  0  0
  -26.0438  -29.4011   20.7185 C   0  0  0  0  0  0
  -27.2213  -28.5886   20.7146 C   0  0  0  0  0  0
  -26.0300  -26.8834   19.4766 C   0  0  0  0  0  0
  -24.8704  -27.6807   19.4783 C   0  0  0  0  0  0
  -23.6425  -29.8162   20.1587 C   0  0  0  0  0  0
  -25.4115  -36.3074   24.0326 C   0  0  1  0  0  0
  -20.5893  -28.3695   23.1272 C   0  0  2  0  0  0
  -20.6778  -26.9413   22.5408 C   0  0  0  0  0  0
  -19.5753  -26.6383   21.5212 C   0  0  0  0  0  0
  -18.1934  -26.7928   22.1625 C   0  0  0  0  0  0
  -19.1544  -28.8857   23.2874 C   0  0  0  0  0  0
  -18.9465  -30.1458   23.8893 C   0  0  0  0  0  0
  -17.6464  -30.6587   24.0563 C   0  0  0  0  0  0
  -25.9054  -34.9444   23.5097 C   0  0  0  0  0  0
  -16.5356  -29.9085   23.6330 C   0  0  0  0  0  0
  -16.7277  -28.6502   23.0350 C   0  0  0  0  0  0
  -26.4501  -31.6583   25.0724 C   0  0  0  0  0  0
  -25.3728  -31.3736   26.1449 C   0  0  0  0  0  0
  -27.0345  -30.2999   24.6206 C   0  0  0  0  0  0
  -27.6056  -32.4325   25.7497 C   0  0  0  0  0  0
  -27.5578  -37.1799   24.8464 C   0  0  0  0  0  0
  -21.4202  -29.3044   22.3662 N   0  0  0  0  0  0
  -26.4291  -37.3771   23.9407 N   0  0  0  0  0  0
  -24.6940  -31.0550   22.0970 N   0  0  0  0  0  0
  -23.4202  -28.8147   23.3010 O   0  0  0  0  0  0
  -28.3289  -26.4025   20.1868 O   0  0  0  0  0  0
  -26.5627  -34.8916   22.4666 O   0  0  0  0  0  0
  -23.5450  -32.1382   23.7309 O   0  0  0  0  0  0
  -30.6265  -18.0273   20.0221 C   0  0  0  0  0  0
  -28.7136  -17.9261   21.4280 C   0  0  0  0  0  0
  -29.4564  -20.2057   20.6350 C   0  0  0  0  0  0
  -29.7435  -17.2027   20.7723 C   0  0  0  0  0  0
  -30.4786  -19.4588   19.9564 C   0  0  0  0  0  0
  -28.5799  -19.3474   21.3681 C   0  0  0  0  0  0
  -28.6630  -22.6914   21.3527 C   0  0  0  0  0  0
  -29.4175  -22.5260   19.4374 C   0  0  0  0  0  0
  -29.1823  -23.8046   20.3415 C   0  0  2  0  0  0
  -30.4319  -24.4911   20.9039 C   0  0  0  0  0  0
  -28.1124  -24.9386   19.9354 C   0  0  0  0  0  0
  -29.3461  -21.6903   20.6424 N   0  0  0  0  0  0
  -29.7552  -15.7259   20.8923 N   0  0  0  0  0  0
  -27.9391  -22.6515   22.3250 O   0  0  0  0  0  0
  -31.3870  -20.1467   19.2217 F   0  0  0  0  0  0
  -27.5459  -19.8958   22.0494 F   0  0  0  0  0  0
  -31.4857  -12.5753   19.1550 H   0  0  0  0  0  0
  -30.4049  -11.4376   19.9104 H   0  0  0  0  0  0
  -29.7878  -11.7573   17.4958 H   0  0  0  0  0  0
  -29.6426  -13.4797   17.7373 H   0  0  0  0  0  0
  -27.8864  -11.2873   18.8853 H   0  0  0  0  0  0
  -27.3805  -12.5548   17.7998 H   0  0  0  0  0  0
  -27.6660  -14.2497   19.5138 H   0  0  0  0  0  0
  -28.7251  -12.0643   21.3754 H   0  0  0  0  0  0
  -28.4311  -13.7112   21.8481 H   0  0  0  0  0  0
  -25.2761   -9.5680   22.4755 H   0  0  0  0  0  0
  -23.9999   -7.4633   22.7473 H   0  0  0  0  0  0
  -21.0836   -8.8777   19.8956 H   0  0  0  0  0  0
  -22.3695  -10.9674   19.6168 H   0  0  0  0  0  0
  -21.2009   -7.6147   23.9713 H   0  0  0  0  0  0
  -21.1480   -6.0523   25.9075 H   0  0  0  0  0  0
  -22.0599   -2.7608   23.2849 H   0  0  0  0  0  0
  -22.4111  -11.9889   22.4803 H   0  0  0  0  0  0
  -21.1116  -13.1258   22.2620 H   0  0  0  0  0  0
  -24.6584  -15.8411   20.5119 H   0  0  0  0  0  0
  -26.2688  -15.6241   20.0513 H   0  0  0  0  0  0
  -26.7196  -32.5419   23.1084 H   0  0  0  0  0  0
  -25.0067  -33.9704   25.0402 H   0  0  0  0  0  0
  -22.7209  -31.3021   21.3989 H   0  0  0  0  0  0
  -23.3748  -35.9626   23.3302 H   0  0  0  0  0  0
  -24.3579  -36.8912   22.2053 H   0  0  0  0  0  0
  -23.7249  -37.6494   23.6663 H   0  0  0  0  0  0
  -26.1075  -31.5383   20.6099 H   0  0  0  0  0  0
  -26.8484  -30.8238   22.0103 H   0  0  0  0  0  0
  -28.1163  -28.9417   21.2075 H   0  0  0  0  0  0
  -25.9561  -25.9311   18.9739 H   0  0  0  0  0  0
  -23.9752  -27.3180   18.9920 H   0  0  0  0  0  0
  -23.7646  -30.5934   19.4033 H   0  0  0  0  0  0
  -22.7617  -29.2479   19.8541 H   0  0  0  0  0  0
  -25.1296  -36.1922   25.0819 H   0  0  0  0  0  0
  -20.9987  -28.3273   24.1393 H   0  0  0  0  0  0
  -20.5675  -26.2305   23.3612 H   0  0  0  0  0  0
  -21.6647  -26.7436   22.1204 H   0  0  0  0  0  0
  -19.6915  -25.6293   21.1242 H   0  0  0  0  0  0
  -19.6690  -27.3192   20.6740 H   0  0  0  0  0  0
  -17.4202  -26.6671   21.4031 H   0  0  0  0  0  0
  -18.0339  -26.0072   22.9024 H   0  0  0  0  0  0
  -19.7941  -30.7275   24.2261 H   0  0  0  0  0  0
  -17.5019  -31.6265   24.5167 H   0  0  0  0  0  0
  -15.5357  -30.2986   23.7655 H   0  0  0  0  0  0
  -15.8677  -28.0821   22.7067 H   0  0  0  0  0  0
  -24.5902  -30.7083   25.7783 H   0  0  0  0  0  0
  -24.8921  -32.2907   26.4862 H   0  0  0  0  0  0
  -25.8048  -30.8924   27.0232 H   0  0  0  0  0  0
  -26.2926  -29.6748   24.1222 H   0  0  0  0  0  0
  -27.4017  -29.7261   25.4725 H   0  0  0  0  0  0
  -27.8809  -30.4270   23.9453 H   0  0  0  0  0  0
  -27.2660  -33.3625   26.2067 H   0  0  0  0  0  0
  -28.3868  -32.6885   25.0328 H   0  0  0  0  0  0
  -28.0721  -31.8456   26.5419 H   0  0  0  0  0  0
  -28.2597  -38.0095   24.7505 H   0  0  0  0  0  0
  -28.1073  -36.2626   24.6295 H   0  0  0  0  0  0
  -27.2297  -37.1456   25.8867 H   0  0  0  0  0  0
  -20.9384  -29.8769   21.6872 H   0  0  0  0  0  0
  -26.0170  -38.2845   24.1406 H   0  0  0  0  0  0
  -31.4381  -17.5713   19.4742 H   0  0  0  0  0  0
  -27.9830  -17.3848   22.0112 H   0  0  0  0  0  0
  -30.3851  -22.5045   18.9336 H   0  0  0  0  0  0
  -28.6016  -22.3231   18.7385 H   0  0  0  0  0  0
  -31.1901  -23.7716   21.2161 H   0  0  0  0  0  0
  -30.1922  -25.1064   21.7717 H   0  0  0  0  0  0
  -30.8928  -25.1400   20.1593 H   0  0  0  0  0  0
  -27.1664  -24.6717   20.4092 H   0  0  0  0  0  0
  -27.9311  -24.8434   18.8642 H   0  0  0  0  0  0
  -28.9054  -15.3514   21.2860 H   0  0  0  0  0  0
  1 25  1  0  0  0
  1 30  2  0  0  0
  1 83  1  0  0  0
  2  3  1  0  0  0
  2 25  1  0  0  0
  2 87  1  0  0  0
  2 88  1  0  0  0
  3  4  1  0  0  0
  3 89  1  0  0  0
  3 90  1  0  0  0
  4  5  1  0  0  0
  4 91  1  0  0  0
  4 92  1  0  0  0
  5  6  1  0  0  0
  5 26  1  0  0  0
  5 93  1  0  0  0
  6 25  1  0  0  0
  6 94  1  0  0  0
  6 95  1  0  0  0
  7  8  2  0  0  0
  7 26  1  0  0  0
  7 29  1  0  0  0
  8  9  1  0  0  0
  8 22  1  0  0  0
  9 10  1  0  0  0
  9 27  2  0  0  0
 10 11  2  0  0  0
 10 15  1  0  0  0
 11 12  1  0  0  0
 11 96  1  0  0  0
 12 13  2  0  0  0
 12 97  1  0  0  0
 13 14  1  0  0  0
 13 31  1  0  0  0
 14 15  2  0  0  0
 14 98  1  0  0  0
 15 99  1  0  0  0
 16 17  2  0  0  0
 16 21  1  0  0  0
 16 31  1  0  0  0
 17 18  1  0  0  0
 17100  1  0  0  0
 18 19  2  0  0  0
 18101  1  0  0  0
 19 20  1  0  0  0
 19 24  1  0  0  0
 20 21  2  0  0  0
 20102  1  0  0  0
 21 23  1  0  0  0
 22 28  1  0  0  0
 22 32  2  0  0  0
 26 27  1  0  0  0
 28103  1  0  0  0
 28104  1  0  0  0
 29105  1  0  0  0
 29106  1  0  0  0
 33 34  1  0  0  0
 33 66  1  0  0  0
 33 70  2  0  0  0
 34 36  1  0  0  0
 34 59  1  0  0  0
 34107  1  0  0  0
 35 44  2  0  0  0
 35 45  1  0  0  0
 35 68  1  0  0  0
 36 56  1  0  0  0
 36108  1  0  0  0
 37 39  1  0  0  0
 37 47  1  0  0  0
 37 66  1  0  0  0
 37109  1  0  0  0
 38 43  2  0  0  0
 38 46  1  0  0  0
 38 47  1  0  0  0
 39 64  1  0  0  0
 39 67  2  0  0  0
 40 52  1  0  0  0
 40 53  2  0  0  0
 40 58  1  0  0  0
 41110  1  0  0  0
 41111  1  0  0  0
 41112  1  0  0  0
 41 48  1  0  0  0
 42 43  1  0  0  0
 42 66  1  0  0  0
 42113  1  0  0  0
 42114  1  0  0  0
 43 44  1  0  0  0
 44115  1  0  0  0
 45 46  2  0  0  0
 45116  1  0  0  0
 46117  1  0  0  0
 47118  1  0  0  0
 47119  1  0  0  0
 48 56  1  0  0  0
 48 65  1  0  0  0
 48120  1  0  0  0
 49 50  1  0  0  0
 49 53  1  0  0  0
 49 64  1  0  0  0
 49121  1  0  0  0
 50 51  1  0  0  0
 50122  1  0  0  0
 50123  1  0  0  0
 51 52  1  0  0  0
 51124  1  0  0  0
 51125  1  0  0  0
 52126  1  0  0  0
 52127  1  0  0  0
 53 54  1  0  0  0
 54 55  2  0  0  0
 54128  1  0  0  0
 55 57  1  0  0  0
 55129  1  0  0  0
 56 69  2  0  0  0
 57 58  2  0  0  0
 57130  1  0  0  0
 58131  1  0  0  0
 59 60  1  0  0  0
 59 61  1  0  0  0
 59 62  1  0  0  0
 60132  1  0  0  0
 60133  1  0  0  0
 60134  1  0  0  0
 61135  1  0  0  0
 61136  1  0  0  0
 61137  1  0  0  0
 62138  1  0  0  0
 62139  1  0  0  0
 62140  1  0  0  0
 63 65  1  0  0  0
 63141  1  0  0  0
 63142  1  0  0  0
 63143  1  0  0  0
 64144  1  0  0  0
 65145  1  0  0  0
 68 81  1  0  0  0
 71 74  2  0  0  0
 71 75  1  0  0  0
 71146  1  0  0  0
 72 74  1  0  0  0
 72 76  2  0  0  0
 72147  1  0  0  0
 73 75  2  0  0  0
 73 76  1  0  0  0
 73 82  1  0  0  0
 74 83  1  0  0  0
 75 85  1  0  0  0
 76 86  1  0  0  0
 77 79  1  0  0  0
 77 82  1  0  0  0
 77 84  2  0  0  0
 78 79  1  0  0  0
 78 82  1  0  0  0
 78148  1  0  0  0
 78149  1  0  0  0
 79 80  1  0  0  0
 79 81  1  0  0  0
 80150  1  0  0  0
 80151  1  0  0  0
 80152  1  0  0  0
 81153  1  0  0  0
 81154  1  0  0  0
 83155  1  0  0  0
M  ISO  4   1 100  68 101  81 101  83 100
M  END
> <chiral flag>
0

> <version>
0

> <s_m_source_file>
/data/baiqing/PycharmProjects/Reinvent-master-3.2/result/LINK_invent/BTK/process_docking_weight1_custom_product_contain_oxygen_bond_distance_aromatic_linkinvent_7_9_3/rearranged_h_0070.sdf

> <i_m_source_file_index>
32

> <r_mmod_Potential_Energy-OPLS-2005>
142.637557983398

> <r_mmod_Stretch_Energy-OPLS-2005>
103.840942382812

> <r_mmod_Bend_Energy-OPLS-2005>
191.022415161133

> <r_mmod_Torsional_Energy-OPLS-2005>
239.244766235352

> <r_mmod_Improper_Torsional_Energy-OPLS-2005>
5.58010387420654

> <r_mmod_Van_der_Waal_Energy-OPLS-2005>
141.630081176758

> <r_mmod_Electrostatic_Energy-OPLS-2005>
-384.731719970703

> <r_mmod_Solvation_Energy-OPLS-2005>
-223.224182128906

> <b_mmod_Minimization_Converged-OPLS-2005>
0

> <r_mmod_RMS_Derivative-OPLS-2005>
0.325963884592056

$$$$
32
                    3D
 Structure written by MMmdl.
167176  0  0  1  0            999 V2000
  -30.5913  -14.7166   20.4122 C   0  0  0  0  0  0
  -30.4360  -12.4379   19.4297 C   0  0  0  0  0  0
  -29.5017  -12.5102   18.2011 C   0  0  0  0  0  0
  -28.0223  -12.3572   18.6197 C   0  0  0  0  0  0
  -27.6451  -13.2265   19.8512 C   0  0  2  0  0  0
  -28.7044  -13.1230   20.9668 C   0  0  0  0  0  0
  -25.2557  -13.8177   20.5692 C   0  0  0  0  0  0
  -24.1840  -13.0414   20.9226 C   0  0  0  0  0  0
  -24.6439  -11.6896   20.8777 C   0  0  0  0  0  0
  -23.9088  -10.4279   21.0426 C   0  0  0  0  0  0
  -24.3644   -9.4196   21.9196 C   0  0  0  0  0  0
  -23.6318   -8.2228   22.0738 C   0  0  0  0  0  0
  -22.4310   -8.0274   21.3526 C   0  0  0  0  0  0
  -21.9938   -9.0251   20.4649 C   0  0  0  0  0  0
  -22.7250  -10.2147   20.3069 C   0  0  0  0  0  0
  -21.6864   -6.0755   22.5283 C   0  0  0  0  0  0
  -21.4004   -6.5651   23.8212 C   0  0  0  0  0  0
  -21.3666   -5.6795   24.9171 C   0  0  0  0  0  0
  -21.6045   -4.3051   24.7225 C   0  0  0  0  0  0
  -21.8818   -3.8169   23.4339 C   0  0  0  0  0  0
  -21.9206   -4.6986   22.3411 C   0  0  0  0  0  0
  -22.7874  -13.5222   21.1869 C   0  0  0  0  0  0
  -22.1673   -4.2175   21.0976 F   0  0  0  0  0  0
  -21.5648   -3.4526   25.7738 F   0  0  0  0  0  0
  -29.9921  -13.4849   20.3634 N   0  0  0  0  0  0
  -26.2980  -12.9357   20.3334 N   0  0  0  0  0  0
  -25.9375  -11.6501   20.5782 N   0  0  0  0  0  0
  -22.0516  -12.8227   22.0439 N   0  0  0  0  0  0
  -25.4153  -15.1870   20.3989 N   0  0  0  0  0  0
  -31.8024  -14.8337   20.2148 O   0  0  0  0  0  0
  -21.6642   -6.8895   21.4245 O   0  0  0  0  0  0
  -22.3567  -14.5530   20.6725 O   0  0  0  0  0  0
  -24.6366  -31.8513   23.1878 C   0  0  0  0  0  0
  -25.9168  -32.4748   23.8265 C   0  0  1  0  0  0
  -27.2262  -27.2571   20.1210 C   0  0  0  0  0  0
  -25.5926  -33.8532   24.2173 N   0  0  0  0  0  0
  -23.4309  -30.4696   21.5344 C   0  0  2  0  0  0
  -24.8710  -28.8977   20.1164 C   0  0  0  0  0  0
  -22.7515  -29.4599   22.4917 C   0  0  0  0  0  0
  -18.0290  -28.1405   22.8472 C   0  0  0  0  0  0
  -24.1456  -36.7291   23.2634 C   0  0  0  0  0  0
  -25.9757  -30.7710   21.3534 C   0  0  0  0  0  0
  -26.0442  -29.3861   20.7033 C   0  0  0  0  0  0
  -27.2259  -28.5796   20.6838 C   0  0  0  0  0  0
  -26.0237  -26.8206   19.5286 C   0  0  0  0  0  0
  -24.8618  -27.6212   19.5288 C   0  0  0  0  0  0
  -23.6459  -29.7878   20.1576 C   0  0  0  0  0  0
  -25.4093  -36.3063   24.0314 C   0  0  1  0  0  0
  -20.5908  -28.3716   23.1273 C   0  0  2  0  0  0
  -20.6799  -26.9433   22.5405 C   0  0  0  0  0  0
  -19.5767  -26.6403   21.5221 C   0  0  0  0  0  0
  -18.1945  -26.7970   22.1605 C   0  0  0  0  0  0
  -19.1544  -28.8872   23.2868 C   0  0  0  0  0  0
  -18.9458  -30.1480   23.8885 C   0  0  0  0  0  0
  -17.6467  -30.6596   24.0565 C   0  0  0  0  0  0
  -25.9043  -34.9430   23.5059 C   0  0  0  0  0  0
  -16.5358  -29.9088   23.6341 C   0  0  0  0  0  0
  -16.7282  -28.6496   23.0359 C   0  0  0  0  0  0
  -26.4504  -31.6623   25.0693 C   0  0  0  0  0  0
  -25.3693  -31.3856   26.1410 C   0  0  0  0  0  0
  -27.0344  -30.3035   24.6223 C   0  0  0  0  0  0
  -27.6006  -32.4401   25.7489 C   0  0  0  0  0  0
  -27.5569  -37.1783   24.8467 C   0  0  0  0  0  0
  -21.4210  -29.3062   22.3672 N   0  0  0  0  0  0
  -26.4248  -37.3801   23.9456 N   0  0  0  0  0  0
  -24.7033  -31.0503   22.0818 N   0  0  0  0  0  0
  -23.4193  -28.8196   23.3068 O   0  0  0  0  0  0
  -28.3567  -26.4093   20.1174 O   0  0  0  0  0  0
  -26.5625  -34.8935   22.4636 O   0  0  0  0  0  0
  -23.5518  -32.1312   23.7189 O   0  0  0  0  0  0
  -29.8088  -21.0044   18.4269 C   0  0  0  0  0  0
  -30.4173  -19.8149   17.9555 C   0  0  0  0  0  0
  -29.1079  -19.7780   20.3875 C   0  0  0  0  0  0
  -29.7783  -18.5451   19.9703 C   0  0  0  0  0  0
  -29.0936  -21.0334   19.6444 C   0  0  0  0  0  0
  -30.3972  -18.6059   18.6946 C   0  0  0  0  0  0
  -26.7898  -23.2657   21.5890 C   0  0  0  0  0  0
  -27.3289  -24.5320   21.6256 C   0  0  0  0  0  0
  -27.1767  -22.1841   20.6876 C   0  0  0  0  0  0
  -28.7560  -23.7091   19.6189 C   0  0  0  0  0  0
  -28.3756  -24.9595   20.5754 C   0  0  1  0  0  0
  -27.7399  -17.0813   22.1275 C   0  0  0  0  0  0
  -29.8447  -16.4626   23.3569 C   0  0  0  0  0  0
  -29.9817  -17.2484   20.9127 C   0  0  1  0  0  0
  -29.2457  -17.3760   22.2723 C   0  0  0  0  0  0
  -28.3924  -22.2929   20.0847 N   0  0  0  0  0  0
  -31.0445  -17.5006   18.1387 N   0  0  0  0  0  0
  -29.7565  -15.8117   20.4475 N   0  0  0  0  0  0
  -27.1342  -25.4184   22.4898 O   0  5  0  0  0  0
  -26.4312  -21.2198   20.5171 O   0  0  0  0  0  0
  -31.4762  -12.5744   19.1267 H   0  0  0  0  0  0
  -30.3816  -11.4579   19.9019 H   0  0  0  0  0  0
  -29.7672  -11.7345   17.4795 H   0  0  0  0  0  0
  -29.6413  -13.4629   17.6888 H   0  0  0  0  0  0
  -27.8480  -11.3031   18.8380 H   0  0  0  0  0  0
  -27.3718  -12.6085   17.7799 H   0  0  0  0  0  0
  -27.6404  -14.2573   19.5038 H   0  0  0  0  0  0
  -28.7467  -12.1089   21.3675 H   0  0  0  0  0  0
  -28.4641  -13.7755   21.8062 H   0  0  0  0  0  0
  -25.2781   -9.5699   22.4751 H   0  0  0  0  0  0
  -24.0062   -7.4618   22.7433 H   0  0  0  0  0  0
  -21.0876   -8.8777   19.8934 H   0  0  0  0  0  0
  -22.3699  -10.9710   19.6193 H   0  0  0  0  0  0
  -21.1943   -7.6144   23.9733 H   0  0  0  0  0  0
  -21.1504   -6.0511   25.9083 H   0  0  0  0  0  0
  -22.0596   -2.7631   23.2826 H   0  0  0  0  0  0
  -22.4165  -11.9912   22.4853 H   0  0  0  0  0  0
  -21.1125  -13.1240   22.2587 H   0  0  0  0  0  0
  -24.6421  -15.8326   20.5030 H   0  0  0  0  0  0
  -26.2487  -15.6291   20.0336 H   0  0  0  0  0  0
  -26.7252  -32.5367   23.1035 H   0  0  0  0  0  0
  -25.0125  -33.9688   25.0351 H   0  0  0  0  0  0
  -22.7283  -31.2916   21.3771 H   0  0  0  0  0  0
  -23.3719  -35.9622   23.3296 H   0  0  0  0  0  0
  -24.3543  -36.8924   22.2053 H   0  0  0  0  0  0
  -23.7184  -37.6480   23.6654 H   0  0  0  0  0  0
  -26.1003  -31.5186   20.5675 H   0  0  0  0  0  0
  -26.8622  -30.8312   21.9764 H   0  0  0  0  0  0
  -28.1287  -28.9559   21.1459 H   0  0  0  0  0  0
  -25.9782  -25.8340   19.0888 H   0  0  0  0  0  0
  -23.9541  -27.2313   19.0940 H   0  0  0  0  0  0
  -23.7757  -30.5522   19.3891 H   0  0  0  0  0  0
  -22.7614  -29.2217   19.8561 H   0  0  0  0  0  0
  -25.1267  -36.1885   25.0799 H   0  0  0  0  0  0
  -20.9975  -28.3284   24.1397 H   0  0  0  0  0  0
  -20.5747  -26.2312   23.3625 H   0  0  0  0  0  0
  -21.6669  -26.7501   22.1169 H   0  0  0  0  0  0
  -19.6950  -25.6302   21.1278 H   0  0  0  0  0  0
  -19.6730  -27.3174   20.6756 H   0  0  0  0  0  0
  -17.4245  -26.6729   21.3982 H   0  0  0  0  0  0
  -18.0280  -26.0098   22.8979 H   0  0  0  0  0  0
  -19.7919  -30.7303   24.2245 H   0  0  0  0  0  0
  -17.4997  -31.6268   24.5168 H   0  0  0  0  0  0
  -15.5333  -30.2992   23.7684 H   0  0  0  0  0  0
  -15.8684  -28.0830   22.7114 H   0  0  0  0  0  0
  -24.5820  -30.7261   25.7809 H   0  0  0  0  0  0
  -24.8941  -32.3051   26.4802 H   0  0  0  0  0  0
  -25.7959  -30.9072   27.0223 H   0  0  0  0  0  0
  -26.2951  -29.6788   24.1211 H   0  0  0  0  0  0
  -27.3988  -29.7322   25.4774 H   0  0  0  0  0  0
  -27.8822  -30.4353   23.9494 H   0  0  0  0  0  0
  -27.2571  -33.3721   26.2016 H   0  0  0  0  0  0
  -28.3836  -32.6966   25.0328 H   0  0  0  0  0  0
  -28.0651  -31.8568   26.5457 H   0  0  0  0  0  0
  -28.2589  -38.0089   24.7524 H   0  0  0  0  0  0
  -28.1035  -36.2602   24.6218 H   0  0  0  0  0  0
  -27.2298  -37.1389   25.8878 H   0  0  0  0  0  0
  -20.9420  -29.8730   21.6809 H   0  0  0  0  0  0
  -26.0101  -38.2864   24.1486 H   0  0  0  0  0  0
  -29.8811  -21.8901   17.8143 H   0  0  0  0  0  0
  -30.9326  -19.8487   17.0035 H   0  0  0  0  0  0
  -28.5864  -19.7831   21.3320 H   0  0  0  0  0  0
  -26.0687  -23.0084   22.3561 H   0  0  0  0  0  0
  -29.8285  -23.7417   19.4318 H   0  0  0  0  0  0
  -28.2756  -23.8660   18.6509 H   0  0  0  0  0  0
  -29.2907  -25.0120   21.1677 H   0  0  0  0  0  0
  -27.1885  -17.4074   23.0071 H   0  0  0  0  0  0
  -27.5616  -16.0119   22.0145 H   0  0  0  0  0  0
  -27.3031  -17.5831   21.2612 H   0  0  0  0  0  0
  -29.3213  -16.5981   24.3049 H   0  0  0  0  0  0
  -30.8993  -16.6731   23.5358 H   0  0  0  0  0  0
  -29.7537  -15.4090   23.0968 H   0  0  0  0  0  0
  -31.0465  -17.3051   21.1487 H   0  0  0  0  0  0
  -29.3837  -18.3859   22.6549 H   0  0  0  0  0  0
  -31.1179  -17.4441   17.1277 H   0  0  0  0  0  0
  -30.9321  -16.5914   18.5743 H   0  0  0  0  0  0
  -28.7813  -15.5664   20.4119 H   0  0  0  0  0  0
  1 25  1  0  0  0
  1 30  2  0  0  0
  1 88  1  0  0  0
  2  3  1  0  0  0
  2 25  1  0  0  0
  2 91  1  0  0  0
  2 92  1  0  0  0
  3  4  1  0  0  0
  3 93  1  0  0  0
  3 94  1  0  0  0
  4  5  1  0  0  0
  4 95  1  0  0  0
  4 96  1  0  0  0
  5  6  1  0  0  0
  5 26  1  0  0  0
  5 97  1  0  0  0
  6 25  1  0  0  0
  6 98  1  0  0  0
  6 99  1  0  0  0
  7  8  2  0  0  0
  7 26  1  0  0  0
  7 29  1  0  0  0
  8  9  1  0  0  0
  8 22  1  0  0  0
  9 10  1  0  0  0
  9 27  2  0  0  0
 10 11  2  0  0  0
 10 15  1  0  0  0
 11 12  1  0  0  0
 11100  1  0  0  0
 12 13  2  0  0  0
 12101  1  0  0  0
 13 14  1  0  0  0
 13 31  1  0  0  0
 14 15  2  0  0  0
 14102  1  0  0  0
 15103  1  0  0  0
 16 17  2  0  0  0
 16 21  1  0  0  0
 16 31  1  0  0  0
 17 18  1  0  0  0
 17104  1  0  0  0
 18 19  2  0  0  0
 18105  1  0  0  0
 19 20  1  0  0  0
 19 24  1  0  0  0
 20 21  2  0  0  0
 20106  1  0  0  0
 21 23  1  0  0  0
 22 28  1  0  0  0
 22 32  2  0  0  0
 26 27  1  0  0  0
 28107  1  0  0  0
 28108  1  0  0  0
 29109  1  0  0  0
 29110  1  0  0  0
 33 34  1  0  0  0
 33 66  1  0  0  0
 33 70  2  0  0  0
 34 36  1  0  0  0
 34 59  1  0  0  0
 34111  1  0  0  0
 35 44  2  0  0  0
 35 45  1  0  0  0
 35 68  1  0  0  0
 36 56  1  0  0  0
 36112  1  0  0  0
 37 39  1  0  0  0
 37 47  1  0  0  0
 37 66  1  0  0  0
 37113  1  0  0  0
 38 43  2  0  0  0
 38 46  1  0  0  0
 38 47  1  0  0  0
 39 64  1  0  0  0
 39 67  2  0  0  0
 40 52  1  0  0  0
 40 53  2  0  0  0
 40 58  1  0  0  0
 41114  1  0  0  0
 41115  1  0  0  0
 41116  1  0  0  0
 41 48  1  0  0  0
 42 43  1  0  0  0
 42 66  1  0  0  0
 42117  1  0  0  0
 42118  1  0  0  0
 43 44  1  0  0  0
 44119  1  0  0  0
 45 46  2  0  0  0
 45120  1  0  0  0
 46121  1  0  0  0
 47122  1  0  0  0
 47123  1  0  0  0
 48 56  1  0  0  0
 48 65  1  0  0  0
 48124  1  0  0  0
 49 50  1  0  0  0
 49 53  1  0  0  0
 49 64  1  0  0  0
 49125  1  0  0  0
 50 51  1  0  0  0
 50126  1  0  0  0
 50127  1  0  0  0
 51 52  1  0  0  0
 51128  1  0  0  0
 51129  1  0  0  0
 52130  1  0  0  0
 52131  1  0  0  0
 53 54  1  0  0  0
 54 55  2  0  0  0
 54132  1  0  0  0
 55 57  1  0  0  0
 55133  1  0  0  0
 56 69  2  0  0  0
 57 58  2  0  0  0
 57134  1  0  0  0
 58135  1  0  0  0
 59 60  1  0  0  0
 59 61  1  0  0  0
 59 62  1  0  0  0
 60136  1  0  0  0
 60137  1  0  0  0
 60138  1  0  0  0
 61139  1  0  0  0
 61140  1  0  0  0
 61141  1  0  0  0
 62142  1  0  0  0
 62143  1  0  0  0
 62144  1  0  0  0
 63 65  1  0  0  0
 63145  1  0  0  0
 63146  1  0  0  0
 63147  1  0  0  0
 64148  1  0  0  0
 65149  1  0  0  0
 68 81  1  0  0  0
 71 72  2  0  0  0
 71 75  1  0  0  0
 71150  1  0  0  0
 72 76  1  0  0  0
 72151  1  0  0  0
 73 74  1  0  0  0
 73 75  2  0  0  0
 73152  1  0  0  0
 74 76  2  0  0  0
 74 84  1  0  0  0
 75 86  1  0  0  0
 76 87  1  0  0  0
 77 78  2  0  0  0
 77 79  1  0  0  0
 77153  1  0  0  0
 78 81  1  0  0  0
 78 89  1  0  0  0
 79 86  1  0  0  0
 79 90  2  0  0  0
 80 81  1  0  0  0
 80 86  1  0  0  0
 80154  1  0  0  0
 80155  1  0  0  0
 81156  1  0  0  0
 82157  1  0  0  0
 82158  1  0  0  0
 82159  1  0  0  0
 82 85  1  0  0  0
 83 85  1  0  0  0
 83160  1  0  0  0
 83161  1  0  0  0
 83162  1  0  0  0
 84 85  1  0  0  0
 84 88  1  0  0  0
 84163  1  0  0  0
 85164  1  0  0  0
 87165  1  0  0  0
 87166  1  0  0  0
 88167  1  0  0  0
M  CHG  1  89  -1
M  ISO  4   1 100  68 101  81 101  88 100
M  END
> <chiral flag>
0

> <version>
0

> <s_m_source_file>
/data/baiqing/PycharmProjects/Reinvent-master-3.2/result/LINK_invent/BTK/process_docking_weight1_custom_product_contain_oxygen_bond_distance_aromatic_linkinvent_7_9_3/rearranged_h_0070.sdf

> <i_m_source_file_index>
33

> <r_mmod_Potential_Energy-OPLS-2005>
-8.58221340179443

> <r_mmod_Stretch_Energy-OPLS-2005>
141.508422851562

> <r_mmod_Bend_Energy-OPLS-2005>
219.699172973633

> <r_mmod_Torsional_Energy-OPLS-2005>
309.893951416016

> <r_mmod_Improper_Torsional_Energy-OPLS-2005>
10.6123428344727

> <r_mmod_Van_der_Waal_Energy-OPLS-2005>
144.082321166992

> <r_mmod_Electrostatic_Energy-OPLS-2005>
-426.379241943359

> <r_mmod_Solvation_Energy-OPLS-2005>
-487.914978027344

> <b_mmod_Minimization_Converged-OPLS-2005>
0

> <r_mmod_RMS_Derivative-OPLS-2005>
6.57276725769043

$$$$
33
                    3D
 Structure written by MMmdl.
159168  0  0  1  0            999 V2000
  -30.5325  -14.8200   20.4715 C   0  0  0  0  0  0
  -30.4576  -12.5104   19.4512 C   0  0  0  0  0  0
  -29.5167  -12.5462   18.2221 C   0  0  0  0  0  0
  -28.0461  -12.3430   18.6374 C   0  0  0  0  0  0
  -27.6482  -13.2227   19.8493 C   0  0  2  0  0  0
  -28.7010  -13.1377   20.9791 C   0  0  0  0  0  0
  -25.2581  -13.8168   20.5671 C   0  0  0  0  0  0
  -24.1863  -13.0430   20.9197 C   0  0  0  0  0  0
  -24.6431  -11.6903   20.8731 C   0  0  0  0  0  0
  -23.9094  -10.4284   21.0406 C   0  0  0  0  0  0
  -24.3641   -9.4198   21.9189 C   0  0  0  0  0  0
  -23.6312   -8.2228   22.0746 C   0  0  0  0  0  0
  -22.4277   -8.0290   21.3548 C   0  0  0  0  0  0
  -21.9934   -9.0253   20.4629 C   0  0  0  0  0  0
  -22.7267  -10.2132   20.3053 C   0  0  0  0  0  0
  -21.6850   -6.0744   22.5289 C   0  0  0  0  0  0
  -21.4011   -6.5644   23.8218 C   0  0  0  0  0  0
  -21.3666   -5.6800   24.9169 C   0  0  0  0  0  0
  -21.6040   -4.3060   24.7218 C   0  0  0  0  0  0
  -21.8830   -3.8154   23.4335 C   0  0  0  0  0  0
  -21.9194   -4.6977   22.3393 C   0  0  0  0  0  0
  -22.7883  -13.5228   21.1830 C   0  0  0  0  0  0
  -22.1666   -4.2167   21.0975 F   0  0  0  0  0  0
  -21.5627   -3.4542   25.7722 F   0  0  0  0  0  0
  -29.9962  -13.5449   20.4050 N   0  0  0  0  0  0
  -26.2987  -12.9340   20.3272 N   0  0  0  0  0  0
  -25.9362  -11.6509   20.5720 N   0  0  0  0  0  0
  -22.0514  -12.8200   22.0365 N   0  0  0  0  0  0
  -25.4223  -15.1892   20.4080 N   0  0  0  0  0  0
  -31.7196  -15.0105   20.1865 O   0  0  0  0  0  0
  -21.6636   -6.8887   21.4248 O   0  0  0  0  0  0
  -22.3581  -14.5540   20.6691 O   0  0  0  0  0  0
  -24.6386  -31.8491   23.1955 C   0  0  0  0  0  0
  -25.9184  -32.4746   23.8318 C   0  0  1  0  0  0
  -27.2349  -27.1930   20.1546 C   0  0  0  0  0  0
  -25.5952  -33.8552   24.2227 N   0  0  0  0  0  0
  -23.4415  -30.4653   21.5413 C   0  0  2  0  0  0
  -24.8978  -28.9056   20.1158 C   0  0  0  0  0  0
  -22.7549  -29.4524   22.4897 C   0  0  0  0  0  0
  -18.0237  -28.1313   22.8562 C   0  0  0  0  0  0
  -24.1488  -36.7287   23.2640 C   0  0  0  0  0  0
  -25.9948  -30.7408   21.3901 C   0  0  0  0  0  0
  -26.0738  -29.3591   20.7287 C   0  0  0  0  0  0
  -27.2442  -28.5200   20.7305 C   0  0  0  0  0  0
  -26.0358  -26.8352   19.4942 C   0  0  0  0  0  0
  -24.8901  -27.6551   19.4836 C   0  0  0  0  0  0
  -23.6713  -29.8011   20.1587 C   0  0  0  0  0  0
  -25.4121  -36.3083   24.0319 C   0  0  1  0  0  0
  -20.5873  -28.3648   23.1104 C   0  0  2  0  0  0
  -20.6838  -26.9489   22.4904 C   0  0  0  0  0  0
  -19.5460  -26.6299   21.5145 C   0  0  0  0  0  0
  -18.1897  -26.7688   22.2066 C   0  0  0  0  0  0
  -19.1527  -28.8826   23.2795 C   0  0  0  0  0  0
  -18.9461  -30.1470   23.8778 C   0  0  0  0  0  0
  -17.6454  -30.6586   24.0502 C   0  0  0  0  0  0
  -25.9064  -34.9450   23.5087 C   0  0  0  0  0  0
  -16.5318  -29.9068   23.6358 C   0  0  0  0  0  0
  -16.7230  -28.6449   23.0428 C   0  0  0  0  0  0
  -26.4511  -31.6613   25.0754 C   0  0  0  0  0  0
  -25.3686  -31.3807   26.1440 C   0  0  0  0  0  0
  -27.0365  -30.2997   24.6346 C   0  0  0  0  0  0
  -27.6017  -32.4380   25.7572 C   0  0  0  0  0  0
  -27.5574  -37.1815   24.8473 C   0  0  0  0  0  0
  -21.4238  -29.3067   22.3684 N   0  0  0  0  0  0
  -26.4286  -37.3785   23.9425 N   0  0  0  0  0  0
  -24.7107  -31.0353   22.0988 N   0  0  0  0  0  0
  -23.4216  -28.7998   23.2963 O   0  0  0  0  0  0
  -28.3108  -26.2450   20.2182 O   0  0  0  0  0  0
  -26.5617  -34.8930   22.4636 O   0  0  0  0  0  0
  -23.5513  -32.1363   23.7194 O   0  0  0  0  0  0
  -28.1228  -17.2368   21.7383 C   0  0  0  0  0  0
  -29.7396  -18.5855   20.5355 C   0  0  0  0  0  0
  -27.3932  -18.3940   22.0401 C   0  0  0  0  0  0
  -29.0596  -19.8650   20.8920 C   0  0  0  0  0  0
  -29.2817  -17.2450   20.9508 C   0  0  0  0  0  0
  -27.8609  -19.6661   21.6347 C   0  0  0  0  0  0
  -29.3594  -22.4957   21.4334 C   0  0  0  0  0  0
  -26.1107  -18.2228   22.8030 C   0  0  0  0  0  0
  -28.6170  -22.0587   19.5910 C   0  0  0  0  0  0
  -29.0637  -23.4598   20.1978 C   0  0  1  0  0  0
  -23.7089  -18.8050   22.9014 C   0  0  0  0  0  0
  -28.0197  -24.7352   20.3439 C   0  0  0  0  0  0
  -29.3968  -21.3211   20.6130 N   0  0  0  0  0  0
  -29.5668  -15.8227   20.5556 N   0  0  0  0  0  0
  -25.0411  -18.8604   22.3167 N   0  0  0  0  0  0
  -29.4134  -22.6168   22.6440 O   0  0  0  0  0  0
  -26.0477  -17.4626   23.7728 O   0  0  0  0  0  0
  -27.1169  -20.7518   21.9600 F   0  0  0  0  0  0
  -31.4884  -12.6880   19.1415 H   0  0  0  0  0  0
  -30.4446  -11.5263   19.9213 H   0  0  0  0  0  0
  -29.8065  -11.7894   17.4929 H   0  0  0  0  0  0
  -29.6165  -13.5070   17.7124 H   0  0  0  0  0  0
  -27.9128  -11.2879   18.8835 H   0  0  0  0  0  0
  -27.3863  -12.5418   17.7905 H   0  0  0  0  0  0
  -27.6356  -14.2453   19.4760 H   0  0  0  0  0  0
  -28.7644  -12.1218   21.3775 H   0  0  0  0  0  0
  -28.4244  -13.7726   21.8219 H   0  0  0  0  0  0
  -25.2805   -9.5653   22.4732 H   0  0  0  0  0  0
  -24.0028   -7.4618   22.7475 H   0  0  0  0  0  0
  -21.0859   -8.8784   19.8929 H   0  0  0  0  0  0
  -22.3767  -10.9663   19.6140 H   0  0  0  0  0  0
  -21.2007   -7.6156   23.9733 H   0  0  0  0  0  0
  -21.1478   -6.0513   25.9079 H   0  0  0  0  0  0
  -22.0603   -2.7619   23.2823 H   0  0  0  0  0  0
  -22.4175  -11.9867   22.4730 H   0  0  0  0  0  0
  -21.1110  -13.1184   22.2540 H   0  0  0  0  0  0
  -24.6277  -15.8142   20.4856 H   0  0  0  0  0  0
  -26.2258  -15.6243   19.9774 H   0  0  0  0  0  0
  -26.7216  -32.5377   23.1024 H   0  0  0  0  0  0
  -25.0170  -33.9701   25.0417 H   0  0  0  0  0  0
  -22.7391  -31.2891   21.3940 H   0  0  0  0  0  0
  -23.3761  -35.9606   23.3311 H   0  0  0  0  0  0
  -24.3581  -36.8915   22.2059 H   0  0  0  0  0  0
  -23.7230  -37.6479   23.6654 H   0  0  0  0  0  0
  -26.1415  -31.4995   20.6202 H   0  0  0  0  0  0
  -26.8661  -30.7919   22.0293 H   0  0  0  0  0  0
  -28.1414  -28.8698   21.2190 H   0  0  0  0  0  0
  -25.9434  -25.8990   18.9711 H   0  0  0  0  0  0
  -23.9987  -27.3058   18.9824 H   0  0  0  0  0  0
  -23.8202  -30.5839   19.4154 H   0  0  0  0  0  0
  -22.7873  -29.2526   19.8296 H   0  0  0  0  0  0
  -25.1293  -36.1926   25.0801 H   0  0  0  0  0  0
  -20.9904  -28.2973   24.1217 H   0  0  0  0  0  0
  -20.6313  -26.2184   23.2991 H   0  0  0  0  0  0
  -21.6540  -26.7877   22.0179 H   0  0  0  0  0  0
  -19.6613  -25.6144   21.1289 H   0  0  0  0  0  0
  -19.5917  -27.2997   20.6531 H   0  0  0  0  0  0
  -17.3838  -26.5904   21.4950 H   0  0  0  0  0  0
  -18.0929  -26.0083   22.9850 H   0  0  0  0  0  0
  -19.7893  -30.7357   24.2134 H   0  0  0  0  0  0
  -17.4997  -31.6257   24.5100 H   0  0  0  0  0  0
  -15.5347  -30.2989   23.7798 H   0  0  0  0  0  0
  -15.8601  -28.0741   22.7262 H   0  0  0  0  0  0
  -24.5848  -30.7166   25.7782 H   0  0  0  0  0  0
  -24.8880  -32.2982   26.4819 H   0  0  0  0  0  0
  -25.7961  -30.9022   27.0253 H   0  0  0  0  0  0
  -26.2992  -29.6741   24.1285 H   0  0  0  0  0  0
  -27.3873  -29.7297   25.4963 H   0  0  0  0  0  0
  -27.8946  -30.4226   23.9737 H   0  0  0  0  0  0
  -27.2561  -33.3671   26.2107 H   0  0  0  0  0  0
  -28.3858  -32.6960   25.0451 H   0  0  0  0  0  0
  -28.0614  -31.8544   26.5550 H   0  0  0  0  0  0
  -28.2583  -38.0119   24.7502 H   0  0  0  0  0  0
  -28.1077  -36.2645   24.6301 H   0  0  0  0  0  0
  -27.2297  -37.1467   25.8879 H   0  0  0  0  0  0
  -20.9397  -29.8896   21.7009 H   0  0  0  0  0  0
  -26.0171  -38.2861   24.1415 H   0  0  0  0  0  0
  -27.7025  -16.2954   22.0672 H   0  0  0  0  0  0
  -30.6137  -18.6412   19.8997 H   0  0  0  0  0  0
  -28.9652  -21.8700   18.5771 H   0  0  0  0  0  0
  -27.5387  -21.8915   19.6692 H   0  0  0  0  0  0
  -29.9833  -23.7779   19.7012 H   0  0  0  0  0  0
  -23.0529  -19.5185   22.4034 H   0  0  0  0  0  0
  -23.7418  -19.0605   23.9636 H   0  0  0  0  0  0
  -23.2758  -17.8067   22.8023 H   0  0  0  0  0  0
  -27.5245  -24.6290   21.3089 H   0  0  0  0  0  0
  -27.2459  -24.4996   19.6188 H   0  0  0  0  0  0
  -28.7145  -15.2919   20.6698 H   0  0  0  0  0  0
  -25.1712  -19.4261   21.4865 H   0  0  0  0  0  0
  1 25  1  0  0  0
  1 30  2  0  0  0
  1 84  1  0  0  0
  2  3  1  0  0  0
  2 25  1  0  0  0
  2 89  1  0  0  0
  2 90  1  0  0  0
  3  4  1  0  0  0
  3 91  1  0  0  0
  3 92  1  0  0  0
  4  5  1  0  0  0
  4 93  1  0  0  0
  4 94  1  0  0  0
  5  6  1  0  0  0
  5 26  1  0  0  0
  5 95  1  0  0  0
  6 25  1  0  0  0
  6 96  1  0  0  0
  6 97  1  0  0  0
  7  8  2  0  0  0
  7 26  1  0  0  0
  7 29  1  0  0  0
  8  9  1  0  0  0
  8 22  1  0  0  0
  9 10  1  0  0  0
  9 27  2  0  0  0
 10 11  2  0  0  0
 10 15  1  0  0  0
 11 12  1  0  0  0
 11 98  1  0  0  0
 12 13  2  0  0  0
 12 99  1  0  0  0
 13 14  1  0  0  0
 13 31  1  0  0  0
 14 15  2  0  0  0
 14100  1  0  0  0
 15101  1  0  0  0
 16 17  2  0  0  0
 16 21  1  0  0  0
 16 31  1  0  0  0
 17 18  1  0  0  0
 17102  1  0  0  0
 18 19  2  0  0  0
 18103  1  0  0  0
 19 20  1  0  0  0
 19 24  1  0  0  0
 20 21  2  0  0  0
 20104  1  0  0  0
 21 23  1  0  0  0
 22 28  1  0  0  0
 22 32  2  0  0  0
 26 27  1  0  0  0
 28105  1  0  0  0
 28106  1  0  0  0
 29107  1  0  0  0
 29108  1  0  0  0
 33 34  1  0  0  0
 33 66  1  0  0  0
 33 70  2  0  0  0
 34 36  1  0  0  0
 34 59  1  0  0  0
 34109  1  0  0  0
 35 44  2  0  0  0
 35 45  1  0  0  0
 35 68  1  0  0  0
 36 56  1  0  0  0
 36110  1  0  0  0
 37 39  1  0  0  0
 37 47  1  0  0  0
 37 66  1  0  0  0
 37111  1  0  0  0
 38 43  2  0  0  0
 38 46  1  0  0  0
 38 47  1  0  0  0
 39 64  1  0  0  0
 39 67  2  0  0  0
 40 52  1  0  0  0
 40 53  2  0  0  0
 40 58  1  0  0  0
 41112  1  0  0  0
 41113  1  0  0  0
 41114  1  0  0  0
 41 48  1  0  0  0
 42 43  1  0  0  0
 42 66  1  0  0  0
 42115  1  0  0  0
 42116  1  0  0  0
 43 44  1  0  0  0
 44117  1  0  0  0
 45 46  2  0  0  0
 45118  1  0  0  0
 46119  1  0  0  0
 47120  1  0  0  0
 47121  1  0  0  0
 48 56  1  0  0  0
 48 65  1  0  0  0
 48122  1  0  0  0
 49 50  1  0  0  0
 49 53  1  0  0  0
 49 64  1  0  0  0
 49123  1  0  0  0
 50 51  1  0  0  0
 50124  1  0  0  0
 50125  1  0  0  0
 51 52  1  0  0  0
 51126  1  0  0  0
 51127  1  0  0  0
 52128  1  0  0  0
 52129  1  0  0  0
 53 54  1  0  0  0
 54 55  2  0  0  0
 54130  1  0  0  0
 55 57  1  0  0  0
 55131  1  0  0  0
 56 69  2  0  0  0
 57 58  2  0  0  0
 57132  1  0  0  0
 58133  1  0  0  0
 59 60  1  0  0  0
 59 61  1  0  0  0
 59 62  1  0  0  0
 60134  1  0  0  0
 60135  1  0  0  0
 60136  1  0  0  0
 61137  1  0  0  0
 61138  1  0  0  0
 61139  1  0  0  0
 62140  1  0  0  0
 62141  1  0  0  0
 62142  1  0  0  0
 63 65  1  0  0  0
 63143  1  0  0  0
 63144  1  0  0  0
 63145  1  0  0  0
 64146  1  0  0  0
 65147  1  0  0  0
 68 82  1  0  0  0
 71 73  2  0  0  0
 71 75  1  0  0  0
 71148  1  0  0  0
 72 74  1  0  0  0
 72 75  2  0  0  0
 72149  1  0  0  0
 73 76  1  0  0  0
 73 78  1  0  0  0
 74 76  2  0  0  0
 74 83  1  0  0  0
 75 84  1  0  0  0
 76 88  1  0  0  0
 77 80  1  0  0  0
 77 83  1  0  0  0
 77 86  2  0  0  0
 78 85  1  0  0  0
 78 87  2  0  0  0
 79 80  1  0  0  0
 79 83  1  0  0  0
 79150  1  0  0  0
 79151  1  0  0  0
 80 82  1  0  0  0
 80152  1  0  0  0
 81 85  1  0  0  0
 81153  1  0  0  0
 81154  1  0  0  0
 81155  1  0  0  0
 82156  1  0  0  0
 82157  1  0  0  0
 84158  1  0  0  0
 85159  1  0  0  0
M  ISO  4   1 100  68 101  82 101  84 100
M  END
> <chiral flag>
0

> <version>
0

> <s_m_source_file>
/data/baiqing/PycharmProjects/Reinvent-master-3.2/result/LINK_invent/BTK/process_docking_weight1_custom_product_contain_oxygen_bond_distance_aromatic_linkinvent_7_9_3/rearranged_h_0070.sdf

> <i_m_source_file_index>
34

> <r_mmod_Potential_Energy-OPLS-2005>
338.567108154297

> <r_mmod_Stretch_Energy-OPLS-2005>
182.744827270508

> <r_mmod_Bend_Energy-OPLS-2005>
294.609252929688

> <r_mmod_Torsional_Energy-OPLS-2005>
288.594848632812

> <r_mmod_Improper_Torsional_Energy-OPLS-2005>
19.1286125183105

> <r_mmod_Van_der_Waal_Energy-OPLS-2005>
134.620025634766

> <r_mmod_Electrostatic_Energy-OPLS-2005>
-456.588684082031

> <r_mmod_Solvation_Energy-OPLS-2005>
-254.303665161133

> <b_mmod_Minimization_Converged-OPLS-2005>
0

> <r_mmod_RMS_Derivative-OPLS-2005>
6.30145359039307

$$$$
34
                    3D
 Structure written by MMmdl.
159168  0  0  1  0            999 V2000
  -30.6154  -14.6873   20.4546 C   0  0  0  0  0  0
  -30.4394  -12.4096   19.4728 C   0  0  0  0  0  0
  -29.5236  -12.5135   18.2338 C   0  0  0  0  0  0
  -28.0403  -12.3637   18.6307 C   0  0  0  0  0  0
  -27.6555  -13.2333   19.8584 C   0  0  2  0  0  0
  -28.6983  -13.1160   20.9925 C   0  0  0  0  0  0
  -25.2569  -13.8192   20.5655 C   0  0  0  0  0  0
  -24.1844  -13.0449   20.9157 C   0  0  0  0  0  0
  -24.6423  -11.6922   20.8700 C   0  0  0  0  0  0
  -23.9073  -10.4299   21.0366 C   0  0  0  0  0  0
  -24.3609   -9.4212   21.9152 C   0  0  0  0  0  0
  -23.6294   -8.2250   22.0729 C   0  0  0  0  0  0
  -22.4278   -8.0285   21.3525 C   0  0  0  0  0  0
  -21.9912   -9.0253   20.4627 C   0  0  0  0  0  0
  -22.7243  -10.2136   20.3019 C   0  0  0  0  0  0
  -21.6859   -6.0724   22.5258 C   0  0  0  0  0  0
  -21.4017   -6.5616   23.8198 C   0  0  0  0  0  0
  -21.3665   -5.6744   24.9155 C   0  0  0  0  0  0
  -21.6070   -4.3021   24.7201 C   0  0  0  0  0  0
  -21.8823   -3.8116   23.4315 C   0  0  0  0  0  0
  -21.9183   -4.6936   22.3379 C   0  0  0  0  0  0
  -22.7860  -13.5224   21.1820 C   0  0  0  0  0  0
  -22.1657   -4.2119   21.0955 F   0  0  0  0  0  0
  -21.5642   -3.4521   25.7722 F   0  0  0  0  0  0
  -30.0096  -13.4556   20.4275 N   0  0  0  0  0  0
  -26.3019  -12.9407   20.3255 N   0  0  0  0  0  0
  -25.9364  -11.6543   20.5683 N   0  0  0  0  0  0
  -22.0464  -12.8237   22.0366 N   0  0  0  0  0  0
  -25.4308  -15.1918   20.4146 N   0  0  0  0  0  0
  -31.7883  -14.8129   20.0858 O   0  0  0  0  0  0
  -21.6623   -6.8891   21.4237 O   0  0  0  0  0  0
  -22.3541  -14.5521   20.6648 O   0  0  0  0  0  0
  -24.6319  -31.8564   23.2021 C   0  0  0  0  0  0
  -25.9156  -32.4749   23.8353 C   0  0  1  0  0  0
  -27.2116  -27.2591   20.1292 C   0  0  0  0  0  0
  -25.5944  -33.8551   24.2264 N   0  0  0  0  0  0
  -23.4279  -30.4834   21.5440 C   0  0  2  0  0  0
  -24.8767  -28.9368   20.1108 C   0  0  0  0  0  0
  -22.7491  -29.4623   22.4888 C   0  0  0  0  0  0
  -18.0290  -28.1412   22.8479 C   0  0  0  0  0  0
  -24.1500  -36.7293   23.2632 C   0  0  0  0  0  0
  -25.9777  -30.7688   21.3827 C   0  0  0  0  0  0
  -26.0504  -29.3940   20.7196 C   0  0  0  0  0  0
  -27.2219  -28.5714   20.7181 C   0  0  0  0  0  0
  -26.0155  -26.8812   19.4743 C   0  0  0  0  0  0
  -24.8640  -27.6854   19.4803 C   0  0  0  0  0  0
  -23.6494  -29.8233   20.1589 C   0  0  0  0  0  0
  -25.4118  -36.3071   24.0334 C   0  0  1  0  0  0
  -20.5887  -28.3725   23.1260 C   0  0  2  0  0  0
  -20.6793  -26.9443   22.5413 C   0  0  0  0  0  0
  -19.5768  -26.6393   21.5223 C   0  0  0  0  0  0
  -18.1947  -26.7952   22.1621 C   0  0  0  0  0  0
  -19.1545  -28.8882   23.2866 C   0  0  0  0  0  0
  -18.9447  -30.1474   23.8898 C   0  0  0  0  0  0
  -17.6446  -30.6600   24.0544 C   0  0  0  0  0  0
  -25.9062  -34.9434   23.5096 C   0  0  0  0  0  0
  -16.5332  -29.9092   23.6342 C   0  0  0  0  0  0
  -16.7269  -28.6514   23.0343 C   0  0  0  0  0  0
  -26.4491  -31.6584   25.0757 C   0  0  0  0  0  0
  -25.3691  -31.3775   26.1463 C   0  0  0  0  0  0
  -27.0304  -30.2969   24.6302 C   0  0  0  0  0  0
  -27.6050  -32.4322   25.7527 C   0  0  0  0  0  0
  -27.5605  -37.1783   24.8431 C   0  0  0  0  0  0
  -21.4200  -29.3069   22.3631 N   0  0  0  0  0  0
  -26.4286  -37.3779   23.9424 N   0  0  0  0  0  0
  -24.6984  -31.0533   22.0982 N   0  0  0  0  0  0
  -23.4195  -28.8147   23.2958 O   0  0  0  0  0  0
  -28.2863  -26.3413   20.2157 O   0  0  0  0  0  0
  -26.5611  -34.8904   22.4655 O   0  0  0  0  0  0
  -23.5466  -32.1360   23.7318 O   0  0  0  0  0  0
  -30.0312  -18.3423   17.9636 C   0  0  0  0  0  0
  -30.0684  -17.1380   18.6812 C   0  0  0  0  0  0
  -29.5448  -18.3921   20.6913 C   0  0  0  0  0  0
  -29.7950  -19.5898   18.5837 C   0  0  0  0  0  0
  -29.5239  -19.6741   19.9847 C   0  0  0  0  0  0
  -29.8488  -17.1124   20.0721 C   0  0  0  0  0  0
  -29.9543  -21.2866   21.8262 C   0  0  0  0  0  0
  -29.7698  -22.6652   22.5227 C   0  0  0  0  0  0
  -28.4799  -22.1570   20.1047 C   0  0  0  0  0  0
  -28.9133  -23.6507   20.5113 C   0  0  1  0  0  0
  -29.9144  -20.7987   17.6720 C   0  0  0  0  0  0
  -28.0069  -24.8772   19.9810 C   0  0  0  0  0  0
  -29.3233  -21.0096   20.6520 N   0  0  0  0  0  0
  -29.8444  -15.7970   20.7439 N   0  0  0  0  0  0
  -30.7271  -20.4939   22.3749 O   0  0  0  0  0  0
  -28.8154  -23.5575   21.9226 O   0  0  0  0  0  0
  -31.4850  -12.5219   19.1796 H   0  0  0  0  0  0
  -30.3646  -11.4197   19.9263 H   0  0  0  0  0  0
  -29.7996  -11.7597   17.4986 H   0  0  0  0  0  0
  -29.6793  -13.4780   17.7479 H   0  0  0  0  0  0
  -27.8601  -11.3123   18.8527 H   0  0  0  0  0  0
  -27.3977  -12.6121   17.7877 H   0  0  0  0  0  0
  -27.6669  -14.2677   19.5128 H   0  0  0  0  0  0
  -28.7166  -12.1043   21.3988 H   0  0  0  0  0  0
  -28.4469  -13.7711   21.8276 H   0  0  0  0  0  0
  -25.2765   -9.5697   22.4709 H   0  0  0  0  0  0
  -23.9991   -7.4639   22.7460 H   0  0  0  0  0  0
  -21.0821   -8.8793   19.8957 H   0  0  0  0  0  0
  -22.3702  -10.9660   19.6112 H   0  0  0  0  0  0
  -21.2012   -7.6132   23.9703 H   0  0  0  0  0  0
  -21.1496   -6.0464   25.9055 H   0  0  0  0  0  0
  -22.0605   -2.7578   23.2784 H   0  0  0  0  0  0
  -22.4047  -11.9921   22.4813 H   0  0  0  0  0  0
  -21.1105  -13.1314   22.2534 H   0  0  0  0  0  0
  -24.6762  -15.8562   20.5497 H   0  0  0  0  0  0
  -26.2841  -15.6257   20.0837 H   0  0  0  0  0  0
  -26.7211  -32.5379   23.1080 H   0  0  0  0  0  0
  -25.0101  -33.9690   25.0412 H   0  0  0  0  0  0
  -22.7255  -31.3076   21.4008 H   0  0  0  0  0  0
  -23.3782  -35.9599   23.3213 H   0  0  0  0  0  0
  -24.3619  -36.8992   22.2065 H   0  0  0  0  0  0
  -23.7208  -37.6459   23.6687 H   0  0  0  0  0  0
  -26.1246  -31.5363   20.6216 H   0  0  0  0  0  0
  -26.8516  -30.8056   22.0239 H   0  0  0  0  0  0
  -28.1187  -28.9195   21.2141 H   0  0  0  0  0  0
  -25.9274  -25.9331   18.9650 H   0  0  0  0  0  0
  -23.9625  -27.3287   19.0005 H   0  0  0  0  0  0
  -23.7737  -30.6026   19.4050 H   0  0  0  0  0  0
  -22.7679  -29.2579   19.8530 H   0  0  0  0  0  0
  -25.1289  -36.1911   25.0823 H   0  0  0  0  0  0
  -20.9983  -28.3330   24.1365 H   0  0  0  0  0  0
  -20.5752  -26.2328   23.3608 H   0  0  0  0  0  0
  -21.6653  -26.7514   22.1149 H   0  0  0  0  0  0
  -19.6926  -25.6296   21.1278 H   0  0  0  0  0  0
  -19.6726  -27.3187   20.6735 H   0  0  0  0  0  0
  -17.4220  -26.6676   21.4015 H   0  0  0  0  0  0
  -18.0352  -26.0113   22.9041 H   0  0  0  0  0  0
  -19.7910  -30.7285   24.2283 H   0  0  0  0  0  0
  -17.4991  -31.6288   24.5136 H   0  0  0  0  0  0
  -15.5334  -30.2963   23.7706 H   0  0  0  0  0  0
  -15.8662  -28.0834   22.7039 H   0  0  0  0  0  0
  -24.5813  -30.7205   25.7752 H   0  0  0  0  0  0
  -24.8945  -32.2967   26.4911 H   0  0  0  0  0  0
  -25.7969  -30.8881   27.0226 H   0  0  0  0  0  0
  -26.2883  -29.6737   24.1302 H   0  0  0  0  0  0
  -27.3857  -29.7246   25.4887 H   0  0  0  0  0  0
  -27.8837  -30.4147   23.9622 H   0  0  0  0  0  0
  -27.2636  -33.3591   26.2137 H   0  0  0  0  0  0
  -28.3844  -32.6936   25.0362 H   0  0  0  0  0  0
  -28.0735  -31.8433   26.5417 H   0  0  0  0  0  0
  -28.2525  -38.0178   24.7609 H   0  0  0  0  0  0
  -28.1204  -36.2717   24.6079 H   0  0  0  0  0  0
  -27.2348  -37.1210   25.8832 H   0  0  0  0  0  0
  -20.9385  -29.8765   21.6810 H   0  0  0  0  0  0
  -26.0167  -38.2848   24.1462 H   0  0  0  0  0  0
  -30.2191  -18.2960   16.9015 H   0  0  0  0  0  0
  -30.2603  -16.2257   18.1349 H   0  0  0  0  0  0
  -29.3520  -18.3894   21.7552 H   0  0  0  0  0  0
  -30.7400  -23.1571   22.5481 H   0  0  0  0  0  0
  -29.4739  -22.4966   23.5594 H   0  0  0  0  0  0
  -28.3402  -22.1142   19.0344 H   0  0  0  0  0  0
  -27.4682  -21.9873   20.4805 H   0  0  0  0  0  0
  -29.9505  -23.8275   20.2156 H   0  0  0  0  0  0
  -30.5749  -20.5952   16.8303 H   0  0  0  0  0  0
  -30.3357  -21.6619   18.1842 H   0  0  0  0  0  0
  -28.9377  -21.0448   17.2546 H   0  0  0  0  0  0
  -27.0067  -24.6446   20.3447 H   0  0  0  0  0  0
  -27.9738  -24.7698   18.8958 H   0  0  0  0  0  0
  -29.0021  -15.5908   21.2609 H   0  0  0  0  0  0
  1 25  1  0  0  0
  1 30  2  0  0  0
  1 84  1  0  0  0
  2  3  1  0  0  0
  2 25  1  0  0  0
  2 87  1  0  0  0
  2 88  1  0  0  0
  3  4  1  0  0  0
  3 89  1  0  0  0
  3 90  1  0  0  0
  4  5  1  0  0  0
  4 91  1  0  0  0
  4 92  1  0  0  0
  5  6  1  0  0  0
  5 26  1  0  0  0
  5 93  1  0  0  0
  6 25  1  0  0  0
  6 94  1  0  0  0
  6 95  1  0  0  0
  7  8  2  0  0  0
  7 26  1  0  0  0
  7 29  1  0  0  0
  8  9  1  0  0  0
  8 22  1  0  0  0
  9 10  1  0  0  0
  9 27  2  0  0  0
 10 11  2  0  0  0
 10 15  1  0  0  0
 11 12  1  0  0  0
 11 96  1  0  0  0
 12 13  2  0  0  0
 12 97  1  0  0  0
 13 14  1  0  0  0
 13 31  1  0  0  0
 14 15  2  0  0  0
 14 98  1  0  0  0
 15 99  1  0  0  0
 16 17  2  0  0  0
 16 21  1  0  0  0
 16 31  1  0  0  0
 17 18  1  0  0  0
 17100  1  0  0  0
 18 19  2  0  0  0
 18101  1  0  0  0
 19 20  1  0  0  0
 19 24  1  0  0  0
 20 21  2  0  0  0
 20102  1  0  0  0
 21 23  1  0  0  0
 22 28  1  0  0  0
 22 32  2  0  0  0
 26 27  1  0  0  0
 28103  1  0  0  0
 28104  1  0  0  0
 29105  1  0  0  0
 29106  1  0  0  0
 33 34  1  0  0  0
 33 66  1  0  0  0
 33 70  2  0  0  0
 34 36  1  0  0  0
 34 59  1  0  0  0
 34107  1  0  0  0
 35 44  2  0  0  0
 35 45  1  0  0  0
 35 68  1  0  0  0
 36 56  1  0  0  0
 36108  1  0  0  0
 37 39  1  0  0  0
 37 47  1  0  0  0
 37 66  1  0  0  0
 37109  1  0  0  0
 38 43  2  0  0  0
 38 46  1  0  0  0
 38 47  1  0  0  0
 39 64  1  0  0  0
 39 67  2  0  0  0
 40 52  1  0  0  0
 40 53  2  0  0  0
 40 58  1  0  0  0
 41110  1  0  0  0
 41111  1  0  0  0
 41112  1  0  0  0
 41 48  1  0  0  0
 42 43  1  0  0  0
 42 66  1  0  0  0
 42113  1  0  0  0
 42114  1  0  0  0
 43 44  1  0  0  0
 44115  1  0  0  0
 45 46  2  0  0  0
 45116  1  0  0  0
 46117  1  0  0  0
 47118  1  0  0  0
 47119  1  0  0  0
 48 56  1  0  0  0
 48 65  1  0  0  0
 48120  1  0  0  0
 49 50  1  0  0  0
 49 53  1  0  0  0
 49 64  1  0  0  0
 49121  1  0  0  0
 50 51  1  0  0  0
 50122  1  0  0  0
 50123  1  0  0  0
 51 52  1  0  0  0
 51124  1  0  0  0
 51125  1  0  0  0
 52126  1  0  0  0
 52127  1  0  0  0
 53 54  1  0  0  0
 54 55  2  0  0  0
 54128  1  0  0  0
 55 57  1  0  0  0
 55129  1  0  0  0
 56 69  2  0  0  0
 57 58  2  0  0  0
 57130  1  0  0  0
 58131  1  0  0  0
 59 60  1  0  0  0
 59 61  1  0  0  0
 59 62  1  0  0  0
 60132  1  0  0  0
 60133  1  0  0  0
 60134  1  0  0  0
 61135  1  0  0  0
 61136  1  0  0  0
 61137  1  0  0  0
 62138  1  0  0  0
 62139  1  0  0  0
 62140  1  0  0  0
 63 65  1  0  0  0
 63141  1  0  0  0
 63142  1  0  0  0
 63143  1  0  0  0
 64144  1  0  0  0
 65145  1  0  0  0
 68 82  1  0  0  0
 71 72  2  0  0  0
 71 74  1  0  0  0
 71146  1  0  0  0
 72 76  1  0  0  0
 72147  1  0  0  0
 73 75  1  0  0  0
 73 76  2  0  0  0
 73148  1  0  0  0
 74 75  2  0  0  0
 74 81  1  0  0  0
 75 83  1  0  0  0
 76 84  1  0  0  0
 77 78  1  0  0  0
 77 83  1  0  0  0
 77 85  2  0  0  0
 78 86  1  0  0  0
 78149  1  0  0  0
 78150  1  0  0  0
 79 80  1  0  0  0
 79 83  1  0  0  0
 79151  1  0  0  0
 79152  1  0  0  0
 80 82  1  0  0  0
 80 86  1  0  0  0
 80153  1  0  0  0
 81154  1  0  0  0
 81155  1  0  0  0
 81156  1  0  0  0
 82157  1  0  0  0
 82158  1  0  0  0
 84159  1  0  0  0
M  ISO  4   1 100  68 101  82 101  84 100
M  END
> <chiral flag>
0

> <version>
0

> <s_m_source_file>
/data/baiqing/PycharmProjects/Reinvent-master-3.2/result/LINK_invent/BTK/process_docking_weight1_custom_product_contain_oxygen_bond_distance_aromatic_linkinvent_7_9_3/rearranged_h_0070.sdf

> <i_m_source_file_index>
35

> <r_mmod_Potential_Energy-OPLS-2005>
287.092224121094

> <r_mmod_Stretch_Energy-OPLS-2005>
127.86360168457

> <r_mmod_Bend_Energy-OPLS-2005>
169.951751708984

> <r_mmod_Torsional_Energy-OPLS-2005>
277.845489501953

> <r_mmod_Improper_Torsional_Energy-OPLS-2005>
5.40788221359253

> <r_mmod_Van_der_Waal_Energy-OPLS-2005>
168.488494873047

> <r_mmod_Electrostatic_Energy-OPLS-2005>
-303.147766113281

> <r_mmod_Solvation_Energy-OPLS-2005>
-235.318359375

> <b_mmod_Minimization_Converged-OPLS-2005>
0

> <r_mmod_RMS_Derivative-OPLS-2005>
4.20701551437378

$$$$
35
                    3D
 Structure written by MMmdl.
150158  0  0  1  0            999 V2000
  -30.5770  -14.9028   20.5072 C   0  0  0  0  0  0
  -30.4439  -12.5819   19.5034 C   0  0  0  0  0  0
  -29.5225  -12.5630   18.2623 C   0  0  0  0  0  0
  -28.0558  -12.3350   18.6737 C   0  0  0  0  0  0
  -27.6306  -13.2500   19.8513 C   0  0  2  0  0  0
  -28.6752  -13.2525   20.9909 C   0  0  0  0  0  0
  -25.2411  -13.8223   20.5714 C   0  0  0  0  0  0
  -24.1734  -13.0436   20.9219 C   0  0  0  0  0  0
  -24.6354  -11.6926   20.8751 C   0  0  0  0  0  0
  -23.9046  -10.4285   21.0416 C   0  0  0  0  0  0
  -24.3606   -9.4196   21.9186 C   0  0  0  0  0  0
  -23.6287   -8.2225   22.0757 C   0  0  0  0  0  0
  -22.4272   -8.0252   21.3541 C   0  0  0  0  0  0
  -21.9897   -9.0227   20.4646 C   0  0  0  0  0  0
  -22.7220  -10.2113   20.3072 C   0  0  0  0  0  0
  -21.6840   -6.0714   22.5273 C   0  0  0  0  0  0
  -21.4005   -6.5628   23.8202 C   0  0  0  0  0  0
  -21.3675   -5.6793   24.9170 C   0  0  0  0  0  0
  -21.6054   -4.3057   24.7224 C   0  0  0  0  0  0
  -21.8815   -3.8137   23.4348 C   0  0  0  0  0  0
  -21.9178   -4.6943   22.3395 C   0  0  0  0  0  0
  -22.7738  -13.5189   21.1886 C   0  0  0  0  0  0
  -22.1648   -4.2130   21.0973 F   0  0  0  0  0  0
  -21.5652   -3.4543   25.7739 F   0  0  0  0  0  0
  -29.9618  -13.6593   20.4072 N   0  0  0  0  0  0
  -26.2866  -12.9455   20.3304 N   0  0  0  0  0  0
  -25.9306  -11.6585   20.5781 N   0  0  0  0  0  0
  -22.0399  -12.8178   22.0444 N   0  0  0  0  0  0
  -25.4032  -15.1951   20.4107 N   0  0  0  0  0  0
  -31.7779  -14.9798   20.2297 O   0  0  0  0  0  0
  -21.6637   -6.8852   21.4235 O   0  0  0  0  0  0
  -22.3414  -14.5474   20.6698 O   0  0  0  0  0  0
  -24.6406  -31.8505   23.1864 C   0  0  0  0  0  0
  -25.9200  -32.4721   23.8231 C   0  0  1  0  0  0
  -27.2247  -27.1740   20.1443 C   0  0  0  0  0  0
  -25.5976  -33.8528   24.2176 N   0  0  0  0  0  0
  -23.4392  -30.4722   21.5363 C   0  0  2  0  0  0
  -24.8861  -28.9073   20.1121 C   0  0  0  0  0  0
  -22.7531  -29.4601   22.4891 C   0  0  0  0  0  0
  -18.0290  -28.1384   22.8492 C   0  0  0  0  0  0
  -24.1516  -36.7260   23.2620 C   0  0  0  0  0  0
  -25.9936  -30.7395   21.3751 C   0  0  0  0  0  0
  -26.0661  -29.3518   20.7206 C   0  0  0  0  0  0
  -27.2334  -28.5027   20.7242 C   0  0  0  0  0  0
  -26.0085  -26.8258   19.5044 C   0  0  0  0  0  0
  -24.8692  -27.6528   19.4895 C   0  0  0  0  0  0
  -23.6610  -29.8061   20.1545 C   0  0  0  0  0  0
  -25.4139  -36.3039   24.0300 C   0  0  1  0  0  0
  -20.5904  -28.3729   23.1257 C   0  0  2  0  0  0
  -20.6800  -26.9443   22.5416 C   0  0  0  0  0  0
  -19.5781  -26.6392   21.5219 C   0  0  0  0  0  0
  -18.1942  -26.7927   22.1627 C   0  0  0  0  0  0
  -19.1542  -28.8864   23.2876 C   0  0  0  0  0  0
  -18.9471  -30.1455   23.8915 C   0  0  0  0  0  0
  -17.6473  -30.6587   24.0563 C   0  0  0  0  0  0
  -25.9102  -34.9431   23.5055 C   0  0  0  0  0  0
  -16.5364  -29.9092   23.6329 C   0  0  0  0  0  0
  -16.7282  -28.6495   23.0383 C   0  0  0  0  0  0
  -26.4539  -31.6525   25.0627 C   0  0  0  0  0  0
  -25.3737  -31.3716   26.1319 C   0  0  0  0  0  0
  -27.0332  -30.2904   24.6133 C   0  0  0  0  0  0
  -27.6083  -32.4246   25.7443 C   0  0  0  0  0  0
  -27.5602  -37.1787   24.8465 C   0  0  0  0  0  0
  -21.4221  -29.3074   22.3637 N   0  0  0  0  0  0
  -26.4305  -37.3753   23.9411 N   0  0  0  0  0  0
  -24.7112  -31.0391   22.0892 N   0  0  0  0  0  0
  -23.4204  -28.8148   23.3017 O   0  0  0  0  0  0
  -28.2755  -26.1921   20.2589 O   0  0  0  0  0  0
  -26.5690  -34.8944   22.4636 O   0  0  0  0  0  0
  -23.5546  -32.1376   23.7122 O   0  0  0  0  0  0
  -29.1336  -18.6603   20.4013 C   0  0  0  0  0  0
  -31.0853  -18.2142   21.3854 C   0  0  0  0  0  0
  -30.0248  -17.5586   20.7963 C   0  0  0  0  0  0
  -29.6788  -19.9252   20.7058 C   0  0  0  0  0  0
  -28.5097  -23.5334   19.7544 C   0  0  0  0  0  0
  -28.1847  -24.9076   19.5963 C   0  0  0  0  0  0
  -29.1719  -22.5527   20.7213 C   0  0  0  0  0  0
  -31.8726  -20.5603   21.8886 C   0  0  0  0  0  0
  -30.8957  -19.6224   21.3461 N   0  0  0  0  0  0
  -29.7810  -16.0580   20.6827 N   0  0  0  0  0  0
  -29.1431  -21.1955   20.3109 N   0  0  0  0  0  0
  -29.6798  -22.8957   21.7904 O   0  0  0  0  0  0
  -31.4790  -12.7411   19.1980 H   0  0  0  0  0  0
  -30.4230  -11.6217   20.0239 H   0  0  0  0  0  0
  -29.8458  -11.7957   17.5609 H   0  0  0  0  0  0
  -29.5999  -13.5137   17.7321 H   0  0  0  0  0  0
  -27.9536  -11.2876   18.9615 H   0  0  0  0  0  0
  -27.3944  -12.4849   17.8181 H   0  0  0  0  0  0
  -27.5979  -14.2585   19.4403 H   0  0  0  0  0  0
  -28.7557  -12.2669   21.4523 H   0  0  0  0  0  0
  -28.3751  -13.9367   21.7855 H   0  0  0  0  0  0
  -25.2764   -9.5677   22.4743 H   0  0  0  0  0  0
  -23.9992   -7.4626   22.7488 H   0  0  0  0  0  0
  -21.0819   -8.8753   19.8954 H   0  0  0  0  0  0
  -22.3687  -10.9640   19.6183 H   0  0  0  0  0  0
  -21.1998   -7.6139   23.9689 H   0  0  0  0  0  0
  -21.1517   -6.0541   25.9069 H   0  0  0  0  0  0
  -22.0584   -2.7592   23.2864 H   0  0  0  0  0  0
  -22.4069  -11.9869   22.4835 H   0  0  0  0  0  0
  -21.1026  -13.1220   22.2693 H   0  0  0  0  0  0
  -24.6260  -15.8410   20.4960 H   0  0  0  0  0  0
  -26.2380  -15.6335   20.0489 H   0  0  0  0  0  0
  -26.7257  -32.5356   23.0958 H   0  0  0  0  0  0
  -25.0122  -33.9642   25.0319 H   0  0  0  0  0  0
  -22.7403  -31.2983   21.3880 H   0  0  0  0  0  0
  -23.3788  -35.9585   23.3272 H   0  0  0  0  0  0
  -24.3607  -36.8898   22.2039 H   0  0  0  0  0  0
  -23.7312  -37.6467   23.6671 H   0  0  0  0  0  0
  -26.1388  -31.4949   20.5993 H   0  0  0  0  0  0
  -26.8673  -30.7887   22.0108 H   0  0  0  0  0  0
  -28.1307  -28.8442   21.2210 H   0  0  0  0  0  0
  -25.8728  -25.8598   19.0420 H   0  0  0  0  0  0
  -23.9631  -27.3017   19.0121 H   0  0  0  0  0  0
  -23.8009  -30.5871   19.4055 H   0  0  0  0  0  0
  -22.7740  -29.2524   19.8382 H   0  0  0  0  0  0
  -25.1345  -36.1840   25.0793 H   0  0  0  0  0  0
  -20.9994  -28.3323   24.1378 H   0  0  0  0  0  0
  -20.5688  -26.2360   23.3638 H   0  0  0  0  0  0
  -21.6674  -26.7432   22.1246 H   0  0  0  0  0  0
  -19.6960  -25.6298   21.1289 H   0  0  0  0  0  0
  -19.6721  -27.3180   20.6736 H   0  0  0  0  0  0
  -17.4231  -26.6673   21.4015 H   0  0  0  0  0  0
  -18.0325  -26.0029   22.8993 H   0  0  0  0  0  0
  -19.7958  -30.7249   24.2308 H   0  0  0  0  0  0
  -17.5049  -31.6281   24.5152 H   0  0  0  0  0  0
  -15.5383  -30.3028   23.7621 H   0  0  0  0  0  0
  -15.8679  -28.0815   22.7121 H   0  0  0  0  0  0
  -24.5907  -30.7074   25.7666 H   0  0  0  0  0  0
  -24.8941  -32.2914   26.4686 H   0  0  0  0  0  0
  -25.8016  -30.8938   27.0137 H   0  0  0  0  0  0
  -26.2861  -29.6656   24.1220 H   0  0  0  0  0  0
  -27.4059  -29.7163   25.4636 H   0  0  0  0  0  0
  -27.8764  -30.4122   23.9315 H   0  0  0  0  0  0
  -27.2640  -33.3518   26.2033 H   0  0  0  0  0  0
  -28.3895  -32.6826   25.0281 H   0  0  0  0  0  0
  -28.0729  -31.8344   26.5345 H   0  0  0  0  0  0
  -28.2597  -38.0099   24.7507 H   0  0  0  0  0  0
  -28.1114  -36.2637   24.6276 H   0  0  0  0  0  0
  -27.2327  -37.1422   25.8867 H   0  0  0  0  0  0
  -20.9402  -29.8796   21.6832 H   0  0  0  0  0  0
  -26.0162  -38.2826   24.1393 H   0  0  0  0  0  0
  -28.1767  -18.5378   19.9164 H   0  0  0  0  0  0
  -31.9785  -17.8179   21.8512 H   0  0  0  0  0  0
  -28.1752  -22.9970   18.8794 H   0  0  0  0  0  0
  -27.7295  -25.0910   18.6360 H   0  0  0  0  0  0
  -32.8864  -20.2215   21.6709 H   0  0  0  0  0  0
  -31.7593  -20.6281   22.9719 H   0  0  0  0  0  0
  -31.7672  -21.5480   21.4493 H   0  0  0  0  0  0
  -28.8015  -15.8141   20.6883 H   0  0  0  0  0  0
  -28.5750  -21.1110   19.4799 H   0  0  0  0  0  0
  1 25  1  0  0  0
  1 30  2  0  0  0
  1 80  1  0  0  0
  2  3  1  0  0  0
  2 25  1  0  0  0
  2 83  1  0  0  0
  2 84  1  0  0  0
  3  4  1  0  0  0
  3 85  1  0  0  0
  3 86  1  0  0  0
  4  5  1  0  0  0
  4 87  1  0  0  0
  4 88  1  0  0  0
  5  6  1  0  0  0
  5 26  1  0  0  0
  5 89  1  0  0  0
  6 25  1  0  0  0
  6 90  1  0  0  0
  6 91  1  0  0  0
  7  8  2  0  0  0
  7 26  1  0  0  0
  7 29  1  0  0  0
  8  9  1  0  0  0
  8 22  1  0  0  0
  9 10  1  0  0  0
  9 27  2  0  0  0
 10 11  2  0  0  0
 10 15  1  0  0  0
 11 12  1  0  0  0
 11 92  1  0  0  0
 12 13  2  0  0  0
 12 93  1  0  0  0
 13 14  1  0  0  0
 13 31  1  0  0  0
 14 15  2  0  0  0
 14 94  1  0  0  0
 15 95  1  0  0  0
 16 17  2  0  0  0
 16 21  1  0  0  0
 16 31  1  0  0  0
 17 18  1  0  0  0
 17 96  1  0  0  0
 18 19  2  0  0  0
 18 97  1  0  0  0
 19 20  1  0  0  0
 19 24  1  0  0  0
 20 21  2  0  0  0
 20 98  1  0  0  0
 21 23  1  0  0  0
 22 28  1  0  0  0
 22 32  2  0  0  0
 26 27  1  0  0  0
 28 99  1  0  0  0
 28100  1  0  0  0
 29101  1  0  0  0
 29102  1  0  0  0
 33 34  1  0  0  0
 33 66  1  0  0  0
 33 70  2  0  0  0
 34 36  1  0  0  0
 34 59  1  0  0  0
 34103  1  0  0  0
 35 44  2  0  0  0
 35 45  1  0  0  0
 35 68  1  0  0  0
 36 56  1  0  0  0
 36104  1  0  0  0
 37 39  1  0  0  0
 37 47  1  0  0  0
 37 66  1  0  0  0
 37105  1  0  0  0
 38 43  2  0  0  0
 38 46  1  0  0  0
 38 47  1  0  0  0
 39 64  1  0  0  0
 39 67  2  0  0  0
 40 52  1  0  0  0
 40 53  2  0  0  0
 40 58  1  0  0  0
 41106  1  0  0  0
 41107  1  0  0  0
 41108  1  0  0  0
 41 48  1  0  0  0
 42 43  1  0  0  0
 42 66  1  0  0  0
 42109  1  0  0  0
 42110  1  0  0  0
 43 44  1  0  0  0
 44111  1  0  0  0
 45 46  2  0  0  0
 45112  1  0  0  0
 46113  1  0  0  0
 47114  1  0  0  0
 47115  1  0  0  0
 48 56  1  0  0  0
 48 65  1  0  0  0
 48116  1  0  0  0
 49 50  1  0  0  0
 49 53  1  0  0  0
 49 64  1  0  0  0
 49117  1  0  0  0
 50 51  1  0  0  0
 50118  1  0  0  0
 50119  1  0  0  0
 51 52  1  0  0  0
 51120  1  0  0  0
 51121  1  0  0  0
 52122  1  0  0  0
 52123  1  0  0  0
 53 54  1  0  0  0
 54 55  2  0  0  0
 54124  1  0  0  0
 55 57  1  0  0  0
 55125  1  0  0  0
 56 69  2  0  0  0
 57 58  2  0  0  0
 57126  1  0  0  0
 58127  1  0  0  0
 59 60  1  0  0  0
 59 61  1  0  0  0
 59 62  1  0  0  0
 60128  1  0  0  0
 60129  1  0  0  0
 60130  1  0  0  0
 61131  1  0  0  0
 61132  1  0  0  0
 61133  1  0  0  0
 62134  1  0  0  0
 62135  1  0  0  0
 62136  1  0  0  0
 63 65  1  0  0  0
 63137  1  0  0  0
 63138  1  0  0  0
 63139  1  0  0  0
 64140  1  0  0  0
 65141  1  0  0  0
 68 76  1  0  0  0
 71 73  1  0  0  0
 71 74  2  0  0  0
 71142  1  0  0  0
 72 73  2  0  0  0
 72 79  1  0  0  0
 72143  1  0  0  0
 73 80  1  0  0  0
 74 79  1  0  0  0
 74 81  1  0  0  0
 75 76  2  0  0  0
 75 77  1  0  0  0
 75144  1  0  0  0
 76145  1  0  0  0
 77 81  1  0  0  0
 77 82  2  0  0  0
 78 79  1  0  0  0
 78146  1  0  0  0
 78147  1  0  0  0
 78148  1  0  0  0
 80149  1  0  0  0
 81150  1  0  0  0
M  ISO  4   1 100  68 101  76 101  80 100
M  END
> <chiral flag>
0

> <version>
0

> <s_m_source_file>
/data/baiqing/PycharmProjects/Reinvent-master-3.2/result/LINK_invent/BTK/process_docking_weight1_custom_product_contain_oxygen_bond_distance_aromatic_linkinvent_7_9_3/rearranged_h_0070.sdf

> <i_m_source_file_index>
36

> <r_mmod_Potential_Energy-OPLS-2005>
391.996704101562

> <r_mmod_Stretch_Energy-OPLS-2005>
178.578430175781

> <r_mmod_Bend_Energy-OPLS-2005>
320.255126953125

> <r_mmod_Torsional_Energy-OPLS-2005>
225.103973388672

> <r_mmod_Improper_Torsional_Energy-OPLS-2005>
6.47317838668823

> <r_mmod_Van_der_Waal_Energy-OPLS-2005>
119.741394042969

> <r_mmod_Electrostatic_Energy-OPLS-2005>
-377.465759277344

> <r_mmod_Solvation_Energy-OPLS-2005>
-246.276489257812

> <b_mmod_Minimization_Converged-OPLS-2005>
0

> <r_mmod_RMS_Derivative-OPLS-2005>
4.68271541595459

$$$$
36
                    3D
 Structure written by MMmdl.
164173  0  0  1  0            999 V2000
  -30.5793  -14.6966   20.5140 C   0  0  0  0  0  0
  -30.4530  -12.4446   19.4460 C   0  0  0  0  0  0
  -29.5024  -12.5190   18.2290 C   0  0  0  0  0  0
  -28.0303  -12.3411   18.6543 C   0  0  0  0  0  0
  -27.6517  -13.2187   19.8714 C   0  0  2  0  0  0
  -28.7004  -13.0748   20.9958 C   0  0  0  0  0  0
  -25.2516  -13.8180   20.5717 C   0  0  0  0  0  0
  -24.1796  -13.0436   20.9249 C   0  0  0  0  0  0
  -24.6357  -11.6911   20.8756 C   0  0  0  0  0  0
  -23.9021  -10.4293   21.0407 C   0  0  0  0  0  0
  -24.3582   -9.4206   21.9183 C   0  0  0  0  0  0
  -23.6280   -8.2222   22.0735 C   0  0  0  0  0  0
  -22.4266   -8.0246   21.3529 C   0  0  0  0  0  0
  -21.9884   -9.0210   20.4623 C   0  0  0  0  0  0
  -22.7188  -10.2116   20.3046 C   0  0  0  0  0  0
  -21.6849   -6.0710   22.5255 C   0  0  0  0  0  0
  -21.3991   -6.5623   23.8178 C   0  0  0  0  0  0
  -21.3674   -5.6783   24.9155 C   0  0  0  0  0  0
  -21.6045   -4.3037   24.7208 C   0  0  0  0  0  0
  -21.8831   -3.8119   23.4331 C   0  0  0  0  0  0
  -21.9190   -4.6939   22.3384 C   0  0  0  0  0  0
  -22.7806  -13.5202   21.1907 C   0  0  0  0  0  0
  -22.1665   -4.2125   21.0968 F   0  0  0  0  0  0
  -21.5648   -3.4518   25.7728 F   0  0  0  0  0  0
  -30.0112  -13.4479   20.4395 N   0  0  0  0  0  0
  -26.2963  -12.9360   20.3377 N   0  0  0  0  0  0
  -25.9288  -11.6528   20.5804 N   0  0  0  0  0  0
  -22.0450  -12.8179   22.0467 N   0  0  0  0  0  0
  -25.4235  -15.1903   20.4139 N   0  0  0  0  0  0
  -31.7091  -14.9144   20.0632 O   0  0  0  0  0  0
  -21.6635   -6.8847   21.4219 O   0  0  0  0  0  0
  -22.3477  -14.5503   20.6768 O   0  0  0  0  0  0
  -24.6209  -31.8659   23.1948 C   0  0  0  0  0  0
  -25.9022  -32.4851   23.8309 C   0  0  1  0  0  0
  -27.2266  -27.3178   20.1232 C   0  0  0  0  0  0
  -25.5811  -33.8636   24.2268 N   0  0  0  0  0  0
  -23.4215  -30.4829   21.5405 C   0  0  2  0  0  0
  -24.8728  -28.9378   20.1067 C   0  0  0  0  0  0
  -22.7477  -29.4651   22.4878 C   0  0  0  0  0  0
  -18.0322  -28.1480   22.8557 C   0  0  0  0  0  0
  -24.1425  -36.7292   23.2661 C   0  0  0  0  0  0
  -25.9577  -30.7980   21.3601 C   0  0  0  0  0  0
  -26.0436  -29.4168   20.7162 C   0  0  0  0  0  0
  -27.2226  -28.6154   20.7255 C   0  0  0  0  0  0
  -26.0559  -26.9114   19.4577 C   0  0  0  0  0  0
  -24.8820  -27.6865   19.4679 C   0  0  0  0  0  0
  -23.6416  -29.8168   20.1566 C   0  0  0  0  0  0
  -25.4076  -36.3130   24.0365 C   0  0  1  0  0  0
  -20.5922  -28.3746   23.1311 C   0  0  2  0  0  0
  -20.6810  -26.9468   22.5442 C   0  0  0  0  0  0
  -19.5761  -26.6409   21.5307 C   0  0  0  0  0  0
  -18.1945  -26.8047   22.1691 C   0  0  0  0  0  0
  -19.1583  -28.8930   23.2955 C   0  0  0  0  0  0
  -18.9538  -30.1535   23.8944 C   0  0  0  0  0  0
  -17.6558  -30.6718   24.0614 C   0  0  0  0  0  0
  -25.9019  -34.9529   23.5157 C   0  0  0  0  0  0
  -16.5426  -29.9252   23.6350 C   0  0  0  0  0  0
  -16.7326  -28.6668   23.0372 C   0  0  0  0  0  0
  -26.4361  -31.6623   25.0665 C   0  0  0  0  0  0
  -25.3564  -31.3829   26.1373 C   0  0  0  0  0  0
  -27.0208  -30.3097   24.6023 C   0  0  0  0  0  0
  -27.5935  -32.4315   25.7451 C   0  0  0  0  0  0
  -27.5561  -37.1805   24.8500 C   0  0  0  0  0  0
  -21.4197  -29.3089   22.3648 N   0  0  0  0  0  0
  -26.4248  -37.3836   23.9484 N   0  0  0  0  0  0
  -24.6901  -31.0562   22.0964 N   0  0  0  0  0  0
  -23.4209  -28.8213   23.2989 O   0  0  0  0  0  0
  -28.3090  -26.4274   20.1000 O   0  0  0  0  0  0
  -26.5632  -34.9003   22.4730 O   0  0  0  0  0  0
  -23.5365  -32.1435   23.7234 O   0  0  0  0  0  0
  -28.6722  -19.2409   21.9131 C   0  0  0  0  0  0
  -30.1164  -17.9680   19.8859 C   0  0  0  0  0  0
  -28.9691  -17.8405   21.9964 C   0  0  0  0  0  0
  -29.0774  -20.0534   20.8177 C   0  0  0  0  0  0
  -29.6793  -17.1506   20.9703 C   0  0  0  0  0  0
  -29.8232  -19.3728   19.8107 C   0  0  0  0  0  0
  -27.4267  -21.7676   20.0670 C   0  0  0  0  0  0
  -29.2521  -22.7390   21.0496 C   0  0  0  0  0  0
  -27.1191  -23.2883   20.1257 C   0  0  2  0  0  0
  -28.0971  -23.8389   21.2019 C   0  0  1  0  0  0
  -28.4920  -17.0614   23.2139 C   0  0  0  0  0  0
  -25.6108  -23.5616   20.3690 C   0  0  0  0  0  0
  -27.5116  -23.5956   22.6269 C   0  0  0  0  0  0
  -28.4419  -25.4417   21.1966 C   0  0  0  0  0  0
  -28.5976  -21.4468   20.6573 N   0  0  0  0  0  0
  -29.7800  -15.6781   21.0536 N   0  0  0  0  0  0
  -26.6479  -20.9631   19.5465 O   0  0  0  0  0  0
  -30.2185  -20.0643   18.7149 F   0  0  0  0  0  0
  -31.4777  -12.6193   19.1193 H   0  0  0  0  0  0
  -30.4460  -11.4469   19.8885 H   0  0  0  0  0  0
  -29.7698  -11.7551   17.4946 H   0  0  0  0  0  0
  -29.6228  -13.4783   17.7269 H   0  0  0  0  0  0
  -27.8896  -11.2893   18.9074 H   0  0  0  0  0  0
  -27.3628  -12.5408   17.8162 H   0  0  0  0  0  0
  -27.6673  -14.2546   19.5267 H   0  0  0  0  0  0
  -28.7341  -12.0511   21.3659 H   0  0  0  0  0  0
  -28.4344  -13.6877   21.8577 H   0  0  0  0  0  0
  -25.2714   -9.5699   22.4759 H   0  0  0  0  0  0
  -23.9994   -7.4618   22.7432 H   0  0  0  0  0  0
  -21.0820   -8.8697   19.8916 H   0  0  0  0  0  0
  -22.3609  -10.9644   19.6149 H   0  0  0  0  0  0
  -21.1955   -7.6122   23.9675 H   0  0  0  0  0  0
  -21.1493   -6.0509   25.9068 H   0  0  0  0  0  0
  -22.0598   -2.7574   23.2819 H   0  0  0  0  0  0
  -22.4029  -11.9810   22.4814 H   0  0  0  0  0  0
  -21.1063  -13.1183   22.2706 H   0  0  0  0  0  0
  -24.6608  -15.8478   20.5246 H   0  0  0  0  0  0
  -26.2731  -15.6254   20.0799 H   0  0  0  0  0  0
  -26.7110  -32.5532   23.1076 H   0  0  0  0  0  0
  -24.9754  -33.9796   25.0275 H   0  0  0  0  0  0
  -22.7250  -31.3085   21.3924 H   0  0  0  0  0  0
  -23.3749  -35.9556   23.3316 H   0  0  0  0  0  0
  -24.3538  -36.8884   22.2076 H   0  0  0  0  0  0
  -23.7090  -37.6468   23.6653 H   0  0  0  0  0  0
  -26.0476  -31.5545   20.5778 H   0  0  0  0  0  0
  -26.8513  -30.8813   21.9613 H   0  0  0  0  0  0
  -28.1240  -28.9837   21.1977 H   0  0  0  0  0  0
  -26.0574  -25.9661   18.9361 H   0  0  0  0  0  0
  -23.9906  -27.3160   18.9792 H   0  0  0  0  0  0
  -23.7826  -30.6000   19.4143 H   0  0  0  0  0  0
  -22.7546  -29.2596   19.8441 H   0  0  0  0  0  0
  -25.1252  -36.1959   25.0862 H   0  0  0  0  0  0
  -21.0080  -28.3324   24.1398 H   0  0  0  0  0  0
  -20.5740  -26.2389   23.3664 H   0  0  0  0  0  0
  -21.6684  -26.7541   22.1192 H   0  0  0  0  0  0
  -19.6930  -25.6305   21.1373 H   0  0  0  0  0  0
  -19.6702  -27.3184   20.6831 H   0  0  0  0  0  0
  -17.4216  -26.6828   21.4079 H   0  0  0  0  0  0
  -18.0298  -26.0218   22.9106 H   0  0  0  0  0  0
  -19.8024  -30.7382   24.2220 H   0  0  0  0  0  0
  -17.5164  -31.6392   24.5259 H   0  0  0  0  0  0
  -15.5438  -30.3232   23.7685 H   0  0  0  0  0  0
  -15.8717  -28.1084   22.6978 H   0  0  0  0  0  0
  -24.5766  -30.7126   25.7694 H   0  0  0  0  0  0
  -24.8680  -32.3044   26.4602 H   0  0  0  0  0  0
  -25.7838  -30.9151   27.0255 H   0  0  0  0  0  0
  -26.2830  -29.6870   24.0972 H   0  0  0  0  0  0
  -27.3930  -29.7275   25.4426 H   0  0  0  0  0  0
  -27.8607  -30.4467   23.9239 H   0  0  0  0  0  0
  -27.2616  -33.3676   26.1940 H   0  0  0  0  0  0
  -28.3793  -32.6743   25.0305 H   0  0  0  0  0  0
  -28.0501  -31.8464   26.5407 H   0  0  0  0  0  0
  -28.2581  -38.0104   24.7561 H   0  0  0  0  0  0
  -28.1010  -36.2636   24.6237 H   0  0  0  0  0  0
  -27.2314  -37.1375   25.8909 H   0  0  0  0  0  0
  -20.9295  -29.8813   21.6909 H   0  0  0  0  0  0
  -26.0118  -38.2885   24.1552 H   0  0  0  0  0  0
  -28.0734  -19.6919   22.6938 H   0  0  0  0  0  0
  -30.6440  -17.5137   19.0620 H   0  0  0  0  0  0
  -29.8590  -22.6211   21.9482 H   0  0  0  0  0  0
  -29.9409  -23.0105   20.2454 H   0  0  0  0  0  0
  -27.3971  -23.7019   19.1530 H   0  0  0  0  0  0
  -28.1574  -17.7215   24.0127 H   0  0  0  0  0  0
  -29.3055  -16.4591   23.6186 H   0  0  0  0  0  0
  -27.6720  -16.3910   22.9595 H   0  0  0  0  0  0
  -25.2087  -22.9991   21.2146 H   0  0  0  0  0  0
  -25.0211  -23.2818   19.4943 H   0  0  0  0  0  0
  -25.4216  -24.6132   20.5766 H   0  0  0  0  0  0
  -27.1860  -22.5722   22.8009 H   0  0  0  0  0  0
  -26.6431  -24.2247   22.8199 H   0  0  0  0  0  0
  -28.2520  -23.8288   23.3945 H   0  0  0  0  0  0
  -29.4683  -25.5518   21.5438 H   0  0  0  0  0  0
  -27.8807  -25.9031   22.0143 H   0  0  0  0  0  0
  -29.0101  -15.2650   21.5542 H   0  0  0  0  0  0
  1 25  1  0  0  0
  1 30  2  0  0  0
  1 86  1  0  0  0
  2  3  1  0  0  0
  2 25  1  0  0  0
  2 89  1  0  0  0
  2 90  1  0  0  0
  3  4  1  0  0  0
  3 91  1  0  0  0
  3 92  1  0  0  0
  4  5  1  0  0  0
  4 93  1  0  0  0
  4 94  1  0  0  0
  5  6  1  0  0  0
  5 26  1  0  0  0
  5 95  1  0  0  0
  6 25  1  0  0  0
  6 96  1  0  0  0
  6 97  1  0  0  0
  7  8  2  0  0  0
  7 26  1  0  0  0
  7 29  1  0  0  0
  8  9  1  0  0  0
  8 22  1  0  0  0
  9 10  1  0  0  0
  9 27  2  0  0  0
 10 11  2  0  0  0
 10 15  1  0  0  0
 11 12  1  0  0  0
 11 98  1  0  0  0
 12 13  2  0  0  0
 12 99  1  0  0  0
 13 14  1  0  0  0
 13 31  1  0  0  0
 14 15  2  0  0  0
 14100  1  0  0  0
 15101  1  0  0  0
 16 17  2  0  0  0
 16 21  1  0  0  0
 16 31  1  0  0  0
 17 18  1  0  0  0
 17102  1  0  0  0
 18 19  2  0  0  0
 18103  1  0  0  0
 19 20  1  0  0  0
 19 24  1  0  0  0
 20 21  2  0  0  0
 20104  1  0  0  0
 21 23  1  0  0  0
 22 28  1  0  0  0
 22 32  2  0  0  0
 26 27  1  0  0  0
 28105  1  0  0  0
 28106  1  0  0  0
 29107  1  0  0  0
 29108  1  0  0  0
 33 34  1  0  0  0
 33 66  1  0  0  0
 33 70  2  0  0  0
 34 36  1  0  0  0
 34 59  1  0  0  0
 34109  1  0  0  0
 35 44  2  0  0  0
 35 45  1  0  0  0
 35 68  1  0  0  0
 36 56  1  0  0  0
 36110  1  0  0  0
 37 39  1  0  0  0
 37 47  1  0  0  0
 37 66  1  0  0  0
 37111  1  0  0  0
 38 43  2  0  0  0
 38 46  1  0  0  0
 38 47  1  0  0  0
 39 64  1  0  0  0
 39 67  2  0  0  0
 40 52  1  0  0  0
 40 53  2  0  0  0
 40 58  1  0  0  0
 41112  1  0  0  0
 41113  1  0  0  0
 41114  1  0  0  0
 41 48  1  0  0  0
 42 43  1  0  0  0
 42 66  1  0  0  0
 42115  1  0  0  0
 42116  1  0  0  0
 43 44  1  0  0  0
 44117  1  0  0  0
 45 46  2  0  0  0
 45118  1  0  0  0
 46119  1  0  0  0
 47120  1  0  0  0
 47121  1  0  0  0
 48 56  1  0  0  0
 48 65  1  0  0  0
 48122  1  0  0  0
 49 50  1  0  0  0
 49 53  1  0  0  0
 49 64  1  0  0  0
 49123  1  0  0  0
 50 51  1  0  0  0
 50124  1  0  0  0
 50125  1  0  0  0
 51 52  1  0  0  0
 51126  1  0  0  0
 51127  1  0  0  0
 52128  1  0  0  0
 52129  1  0  0  0
 53 54  1  0  0  0
 54 55  2  0  0  0
 54130  1  0  0  0
 55 57  1  0  0  0
 55131  1  0  0  0
 56 69  2  0  0  0
 57 58  2  0  0  0
 57132  1  0  0  0
 58133  1  0  0  0
 59 60  1  0  0  0
 59 61  1  0  0  0
 59 62  1  0  0  0
 60134  1  0  0  0
 60135  1  0  0  0
 60136  1  0  0  0
 61137  1  0  0  0
 61138  1  0  0  0
 61139  1  0  0  0
 62140  1  0  0  0
 62141  1  0  0  0
 62142  1  0  0  0
 63 65  1  0  0  0
 63143  1  0  0  0
 63144  1  0  0  0
 63145  1  0  0  0
 64146  1  0  0  0
 65147  1  0  0  0
 68 84  1  0  0  0
 71 73  2  0  0  0
 71 74  1  0  0  0
 71148  1  0  0  0
 72 75  2  0  0  0
 72 76  1  0  0  0
 72149  1  0  0  0
 73 75  1  0  0  0
 73 81  1  0  0  0
 74 76  2  0  0  0
 74 85  1  0  0  0
 75 86  1  0  0  0
 76 88  1  0  0  0
 77 79  1  0  0  0
 77 85  1  0  0  0
 77 87  2  0  0  0
 78 80  1  0  0  0
 78 85  1  0  0  0
 78150  1  0  0  0
 78151  1  0  0  0
 79 80  1  0  0  0
 79 82  1  0  0  0
 79152  1  0  0  0
 80 83  1  0  0  0
 80 84  1  0  0  0
 81153  1  0  0  0
 81154  1  0  0  0
 81155  1  0  0  0
 82156  1  0  0  0
 82157  1  0  0  0
 82158  1  0  0  0
 83159  1  0  0  0
 83160  1  0  0  0
 83161  1  0  0  0
 84162  1  0  0  0
 84163  1  0  0  0
 86164  1  0  0  0
M  ISO  4   1 100  68 101  84 101  86 100
M  END
> <chiral flag>
0

> <version>
0

> <s_m_source_file>
/data/baiqing/PycharmProjects/Reinvent-master-3.2/result/LINK_invent/BTK/process_docking_weight1_custom_product_contain_oxygen_bond_distance_aromatic_linkinvent_7_9_3/rearranged_h_0070.sdf

> <i_m_source_file_index>
37

> <r_mmod_Potential_Energy-OPLS-2005>
283.646240234375

> <r_mmod_Stretch_Energy-OPLS-2005>
102.886360168457

> <r_mmod_Bend_Energy-OPLS-2005>
222.904479980469

> <r_mmod_Torsional_Energy-OPLS-2005>
347.994995117188

> <r_mmod_Improper_Torsional_Energy-OPLS-2005>
4.06638813018799

> <r_mmod_Van_der_Waal_Energy-OPLS-2005>
134.374160766602

> <r_mmod_Electrostatic_Energy-OPLS-2005>
-379.680023193359

> <r_mmod_Solvation_Energy-OPLS-2005>
-212.006698608398

> <b_mmod_Minimization_Converged-OPLS-2005>
0

> <r_mmod_RMS_Derivative-OPLS-2005>
7.42356157302856

$$$$
37
                    3D
 Structure written by MMmdl.
155163  0  0  1  0            999 V2000
  -30.5697  -14.8089   20.4743 C   0  0  0  0  0  0
  -30.4388  -12.5057   19.4671 C   0  0  0  0  0  0
  -29.5115  -12.5209   18.2310 C   0  0  0  0  0  0
  -28.0399  -12.3310   18.6496 C   0  0  0  0  0  0
  -27.6358  -13.2331   19.8461 C   0  0  2  0  0  0
  -28.6819  -13.1778   20.9801 C   0  0  0  0  0  0
  -25.2495  -13.8202   20.5701 C   0  0  0  0  0  0
  -24.1801  -13.0426   20.9227 C   0  0  0  0  0  0
  -24.6398  -11.6902   20.8745 C   0  0  0  0  0  0
  -23.9074  -10.4278   21.0406 C   0  0  0  0  0  0
  -24.3624   -9.4202   21.9189 C   0  0  0  0  0  0
  -23.6294   -8.2244   22.0762 C   0  0  0  0  0  0
  -22.4278   -8.0280   21.3552 C   0  0  0  0  0  0
  -21.9904   -9.0259   20.4659 C   0  0  0  0  0  0
  -22.7235  -10.2134   20.3064 C   0  0  0  0  0  0
  -21.6855   -6.0727   22.5279 C   0  0  0  0  0  0
  -21.4013   -6.5637   23.8207 C   0  0  0  0  0  0
  -21.3661   -5.6792   24.9175 C   0  0  0  0  0  0
  -21.6039   -4.3051   24.7227 C   0  0  0  0  0  0
  -21.8822   -3.8142   23.4350 C   0  0  0  0  0  0
  -21.9193   -4.6955   22.3407 C   0  0  0  0  0  0
  -22.7818  -13.5219   21.1871 C   0  0  0  0  0  0
  -22.1661   -4.2138   21.0982 F   0  0  0  0  0  0
  -21.5630   -3.4535   25.7744 F   0  0  0  0  0  0
  -29.9672  -13.5672   20.3904 N   0  0  0  0  0  0
  -26.2896  -12.9391   20.3243 N   0  0  0  0  0  0
  -25.9327  -11.6533   20.5742 N   0  0  0  0  0  0
  -22.0470  -12.8210   22.0434 N   0  0  0  0  0  0
  -25.4147  -15.1921   20.4101 N   0  0  0  0  0  0
  -31.7691  -14.9072   20.1976 O   0  0  0  0  0  0
  -21.6640   -6.8873   21.4245 O   0  0  0  0  0  0
  -22.3507  -14.5529   20.6721 O   0  0  0  0  0  0
  -24.6349  -31.8505   23.1943 C   0  0  0  0  0  0
  -25.9162  -32.4722   23.8298 C   0  0  1  0  0  0
  -27.1981  -27.2055   20.1663 C   0  0  0  0  0  0
  -25.5943  -33.8535   24.2214 N   0  0  0  0  0  0
  -23.4333  -30.4712   21.5387 C   0  0  2  0  0  0
  -24.8786  -28.9065   20.1119 C   0  0  0  0  0  0
  -22.7523  -29.4563   22.4887 C   0  0  0  0  0  0
  -18.0293  -28.1414   22.8461 C   0  0  0  0  0  0
  -24.1493  -36.7269   23.2627 C   0  0  0  0  0  0
  -25.9814  -30.7489   21.3795 C   0  0  0  0  0  0
  -26.0508  -29.3638   20.7297 C   0  0  0  0  0  0
  -27.2161  -28.5248   20.7436 C   0  0  0  0  0  0
  -26.0042  -26.8213   19.5278 C   0  0  0  0  0  0
  -24.8614  -27.6423   19.5021 C   0  0  0  0  0  0
  -23.6547  -29.8024   20.1553 C   0  0  0  0  0  0
  -25.4120  -36.3056   24.0321 C   0  0  1  0  0  0
  -20.5898  -28.3714   23.1273 C   0  0  2  0  0  0
  -20.6793  -26.9428   22.5423 C   0  0  0  0  0  0
  -19.5768  -26.6399   21.5232 C   0  0  0  0  0  0
  -18.1942  -26.7950   22.1616 C   0  0  0  0  0  0
  -19.1548  -28.8880   23.2856 C   0  0  0  0  0  0
  -18.9467  -30.1480   23.8873 C   0  0  0  0  0  0
  -17.6464  -30.6612   24.0560 C   0  0  0  0  0  0
  -25.9072  -34.9438   23.5080 C   0  0  0  0  0  0
  -16.5357  -29.9106   23.6337 C   0  0  0  0  0  0
  -16.7272  -28.6526   23.0345 C   0  0  0  0  0  0
  -26.4520  -31.6571   25.0709 C   0  0  0  0  0  0
  -25.3707  -31.3770   26.1406 C   0  0  0  0  0  0
  -27.0347  -30.2971   24.6238 C   0  0  0  0  0  0
  -27.6073  -32.4310   25.7458 C   0  0  0  0  0  0
  -27.5592  -37.1756   24.8443 C   0  0  0  0  0  0
  -21.4224  -29.3039   22.3641 N   0  0  0  0  0  0
  -26.4273  -37.3779   23.9428 N   0  0  0  0  0  0
  -24.7032  -31.0426   22.0940 N   0  0  0  0  0  0
  -23.4208  -28.8118   23.3024 O   0  0  0  0  0  0
  -28.2693  -26.2761   20.1465 O   0  0  0  0  0  0
  -26.5656  -34.8895   22.4657 O   0  0  0  0  0  0
  -23.5495  -32.1365   23.7208 O   0  0  0  0  0  0
  -31.4625  -18.9148   22.2299 C   0  0  0  0  0  0
  -31.1390  -17.6169   21.7965 C   0  0  0  0  0  0
  -29.3432  -18.5864   20.4733 C   0  0  0  0  0  0
  -30.7731  -20.0672   21.7890 C   0  0  0  0  0  0
  -30.0740  -17.3797   20.9088 C   0  0  0  0  0  0
  -29.6605  -19.9691   20.8859 C   0  0  0  0  0  0
  -28.5447  -23.7162   20.2120 C   0  0  0  0  0  0
  -28.1526  -24.9604   20.7257 C   0  0  0  0  0  0
  -31.3473  -21.3251   22.2879 C   0  0  0  0  0  0
  -28.5565  -22.3929   20.9737 C   0  0  0  0  0  0
  -31.3429  -21.5902   23.5946 N   0  0  0  0  0  0
  -29.0062  -21.2250   20.3397 N   0  0  0  0  0  0
  -29.7553  -15.9449   20.6028 N   0  0  0  0  0  0
  -31.9328  -22.1830   21.4516 N   0  3  0  0  0  0
  -28.1817  -22.3230   22.1474 O   0  0  0  0  0  0
  -31.4742  -12.6606   19.1599 H   0  0  0  0  0  0
  -30.4183  -11.5309   19.9555 H   0  0  0  0  0  0
  -29.8082  -11.7445   17.5235 H   0  0  0  0  0  0
  -29.6248  -13.4696   17.7050 H   0  0  0  0  0  0
  -27.9101  -11.2812   18.9172 H   0  0  0  0  0  0
  -27.3803  -12.5139   17.7998 H   0  0  0  0  0  0
  -27.6244  -14.2513   19.4601 H   0  0  0  0  0  0
  -28.7419  -12.1759   21.4124 H   0  0  0  0  0  0
  -28.4091  -13.8482   21.7963 H   0  0  0  0  0  0
  -25.2771   -9.5671   22.4747 H   0  0  0  0  0  0
  -23.9992   -7.4641   22.7478 H   0  0  0  0  0  0
  -21.0832   -8.8785   19.8975 H   0  0  0  0  0  0
  -22.3702  -10.9673   19.6166 H   0  0  0  0  0  0
  -21.2009   -7.6140   23.9710 H   0  0  0  0  0  0
  -21.1475   -6.0519   25.9074 H   0  0  0  0  0  0
  -22.0602   -2.7600   23.2859 H   0  0  0  0  0  0
  -22.4082  -11.9859   22.4802 H   0  0  0  0  0  0
  -21.1099  -13.1251   22.2661 H   0  0  0  0  0  0
  -24.6360  -15.8334   20.5147 H   0  0  0  0  0  0
  -26.2383  -15.6364   20.0264 H   0  0  0  0  0  0
  -26.7202  -32.5346   23.0997 H   0  0  0  0  0  0
  -25.0046  -33.9669   25.0336 H   0  0  0  0  0  0
  -22.7301  -31.2941   21.3888 H   0  0  0  0  0  0
  -23.3766  -35.9584   23.3253 H   0  0  0  0  0  0
  -24.3576  -36.8944   22.2041 H   0  0  0  0  0  0
  -23.7225  -37.6447   23.6689 H   0  0  0  0  0  0
  -26.1294  -31.5044   20.6076 H   0  0  0  0  0  0
  -26.8572  -30.7972   22.0152 H   0  0  0  0  0  0
  -28.1152  -28.8629   21.2388 H   0  0  0  0  0  0
  -25.9441  -25.8453   19.0674 H   0  0  0  0  0  0
  -23.9622  -27.2827   19.0228 H   0  0  0  0  0  0
  -23.7760  -30.5777   19.3975 H   0  0  0  0  0  0
  -22.7713  -29.2417   19.8476 H   0  0  0  0  0  0
  -25.1301  -36.1859   25.0810 H   0  0  0  0  0  0
  -20.9973  -28.3283   24.1407 H   0  0  0  0  0  0
  -20.5749  -26.2309   23.3628 H   0  0  0  0  0  0
  -21.6653  -26.7503   22.1189 H   0  0  0  0  0  0
  -19.6956  -25.6325   21.1242 H   0  0  0  0  0  0
  -19.6720  -27.3224   20.6773 H   0  0  0  0  0  0
  -17.4238  -26.6690   21.4006 H   0  0  0  0  0  0
  -18.0314  -26.0137   22.9043 H   0  0  0  0  0  0
  -19.7949  -30.7300   24.2240 H   0  0  0  0  0  0
  -17.5030  -31.6290   24.5174 H   0  0  0  0  0  0
  -15.5361  -30.3001   23.7720 H   0  0  0  0  0  0
  -15.8653  -28.0853   22.7072 H   0  0  0  0  0  0
  -24.5903  -30.7086   25.7726 H   0  0  0  0  0  0
  -24.8867  -32.2960   26.4716 H   0  0  0  0  0  0
  -25.7990  -30.9015   27.0239 H   0  0  0  0  0  0
  -26.2933  -29.6696   24.1258 H   0  0  0  0  0  0
  -27.3996  -29.7255   25.4788 H   0  0  0  0  0  0
  -27.8843  -30.4215   23.9511 H   0  0  0  0  0  0
  -27.2702  -33.3619   26.2018 H   0  0  0  0  0  0
  -28.3879  -32.6846   25.0270 H   0  0  0  0  0  0
  -28.0753  -31.8442   26.5370 H   0  0  0  0  0  0
  -28.2558  -38.0111   24.7607 H   0  0  0  0  0  0
  -28.1156  -36.2654   24.6133 H   0  0  0  0  0  0
  -27.2335  -37.1240   25.8850 H   0  0  0  0  0  0
  -20.9439  -29.8678   21.6751 H   0  0  0  0  0  0
  -26.0141  -38.2824   24.1518 H   0  0  0  0  0  0
  -32.2991  -19.0227   22.9074 H   0  0  0  0  0  0
  -31.7243  -16.7929   22.1813 H   0  0  0  0  0  0
  -28.5176  -18.4432   19.7945 H   0  0  0  0  0  0
  -28.9089  -23.6965   19.1955 H   0  0  0  0  0  0
  -27.7510  -25.0289   21.7284 H   0  0  0  0  0  0
  -30.8664  -20.9551   24.2192 H   0  0  0  0  0  0
  -31.7597  -22.4181   23.9902 H   0  0  0  0  0  0
  -29.0055  -21.2908   19.3314 H   0  0  0  0  0  0
  -28.7699  -15.7418   20.5771 H   0  0  0  0  0  0
  -32.0376  -21.9115   20.4860 H   0  0  0  0  0  0
  -32.4096  -23.0163   21.7599 H   0  0  0  0  0  0
  1 25  1  0  0  0
  1 30  2  0  0  0
  1 83  1  0  0  0
  2  3  1  0  0  0
  2 25  1  0  0  0
  2 86  1  0  0  0
  2 87  1  0  0  0
  3  4  1  0  0  0
  3 88  1  0  0  0
  3 89  1  0  0  0
  4  5  1  0  0  0
  4 90  1  0  0  0
  4 91  1  0  0  0
  5  6  1  0  0  0
  5 26  1  0  0  0
  5 92  1  0  0  0
  6 25  1  0  0  0
  6 93  1  0  0  0
  6 94  1  0  0  0
  7  8  2  0  0  0
  7 26  1  0  0  0
  7 29  1  0  0  0
  8  9  1  0  0  0
  8 22  1  0  0  0
  9 10  1  0  0  0
  9 27  2  0  0  0
 10 11  2  0  0  0
 10 15  1  0  0  0
 11 12  1  0  0  0
 11 95  1  0  0  0
 12 13  2  0  0  0
 12 96  1  0  0  0
 13 14  1  0  0  0
 13 31  1  0  0  0
 14 15  2  0  0  0
 14 97  1  0  0  0
 15 98  1  0  0  0
 16 17  2  0  0  0
 16 21  1  0  0  0
 16 31  1  0  0  0
 17 18  1  0  0  0
 17 99  1  0  0  0
 18 19  2  0  0  0
 18100  1  0  0  0
 19 20  1  0  0  0
 19 24  1  0  0  0
 20 21  2  0  0  0
 20101  1  0  0  0
 21 23  1  0  0  0
 22 28  1  0  0  0
 22 32  2  0  0  0
 26 27  1  0  0  0
 28102  1  0  0  0
 28103  1  0  0  0
 29104  1  0  0  0
 29105  1  0  0  0
 33 34  1  0  0  0
 33 66  1  0  0  0
 33 70  2  0  0  0
 34 36  1  0  0  0
 34 59  1  0  0  0
 34106  1  0  0  0
 35 44  2  0  0  0
 35 45  1  0  0  0
 35 68  1  0  0  0
 36 56  1  0  0  0
 36107  1  0  0  0
 37 39  1  0  0  0
 37 47  1  0  0  0
 37 66  1  0  0  0
 37108  1  0  0  0
 38 43  2  0  0  0
 38 46  1  0  0  0
 38 47  1  0  0  0
 39 64  1  0  0  0
 39 67  2  0  0  0
 40 52  1  0  0  0
 40 53  2  0  0  0
 40 58  1  0  0  0
 41109  1  0  0  0
 41110  1  0  0  0
 41111  1  0  0  0
 41 48  1  0  0  0
 42 43  1  0  0  0
 42 66  1  0  0  0
 42112  1  0  0  0
 42113  1  0  0  0
 43 44  1  0  0  0
 44114  1  0  0  0
 45 46  2  0  0  0
 45115  1  0  0  0
 46116  1  0  0  0
 47117  1  0  0  0
 47118  1  0  0  0
 48 56  1  0  0  0
 48 65  1  0  0  0
 48119  1  0  0  0
 49 50  1  0  0  0
 49 53  1  0  0  0
 49 64  1  0  0  0
 49120  1  0  0  0
 50 51  1  0  0  0
 50121  1  0  0  0
 50122  1  0  0  0
 51 52  1  0  0  0
 51123  1  0  0  0
 51124  1  0  0  0
 52125  1  0  0  0
 52126  1  0  0  0
 53 54  1  0  0  0
 54 55  2  0  0  0
 54127  1  0  0  0
 55 57  1  0  0  0
 55128  1  0  0  0
 56 69  2  0  0  0
 57 58  2  0  0  0
 57129  1  0  0  0
 58130  1  0  0  0
 59 60  1  0  0  0
 59 61  1  0  0  0
 59 62  1  0  0  0
 60131  1  0  0  0
 60132  1  0  0  0
 60133  1  0  0  0
 61134  1  0  0  0
 61135  1  0  0  0
 61136  1  0  0  0
 62137  1  0  0  0
 62138  1  0  0  0
 62139  1  0  0  0
 63 65  1  0  0  0
 63140  1  0  0  0
 63141  1  0  0  0
 63142  1  0  0  0
 64143  1  0  0  0
 65144  1  0  0  0
 68 78  1  0  0  0
 71 72  2  0  0  0
 71 74  1  0  0  0
 71145  1  0  0  0
 72 75  1  0  0  0
 72146  1  0  0  0
 73 75  2  0  0  0
 73 76  1  0  0  0
 73147  1  0  0  0
 74 76  2  0  0  0
 74 79  1  0  0  0
 75 83  1  0  0  0
 76 82  1  0  0  0
 77 78  2  0  0  0
 77 80  1  0  0  0
 77148  1  0  0  0
 78149  1  0  0  0
 79 81  1  0  0  0
 79 84  2  0  0  0
 80 82  1  0  0  0
 80 85  2  0  0  0
 81150  1  0  0  0
 81151  1  0  0  0
 82152  1  0  0  0
 83153  1  0  0  0
 84154  1  0  0  0
 84155  1  0  0  0
M  CHG  1  84   1
M  ISO  4   1 100  68 101  78 101  83 100
M  END
> <chiral flag>
0

> <version>
0

> <s_m_source_file>
/data/baiqing/PycharmProjects/Reinvent-master-3.2/result/LINK_invent/BTK/process_docking_weight1_custom_product_contain_oxygen_bond_distance_aromatic_linkinvent_7_9_3/rearranged_h_0070.sdf

> <i_m_source_file_index>
38

> <r_mmod_Potential_Energy-OPLS-2005>
59.9376029968262

> <r_mmod_Stretch_Energy-OPLS-2005>
159.113372802734

> <r_mmod_Bend_Energy-OPLS-2005>
173.219284057617

> <r_mmod_Torsional_Energy-OPLS-2005>
283.903472900391

> <r_mmod_Improper_Torsional_Energy-OPLS-2005>
8.78242015838623

> <r_mmod_Van_der_Waal_Energy-OPLS-2005>
136.5234375

> <r_mmod_Electrostatic_Energy-OPLS-2005>
-363.056884765625

> <r_mmod_Solvation_Energy-OPLS-2005>
-457.178924560547

> <b_mmod_Minimization_Converged-OPLS-2005>
0

> <r_mmod_RMS_Derivative-OPLS-2005>
4.65720462799072

$$$$
38
                    3D
 Structure written by MMmdl.
163172  0  0  1  0            999 V2000
  -30.6003  -14.7401   20.4541 C   0  0  0  0  0  0
  -30.4243  -12.4491   19.4859 C   0  0  0  0  0  0
  -29.5048  -12.5080   18.2441 C   0  0  0  0  0  0
  -28.0283  -12.3453   18.6513 C   0  0  0  0  0  0
  -27.6398  -13.2357   19.8617 C   0  0  2  0  0  0
  -28.6802  -13.1575   21.0004 C   0  0  0  0  0  0
  -25.2474  -13.8208   20.5708 C   0  0  0  0  0  0
  -24.1777  -13.0455   20.9212 C   0  0  0  0  0  0
  -24.6368  -11.6926   20.8753 C   0  0  0  0  0  0
  -23.9051  -10.4302   21.0401 C   0  0  0  0  0  0
  -24.3614   -9.4217   21.9168 C   0  0  0  0  0  0
  -23.6297   -8.2246   22.0734 C   0  0  0  0  0  0
  -22.4271   -8.0285   21.3537 C   0  0  0  0  0  0
  -21.9912   -9.0251   20.4629 C   0  0  0  0  0  0
  -22.7233  -10.2133   20.3043 C   0  0  0  0  0  0
  -21.6865   -6.0723   22.5262 C   0  0  0  0  0  0
  -21.4018   -6.5624   23.8198 C   0  0  0  0  0  0
  -21.3665   -5.6784   24.9164 C   0  0  0  0  0  0
  -21.6043   -4.3046   24.7224 C   0  0  0  0  0  0
  -21.8830   -3.8132   23.4348 C   0  0  0  0  0  0
  -21.9196   -4.6943   22.3397 C   0  0  0  0  0  0
  -22.7794  -13.5210   21.1892 C   0  0  0  0  0  0
  -22.1664   -4.2132   21.0979 F   0  0  0  0  0  0
  -21.5637   -3.4534   25.7737 F   0  0  0  0  0  0
  -29.9858  -13.5069   20.4308 N   0  0  0  0  0  0
  -26.2910  -12.9427   20.3335 N   0  0  0  0  0  0
  -25.9311  -11.6555   20.5789 N   0  0  0  0  0  0
  -22.0479  -12.8172   22.0450 N   0  0  0  0  0  0
  -25.4197  -15.1934   20.4135 N   0  0  0  0  0  0
  -31.7751  -14.8347   20.0872 O   0  0  0  0  0  0
  -21.6654   -6.8866   21.4228 O   0  0  0  0  0  0
  -22.3454  -14.5521   20.6753 O   0  0  0  0  0  0
  -24.6311  -31.8544   23.2016 C   0  0  0  0  0  0
  -25.9140  -32.4741   23.8331 C   0  0  1  0  0  0
  -27.2016  -27.2386   20.1218 C   0  0  0  0  0  0
  -25.5959  -33.8553   24.2236 N   0  0  0  0  0  0
  -23.4263  -30.4769   21.5460 C   0  0  2  0  0  0
  -24.8708  -28.9321   20.1059 C   0  0  0  0  0  0
  -22.7516  -29.4529   22.4903 C   0  0  0  0  0  0
  -18.0275  -28.1375   22.8545 C   0  0  0  0  0  0
  -24.1506  -36.7270   23.2633 C   0  0  0  0  0  0
  -25.9747  -30.7584   21.3888 C   0  0  0  0  0  0
  -26.0446  -29.3831   20.7206 C   0  0  0  0  0  0
  -27.2106  -28.5496   20.7185 C   0  0  0  0  0  0
  -26.0065  -26.8737   19.4565 C   0  0  0  0  0  0
  -24.8575  -27.6867   19.4651 C   0  0  0  0  0  0
  -23.6490  -29.8303   20.1557 C   0  0  0  0  0  0
  -25.4139  -36.3044   24.0304 C   0  0  1  0  0  0
  -20.5893  -28.3620   23.1280 C   0  0  2  0  0  0
  -20.6724  -26.9313   22.5460 C   0  0  0  0  0  0
  -19.5657  -26.6213   21.5358 C   0  0  0  0  0  0
  -18.1894  -26.7847   22.1849 C   0  0  0  0  0  0
  -19.1556  -28.8838   23.2875 C   0  0  0  0  0  0
  -18.9516  -30.1443   23.8880 C   0  0  0  0  0  0
  -17.6525  -30.6578   24.0573 C   0  0  0  0  0  0
  -25.9080  -34.9428   23.5066 C   0  0  0  0  0  0
  -16.5384  -29.9098   23.6389 C   0  0  0  0  0  0
  -16.7267  -28.6507   23.0429 C   0  0  0  0  0  0
  -26.4517  -31.6572   25.0723 C   0  0  0  0  0  0
  -25.3708  -31.3739   26.1410 C   0  0  0  0  0  0
  -27.0389  -30.2980   24.6256 C   0  0  0  0  0  0
  -27.6063  -32.4323   25.7502 C   0  0  0  0  0  0
  -27.5584  -37.1798   24.8464 C   0  0  0  0  0  0
  -21.4220  -29.2913   22.3632 N   0  0  0  0  0  0
  -26.4300  -37.3748   23.9405 N   0  0  0  0  0  0
  -24.6958  -31.0472   22.1029 N   0  0  0  0  0  0
  -23.4215  -28.8133   23.3048 O   0  0  0  0  0  0
  -28.2817  -26.3200   20.2198 O   0  0  0  0  0  0
  -26.5634  -34.8901   22.4623 O   0  0  0  0  0  0
  -23.5471  -32.1401   23.7299 O   0  0  0  0  0  0
  -30.1253  -18.2663   17.8225 C   0  0  0  0  0  0
  -30.2134  -17.1354   18.6424 C   0  0  0  0  0  0
  -29.4411  -18.5011   20.4993 C   0  0  0  0  0  0
  -29.7028  -19.5232   18.3032 C   0  0  0  0  0  0
  -29.3945  -19.7274   19.6885 C   0  0  0  0  0  0
  -29.8545  -17.1838   20.0005 C   0  0  0  0  0  0
  -28.3282  -21.4228   21.3209 C   0  0  0  0  0  0
  -28.1928  -22.7584   21.5219 C   0  0  0  0  0  0
  -29.3505  -22.3982   19.5437 C   0  0  0  0  0  0
  -28.9237  -23.6111   20.4867 C   0  0  2  0  0  0
  -29.5230  -20.5792   17.2199 C   0  0  0  0  0  0
  -26.6536  -22.5020   23.5671 C   0  0  0  0  0  0
  -27.4497  -23.4468   22.6559 C   0  0  0  0  0  0
  -28.1133  -24.8668   19.8283 C   0  0  0  0  0  0
  -29.0424  -21.0677   20.1880 N   0  0  0  0  0  0
  -29.8524  -15.8834   20.7310 N   0  0  0  0  0  0
  -31.4650  -12.5675   19.1808 H   0  0  0  0  0  0
  -30.3640  -11.4704   19.9632 H   0  0  0  0  0  0
  -29.7803  -11.7268   17.5347 H   0  0  0  0  0  0
  -29.6431  -13.4566   17.7230 H   0  0  0  0  0  0
  -27.8652  -11.2965   18.8955 H   0  0  0  0  0  0
  -27.3781  -12.5608   17.8032 H   0  0  0  0  0  0
  -27.6406  -14.2630   19.4977 H   0  0  0  0  0  0
  -28.4130  -13.8313   21.8164 H   0  0  0  0  0  0
  -28.7072  -12.1564   21.4308 H   0  0  0  0  0  0
  -25.2769   -9.5696   22.4738 H   0  0  0  0  0  0
  -24.0011   -7.4629   22.7440 H   0  0  0  0  0  0
  -21.0849   -8.8753   19.8933 H   0  0  0  0  0  0
  -22.3674  -10.9661   19.6146 H   0  0  0  0  0  0
  -21.2008   -7.6135   23.9694 H   0  0  0  0  0  0
  -21.1478   -6.0515   25.9063 H   0  0  0  0  0  0
  -22.0608   -2.7595   23.2853 H   0  0  0  0  0  0
  -22.4125  -11.9836   22.4830 H   0  0  0  0  0  0
  -21.1069  -13.1115   22.2663 H   0  0  0  0  0  0
  -24.6624  -15.8546   20.5449 H   0  0  0  0  0  0
  -26.2794  -15.6323   20.1111 H   0  0  0  0  0  0
  -26.7169  -32.5360   23.1033 H   0  0  0  0  0  0
  -25.0113  -33.9709   25.0385 H   0  0  0  0  0  0
  -22.7185  -31.2971   21.4140 H   0  0  0  0  0  0
  -23.3762  -35.9605   23.3298 H   0  0  0  0  0  0
  -24.3573  -36.8908   22.2044 H   0  0  0  0  0  0
  -23.7284  -37.6476   23.6673 H   0  0  0  0  0  0
  -26.1209  -31.5296   20.6313 H   0  0  0  0  0  0
  -26.8460  -30.7949   22.0312 H   0  0  0  0  0  0
  -28.1052  -28.8940   21.2161 H   0  0  0  0  0  0
  -25.9113  -25.9407   18.9223 H   0  0  0  0  0  0
  -23.9575  -27.3458   18.9710 H   0  0  0  0  0  0
  -23.7951  -30.6232   19.4211 H   0  0  0  0  0  0
  -22.7636  -29.2835   19.8280 H   0  0  0  0  0  0
  -25.1331  -36.1865   25.0792 H   0  0  0  0  0  0
  -20.9958  -28.3183   24.1412 H   0  0  0  0  0  0
  -20.5658  -26.2251   23.3724 H   0  0  0  0  0  0
  -21.6517  -26.7275   22.1127 H   0  0  0  0  0  0
  -19.6772  -25.6056   21.1555 H   0  0  0  0  0  0
  -19.6590  -27.2905   20.6800 H   0  0  0  0  0  0
  -17.4058  -26.6362   21.4413 H   0  0  0  0  0  0
  -18.0433  -26.0182   22.9471 H   0  0  0  0  0  0
  -19.8015  -30.7240   24.2228 H   0  0  0  0  0  0
  -17.5119  -31.6241   24.5232 H   0  0  0  0  0  0
  -15.5385  -30.2990   23.7816 H   0  0  0  0  0  0
  -15.8637  -28.0812   22.7250 H   0  0  0  0  0  0
  -24.5881  -30.7116   25.7689 H   0  0  0  0  0  0
  -24.8915  -32.2929   26.4795 H   0  0  0  0  0  0
  -25.7981  -30.8902   27.0197 H   0  0  0  0  0  0
  -26.3003  -29.6692   24.1271 H   0  0  0  0  0  0
  -27.4037  -29.7282   25.4809 H   0  0  0  0  0  0
  -27.8890  -30.4237   23.9545 H   0  0  0  0  0  0
  -27.2658  -33.3617   26.2072 H   0  0  0  0  0  0
  -28.3878  -32.6888   25.0335 H   0  0  0  0  0  0
  -28.0710  -31.8443   26.5424 H   0  0  0  0  0  0
  -28.2588  -38.0103   24.7499 H   0  0  0  0  0  0
  -28.1094  -36.2633   24.6311 H   0  0  0  0  0  0
  -27.2287  -37.1464   25.8858 H   0  0  0  0  0  0
  -20.9414  -29.8502   21.6732 H   0  0  0  0  0  0
  -26.0165  -38.2810   24.1414 H   0  0  0  0  0  0
  -30.3656  -18.1446   16.7749 H   0  0  0  0  0  0
  -30.5129  -16.2068   18.1773 H   0  0  0  0  0  0
  -29.1538  -18.5703   21.5388 H   0  0  0  0  0  0
  -27.9098  -20.6247   21.9204 H   0  0  0  0  0  0
  -30.4103  -22.4716   19.2920 H   0  0  0  0  0  0
  -28.7764  -22.5212   18.6301 H   0  0  0  0  0  0
  -29.8221  -24.0016   20.9645 H   0  0  0  0  0  0
  -29.5954  -20.1510   16.2203 H   0  0  0  0  0  0
  -30.2841  -21.3555   17.2876 H   0  0  0  0  0  0
  -28.5233  -21.0103   17.2653 H   0  0  0  0  0  0
  -27.2970  -21.7588   24.0406 H   0  0  0  0  0  0
  -25.8722  -21.9847   23.0084 H   0  0  0  0  0  0
  -26.1668  -23.0686   24.3613 H   0  0  0  0  0  0
  -26.7674  -24.1818   22.2274 H   0  0  0  0  0  0
  -28.1696  -24.0152   23.2454 H   0  0  0  0  0  0
  -27.0700  -24.5665   19.8913 H   0  0  0  0  0  0
  -28.3394  -24.8542   18.7623 H   0  0  0  0  0  0
  -29.0570  -15.7293   21.3327 H   0  0  0  0  0  0
  1 25  1  0  0  0
  1 30  2  0  0  0
  1 86  1  0  0  0
  2  3  1  0  0  0
  2 25  1  0  0  0
  2 87  1  0  0  0
  2 88  1  0  0  0
  3  4  1  0  0  0
  3 89  1  0  0  0
  3 90  1  0  0  0
  4  5  1  0  0  0
  4 91  1  0  0  0
  4 92  1  0  0  0
  5  6  1  0  0  0
  5 26  1  0  0  0
  5 93  1  0  0  0
  6 25  1  0  0  0
  6 94  1  0  0  0
  6 95  1  0  0  0
  7  8  2  0  0  0
  7 26  1  0  0  0
  7 29  1  0  0  0
  8  9  1  0  0  0
  8 22  1  0  0  0
  9 10  1  0  0  0
  9 27  2  0  0  0
 10 11  2  0  0  0
 10 15  1  0  0  0
 11 12  1  0  0  0
 11 96  1  0  0  0
 12 13  2  0  0  0
 12 97  1  0  0  0
 13 14  1  0  0  0
 13 31  1  0  0  0
 14 15  2  0  0  0
 14 98  1  0  0  0
 15 99  1  0  0  0
 16 17  2  0  0  0
 16 21  1  0  0  0
 16 31  1  0  0  0
 17 18  1  0  0  0
 17100  1  0  0  0
 18 19  2  0  0  0
 18101  1  0  0  0
 19 20  1  0  0  0
 19 24  1  0  0  0
 20 21  2  0  0  0
 20102  1  0  0  0
 21 23  1  0  0  0
 22 28  1  0  0  0
 22 32  2  0  0  0
 26 27  1  0  0  0
 28103  1  0  0  0
 28104  1  0  0  0
 29105  1  0  0  0
 29106  1  0  0  0
 33 34  1  0  0  0
 33 66  1  0  0  0
 33 70  2  0  0  0
 34 36  1  0  0  0
 34 59  1  0  0  0
 34107  1  0  0  0
 35 44  2  0  0  0
 35 45  1  0  0  0
 35 68  1  0  0  0
 36 56  1  0  0  0
 36108  1  0  0  0
 37 39  1  0  0  0
 37 47  1  0  0  0
 37 66  1  0  0  0
 37109  1  0  0  0
 38 43  2  0  0  0
 38 46  1  0  0  0
 38 47  1  0  0  0
 39 64  1  0  0  0
 39 67  2  0  0  0
 40 52  1  0  0  0
 40 53  2  0  0  0
 40 58  1  0  0  0
 41110  1  0  0  0
 41111  1  0  0  0
 41112  1  0  0  0
 41 48  1  0  0  0
 42 43  1  0  0  0
 42 66  1  0  0  0
 42113  1  0  0  0
 42114  1  0  0  0
 43 44  1  0  0  0
 44115  1  0  0  0
 45 46  2  0  0  0
 45116  1  0  0  0
 46117  1  0  0  0
 47118  1  0  0  0
 47119  1  0  0  0
 48 56  1  0  0  0
 48 65  1  0  0  0
 48120  1  0  0  0
 49 50  1  0  0  0
 49 53  1  0  0  0
 49 64  1  0  0  0
 49121  1  0  0  0
 50 51  1  0  0  0
 50122  1  0  0  0
 50123  1  0  0  0
 51 52  1  0  0  0
 51124  1  0  0  0
 51125  1  0  0  0
 52126  1  0  0  0
 52127  1  0  0  0
 53 54  1  0  0  0
 54 55  2  0  0  0
 54128  1  0  0  0
 55 57  1  0  0  0
 55129  1  0  0  0
 56 69  2  0  0  0
 57 58  2  0  0  0
 57130  1  0  0  0
 58131  1  0  0  0
 59 60  1  0  0  0
 59 61  1  0  0  0
 59 62  1  0  0  0
 60132  1  0  0  0
 60133  1  0  0  0
 60134  1  0  0  0
 61135  1  0  0  0
 61136  1  0  0  0
 61137  1  0  0  0
 62138  1  0  0  0
 62139  1  0  0  0
 62140  1  0  0  0
 63 65  1  0  0  0
 63141  1  0  0  0
 63142  1  0  0  0
 63143  1  0  0  0
 64144  1  0  0  0
 65145  1  0  0  0
 68 84  1  0  0  0
 71 72  2  0  0  0
 71 74  1  0  0  0
 71146  1  0  0  0
 72 76  1  0  0  0
 72147  1  0  0  0
 73 75  1  0  0  0
 73 76  2  0  0  0
 73148  1  0  0  0
 74 75  2  0  0  0
 74 81  1  0  0  0
 75 85  1  0  0  0
 76 86  1  0  0  0
 77 78  2  0  0  0
 77 85  1  0  0  0
 77149  1  0  0  0
 78 80  1  0  0  0
 78 83  1  0  0  0
 79 80  1  0  0  0
 79 85  1  0  0  0
 79150  1  0  0  0
 79151  1  0  0  0
 80 84  1  0  0  0
 80152  1  0  0  0
 81153  1  0  0  0
 81154  1  0  0  0
 81155  1  0  0  0
 82 83  1  0  0  0
 82156  1  0  0  0
 82157  1  0  0  0
 82158  1  0  0  0
 83159  1  0  0  0
 83160  1  0  0  0
 84161  1  0  0  0
 84162  1  0  0  0
 86163  1  0  0  0
M  ISO  4   1 100  68 101  84 101  86 100
M  END
> <chiral flag>
0

> <version>
0

> <s_m_source_file>
/data/baiqing/PycharmProjects/Reinvent-master-3.2/result/LINK_invent/BTK/process_docking_weight1_custom_product_contain_oxygen_bond_distance_aromatic_linkinvent_7_9_3/rearranged_h_0070.sdf

> <i_m_source_file_index>
39

> <r_mmod_Potential_Energy-OPLS-2005>
321.978210449219

> <r_mmod_Stretch_Energy-OPLS-2005>
137.428817749023

> <r_mmod_Bend_Energy-OPLS-2005>
249.451095581055

> <r_mmod_Torsional_Energy-OPLS-2005>
247.676132202148

> <r_mmod_Improper_Torsional_Energy-OPLS-2005>
4.78954982757568

> <r_mmod_Van_der_Waal_Energy-OPLS-2005>
152.448333740234

> <r_mmod_Electrostatic_Energy-OPLS-2005>
-354.699035644531

> <r_mmod_Solvation_Energy-OPLS-2005>
-207.688812255859

> <b_mmod_Minimization_Converged-OPLS-2005>
0

> <r_mmod_RMS_Derivative-OPLS-2005>
3.47552490234375

$$$$
39
                    3D
 Structure written by MMmdl.
162171  0  0  1  0            999 V2000
  -30.6024  -14.7334   20.4781 C   0  0  0  0  0  0
  -30.4245  -12.4458   19.4851 C   0  0  0  0  0  0
  -29.5068  -12.5292   18.2442 C   0  0  0  0  0  0
  -28.0304  -12.3518   18.6478 C   0  0  0  0  0  0
  -27.6422  -13.2251   19.8695 C   0  0  2  0  0  0
  -28.6854  -13.1399   21.0064 C   0  0  0  0  0  0
  -25.2488  -13.8183   20.5704 C   0  0  0  0  0  0
  -24.1775  -13.0433   20.9175 C   0  0  0  0  0  0
  -24.6367  -11.6905   20.8727 C   0  0  0  0  0  0
  -23.9054  -10.4283   21.0385 C   0  0  0  0  0  0
  -24.3614   -9.4208   21.9171 C   0  0  0  0  0  0
  -23.6283   -8.2251   22.0751 C   0  0  0  0  0  0
  -22.4262   -8.0285   21.3542 C   0  0  0  0  0  0
  -21.9896   -9.0256   20.4636 C   0  0  0  0  0  0
  -22.7227  -10.2129   20.3035 C   0  0  0  0  0  0
  -21.6851   -6.0727   22.5266 C   0  0  0  0  0  0
  -21.4020   -6.5635   23.8200 C   0  0  0  0  0  0
  -21.3667   -5.6794   24.9164 C   0  0  0  0  0  0
  -21.6043   -4.3055   24.7216 C   0  0  0  0  0  0
  -21.8819   -3.8142   23.4338 C   0  0  0  0  0  0
  -21.9191   -4.6954   22.3394 C   0  0  0  0  0  0
  -22.7795  -13.5207   21.1861 C   0  0  0  0  0  0
  -22.1645   -4.2146   21.0970 F   0  0  0  0  0  0
  -21.5646   -3.4544   25.7732 F   0  0  0  0  0  0
  -29.9953  -13.4947   20.4422 N   0  0  0  0  0  0
  -26.2917  -12.9373   20.3361 N   0  0  0  0  0  0
  -25.9299  -11.6517   20.5778 N   0  0  0  0  0  0
  -22.0464  -12.8177   22.0415 N   0  0  0  0  0  0
  -25.4195  -15.1917   20.4158 N   0  0  0  0  0  0
  -31.7475  -14.8712   20.0379 O   0  0  0  0  0  0
  -21.6628   -6.8882   21.4231 O   0  0  0  0  0  0
  -22.3470  -14.5534   20.6738 O   0  0  0  0  0  0
  -24.6318  -31.8560   23.2002 C   0  0  0  0  0  0
  -25.9133  -32.4765   23.8346 C   0  0  1  0  0  0
  -27.2090  -27.2453   20.1291 C   0  0  0  0  0  0
  -25.5915  -33.8565   24.2261 N   0  0  0  0  0  0
  -23.4282  -30.4804   21.5452 C   0  0  2  0  0  0
  -24.8736  -28.9335   20.1077 C   0  0  0  0  0  0
  -22.7497  -29.4608   22.4919 C   0  0  0  0  0  0
  -18.0295  -28.1397   22.8503 C   0  0  0  0  0  0
  -24.1484  -36.7288   23.2648 C   0  0  0  0  0  0
  -25.9757  -30.7611   21.3856 C   0  0  0  0  0  0
  -26.0450  -29.3835   20.7286 C   0  0  0  0  0  0
  -27.2102  -28.5488   20.7374 C   0  0  0  0  0  0
  -26.0232  -26.8921   19.4391 C   0  0  0  0  0  0
  -24.8696  -27.6965   19.4524 C   0  0  0  0  0  0
  -23.6454  -29.8205   20.1594 C   0  0  0  0  0  0
  -25.4118  -36.3084   24.0326 C   0  0  1  0  0  0
  -20.5889  -28.3711   23.1280 C   0  0  2  0  0  0
  -20.6780  -26.9427   22.5419 C   0  0  0  0  0  0
  -19.5744  -26.6391   21.5231 C   0  0  0  0  0  0
  -18.1924  -26.7947   22.1640 C   0  0  0  0  0  0
  -19.1548  -28.8877   23.2883 C   0  0  0  0  0  0
  -18.9463  -30.1479   23.8901 C   0  0  0  0  0  0
  -17.6460  -30.6603   24.0568 C   0  0  0  0  0  0
  -25.9048  -34.9446   23.5100 C   0  0  0  0  0  0
  -16.5353  -29.9098   23.6334 C   0  0  0  0  0  0
  -16.7281  -28.6511   23.0369 C   0  0  0  0  0  0
  -26.4496  -31.6598   25.0744 C   0  0  0  0  0  0
  -25.3698  -31.3719   26.1444 C   0  0  0  0  0  0
  -27.0375  -30.3028   24.6226 C   0  0  0  0  0  0
  -27.6049  -32.4347   25.7513 C   0  0  0  0  0  0
  -27.5583  -37.1800   24.8471 C   0  0  0  0  0  0
  -21.4202  -29.3054   22.3659 N   0  0  0  0  0  0
  -26.4300  -37.3778   23.9410 N   0  0  0  0  0  0
  -24.6982  -31.0498   22.1003 N   0  0  0  0  0  0
  -23.4198  -28.8143   23.3014 O   0  0  0  0  0  0
  -28.2931  -26.3321   20.2360 O   0  0  0  0  0  0
  -26.5618  -34.8918   22.4667 O   0  0  0  0  0  0
  -23.5460  -32.1410   23.7268 O   0  0  0  0  0  0
  -28.3152  -19.3510   18.9513 C   0  0  0  0  0  0
  -29.6958  -18.4551   20.7427 C   0  0  0  0  0  0
  -28.7711  -16.9456   19.0634 C   0  0  0  0  0  0
  -29.1153  -19.6258   20.0824 C   0  0  0  0  0  0
  -28.1314  -18.0429   18.4538 C   0  0  0  0  0  0
  -29.5298  -17.0894   20.2448 C   0  0  0  0  0  0
  -30.1793  -23.2554   20.6945 C   0  0  0  0  0  0
  -30.4089  -21.7034   20.7396 C   0  0  0  0  0  0
  -24.3556  -18.1705   15.3793 C   0  0  0  0  0  0
  -25.5895  -17.8312   15.7918 C   0  0  0  0  0  0
  -26.1167  -18.3271   17.0495 C   0  0  0  0  0  0
  -28.2246  -22.1384   20.1346 C   0  0  0  0  0  0
  -28.6905  -23.5729   20.6400 C   0  0  2  0  0  0
  -28.1500  -24.8789   19.8340 C   0  0  0  0  0  0
  -29.2486  -21.0709   20.4460 N   0  0  0  0  0  0
  -27.3231  -17.7982   17.3137 N   0  0  0  0  0  0
  -29.8846  -15.8255   20.9386 N   0  0  0  0  0  0
  -31.0724  -24.1122   20.7207 O   0  0  0  0  0  0
  -31.4933  -21.1689   21.0086 O   0  0  0  0  0  0
  -25.5372  -19.1251   17.7917 O   0  0  0  0  0  0
  -31.4675  -12.5587   19.1868 H   0  0  0  0  0  0
  -30.3557  -11.4602   19.9497 H   0  0  0  0  0  0
  -29.7872  -11.7713   17.5113 H   0  0  0  0  0  0
  -29.6392  -13.4953   17.7533 H   0  0  0  0  0  0
  -27.8693  -11.2982   18.8785 H   0  0  0  0  0  0
  -27.3781  -12.5764   17.8027 H   0  0  0  0  0  0
  -27.6345  -14.2512   19.5164 H   0  0  0  0  0  0
  -28.7144  -12.1347   21.4298 H   0  0  0  0  0  0
  -28.4122  -13.8053   21.8257 H   0  0  0  0  0  0
  -25.2757   -9.5701   22.4745 H   0  0  0  0  0  0
  -23.9984   -7.4641   22.7473 H   0  0  0  0  0  0
  -21.0833   -8.8788   19.8927 H   0  0  0  0  0  0
  -22.3689  -10.9679   19.6155 H   0  0  0  0  0  0
  -21.2007   -7.6137   23.9713 H   0  0  0  0  0  0
  -21.1498   -6.0514   25.9074 H   0  0  0  0  0  0
  -22.0594   -2.7603   23.2837 H   0  0  0  0  0  0
  -22.4088  -11.9801   22.4725 H   0  0  0  0  0  0
  -21.1107  -13.1215   22.2716 H   0  0  0  0  0  0
  -24.6548  -15.8457   20.5379 H   0  0  0  0  0  0
  -26.2802  -15.6411   20.1344 H   0  0  0  0  0  0
  -26.7188  -32.5410   23.1077 H   0  0  0  0  0  0
  -25.0055  -33.9702   25.0401 H   0  0  0  0  0  0
  -22.7253  -31.3044   21.4015 H   0  0  0  0  0  0
  -23.3754  -35.9611   23.3313 H   0  0  0  0  0  0
  -24.3564  -36.8914   22.2062 H   0  0  0  0  0  0
  -23.7214  -37.6479   23.6675 H   0  0  0  0  0  0
  -26.1107  -31.5170   20.6109 H   0  0  0  0  0  0
  -26.8551  -30.8154   22.0154 H   0  0  0  0  0  0
  -28.0993  -28.8786   21.2558 H   0  0  0  0  0  0
  -25.9337  -25.9771   18.8754 H   0  0  0  0  0  0
  -23.9801  -27.3547   18.9417 H   0  0  0  0  0  0
  -23.7647  -30.5999   19.4052 H   0  0  0  0  0  0
  -22.7615  -29.2555   19.8588 H   0  0  0  0  0  0
  -25.1285  -36.1952   25.0812 H   0  0  0  0  0  0
  -20.9986  -28.3302   24.1400 H   0  0  0  0  0  0
  -20.5710  -26.2312   23.3625 H   0  0  0  0  0  0
  -21.6640  -26.7459   22.1194 H   0  0  0  0  0  0
  -19.6897  -25.6302   21.1260 H   0  0  0  0  0  0
  -19.6675  -27.3199   20.6760 H   0  0  0  0  0  0
  -17.4191  -26.6726   21.4041 H   0  0  0  0  0  0
  -18.0291  -26.0090   22.9035 H   0  0  0  0  0  0
  -19.7933  -30.7299   24.2271 H   0  0  0  0  0  0
  -17.5011  -31.6287   24.5171 H   0  0  0  0  0  0
  -15.5349  -30.2999   23.7666 H   0  0  0  0  0  0
  -15.8683  -28.0827   22.7090 H   0  0  0  0  0  0
  -24.5919  -30.7017   25.7756 H   0  0  0  0  0  0
  -24.8823  -32.2870   26.4820 H   0  0  0  0  0  0
  -25.8005  -30.8944   27.0255 H   0  0  0  0  0  0
  -26.2984  -29.6744   24.1245 H   0  0  0  0  0  0
  -27.4082  -29.7305   25.4738 H   0  0  0  0  0  0
  -27.8833  -30.4326   23.9471 H   0  0  0  0  0  0
  -27.2679  -33.3682   26.2023 H   0  0  0  0  0  0
  -28.3897  -32.6842   25.0361 H   0  0  0  0  0  0
  -28.0676  -31.8511   26.5481 H   0  0  0  0  0  0
  -28.2597  -38.0106   24.7533 H   0  0  0  0  0  0
  -28.1087  -36.2627   24.6299 H   0  0  0  0  0  0
  -27.2284  -37.1449   25.8872 H   0  0  0  0  0  0
  -20.9386  -29.8779   21.6865 H   0  0  0  0  0  0
  -26.0185  -38.2850   24.1425 H   0  0  0  0  0  0
  -27.8397  -20.1615   18.4206 H   0  0  0  0  0  0
  -30.2556  -18.6053   21.6552 H   0  0  0  0  0  0
  -28.6144  -15.9631   18.6463 H   0  0  0  0  0  0
  -23.9667  -17.8017   14.4413 H   0  0  0  0  0  0
  -23.7136  -18.8170   15.9618 H   0  0  0  0  0  0
  -26.1904  -17.1831   15.1686 H   0  0  0  0  0  0
  -28.0732  -22.1918   19.0554 H   0  0  0  0  0  0
  -27.2675  -21.8657   20.5785 H   0  0  0  0  0  0
  -28.3751  -23.6746   21.6788 H   0  0  0  0  0  0
  -27.0944  -24.6331   19.7914 H   0  0  0  0  0  0
  -28.4976  -24.8085   18.8025 H   0  0  0  0  0  0
  -27.6392  -17.0789   16.6787 H   0  0  0  0  0  0
  -29.1437  -15.5180   21.5516 H   0  0  0  0  0  0
  1 25  1  0  0  0
  1 30  2  0  0  0
  1 87  1  0  0  0
  2  3  1  0  0  0
  2 25  1  0  0  0
  2 91  1  0  0  0
  2 92  1  0  0  0
  3  4  1  0  0  0
  3 93  1  0  0  0
  3 94  1  0  0  0
  4  5  1  0  0  0
  4 95  1  0  0  0
  4 96  1  0  0  0
  5  6  1  0  0  0
  5 26  1  0  0  0
  5 97  1  0  0  0
  6 25  1  0  0  0
  6 98  1  0  0  0
  6 99  1  0  0  0
  7  8  2  0  0  0
  7 26  1  0  0  0
  7 29  1  0  0  0
  8  9  1  0  0  0
  8 22  1  0  0  0
  9 10  1  0  0  0
  9 27  2  0  0  0
 10 11  2  0  0  0
 10 15  1  0  0  0
 11 12  1  0  0  0
 11100  1  0  0  0
 12 13  2  0  0  0
 12101  1  0  0  0
 13 14  1  0  0  0
 13 31  1  0  0  0
 14 15  2  0  0  0
 14102  1  0  0  0
 15103  1  0  0  0
 16 17  2  0  0  0
 16 21  1  0  0  0
 16 31  1  0  0  0
 17 18  1  0  0  0
 17104  1  0  0  0
 18 19  2  0  0  0
 18105  1  0  0  0
 19 20  1  0  0  0
 19 24  1  0  0  0
 20 21  2  0  0  0
 20106  1  0  0  0
 21 23  1  0  0  0
 22 28  1  0  0  0
 22 32  2  0  0  0
 26 27  1  0  0  0
 28107  1  0  0  0
 28108  1  0  0  0
 29109  1  0  0  0
 29110  1  0  0  0
 33 34  1  0  0  0
 33 66  1  0  0  0
 33 70  2  0  0  0
 34 36  1  0  0  0
 34 59  1  0  0  0
 34111  1  0  0  0
 35 44  2  0  0  0
 35 45  1  0  0  0
 35 68  1  0  0  0
 36 56  1  0  0  0
 36112  1  0  0  0
 37 39  1  0  0  0
 37 47  1  0  0  0
 37 66  1  0  0  0
 37113  1  0  0  0
 38 43  2  0  0  0
 38 46  1  0  0  0
 38 47  1  0  0  0
 39 64  1  0  0  0
 39 67  2  0  0  0
 40 52  1  0  0  0
 40 53  2  0  0  0
 40 58  1  0  0  0
 41114  1  0  0  0
 41115  1  0  0  0
 41116  1  0  0  0
 41 48  1  0  0  0
 42 43  1  0  0  0
 42 66  1  0  0  0
 42117  1  0  0  0
 42118  1  0  0  0
 43 44  1  0  0  0
 44119  1  0  0  0
 45 46  2  0  0  0
 45120  1  0  0  0
 46121  1  0  0  0
 47122  1  0  0  0
 47123  1  0  0  0
 48 56  1  0  0  0
 48 65  1  0  0  0
 48124  1  0  0  0
 49 50  1  0  0  0
 49 53  1  0  0  0
 49 64  1  0  0  0
 49125  1  0  0  0
 50 51  1  0  0  0
 50126  1  0  0  0
 50127  1  0  0  0
 51 52  1  0  0  0
 51128  1  0  0  0
 51129  1  0  0  0
 52130  1  0  0  0
 52131  1  0  0  0
 53 54  1  0  0  0
 54 55  2  0  0  0
 54132  1  0  0  0
 55 57  1  0  0  0
 55133  1  0  0  0
 56 69  2  0  0  0
 57 58  2  0  0  0
 57134  1  0  0  0
 58135  1  0  0  0
 59 60  1  0  0  0
 59 61  1  0  0  0
 59 62  1  0  0  0
 60136  1  0  0  0
 60137  1  0  0  0
 60138  1  0  0  0
 61139  1  0  0  0
 61140  1  0  0  0
 61141  1  0  0  0
 62142  1  0  0  0
 62143  1  0  0  0
 62144  1  0  0  0
 63 65  1  0  0  0
 63145  1  0  0  0
 63146  1  0  0  0
 63147  1  0  0  0
 64148  1  0  0  0
 65149  1  0  0  0
 68 84  1  0  0  0
 71 74  2  0  0  0
 71 75  1  0  0  0
 71150  1  0  0  0
 72 74  1  0  0  0
 72 76  2  0  0  0
 72151  1  0  0  0
 73 75  2  0  0  0
 73 76  1  0  0  0
 73152  1  0  0  0
 74 85  1  0  0  0
 75 86  1  0  0  0
 76 87  1  0  0  0
 77 78  1  0  0  0
 77 83  1  0  0  0
 77 88  2  0  0  0
 78 85  1  0  0  0
 78 89  2  0  0  0
 79 80  2  0  0  0
 79153  1  0  0  0
 79154  1  0  0  0
 80 81  1  0  0  0
 80155  1  0  0  0
 81 86  1  0  0  0
 81 90  2  0  0  0
 82 83  1  0  0  0
 82 85  1  0  0  0
 82156  1  0  0  0
 82157  1  0  0  0
 83 84  1  0  0  0
 83158  1  0  0  0
 84159  1  0  0  0
 84160  1  0  0  0
 86161  1  0  0  0
 87162  1  0  0  0
M  ISO  4   1 100  68 101  84 101  87 100
M  END
> <chiral flag>
0

> <version>
0

> <s_m_source_file>
/data/baiqing/PycharmProjects/Reinvent-master-3.2/result/LINK_invent/BTK/process_docking_weight1_custom_product_contain_oxygen_bond_distance_aromatic_linkinvent_7_9_3/rearranged_h_0070.sdf

> <i_m_source_file_index>
40

> <r_mmod_Potential_Energy-OPLS-2005>
290.11181640625

> <r_mmod_Stretch_Energy-OPLS-2005>
129.046401977539

> <r_mmod_Bend_Energy-OPLS-2005>
218.759338378906

> <r_mmod_Torsional_Energy-OPLS-2005>
304.476135253906

> <r_mmod_Improper_Torsional_Energy-OPLS-2005>
7.18054246902466

> <r_mmod_Van_der_Waal_Energy-OPLS-2005>
138.827590942383

> <r_mmod_Electrostatic_Energy-OPLS-2005>
-314.250640869141

> <r_mmod_Solvation_Energy-OPLS-2005>
-282.720520019531

> <b_mmod_Minimization_Converged-OPLS-2005>
0

> <r_mmod_RMS_Derivative-OPLS-2005>
2.09530925750732

$$$$
40
                    3D
 Structure written by MMmdl.
158167  0  0  1  0            999 V2000
  -30.5999  -14.6868   20.4897 C   0  0  0  0  0  0
  -30.4449  -12.4209   19.4587 C   0  0  0  0  0  0
  -29.5114  -12.5139   18.2302 C   0  0  0  0  0  0
  -28.0346  -12.3434   18.6410 C   0  0  0  0  0  0
  -27.6512  -13.2193   19.8626 C   0  0  2  0  0  0
  -28.6975  -13.0899   20.9930 C   0  0  0  0  0  0
  -25.2544  -13.8177   20.5684 C   0  0  0  0  0  0
  -24.1820  -13.0440   20.9211 C   0  0  0  0  0  0
  -24.6401  -11.6915   20.8761 C   0  0  0  0  0  0
  -23.9082  -10.4295   21.0427 C   0  0  0  0  0  0
  -24.3629   -9.4205   21.9201 C   0  0  0  0  0  0
  -23.6299   -8.2244   22.0764 C   0  0  0  0  0  0
  -22.4280   -8.0290   21.3549 C   0  0  0  0  0  0
  -21.9927   -9.0271   20.4652 C   0  0  0  0  0  0
  -22.7261  -10.2145   20.3070 C   0  0  0  0  0  0
  -21.6851   -6.0748   22.5288 C   0  0  0  0  0  0
  -21.4008   -6.5649   23.8224 C   0  0  0  0  0  0
  -21.3659   -5.6798   24.9184 C   0  0  0  0  0  0
  -21.6047   -4.3063   24.7230 C   0  0  0  0  0  0
  -21.8813   -3.8158   23.4348 C   0  0  0  0  0  0
  -21.9188   -4.6979   22.3408 C   0  0  0  0  0  0
  -22.7840  -13.5232   21.1860 C   0  0  0  0  0  0
  -22.1655   -4.2171   21.0982 F   0  0  0  0  0  0
  -21.5636   -3.4542   25.7739 F   0  0  0  0  0  0
  -30.0091  -13.4478   20.4282 N   0  0  0  0  0  0
  -26.2977  -12.9361   20.3319 N   0  0  0  0  0  0
  -25.9327  -11.6517   20.5775 N   0  0  0  0  0  0
  -22.0471  -12.8235   22.0414 N   0  0  0  0  0  0
  -25.4232  -15.1898   20.4047 N   0  0  0  0  0  0
  -31.7690  -14.8501   20.1262 O   0  0  0  0  0  0
  -21.6637   -6.8894   21.4250 O   0  0  0  0  0  0
  -22.3540  -14.5546   20.6709 O   0  0  0  0  0  0
  -24.6285  -31.8589   23.2016 C   0  0  0  0  0  0
  -25.9126  -32.4779   23.8350 C   0  0  1  0  0  0
  -27.2289  -27.3032   20.1274 C   0  0  0  0  0  0
  -25.5933  -33.8580   24.2280 N   0  0  0  0  0  0
  -23.4237  -30.4806   21.5446 C   0  0  2  0  0  0
  -24.8736  -28.9325   20.1114 C   0  0  0  0  0  0
  -22.7485  -29.4621   22.4942 C   0  0  0  0  0  0
  -18.0286  -28.1381   22.8501 C   0  0  0  0  0  0
  -24.1492  -36.7287   23.2640 C   0  0  0  0  0  0
  -25.9662  -30.7837   21.3764 C   0  0  0  0  0  0
  -26.0422  -29.4087   20.7207 C   0  0  0  0  0  0
  -27.2242  -28.6051   20.7206 C   0  0  0  0  0  0
  -26.0416  -26.8866   19.4862 C   0  0  0  0  0  0
  -24.8758  -27.6764   19.4846 C   0  0  0  0  0  0
  -23.6408  -29.8132   20.1609 C   0  0  0  0  0  0
  -25.4121  -36.3090   24.0330 C   0  0  1  0  0  0
  -20.5889  -28.3693   23.1283 C   0  0  2  0  0  0
  -20.6777  -26.9410   22.5417 C   0  0  0  0  0  0
  -19.5743  -26.6380   21.5228 C   0  0  0  0  0  0
  -18.1922  -26.7925   22.1635 C   0  0  0  0  0  0
  -19.1539  -28.8854   23.2887 C   0  0  0  0  0  0
  -18.9465  -30.1460   23.8893 C   0  0  0  0  0  0
  -17.6464  -30.6588   24.0564 C   0  0  0  0  0  0
  -25.9056  -34.9459   23.5109 C   0  0  0  0  0  0
  -16.5356  -29.9085   23.6333 C   0  0  0  0  0  0
  -16.7274  -28.6500   23.0364 C   0  0  0  0  0  0
  -26.4496  -31.6590   25.0726 C   0  0  0  0  0  0
  -25.3720  -31.3715   26.1446 C   0  0  0  0  0  0
  -27.0351  -30.3017   24.6188 C   0  0  0  0  0  0
  -27.6055  -32.4325   25.7499 C   0  0  0  0  0  0
  -27.5581  -37.1803   24.8465 C   0  0  0  0  0  0
  -21.4195  -29.3048   22.3678 N   0  0  0  0  0  0
  -26.4295  -37.3788   23.9407 N   0  0  0  0  0  0
  -24.6915  -31.0581   22.0975 N   0  0  0  0  0  0
  -23.4200  -28.8171   23.3038 O   0  0  0  0  0  0
  -28.3197  -26.4153   20.1577 O   0  0  0  0  0  0
  -26.5629  -34.8930   22.4679 O   0  0  0  0  0  0
  -23.5444  -32.1397   23.7327 O   0  0  0  0  0  0
  -28.5836  -19.3797   20.6548 C   0  0  0  0  0  0
  -28.6242  -17.9561   20.7740 C   0  0  0  0  0  0
  -30.9864  -17.9798   20.4430 C   0  0  0  0  0  0
  -30.9595  -19.4149   20.3426 C   0  0  0  0  0  0
  -29.7354  -20.1783   20.4102 C   0  0  0  0  0  0
  -29.8210  -17.1992   20.6576 C   0  0  0  0  0  0
  -30.4702  -22.5296   19.6031 C   0  0  0  0  0  0
  -30.0812  -23.8221   19.6069 C   0  0  0  0  0  0
  -28.8218  -23.9268   20.2998 C   0  0  0  0  0  0
  -28.0726  -25.0668   20.5249 C   0  0  0  0  0  0
  -28.4823  -22.4664   20.7243 C   0  0  0  0  0  0
  -32.3181  -20.0852   20.2155 C   0  0  0  0  0  0
  -30.8421  -24.9627   18.9663 C   0  0  0  0  0  0
  -29.6244  -21.6250   20.2545 N   0  0  0  0  0  0
  -29.7603  -15.7327   20.8044 N   0  0  0  0  0  0
  -31.4828  -12.5615   19.1530 H   0  0  0  0  0  0
  -30.3969  -11.4283   19.9087 H   0  0  0  0  0  0
  -29.7824  -11.7590   17.4915 H   0  0  0  0  0  0
  -29.6457  -13.4796   17.7409 H   0  0  0  0  0  0
  -27.8771  -11.2907   18.8790 H   0  0  0  0  0  0
  -27.3804  -12.5666   17.7973 H   0  0  0  0  0  0
  -27.6630  -14.2513   19.5126 H   0  0  0  0  0  0
  -28.7193  -12.0704   21.3810 H   0  0  0  0  0  0
  -28.4373  -13.7260   21.8404 H   0  0  0  0  0  0
  -25.2773   -9.5675   22.4781 H   0  0  0  0  0  0
  -24.0009   -7.4629   22.7476 H   0  0  0  0  0  0
  -21.0866   -8.8797   19.8947 H   0  0  0  0  0  0
  -22.3736  -10.9692   19.6180 H   0  0  0  0  0  0
  -21.1993   -7.6153   23.9736 H   0  0  0  0  0  0
  -21.1485   -6.0525   25.9090 H   0  0  0  0  0  0
  -22.0589   -2.7622   23.2844 H   0  0  0  0  0  0
  -22.4071  -11.9895   22.4812 H   0  0  0  0  0  0
  -21.1088  -13.1274   22.2594 H   0  0  0  0  0  0
  -24.6451  -15.8348   20.4921 H   0  0  0  0  0  0
  -26.2503  -15.6214   20.0139 H   0  0  0  0  0  0
  -26.7203  -32.5447   23.1105 H   0  0  0  0  0  0
  -25.0066  -33.9720   25.0416 H   0  0  0  0  0  0
  -22.7177  -31.3010   21.3989 H   0  0  0  0  0  0
  -23.3769  -35.9603   23.3298 H   0  0  0  0  0  0
  -24.3566  -36.8907   22.2050 H   0  0  0  0  0  0
  -23.7231  -37.6483   23.6663 H   0  0  0  0  0  0
  -26.0995  -31.5454   20.6066 H   0  0  0  0  0  0
  -26.8460  -30.8334   22.0066 H   0  0  0  0  0  0
  -28.1205  -28.9640   21.2066 H   0  0  0  0  0  0
  -26.0053  -25.9205   19.0028 H   0  0  0  0  0  0
  -23.9817  -27.3047   19.0031 H   0  0  0  0  0  0
  -23.7587  -30.5893   19.4039 H   0  0  0  0  0  0
  -22.7616  -29.2408   19.8602 H   0  0  0  0  0  0
  -25.1310  -36.1937   25.0824 H   0  0  0  0  0  0
  -20.9985  -28.3273   24.1402 H   0  0  0  0  0  0
  -20.5683  -26.2306   23.3625 H   0  0  0  0  0  0
  -21.6641  -26.7434   22.1197 H   0  0  0  0  0  0
  -19.6897  -25.6296   21.1245 H   0  0  0  0  0  0
  -19.6674  -27.3205   20.6772 H   0  0  0  0  0  0
  -17.4199  -26.6702   21.4026 H   0  0  0  0  0  0
  -18.0298  -26.0057   22.9018 H   0  0  0  0  0  0
  -19.7943  -30.7286   24.2240 H   0  0  0  0  0  0
  -17.5020  -31.6263   24.5171 H   0  0  0  0  0  0
  -15.5357  -30.2990   23.7648 H   0  0  0  0  0  0
  -15.8678  -28.0817   22.7077 H   0  0  0  0  0  0
  -24.5919  -30.7039   25.7766 H   0  0  0  0  0  0
  -24.8891  -32.2874   26.4868 H   0  0  0  0  0  0
  -25.8048  -30.8900   27.0225 H   0  0  0  0  0  0
  -26.2936  -29.6760   24.1211 H   0  0  0  0  0  0
  -27.4047  -29.7281   25.4696 H   0  0  0  0  0  0
  -27.8802  -30.4307   23.9421 H   0  0  0  0  0  0
  -27.2668  -33.3632   26.2064 H   0  0  0  0  0  0
  -28.3871  -32.6867   25.0326 H   0  0  0  0  0  0
  -28.0717  -31.8457   26.5422 H   0  0  0  0  0  0
  -28.2606  -38.0098   24.7533 H   0  0  0  0  0  0
  -28.1077  -36.2633   24.6282 H   0  0  0  0  0  0
  -27.2289  -37.1435   25.8865 H   0  0  0  0  0  0
  -20.9375  -29.8770   21.6881 H   0  0  0  0  0  0
  -26.0177  -38.2860   24.1427 H   0  0  0  0  0  0
  -27.6193  -19.8572   20.7413 H   0  0  0  0  0  0
  -27.6920  -17.4404   20.9542 H   0  0  0  0  0  0
  -31.9379  -17.4719   20.3769 H   0  0  0  0  0  0
  -31.3544  -22.1561   19.1148 H   0  0  0  0  0  0
  -27.1428  -24.9820   21.0710 H   0  0  0  0  0  0
  -27.5463  -22.1517   20.2606 H   0  0  0  0  0  0
  -28.3737  -22.4001   21.8076 H   0  0  0  0  0  0
  -33.1156  -19.4337   20.5735 H   0  0  0  0  0  0
  -32.3676  -20.9915   20.8183 H   0  0  0  0  0  0
  -32.5378  -20.3249   19.1755 H   0  0  0  0  0  0
  -31.7652  -24.6091   18.5058 H   0  0  0  0  0  0
  -31.0973  -25.7110   19.7172 H   0  0  0  0  0  0
  -30.2354  -25.4408   18.1974 H   0  0  0  0  0  0
  -28.8518  -15.3910   21.0778 H   0  0  0  0  0  0
  1 25  1  0  0  0
  1 30  2  0  0  0
  1 85  1  0  0  0
  2  3  1  0  0  0
  2 25  1  0  0  0
  2 86  1  0  0  0
  2 87  1  0  0  0
  3  4  1  0  0  0
  3 88  1  0  0  0
  3 89  1  0  0  0
  4  5  1  0  0  0
  4 90  1  0  0  0
  4 91  1  0  0  0
  5  6  1  0  0  0
  5 26  1  0  0  0
  5 92  1  0  0  0
  6 25  1  0  0  0
  6 93  1  0  0  0
  6 94  1  0  0  0
  7  8  2  0  0  0
  7 26  1  0  0  0
  7 29  1  0  0  0
  8  9  1  0  0  0
  8 22  1  0  0  0
  9 10  1  0  0  0
  9 27  2  0  0  0
 10 11  2  0  0  0
 10 15  1  0  0  0
 11 12  1  0  0  0
 11 95  1  0  0  0
 12 13  2  0  0  0
 12 96  1  0  0  0
 13 14  1  0  0  0
 13 31  1  0  0  0
 14 15  2  0  0  0
 14 97  1  0  0  0
 15 98  1  0  0  0
 16 17  2  0  0  0
 16 21  1  0  0  0
 16 31  1  0  0  0
 17 18  1  0  0  0
 17 99  1  0  0  0
 18 19  2  0  0  0
 18100  1  0  0  0
 19 20  1  0  0  0
 19 24  1  0  0  0
 20 21  2  0  0  0
 20101  1  0  0  0
 21 23  1  0  0  0
 22 28  1  0  0  0
 22 32  2  0  0  0
 26 27  1  0  0  0
 28102  1  0  0  0
 28103  1  0  0  0
 29104  1  0  0  0
 29105  1  0  0  0
 33 34  1  0  0  0
 33 66  1  0  0  0
 33 70  2  0  0  0
 34 36  1  0  0  0
 34 59  1  0  0  0
 34106  1  0  0  0
 35 44  2  0  0  0
 35 45  1  0  0  0
 35 68  1  0  0  0
 36 56  1  0  0  0
 36107  1  0  0  0
 37 39  1  0  0  0
 37 47  1  0  0  0
 37 66  1  0  0  0
 37108  1  0  0  0
 38 43  2  0  0  0
 38 46  1  0  0  0
 38 47  1  0  0  0
 39 64  1  0  0  0
 39 67  2  0  0  0
 40 52  1  0  0  0
 40 53  2  0  0  0
 40 58  1  0  0  0
 41109  1  0  0  0
 41110  1  0  0  0
 41111  1  0  0  0
 41 48  1  0  0  0
 42 43  1  0  0  0
 42 66  1  0  0  0
 42112  1  0  0  0
 42113  1  0  0  0
 43 44  1  0  0  0
 44114  1  0  0  0
 45 46  2  0  0  0
 45115  1  0  0  0
 46116  1  0  0  0
 47117  1  0  0  0
 47118  1  0  0  0
 48 56  1  0  0  0
 48 65  1  0  0  0
 48119  1  0  0  0
 49 50  1  0  0  0
 49 53  1  0  0  0
 49 64  1  0  0  0
 49120  1  0  0  0
 50 51  1  0  0  0
 50121  1  0  0  0
 50122  1  0  0  0
 51 52  1  0  0  0
 51123  1  0  0  0
 51124  1  0  0  0
 52125  1  0  0  0
 52126  1  0  0  0
 53 54  1  0  0  0
 54 55  2  0  0  0
 54127  1  0  0  0
 55 57  1  0  0  0
 55128  1  0  0  0
 56 69  2  0  0  0
 57 58  2  0  0  0
 57129  1  0  0  0
 58130  1  0  0  0
 59 60  1  0  0  0
 59 61  1  0  0  0
 59 62  1  0  0  0
 60131  1  0  0  0
 60132  1  0  0  0
 60133  1  0  0  0
 61134  1  0  0  0
 61135  1  0  0  0
 61136  1  0  0  0
 62137  1  0  0  0
 62138  1  0  0  0
 62139  1  0  0  0
 63 65  1  0  0  0
 63140  1  0  0  0
 63141  1  0  0  0
 63142  1  0  0  0
 64143  1  0  0  0
 65144  1  0  0  0
 68 80  1  0  0  0
 71 72  2  0  0  0
 71 75  1  0  0  0
 71145  1  0  0  0
 72 76  1  0  0  0
 72146  1  0  0  0
 73 74  1  0  0  0
 73 76  2  0  0  0
 73147  1  0  0  0
 74 75  2  0  0  0
 74 82  1  0  0  0
 75 84  1  0  0  0
 76 85  1  0  0  0
 77 78  2  0  0  0
 77 84  1  0  0  0
 77148  1  0  0  0
 78 79  1  0  0  0
 78 83  1  0  0  0
 79 80  2  0  0  0
 79 81  1  0  0  0
 80149  1  0  0  0
 81 84  1  0  0  0
 81150  1  0  0  0
 81151  1  0  0  0
 82152  1  0  0  0
 82153  1  0  0  0
 82154  1  0  0  0
 83155  1  0  0  0
 83156  1  0  0  0
 83157  1  0  0  0
 85158  1  0  0  0
M  ISO  4   1 100  68 101  80 101  85 100
M  END
> <chiral flag>
0

> <version>
0

> <s_m_source_file>
/data/baiqing/PycharmProjects/Reinvent-master-3.2/result/LINK_invent/BTK/process_docking_weight1_custom_product_contain_oxygen_bond_distance_aromatic_linkinvent_7_9_3/rearranged_h_0070.sdf

> <i_m_source_file_index>
41

> <r_mmod_Potential_Energy-OPLS-2005>
151.465286254883

> <r_mmod_Stretch_Energy-OPLS-2005>
88.770866394043

> <r_mmod_Bend_Energy-OPLS-2005>
241.414672851562

> <r_mmod_Torsional_Energy-OPLS-2005>
207.338104248047

> <r_mmod_Improper_Torsional_Energy-OPLS-2005>
4.67218160629272

> <r_mmod_Van_der_Waal_Energy-OPLS-2005>
141.763473510742

> <r_mmod_Electrostatic_Energy-OPLS-2005>
-390.958984375

> <r_mmod_Solvation_Energy-OPLS-2005>
-203.780899047852

> <b_mmod_Minimization_Converged-OPLS-2005>
0

> <r_mmod_RMS_Derivative-OPLS-2005>
0.948594450950623

$$$$
41
                    3D
 Structure written by MMmdl.
153161  0  0  1  0            999 V2000
  -30.6191  -14.8169   20.4304 C   0  0  0  0  0  0
  -30.4256  -12.4982   19.4895 C   0  0  0  0  0  0
  -29.5108  -12.5073   18.2457 C   0  0  0  0  0  0
  -28.0401  -12.3223   18.6617 C   0  0  0  0  0  0
  -27.6342  -13.2433   19.8432 C   0  0  2  0  0  0
  -28.6789  -13.2340   20.9805 C   0  0  0  0  0  0
  -25.2474  -13.8220   20.5715 C   0  0  0  0  0  0
  -24.1781  -13.0447   20.9224 C   0  0  0  0  0  0
  -24.6390  -11.6930   20.8757 C   0  0  0  0  0  0
  -23.9074  -10.4298   21.0409 C   0  0  0  0  0  0
  -24.3623   -9.4210   21.9186 C   0  0  0  0  0  0
  -23.6296   -8.2246   22.0755 C   0  0  0  0  0  0
  -22.4279   -8.0283   21.3544 C   0  0  0  0  0  0
  -21.9916   -9.0258   20.4649 C   0  0  0  0  0  0
  -22.7245  -10.2137   20.3058 C   0  0  0  0  0  0
  -21.6854   -6.0737   22.5278 C   0  0  0  0  0  0
  -21.4016   -6.5640   23.8210 C   0  0  0  0  0  0
  -21.3659   -5.6793   24.9173 C   0  0  0  0  0  0
  -21.6044   -4.3055   24.7223 C   0  0  0  0  0  0
  -21.8818   -3.8147   23.4343 C   0  0  0  0  0  0
  -21.9192   -4.6965   22.3400 C   0  0  0  0  0  0
  -22.7800  -13.5219   21.1874 C   0  0  0  0  0  0
  -22.1661   -4.2149   21.0978 F   0  0  0  0  0  0
  -21.5628   -3.4538   25.7735 F   0  0  0  0  0  0
  -29.9714  -13.5940   20.3863 N   0  0  0  0  0  0
  -26.2903  -12.9448   20.3273 N   0  0  0  0  0  0
  -25.9323  -11.6579   20.5761 N   0  0  0  0  0  0
  -22.0449  -12.8210   22.0431 N   0  0  0  0  0  0
  -25.4142  -15.1949   20.4135 N   0  0  0  0  0  0
  -31.8213  -14.8235   20.1587 O   0  0  0  0  0  0
  -21.6643   -6.8881   21.4240 O   0  0  0  0  0  0
  -22.3483  -14.5522   20.6717 O   0  0  0  0  0  0
  -24.6363  -31.8514   23.1957 C   0  0  0  0  0  0
  -25.9167  -32.4736   23.8318 C   0  0  1  0  0  0
  -27.2150  -27.2190   20.1382 C   0  0  0  0  0  0
  -25.5942  -33.8541   24.2233 N   0  0  0  0  0  0
  -23.4371  -30.4734   21.5389 C   0  0  2  0  0  0
  -24.8889  -28.9197   20.1048 C   0  0  0  0  0  0
  -22.7538  -29.4577   22.4878 C   0  0  0  0  0  0
  -18.0302  -28.1393   22.8482 C   0  0  0  0  0  0
  -24.1487  -36.7274   23.2639 C   0  0  0  0  0  0
  -25.9883  -30.7501   21.3860 C   0  0  0  0  0  0
  -26.0629  -29.3704   20.7248 C   0  0  0  0  0  0
  -27.2323  -28.5319   20.7338 C   0  0  0  0  0  0
  -26.0256  -26.8575   19.4710 C   0  0  0  0  0  0
  -24.8779  -27.6726   19.4635 C   0  0  0  0  0  0
  -23.6601  -29.8100   20.1546 C   0  0  0  0  0  0
  -25.4117  -36.3059   24.0321 C   0  0  1  0  0  0
  -20.5910  -28.3713   23.1248 C   0  0  2  0  0  0
  -20.6789  -26.9421   22.5406 C   0  0  0  0  0  0
  -19.5759  -26.6383   21.5216 C   0  0  0  0  0  0
  -18.1941  -26.7933   22.1628 C   0  0  0  0  0  0
  -19.1556  -28.8871   23.2859 C   0  0  0  0  0  0
  -18.9474  -30.1470   23.8880 C   0  0  0  0  0  0
  -17.6470  -30.6590   24.0562 C   0  0  0  0  0  0
  -25.9062  -34.9431   23.5081 C   0  0  0  0  0  0
  -16.5362  -29.9085   23.6335 C   0  0  0  0  0  0
  -16.7287  -28.6504   23.0355 C   0  0  0  0  0  0
  -26.4510  -31.6583   25.0731 C   0  0  0  0  0  0
  -25.3711  -31.3765   26.1438 C   0  0  0  0  0  0
  -27.0367  -30.2985   24.6274 C   0  0  0  0  0  0
  -27.6046  -32.4341   25.7515 C   0  0  0  0  0  0
  -27.5576  -37.1793   24.8463 C   0  0  0  0  0  0
  -21.4237  -29.3048   22.3627 N   0  0  0  0  0  0
  -26.4287  -37.3763   23.9408 N   0  0  0  0  0  0
  -24.7062  -31.0437   22.0959 N   0  0  0  0  0  0
  -23.4213  -28.8113   23.2993 O   0  0  0  0  0  0
  -28.2197  -26.2111   20.2180 O   0  0  0  0  0  0
  -26.5637  -34.8913   22.4653 O   0  0  0  0  0  0
  -23.5497  -32.1356   23.7216 O   0  0  0  0  0  0
  -31.1197  -20.2207   19.9032 C   0  0  0  0  0  0
  -31.5683  -17.8028   19.9415 C   0  0  0  0  0  0
  -29.3832  -18.6473   20.5509 C   0  0  0  0  0  0
  -31.9939  -19.1289   19.7056 C   0  0  0  0  0  0
  -29.7823  -20.0499   20.3199 C   0  0  0  0  0  0
  -30.2592  -17.4740   20.3696 C   0  0  0  0  0  0
  -28.1070  -23.6002   20.8346 C   0  0  0  0  0  0
  -27.7975  -24.9744   20.8193 C   0  0  0  0  0  0
  -33.4136  -19.3725   19.2837 C   0  0  0  0  0  0
  -29.0973  -22.6468   20.2109 C   0  0  0  0  0  0
  -33.6061  -20.3473   18.4055 N   0  0  0  0  0  0
  -28.9402  -21.2834   20.5448 N   0  0  0  0  0  0
  -29.8896  -16.0154   20.5793 N   0  0  0  0  0  0
  -34.3389  -18.6698   19.6875 O   0  0  0  0  0  0
  -29.9781  -23.0313   19.4398 O   0  0  0  0  0  0
  -31.4668  -12.6098   19.1834 H   0  0  0  0  0  0
  -30.3712  -11.5370   20.0032 H   0  0  0  0  0  0
  -29.8056  -11.7183   17.5527 H   0  0  0  0  0  0
  -29.6266  -13.4491   17.7071 H   0  0  0  0  0  0
  -27.9120  -11.2781   18.9488 H   0  0  0  0  0  0
  -27.3805  -12.4851   17.8086 H   0  0  0  0  0  0
  -27.6114  -14.2539   19.4346 H   0  0  0  0  0  0
  -28.7314  -12.2538   21.4568 H   0  0  0  0  0  0
  -28.4033  -13.9430   21.7626 H   0  0  0  0  0  0
  -25.2766   -9.5687   22.4763 H   0  0  0  0  0  0
  -24.0002   -7.4639   22.7476 H   0  0  0  0  0  0
  -21.0845   -8.8776   19.8957 H   0  0  0  0  0  0
  -22.3699  -10.9676   19.6170 H   0  0  0  0  0  0
  -21.2011   -7.6149   23.9713 H   0  0  0  0  0  0
  -21.1483   -6.0524   25.9076 H   0  0  0  0  0  0
  -22.0598   -2.7609   23.2842 H   0  0  0  0  0  0
  -22.4072  -11.9878   22.4827 H   0  0  0  0  0  0
  -21.1065  -13.1231   22.2638 H   0  0  0  0  0  0
  -24.6438  -15.8452   20.5246 H   0  0  0  0  0  0
  -26.2549  -15.6355   20.0631 H   0  0  0  0  0  0
  -26.7236  -32.5371   23.1058 H   0  0  0  0  0  0
  -25.0080  -33.9673   25.0373 H   0  0  0  0  0  0
  -22.7357  -31.2972   21.3905 H   0  0  0  0  0  0
  -23.3752  -35.9603   23.3296 H   0  0  0  0  0  0
  -24.3572  -36.8907   22.2054 H   0  0  0  0  0  0
  -23.7240  -37.6471   23.6672 H   0  0  0  0  0  0
  -26.1366  -31.5104   20.6181 H   0  0  0  0  0  0
  -26.8615  -30.7965   22.0251 H   0  0  0  0  0  0
  -28.1231  -28.8608   21.2503 H   0  0  0  0  0  0
  -25.9659  -25.8918   18.9888 H   0  0  0  0  0  0
  -23.9824  -27.3225   18.9685 H   0  0  0  0  0  0
  -23.7875  -30.5884   19.4013 H   0  0  0  0  0  0
  -22.7780  -29.2463   19.8455 H   0  0  0  0  0  0
  -25.1301  -36.1897   25.0813 H   0  0  0  0  0  0
  -21.0007  -28.3301   24.1368 H   0  0  0  0  0  0
  -20.5691  -26.2323   23.3620 H   0  0  0  0  0  0
  -21.6654  -26.7437   22.1196 H   0  0  0  0  0  0
  -19.6917  -25.6290   21.1256 H   0  0  0  0  0  0
  -19.6696  -27.3186   20.6739 H   0  0  0  0  0  0
  -17.4210  -26.6679   21.4033 H   0  0  0  0  0  0
  -18.0338  -26.0082   22.9030 H   0  0  0  0  0  0
  -19.7948  -30.7294   24.2238 H   0  0  0  0  0  0
  -17.5023  -31.6268   24.5168 H   0  0  0  0  0  0
  -15.5360  -30.2981   23.7669 H   0  0  0  0  0  0
  -15.8688  -28.0819   22.7076 H   0  0  0  0  0  0
  -24.5886  -30.7114   25.7767 H   0  0  0  0  0  0
  -24.8902  -32.2949   26.4818 H   0  0  0  0  0  0
  -25.8005  -30.8972   27.0244 H   0  0  0  0  0  0
  -26.2978  -29.6725   24.1260 H   0  0  0  0  0  0
  -27.3973  -29.7263   25.4833 H   0  0  0  0  0  0
  -27.8888  -30.4230   23.9588 H   0  0  0  0  0  0
  -27.2635  -33.3649   26.2061 H   0  0  0  0  0  0
  -28.3876  -32.6896   25.0363 H   0  0  0  0  0  0
  -28.0693  -31.8492   26.5462 H   0  0  0  0  0  0
  -28.2589  -38.0094   24.7511 H   0  0  0  0  0  0
  -28.1077  -36.2625   24.6289 H   0  0  0  0  0  0
  -27.2293  -37.1441   25.8865 H   0  0  0  0  0  0
  -20.9431  -29.8774   21.6828 H   0  0  0  0  0  0
  -26.0160  -38.2832   24.1417 H   0  0  0  0  0  0
  -31.5162  -21.2131   19.7553 H   0  0  0  0  0  0
  -32.3075  -17.0384   19.7707 H   0  0  0  0  0  0
  -28.3706  -18.4669   20.8827 H   0  0  0  0  0  0
  -27.4350  -23.0765   21.4992 H   0  0  0  0  0  0
  -26.9676  -25.2140   21.4722 H   0  0  0  0  0  0
  -32.8197  -20.8775   18.0606 H   0  0  0  0  0  0
  -34.5343  -20.5492   18.0641 H   0  0  0  0  0  0
  -28.1016  -21.1094   21.0816 H   0  0  0  0  0  0
  -28.9193  -15.8569   20.8051 H   0  0  0  0  0  0
  1 25  1  0  0  0
  1 30  2  0  0  0
  1 83  1  0  0  0
  2  3  1  0  0  0
  2 25  1  0  0  0
  2 86  1  0  0  0
  2 87  1  0  0  0
  3  4  1  0  0  0
  3 88  1  0  0  0
  3 89  1  0  0  0
  4  5  1  0  0  0
  4 90  1  0  0  0
  4 91  1  0  0  0
  5  6  1  0  0  0
  5 26  1  0  0  0
  5 92  1  0  0  0
  6 25  1  0  0  0
  6 93  1  0  0  0
  6 94  1  0  0  0
  7  8  2  0  0  0
  7 26  1  0  0  0
  7 29  1  0  0  0
  8  9  1  0  0  0
  8 22  1  0  0  0
  9 10  1  0  0  0
  9 27  2  0  0  0
 10 11  2  0  0  0
 10 15  1  0  0  0
 11 12  1  0  0  0
 11 95  1  0  0  0
 12 13  2  0  0  0
 12 96  1  0  0  0
 13 14  1  0  0  0
 13 31  1  0  0  0
 14 15  2  0  0  0
 14 97  1  0  0  0
 15 98  1  0  0  0
 16 17  2  0  0  0
 16 21  1  0  0  0
 16 31  1  0  0  0
 17 18  1  0  0  0
 17 99  1  0  0  0
 18 19  2  0  0  0
 18100  1  0  0  0
 19 20  1  0  0  0
 19 24  1  0  0  0
 20 21  2  0  0  0
 20101  1  0  0  0
 21 23  1  0  0  0
 22 28  1  0  0  0
 22 32  2  0  0  0
 26 27  1  0  0  0
 28102  1  0  0  0
 28103  1  0  0  0
 29104  1  0  0  0
 29105  1  0  0  0
 33 34  1  0  0  0
 33 66  1  0  0  0
 33 70  2  0  0  0
 34 36  1  0  0  0
 34 59  1  0  0  0
 34106  1  0  0  0
 35 44  2  0  0  0
 35 45  1  0  0  0
 35 68  1  0  0  0
 36 56  1  0  0  0
 36107  1  0  0  0
 37 39  1  0  0  0
 37 47  1  0  0  0
 37 66  1  0  0  0
 37108  1  0  0  0
 38 43  2  0  0  0
 38 46  1  0  0  0
 38 47  1  0  0  0
 39 64  1  0  0  0
 39 67  2  0  0  0
 40 52  1  0  0  0
 40 53  2  0  0  0
 40 58  1  0  0  0
 41109  1  0  0  0
 41110  1  0  0  0
 41111  1  0  0  0
 41 48  1  0  0  0
 42 43  1  0  0  0
 42 66  1  0  0  0
 42112  1  0  0  0
 42113  1  0  0  0
 43 44  1  0  0  0
 44114  1  0  0  0
 45 46  2  0  0  0
 45115  1  0  0  0
 46116  1  0  0  0
 47117  1  0  0  0
 47118  1  0  0  0
 48 56  1  0  0  0
 48 65  1  0  0  0
 48119  1  0  0  0
 49 50  1  0  0  0
 49 53  1  0  0  0
 49 64  1  0  0  0
 49120  1  0  0  0
 50 51  1  0  0  0
 50121  1  0  0  0
 50122  1  0  0  0
 51 52  1  0  0  0
 51123  1  0  0  0
 51124  1  0  0  0
 52125  1  0  0  0
 52126  1  0  0  0
 53 54  1  0  0  0
 54 55  2  0  0  0
 54127  1  0  0  0
 55 57  1  0  0  0
 55128  1  0  0  0
 56 69  2  0  0  0
 57 58  2  0  0  0
 57129  1  0  0  0
 58130  1  0  0  0
 59 60  1  0  0  0
 59 61  1  0  0  0
 59 62  1  0  0  0
 60131  1  0  0  0
 60132  1  0  0  0
 60133  1  0  0  0
 61134  1  0  0  0
 61135  1  0  0  0
 61136  1  0  0  0
 62137  1  0  0  0
 62138  1  0  0  0
 62139  1  0  0  0
 63 65  1  0  0  0
 63140  1  0  0  0
 63141  1  0  0  0
 63142  1  0  0  0
 64143  1  0  0  0
 65144  1  0  0  0
 68 78  1  0  0  0
 71 74  2  0  0  0
 71 75  1  0  0  0
 71145  1  0  0  0
 72 74  1  0  0  0
 72 76  2  0  0  0
 72146  1  0  0  0
 73 75  2  0  0  0
 73 76  1  0  0  0
 73147  1  0  0  0
 74 79  1  0  0  0
 75 82  1  0  0  0
 76 83  1  0  0  0
 77 78  2  0  0  0
 77 80  1  0  0  0
 77148  1  0  0  0
 78149  1  0  0  0
 79 81  1  0  0  0
 79 84  2  0  0  0
 80 82  1  0  0  0
 80 85  2  0  0  0
 81150  1  0  0  0
 81151  1  0  0  0
 82152  1  0  0  0
 83153  1  0  0  0
M  ISO  4   1 100  68 101  78 101  83 100
M  END
> <chiral flag>
0

> <version>
0

> <s_m_source_file>
/data/baiqing/PycharmProjects/Reinvent-master-3.2/result/LINK_invent/BTK/process_docking_weight1_custom_product_contain_oxygen_bond_distance_aromatic_linkinvent_7_9_3/rearranged_h_0070.sdf

> <i_m_source_file_index>
42

> <r_mmod_Potential_Energy-OPLS-2005>
121.086364746094

> <r_mmod_Stretch_Energy-OPLS-2005>
164.254058837891

> <r_mmod_Bend_Energy-OPLS-2005>
247.823928833008

> <r_mmod_Torsional_Energy-OPLS-2005>
239.979751586914

> <r_mmod_Improper_Torsional_Energy-OPLS-2005>
4.9248628616333

> <r_mmod_Van_der_Waal_Energy-OPLS-2005>
152.290878295898

> <r_mmod_Electrostatic_Energy-OPLS-2005>
-539.657653808594

> <r_mmod_Solvation_Energy-OPLS-2005>
-277.342163085938

> <b_mmod_Minimization_Converged-OPLS-2005>
0

> <r_mmod_RMS_Derivative-OPLS-2005>
0.410795778036118

$$$$
42
                    3D
 Structure written by MMmdl.
156165  0  0  1  0            999 V2000
  -30.6452  -14.7039   20.5642 C   0  0  0  0  0  0
  -30.4344  -12.4536   19.4669 C   0  0  0  0  0  0
  -29.5094  -12.5274   18.2315 C   0  0  0  0  0  0
  -28.0347  -12.3478   18.6368 C   0  0  0  0  0  0
  -27.6475  -13.2262   19.8540 C   0  0  2  0  0  0
  -28.6837  -13.1040   20.9865 C   0  0  0  0  0  0
  -25.2548  -13.8193   20.5679 C   0  0  0  0  0  0
  -24.1823  -13.0441   20.9161 C   0  0  0  0  0  0
  -24.6396  -11.6915   20.8697 C   0  0  0  0  0  0
  -23.9068  -10.4293   21.0377 C   0  0  0  0  0  0
  -24.3620   -9.4214   21.9165 C   0  0  0  0  0  0
  -23.6289   -8.2254   22.0750 C   0  0  0  0  0  0
  -22.4270   -8.0287   21.3542 C   0  0  0  0  0  0
  -21.9895   -9.0265   20.4649 C   0  0  0  0  0  0
  -22.7230  -10.2138   20.3045 C   0  0  0  0  0  0
  -21.6858   -6.0730   22.5275 C   0  0  0  0  0  0
  -21.4015   -6.5636   23.8208 C   0  0  0  0  0  0
  -21.3661   -5.6793   24.9172 C   0  0  0  0  0  0
  -21.6047   -4.3055   24.7227 C   0  0  0  0  0  0
  -21.8822   -3.8138   23.4349 C   0  0  0  0  0  0
  -21.9192   -4.6953   22.3397 C   0  0  0  0  0  0
  -22.7853  -13.5235   21.1844 C   0  0  0  0  0  0
  -22.1667   -4.2138   21.0977 F   0  0  0  0  0  0
  -21.5620   -3.4542   25.7741 F   0  0  0  0  0  0
  -29.9993  -13.4849   20.4417 N   0  0  0  0  0  0
  -26.2959  -12.9382   20.3251 N   0  0  0  0  0  0
  -25.9324  -11.6525   20.5704 N   0  0  0  0  0  0
  -22.0503  -12.8237   22.0416 N   0  0  0  0  0  0
  -25.4259  -15.1919   20.4184 N   0  0  0  0  0  0
  -31.7463  -14.8641   20.0271 O   0  0  0  0  0  0
  -21.6644   -6.8877   21.4240 O   0  0  0  0  0  0
  -22.3530  -14.5539   20.6695 O   0  0  0  0  0  0
  -24.6285  -31.8561   23.1990 C   0  0  0  0  0  0
  -25.9118  -32.4754   23.8336 C   0  0  1  0  0  0
  -27.2234  -27.2873   20.1246 C   0  0  0  0  0  0
  -25.5917  -33.8557   24.2253 N   0  0  0  0  0  0
  -23.4263  -30.4773   21.5415 C   0  0  2  0  0  0
  -24.8779  -28.9296   20.1073 C   0  0  0  0  0  0
  -22.7497  -29.4593   22.4910 C   0  0  0  0  0  0
  -18.0292  -28.1372   22.8478 C   0  0  0  0  0  0
  -24.1484  -36.7279   23.2639 C   0  0  0  0  0  0
  -25.9711  -30.7763   21.3779 C   0  0  0  0  0  0
  -26.0480  -29.4015   20.7180 C   0  0  0  0  0  0
  -27.2284  -28.5909   20.7192 C   0  0  0  0  0  0
  -26.0360  -26.8753   19.4888 C   0  0  0  0  0  0
  -24.8752  -27.6728   19.4812 C   0  0  0  0  0  0
  -23.6448  -29.8118   20.1568 C   0  0  0  0  0  0
  -25.4112  -36.3065   24.0323 C   0  0  1  0  0  0
  -20.5893  -28.3674   23.1265 C   0  0  2  0  0  0
  -20.6770  -26.9386   22.5410 C   0  0  0  0  0  0
  -19.5757  -26.6367   21.5197 C   0  0  0  0  0  0
  -18.1936  -26.7918   22.1606 C   0  0  0  0  0  0
  -19.1545  -28.8843   23.2868 C   0  0  0  0  0  0
  -18.9469  -30.1444   23.8885 C   0  0  0  0  0  0
  -17.6467  -30.6570   24.0561 C   0  0  0  0  0  0
  -25.9049  -34.9438   23.5091 C   0  0  0  0  0  0
  -16.5360  -29.9063   23.6331 C   0  0  0  0  0  0
  -16.7278  -28.6484   23.0348 C   0  0  0  0  0  0
  -26.4492  -31.6582   25.0726 C   0  0  0  0  0  0
  -25.3716  -31.3757   26.1452 C   0  0  0  0  0  0
  -27.0332  -30.2991   24.6222 C   0  0  0  0  0  0
  -27.6039  -32.4331   25.7499 C   0  0  0  0  0  0
  -27.5579  -37.1791   24.8456 C   0  0  0  0  0  0
  -21.4207  -29.3020   22.3654 N   0  0  0  0  0  0
  -26.4280  -37.3769   23.9414 N   0  0  0  0  0  0
  -24.6936  -31.0541   22.0955 N   0  0  0  0  0  0
  -23.4208  -28.8133   23.2998 O   0  0  0  0  0  0
  -28.2683  -26.3435   20.1752 O   0  0  0  0  0  0
  -26.5634  -34.8911   22.4665 O   0  0  0  0  0  0
  -23.5437  -32.1371   23.7290 O   0  0  0  0  0  0
  -30.5482  -19.5701   21.3248 C   0  0  0  0  0  0
  -30.8313  -18.1659   21.3802 C   0  0  0  0  0  0
  -28.4889  -19.0991   20.1962 C   0  0  0  0  0  0
  -29.3395  -20.0904   20.7765 C   0  0  0  0  0  0
  -29.9334  -17.1678   20.8951 C   0  0  0  0  0  0
  -28.7721  -17.6882   20.2527 C   0  0  0  0  0  0
  -27.9590  -23.2141   22.3848 C   0  0  0  0  0  0
  -28.3474  -23.9223   21.1601 C   0  0  0  0  0  0
  -28.3150  -21.7225   22.2817 C   0  0  0  0  0  0
  -29.4146  -16.3253   23.5938 C   0  0  0  0  0  0
  -28.0789  -25.2924   21.1006 C   0  0  0  0  0  0
  -29.9517  -15.4934   22.6815 C   0  0  0  0  0  0
  -28.9647  -22.7713   20.2821 C   0  0  0  0  0  0
  -28.8820  -21.4747   21.0826 N   0  0  0  0  0  0
  -30.0631  -15.7353   21.2939 N   0  0  0  0  0  0
  -27.4204  -23.7122   23.3845 O   0  0  0  0  0  0
  -28.0991  -20.8997   23.1851 O   0  0  0  0  0  0
  -27.8536  -16.8181   19.7678 F   0  0  0  0  0  0
  -31.4739  -12.5838   19.1601 H   0  0  0  0  0  0
  -30.3890  -11.4634   19.9222 H   0  0  0  0  0  0
  -29.7891  -11.7639   17.5047 H   0  0  0  0  0  0
  -29.6390  -13.4897   17.7327 H   0  0  0  0  0  0
  -27.8829  -11.2947   18.8774 H   0  0  0  0  0  0
  -27.3816  -12.5629   17.7904 H   0  0  0  0  0  0
  -27.6597  -14.2595   19.5078 H   0  0  0  0  0  0
  -28.7148  -12.0835   21.3702 H   0  0  0  0  0  0
  -28.3655  -13.7228   21.8223 H   0  0  0  0  0  0
  -25.2761   -9.5694   22.4746 H   0  0  0  0  0  0
  -23.9987   -7.4654   22.7482 H   0  0  0  0  0  0
  -21.0810   -8.8793   19.8974 H   0  0  0  0  0  0
  -22.3672  -10.9683   19.6165 H   0  0  0  0  0  0
  -21.2012   -7.6148   23.9707 H   0  0  0  0  0  0
  -21.1480   -6.0525   25.9078 H   0  0  0  0  0  0
  -22.0591   -2.7596   23.2860 H   0  0  0  0  0  0
  -22.4128  -11.9901   22.4810 H   0  0  0  0  0  0
  -21.1140  -13.1287   22.2654 H   0  0  0  0  0  0
  -24.6646  -15.8475   20.5509 H   0  0  0  0  0  0
  -26.2958  -15.6423   20.1510 H   0  0  0  0  0  0
  -26.7195  -32.5416   23.1088 H   0  0  0  0  0  0
  -25.0053  -33.9691   25.0392 H   0  0  0  0  0  0
  -22.7211  -31.2983   21.3968 H   0  0  0  0  0  0
  -23.3744  -35.9610   23.3287 H   0  0  0  0  0  0
  -24.3586  -36.8919   22.2057 H   0  0  0  0  0  0
  -23.7230  -37.6470   23.6681 H   0  0  0  0  0  0
  -26.1118  -31.5402   20.6116 H   0  0  0  0  0  0
  -26.8466  -30.8212   22.0140 H   0  0  0  0  0  0
  -28.1234  -28.9412   21.2140 H   0  0  0  0  0  0
  -25.9987  -25.9003   19.0238 H   0  0  0  0  0  0
  -23.9783  -27.3057   19.0012 H   0  0  0  0  0  0
  -23.7646  -30.5895   19.4012 H   0  0  0  0  0  0
  -22.7636  -29.2432   19.8534 H   0  0  0  0  0  0
  -25.1287  -36.1908   25.0813 H   0  0  0  0  0  0
  -20.9992  -28.3254   24.1382 H   0  0  0  0  0  0
  -20.5618  -26.2287   23.3617 H   0  0  0  0  0  0
  -21.6647  -26.7377   22.1241 H   0  0  0  0  0  0
  -19.6912  -25.6275   21.1225 H   0  0  0  0  0  0
  -19.6692  -27.3178   20.6731 H   0  0  0  0  0  0
  -17.4200  -26.6660   21.4015 H   0  0  0  0  0  0
  -18.0336  -26.0055   22.8995 H   0  0  0  0  0  0
  -19.7944  -30.7267   24.2241 H   0  0  0  0  0  0
  -17.5015  -31.6240   24.5171 H   0  0  0  0  0  0
  -15.5359  -30.2954   23.7660 H   0  0  0  0  0  0
  -15.8683  -28.0794   22.7069 H   0  0  0  0  0  0
  -24.5874  -30.7118   25.7800 H   0  0  0  0  0  0
  -24.8929  -32.2939   26.4865 H   0  0  0  0  0  0
  -25.8021  -30.8947   27.0240 H   0  0  0  0  0  0
  -26.2925  -29.6747   24.1213 H   0  0  0  0  0  0
  -27.3966  -29.7248   25.4754 H   0  0  0  0  0  0
  -27.8822  -30.4253   23.9500 H   0  0  0  0  0  0
  -27.2632  -33.3622   26.2082 H   0  0  0  0  0  0
  -28.3847  -32.6906   25.0332 H   0  0  0  0  0  0
  -28.0712  -31.8463   26.5415 H   0  0  0  0  0  0
  -28.2581  -38.0103   24.7520 H   0  0  0  0  0  0
  -28.1087  -36.2637   24.6243 H   0  0  0  0  0  0
  -27.2316  -37.1404   25.8862 H   0  0  0  0  0  0
  -20.9386  -29.8740   21.6863 H   0  0  0  0  0  0
  -26.0149  -38.2831   24.1440 H   0  0  0  0  0  0
  -31.2372  -20.2464   21.8130 H   0  0  0  0  0  0
  -31.7211  -17.8476   21.9039 H   0  0  0  0  0  0
  -27.5391  -19.4057   19.7839 H   0  0  0  0  0  0
  -29.3827  -16.0405   24.6358 H   0  0  0  0  0  0
  -28.9975  -17.2889   23.3383 H   0  0  0  0  0  0
  -27.6052  -25.7287   21.9719 H   0  0  0  0  0  0
  -30.3457  -14.5355   23.0024 H   0  0  0  0  0  0
  -30.0023  -23.0018   20.0395 H   0  0  0  0  0  0
  -28.4066  -22.6766   19.3505 H   0  0  0  0  0  0
  1 25  1  0  0  0
  1 30  2  0  0  0
  1 85  1  0  0  0
  2  3  1  0  0  0
  2 25  1  0  0  0
  2 89  1  0  0  0
  2 90  1  0  0  0
  3  4  1  0  0  0
  3 91  1  0  0  0
  3 92  1  0  0  0
  4  5  1  0  0  0
  4 93  1  0  0  0
  4 94  1  0  0  0
  5  6  1  0  0  0
  5 26  1  0  0  0
  5 95  1  0  0  0
  6 25  1  0  0  0
  6 96  1  0  0  0
  6 97  1  0  0  0
  7  8  2  0  0  0
  7 26  1  0  0  0
  7 29  1  0  0  0
  8  9  1  0  0  0
  8 22  1  0  0  0
  9 10  1  0  0  0
  9 27  2  0  0  0
 10 11  2  0  0  0
 10 15  1  0  0  0
 11 12  1  0  0  0
 11 98  1  0  0  0
 12 13  2  0  0  0
 12 99  1  0  0  0
 13 14  1  0  0  0
 13 31  1  0  0  0
 14 15  2  0  0  0
 14100  1  0  0  0
 15101  1  0  0  0
 16 17  2  0  0  0
 16 21  1  0  0  0
 16 31  1  0  0  0
 17 18  1  0  0  0
 17102  1  0  0  0
 18 19  2  0  0  0
 18103  1  0  0  0
 19 20  1  0  0  0
 19 24  1  0  0  0
 20 21  2  0  0  0
 20104  1  0  0  0
 21 23  1  0  0  0
 22 28  1  0  0  0
 22 32  2  0  0  0
 26 27  1  0  0  0
 28105  1  0  0  0
 28106  1  0  0  0
 29107  1  0  0  0
 29108  1  0  0  0
 33 34  1  0  0  0
 33 66  1  0  0  0
 33 70  2  0  0  0
 34 36  1  0  0  0
 34 59  1  0  0  0
 34109  1  0  0  0
 35 44  2  0  0  0
 35 45  1  0  0  0
 35 68  1  0  0  0
 36 56  1  0  0  0
 36110  1  0  0  0
 37 39  1  0  0  0
 37 47  1  0  0  0
 37 66  1  0  0  0
 37111  1  0  0  0
 38 43  2  0  0  0
 38 46  1  0  0  0
 38 47  1  0  0  0
 39 64  1  0  0  0
 39 67  2  0  0  0
 40 52  1  0  0  0
 40 53  2  0  0  0
 40 58  1  0  0  0
 41112  1  0  0  0
 41113  1  0  0  0
 41114  1  0  0  0
 41 48  1  0  0  0
 42 43  1  0  0  0
 42 66  1  0  0  0
 42115  1  0  0  0
 42116  1  0  0  0
 43 44  1  0  0  0
 44117  1  0  0  0
 45 46  2  0  0  0
 45118  1  0  0  0
 46119  1  0  0  0
 47120  1  0  0  0
 47121  1  0  0  0
 48 56  1  0  0  0
 48 65  1  0  0  0
 48122  1  0  0  0
 49 50  1  0  0  0
 49 53  1  0  0  0
 49 64  1  0  0  0
 49123  1  0  0  0
 50 51  1  0  0  0
 50124  1  0  0  0
 50125  1  0  0  0
 51 52  1  0  0  0
 51126  1  0  0  0
 51127  1  0  0  0
 52128  1  0  0  0
 52129  1  0  0  0
 53 54  1  0  0  0
 54 55  2  0  0  0
 54130  1  0  0  0
 55 57  1  0  0  0
 55131  1  0  0  0
 56 69  2  0  0  0
 57 58  2  0  0  0
 57132  1  0  0  0
 58133  1  0  0  0
 59 60  1  0  0  0
 59 61  1  0  0  0
 59 62  1  0  0  0
 60134  1  0  0  0
 60135  1  0  0  0
 60136  1  0  0  0
 61137  1  0  0  0
 61138  1  0  0  0
 61139  1  0  0  0
 62140  1  0  0  0
 62141  1  0  0  0
 62142  1  0  0  0
 63 65  1  0  0  0
 63143  1  0  0  0
 63144  1  0  0  0
 63145  1  0  0  0
 64146  1  0  0  0
 65147  1  0  0  0
 68 81  1  0  0  0
 71 72  2  0  0  0
 71 74  1  0  0  0
 71148  1  0  0  0
 72 75  1  0  0  0
 72149  1  0  0  0
 73 74  2  0  0  0
 73 76  1  0  0  0
 73150  1  0  0  0
 74 84  1  0  0  0
 75 76  2  0  0  0
 75 85  1  0  0  0
 76 88  1  0  0  0
 77 78  1  0  0  0
 77 79  1  0  0  0
 77 86  2  0  0  0
 78 81  2  0  0  0
 78 83  1  0  0  0
 79 84  1  0  0  0
 79 87  2  0  0  0
 80 82  2  0  0  0
 80151  1  0  0  0
 80152  1  0  0  0
 81153  1  0  0  0
 82 85  1  0  0  0
 82154  1  0  0  0
 83 84  1  0  0  0
 83155  1  0  0  0
 83156  1  0  0  0
M  ISO  4   1 100  68 101  81 101  85 100
M  END
> <chiral flag>
0

> <version>
0

> <s_m_source_file>
/data/baiqing/PycharmProjects/Reinvent-master-3.2/result/LINK_invent/BTK/process_docking_weight1_custom_product_contain_oxygen_bond_distance_aromatic_linkinvent_7_9_3/rearranged_h_0070.sdf

> <i_m_source_file_index>
43

> <r_mmod_Potential_Energy-OPLS-2005>
505.189117431641

> <r_mmod_Stretch_Energy-OPLS-2005>
112.549179077148

> <r_mmod_Bend_Energy-OPLS-2005>
216.786285400391

> <r_mmod_Torsional_Energy-OPLS-2005>
404.345520019531

> <r_mmod_Improper_Torsional_Energy-OPLS-2005>
7.40559387207031

> <r_mmod_Van_der_Waal_Energy-OPLS-2005>
142.044097900391

> <r_mmod_Electrostatic_Energy-OPLS-2005>
-234.196578979492

> <r_mmod_Solvation_Energy-OPLS-2005>
-216.832244873047

> <b_mmod_Minimization_Converged-OPLS-2005>
0

> <r_mmod_RMS_Derivative-OPLS-2005>
1.58691072463989

$$$$
43
                    3D
 Structure written by MMmdl.
154163  0  0  1  0            999 V2000
  -30.6071  -14.7328   20.4627 C   0  0  0  0  0  0
  -30.4324  -12.4385   19.4860 C   0  0  0  0  0  0
  -29.5156  -12.5050   18.2430 C   0  0  0  0  0  0
  -28.0372  -12.3423   18.6475 C   0  0  0  0  0  0
  -27.6460  -13.2292   19.8602 C   0  0  2  0  0  0
  -28.6883  -13.1405   20.9978 C   0  0  0  0  0  0
  -25.2528  -13.8179   20.5727 C   0  0  0  0  0  0
  -24.1806  -13.0430   20.9201 C   0  0  0  0  0  0
  -24.6389  -11.6903   20.8733 C   0  0  0  0  0  0
  -23.9074  -10.4278   21.0393 C   0  0  0  0  0  0
  -24.3628   -9.4192   21.9173 C   0  0  0  0  0  0
  -23.6300   -8.2233   22.0767 C   0  0  0  0  0  0
  -22.4274   -8.0278   21.3562 C   0  0  0  0  0  0
  -21.9915   -9.0247   20.4658 C   0  0  0  0  0  0
  -22.7251  -10.2121   20.3040 C   0  0  0  0  0  0
  -21.6850   -6.0735   22.5290 C   0  0  0  0  0  0
  -21.4004   -6.5639   23.8220 C   0  0  0  0  0  0
  -21.3661   -5.6796   24.9185 C   0  0  0  0  0  0
  -21.6048   -4.3064   24.7237 C   0  0  0  0  0  0
  -21.8814   -3.8147   23.4359 C   0  0  0  0  0  0
  -21.9188   -4.6959   22.3413 C   0  0  0  0  0  0
  -22.7822  -13.5217   21.1870 C   0  0  0  0  0  0
  -22.1658   -4.2139   21.0995 F   0  0  0  0  0  0
  -21.5634   -3.4561   25.7760 F   0  0  0  0  0  0
  -29.9974  -13.4953   20.4323 N   0  0  0  0  0  0
  -26.2954  -12.9386   20.3317 N   0  0  0  0  0  0
  -25.9321  -11.6532   20.5761 N   0  0  0  0  0  0
  -22.0462  -12.8201   22.0419 N   0  0  0  0  0  0
  -25.4227  -15.1915   20.4196 N   0  0  0  0  0  0
  -31.7690  -14.8545   20.0636 O   0  0  0  0  0  0
  -21.6636   -6.8880   21.4258 O   0  0  0  0  0  0
  -22.3505  -14.5519   20.6718 O   0  0  0  0  0  0
  -24.6314  -31.8560   23.1994 C   0  0  0  0  0  0
  -25.9133  -32.4762   23.8341 C   0  0  1  0  0  0
  -27.2178  -27.2475   20.1237 C   0  0  0  0  0  0
  -25.5930  -33.8565   24.2265 N   0  0  0  0  0  0
  -23.4298  -30.4794   21.5434 C   0  0  2  0  0  0
  -24.8767  -28.9310   20.1090 C   0  0  0  0  0  0
  -22.7501  -29.4598   22.4900 C   0  0  0  0  0  0
  -18.0294  -28.1396   22.8491 C   0  0  0  0  0  0
  -24.1485  -36.7285   23.2640 C   0  0  0  0  0  0
  -25.9776  -30.7605   21.3869 C   0  0  0  0  0  0
  -26.0478  -29.3830   20.7284 C   0  0  0  0  0  0
  -27.2156  -28.5504   20.7341 C   0  0  0  0  0  0
  -26.0284  -26.8886   19.4437 C   0  0  0  0  0  0
  -24.8737  -27.6913   19.4585 C   0  0  0  0  0  0
  -23.6499  -29.8204   20.1580 C   0  0  0  0  0  0
  -25.4116  -36.3077   24.0321 C   0  0  1  0  0  0
  -20.5897  -28.3706   23.1268 C   0  0  2  0  0  0
  -20.6783  -26.9424   22.5416 C   0  0  0  0  0  0
  -19.5757  -26.6390   21.5223 C   0  0  0  0  0  0
  -18.1934  -26.7937   22.1632 C   0  0  0  0  0  0
  -19.1549  -28.8868   23.2874 C   0  0  0  0  0  0
  -18.9466  -30.1466   23.8897 C   0  0  0  0  0  0
  -17.6466  -30.6596   24.0563 C   0  0  0  0  0  0
  -25.9056  -34.9446   23.5100 C   0  0  0  0  0  0
  -16.5359  -29.9094   23.6324 C   0  0  0  0  0  0
  -16.7280  -28.6510   23.0352 C   0  0  0  0  0  0
  -26.4498  -31.6589   25.0739 C   0  0  0  0  0  0
  -25.3697  -31.3734   26.1447 C   0  0  0  0  0  0
  -27.0362  -30.3004   24.6239 C   0  0  0  0  0  0
  -27.6050  -32.4332   25.7516 C   0  0  0  0  0  0
  -27.5586  -37.1800   24.8465 C   0  0  0  0  0  0
  -21.4205  -29.3055   22.3654 N   0  0  0  0  0  0
  -26.4294  -37.3776   23.9414 N   0  0  0  0  0  0
  -24.6988  -31.0497   22.0997 N   0  0  0  0  0  0
  -23.4190  -28.8131   23.3002 O   0  0  0  0  0  0
  -28.3119  -26.3438   20.2209 O   0  0  0  0  0  0
  -26.5626  -34.8921   22.4669 O   0  0  0  0  0  0
  -23.5454  -32.1409   23.7257 O   0  0  0  0  0  0
  -28.9254  -19.4553   18.6076 C   0  0  0  0  0  0
  -28.8973  -18.1679   18.0425 C   0  0  0  0  0  0
  -29.7059  -18.4761   20.6970 C   0  0  0  0  0  0
  -29.3376  -19.6750   19.9400 C   0  0  0  0  0  0
  -29.6735  -17.1257   20.1294 C   0  0  0  0  0  0
  -29.2562  -17.0281   18.7810 C   0  0  0  0  0  0
  -30.2367  -23.3063   20.6780 C   0  0  0  0  0  0
  -30.4986  -21.7613   20.7242 C   0  0  0  0  0  0
  -28.3325  -22.1445   20.0245 C   0  0  0  0  0  0
  -28.7446  -23.5870   20.5644 C   0  0  2  0  0  0
  -28.2163  -24.9028   19.7645 C   0  0  0  0  0  0
  -29.3659  -21.1016   20.3842 N   0  0  0  0  0  0
  -29.8705  -15.8426   20.8530 N   0  0  0  0  0  0
  -31.1095  -24.1832   20.7318 O   0  0  0  0  0  0
  -31.5847  -21.2502   21.0306 O   0  0  0  0  0  0
  -29.1402  -15.8181   18.1857 F   0  0  0  0  0  0
  -31.4766  -12.5496   19.1896 H   0  0  0  0  0  0
  -30.3626  -11.4570   19.9583 H   0  0  0  0  0  0
  -29.7935  -11.7329   17.5253 H   0  0  0  0  0  0
  -29.6590  -13.4566   17.7315 H   0  0  0  0  0  0
  -27.8751  -11.2920   18.8934 H   0  0  0  0  0  0
  -27.3880  -12.5560   17.7978 H   0  0  0  0  0  0
  -27.6440  -14.2565   19.4988 H   0  0  0  0  0  0
  -28.7165  -12.1312   21.4124 H   0  0  0  0  0  0
  -28.4215  -13.7999   21.8254 H   0  0  0  0  0  0
  -25.2772   -9.5666   22.4750 H   0  0  0  0  0  0
  -24.0007   -7.4610   22.7478 H   0  0  0  0  0  0
  -21.0856   -8.8765   19.8954 H   0  0  0  0  0  0
  -22.3715  -10.9657   19.6142 H   0  0  0  0  0  0
  -21.1985   -7.6142   23.9736 H   0  0  0  0  0  0
  -21.1495   -6.0525   25.9098 H   0  0  0  0  0  0
  -22.0588   -2.7608   23.2873 H   0  0  0  0  0  0
  -22.4116  -11.9873   22.4797 H   0  0  0  0  0  0
  -21.1067  -13.1200   22.2637 H   0  0  0  0  0  0
  -24.6559  -15.8436   20.5417 H   0  0  0  0  0  0
  -26.2732  -15.6365   20.0996 H   0  0  0  0  0  0
  -26.7201  -32.5398   23.1084 H   0  0  0  0  0  0
  -25.0058  -33.9724   25.0395 H   0  0  0  0  0  0
  -22.7270  -31.3024   21.3986 H   0  0  0  0  0  0
  -23.3762  -35.9605   23.3300 H   0  0  0  0  0  0
  -24.3562  -36.8919   22.2055 H   0  0  0  0  0  0
  -23.7232  -37.6480   23.6670 H   0  0  0  0  0  0
  -26.1201  -31.5167   20.6141 H   0  0  0  0  0  0
  -26.8536  -30.8097   22.0213 H   0  0  0  0  0  0
  -28.1056  -28.8851   21.2480 H   0  0  0  0  0  0
  -25.9325  -25.9725   18.8838 H   0  0  0  0  0  0
  -23.9826  -27.3470   18.9516 H   0  0  0  0  0  0
  -23.7785  -30.5997   19.4066 H   0  0  0  0  0  0
  -22.7667  -29.2594   19.8488 H   0  0  0  0  0  0
  -25.1296  -36.1933   25.0809 H   0  0  0  0  0  0
  -20.9994  -28.3302   24.1390 H   0  0  0  0  0  0
  -20.5697  -26.2319   23.3621 H   0  0  0  0  0  0
  -21.6648  -26.7450   22.1207 H   0  0  0  0  0  0
  -19.6914  -25.6303   21.1256 H   0  0  0  0  0  0
  -19.6688  -27.3194   20.6748 H   0  0  0  0  0  0
  -17.4201  -26.6685   21.4034 H   0  0  0  0  0  0
  -18.0316  -26.0086   22.9031 H   0  0  0  0  0  0
  -19.7941  -30.7278   24.2271 H   0  0  0  0  0  0
  -17.5023  -31.6273   24.5177 H   0  0  0  0  0  0
  -15.5358  -30.2999   23.7657 H   0  0  0  0  0  0
  -15.8677  -28.0831   22.7069 H   0  0  0  0  0  0
  -24.5905  -30.7054   25.7771 H   0  0  0  0  0  0
  -24.8842  -32.2890   26.4822 H   0  0  0  0  0  0
  -25.7997  -30.8955   27.0259 H   0  0  0  0  0  0
  -26.2964  -29.6738   24.1244 H   0  0  0  0  0  0
  -27.4036  -29.7283   25.4771 H   0  0  0  0  0  0
  -27.8842  -30.4300   23.9510 H   0  0  0  0  0  0
  -27.2681  -33.3660   26.2049 H   0  0  0  0  0  0
  -28.3886  -32.6841   25.0356 H   0  0  0  0  0  0
  -28.0691  -31.8476   26.5467 H   0  0  0  0  0  0
  -28.2591  -38.0108   24.7528 H   0  0  0  0  0  0
  -28.1100  -36.2639   24.6287 H   0  0  0  0  0  0
  -27.2292  -37.1442   25.8863 H   0  0  0  0  0  0
  -20.9388  -29.8793   21.6875 H   0  0  0  0  0  0
  -26.0175  -38.2850   24.1432 H   0  0  0  0  0  0
  -28.6439  -20.2826   17.9742 H   0  0  0  0  0  0
  -28.5745  -18.0483   17.0187 H   0  0  0  0  0  0
  -29.9975  -18.5937   21.7312 H   0  0  0  0  0  0
  -28.2226  -22.1924   18.9408 H   0  0  0  0  0  0
  -27.3625  -21.8496   20.4257 H   0  0  0  0  0  0
  -28.3847  -23.6640   21.5899 H   0  0  0  0  0  0
  -27.1734  -24.6328   19.6431 H   0  0  0  0  0  0
  -28.6313  -24.8755   18.7560 H   0  0  0  0  0  0
  -29.0618  -15.5824   21.3970 H   0  0  0  0  0  0
  1 25  1  0  0  0
  1 30  2  0  0  0
  1 83  1  0  0  0
  2  3  1  0  0  0
  2 25  1  0  0  0
  2 87  1  0  0  0
  2 88  1  0  0  0
  3  4  1  0  0  0
  3 89  1  0  0  0
  3 90  1  0  0  0
  4  5  1  0  0  0
  4 91  1  0  0  0
  4 92  1  0  0  0
  5  6  1  0  0  0
  5 26  1  0  0  0
  5 93  1  0  0  0
  6 25  1  0  0  0
  6 94  1  0  0  0
  6 95  1  0  0  0
  7  8  2  0  0  0
  7 26  1  0  0  0
  7 29  1  0  0  0
  8  9  1  0  0  0
  8 22  1  0  0  0
  9 10  1  0  0  0
  9 27  2  0  0  0
 10 11  2  0  0  0
 10 15  1  0  0  0
 11 12  1  0  0  0
 11 96  1  0  0  0
 12 13  2  0  0  0
 12 97  1  0  0  0
 13 14  1  0  0  0
 13 31  1  0  0  0
 14 15  2  0  0  0
 14 98  1  0  0  0
 15 99  1  0  0  0
 16 17  2  0  0  0
 16 21  1  0  0  0
 16 31  1  0  0  0
 17 18  1  0  0  0
 17100  1  0  0  0
 18 19  2  0  0  0
 18101  1  0  0  0
 19 20  1  0  0  0
 19 24  1  0  0  0
 20 21  2  0  0  0
 20102  1  0  0  0
 21 23  1  0  0  0
 22 28  1  0  0  0
 22 32  2  0  0  0
 26 27  1  0  0  0
 28103  1  0  0  0
 28104  1  0  0  0
 29105  1  0  0  0
 29106  1  0  0  0
 33 34  1  0  0  0
 33 66  1  0  0  0
 33 70  2  0  0  0
 34 36  1  0  0  0
 34 59  1  0  0  0
 34107  1  0  0  0
 35 44  2  0  0  0
 35 45  1  0  0  0
 35 68  1  0  0  0
 36 56  1  0  0  0
 36108  1  0  0  0
 37 39  1  0  0  0
 37 47  1  0  0  0
 37 66  1  0  0  0
 37109  1  0  0  0
 38 43  2  0  0  0
 38 46  1  0  0  0
 38 47  1  0  0  0
 39 64  1  0  0  0
 39 67  2  0  0  0
 40 52  1  0  0  0
 40 53  2  0  0  0
 40 58  1  0  0  0
 41110  1  0  0  0
 41111  1  0  0  0
 41112  1  0  0  0
 41 48  1  0  0  0
 42 43  1  0  0  0
 42 66  1  0  0  0
 42113  1  0  0  0
 42114  1  0  0  0
 43 44  1  0  0  0
 44115  1  0  0  0
 45 46  2  0  0  0
 45116  1  0  0  0
 46117  1  0  0  0
 47118  1  0  0  0
 47119  1  0  0  0
 48 56  1  0  0  0
 48 65  1  0  0  0
 48120  1  0  0  0
 49 50  1  0  0  0
 49 53  1  0  0  0
 49 64  1  0  0  0
 49121  1  0  0  0
 50 51  1  0  0  0
 50122  1  0  0  0
 50123  1  0  0  0
 51 52  1  0  0  0
 51124  1  0  0  0
 51125  1  0  0  0
 52126  1  0  0  0
 52127  1  0  0  0
 53 54  1  0  0  0
 54 55  2  0  0  0
 54128  1  0  0  0
 55 57  1  0  0  0
 55129  1  0  0  0
 56 69  2  0  0  0
 57 58  2  0  0  0
 57130  1  0  0  0
 58131  1  0  0  0
 59 60  1  0  0  0
 59 61  1  0  0  0
 59 62  1  0  0  0
 60132  1  0  0  0
 60133  1  0  0  0
 60134  1  0  0  0
 61135  1  0  0  0
 61136  1  0  0  0
 61137  1  0  0  0
 62138  1  0  0  0
 62139  1  0  0  0
 62140  1  0  0  0
 63 65  1  0  0  0
 63141  1  0  0  0
 63142  1  0  0  0
 63143  1  0  0  0
 64144  1  0  0  0
 65145  1  0  0  0
 68 81  1  0  0  0
 71 72  2  0  0  0
 71 74  1  0  0  0
 71146  1  0  0  0
 72 76  1  0  0  0
 72147  1  0  0  0
 73 74  2  0  0  0
 73 75  1  0  0  0
 73148  1  0  0  0
 74 82  1  0  0  0
 75 76  2  0  0  0
 75 83  1  0  0  0
 76 86  1  0  0  0
 77 78  1  0  0  0
 77 80  1  0  0  0
 77 84  2  0  0  0
 78 82  1  0  0  0
 78 85  2  0  0  0
 79 80  1  0  0  0
 79 82  1  0  0  0
 79149  1  0  0  0
 79150  1  0  0  0
 80 81  1  0  0  0
 80151  1  0  0  0
 81152  1  0  0  0
 81153  1  0  0  0
 83154  1  0  0  0
M  ISO  4   1 100  68 101  81 101  83 100
M  END
> <chiral flag>
0

> <version>
0

> <s_m_source_file>
/data/baiqing/PycharmProjects/Reinvent-master-3.2/result/LINK_invent/BTK/process_docking_weight1_custom_product_contain_oxygen_bond_distance_aromatic_linkinvent_7_9_3/rearranged_h_0070.sdf

> <i_m_source_file_index>
44

> <r_mmod_Potential_Energy-OPLS-2005>
272.373168945312

> <r_mmod_Stretch_Energy-OPLS-2005>
130.713165283203

> <r_mmod_Bend_Energy-OPLS-2005>
209.80290222168

> <r_mmod_Torsional_Energy-OPLS-2005>
284.437530517578

> <r_mmod_Improper_Torsional_Energy-OPLS-2005>
6.85165500640869

> <r_mmod_Van_der_Waal_Energy-OPLS-2005>
137.121963500977

> <r_mmod_Electrostatic_Energy-OPLS-2005>
-320.265289306641

> <r_mmod_Solvation_Energy-OPLS-2005>
-262.679382324219

> <b_mmod_Minimization_Converged-OPLS-2005>
0

> <r_mmod_RMS_Derivative-OPLS-2005>
1.75115084648132

$$$$
44
                    3D
 Structure written by MMmdl.
163172  0  0  1  0            999 V2000
  -30.6072  -14.7656   20.4551 C   0  0  0  0  0  0
  -30.4316  -12.4721   19.4748 C   0  0  0  0  0  0
  -29.5054  -12.4887   18.2399 C   0  0  0  0  0  0
  -28.0346  -12.3071   18.6622 C   0  0  0  0  0  0
  -27.6347  -13.2283   19.8444 C   0  0  2  0  0  0
  -28.6784  -13.1919   20.9795 C   0  0  0  0  0  0
  -25.2504  -13.8183   20.5700 C   0  0  0  0  0  0
  -24.1784  -13.0443   20.9215 C   0  0  0  0  0  0
  -24.6374  -11.6920   20.8767 C   0  0  0  0  0  0
  -23.9061  -10.4298   21.0433 C   0  0  0  0  0  0
  -24.3606   -9.4208   21.9204 C   0  0  0  0  0  0
  -23.6284   -8.2242   22.0766 C   0  0  0  0  0  0
  -22.4276   -8.0276   21.3548 C   0  0  0  0  0  0
  -21.9914   -9.0255   20.4651 C   0  0  0  0  0  0
  -22.7237  -10.2137   20.3080 C   0  0  0  0  0  0
  -21.6842   -6.0733   22.5273 C   0  0  0  0  0  0
  -21.4011   -6.5640   23.8202 C   0  0  0  0  0  0
  -21.3653   -5.6800   24.9162 C   0  0  0  0  0  0
  -21.6037   -4.3067   24.7222 C   0  0  0  0  0  0
  -21.8815   -3.8154   23.4350 C   0  0  0  0  0  0
  -21.9191   -4.6963   22.3402 C   0  0  0  0  0  0
  -22.7810  -13.5235   21.1855 C   0  0  0  0  0  0
  -22.1655   -4.2150   21.0984 F   0  0  0  0  0  0
  -21.5623   -3.4558   25.7738 F   0  0  0  0  0  0
  -29.9727  -13.5454   20.3871 N   0  0  0  0  0  0
  -26.2899  -12.9378   20.3264 N   0  0  0  0  0  0
  -25.9299  -11.6528   20.5776 N   0  0  0  0  0  0
  -22.0458  -12.8222   22.0414 N   0  0  0  0  0  0
  -25.4230  -15.1896   20.4060 N   0  0  0  0  0  0
  -31.8043  -14.8279   20.1585 O   0  0  0  0  0  0
  -21.6635   -6.8873   21.4240 O   0  0  0  0  0  0
  -22.3490  -14.5536   20.6686 O   0  0  0  0  0  0
  -24.6322  -31.8558   23.1942 C   0  0  0  0  0  0
  -25.9129  -32.4744   23.8320 C   0  0  1  0  0  0
  -27.2232  -27.2536   20.1256 C   0  0  0  0  0  0
  -25.5896  -33.8530   24.2206 N   0  0  0  0  0  0
  -23.4289  -30.4788   21.5340 C   0  0  2  0  0  0
  -24.8768  -28.9163   20.1070 C   0  0  0  0  0  0
  -22.7499  -29.4615   22.4858 C   0  0  0  0  0  0
  -18.0310  -28.1386   22.8487 C   0  0  0  0  0  0
  -24.1484  -36.7283   23.2657 C   0  0  0  0  0  0
  -25.9773  -30.7597   21.3806 C   0  0  0  0  0  0
  -26.0445  -29.3828   20.7210 C   0  0  0  0  0  0
  -27.2139  -28.5589   20.7267 C   0  0  0  0  0  0
  -26.0306  -26.8467   19.4900 C   0  0  0  0  0  0
  -24.8735  -27.6537   19.4895 C   0  0  0  0  0  0
  -23.6482  -29.8059   20.1521 C   0  0  0  0  0  0
  -25.4109  -36.3055   24.0328 C   0  0  1  0  0  0
  -20.5911  -28.3701   23.1268 C   0  0  2  0  0  0
  -20.6760  -26.9406   22.5420 C   0  0  0  0  0  0
  -19.5722  -26.6361   21.5233 C   0  0  0  0  0  0
  -18.1910  -26.7911   22.1651 C   0  0  0  0  0  0
  -19.1574  -28.8861   23.2870 C   0  0  0  0  0  0
  -18.9494  -30.1454   23.8881 C   0  0  0  0  0  0
  -17.6497  -30.6561   24.0603 C   0  0  0  0  0  0
  -25.9065  -34.9431   23.5088 C   0  0  0  0  0  0
  -16.5382  -29.9066   23.6371 C   0  0  0  0  0  0
  -16.7306  -28.6510   23.0335 C   0  0  0  0  0  0
  -26.4472  -31.6609   25.0748 C   0  0  0  0  0  0
  -25.3666  -31.3803   26.1453 C   0  0  0  0  0  0
  -27.0375  -30.3034   24.6306 C   0  0  0  0  0  0
  -27.5978  -32.4413   25.7516 C   0  0  0  0  0  0
  -27.5567  -37.1768   24.8460 C   0  0  0  0  0  0
  -21.4209  -29.3051   22.3631 N   0  0  0  0  0  0
  -26.4278  -37.3761   23.9427 N   0  0  0  0  0  0
  -24.6977  -31.0498   22.0913 N   0  0  0  0  0  0
  -23.4198  -28.8178   23.2960 O   0  0  0  0  0  0
  -28.3417  -26.3923   20.2223 O   0  0  0  0  0  0
  -26.5668  -34.8915   22.4682 O   0  0  0  0  0  0
  -23.5469  -32.1430   23.7211 O   0  0  0  0  0  0
  -29.3700  -18.5274   20.5463 C   0  0  0  0  0  0
  -31.5545  -17.6625   21.1336 C   0  0  0  0  0  0
  -31.1092  -20.0876   21.2524 C   0  0  0  0  0  0
  -29.7797  -19.9199   20.7566 C   0  0  0  0  0  0
  -30.2385  -17.3615   20.7303 C   0  0  0  0  0  0
  -31.9776  -18.9764   21.3902 C   0  0  0  0  0  0
  -27.4718  -23.5451   21.3556 C   0  0  0  0  0  0
  -28.3293  -23.6728   20.3305 C   0  0  0  0  0  0
  -27.1506  -22.2139   22.0356 C   0  0  0  0  0  0
  -29.0819  -22.3580   19.8426 C   0  0  0  0  0  0
  -27.5538  -20.9591   21.2182 C   0  0  0  0  0  0
  -31.6190  -21.4143   21.8192 C   0  0  0  0  0  0
  -28.4724  -25.0564   19.5426 C   0  0  0  0  0  0
  -28.8954  -21.0835   20.6559 N   0  0  0  0  0  0
  -29.8389  -15.9237   20.6032 N   0  0  0  0  0  0
  -30.9961  -21.6912   23.1225 N   0  3  0  0  0  0
  -33.2374  -19.1533   21.8540 F   0  0  0  0  0  0
  -31.4687  -12.6089   19.1598 H   0  0  0  0  0  0
  -30.3997  -11.5055   19.9813 H   0  0  0  0  0  0
  -29.7938  -11.6959   17.5482 H   0  0  0  0  0  0
  -29.6210  -13.4290   17.7003 H   0  0  0  0  0  0
  -27.9068  -11.2628   18.9521 H   0  0  0  0  0  0
  -27.3714  -12.4672   17.8120 H   0  0  0  0  0  0
  -27.6213  -14.2401   19.4382 H   0  0  0  0  0  0
  -28.7243  -12.2040   21.4400 H   0  0  0  0  0  0
  -28.4083  -13.8907   21.7742 H   0  0  0  0  0  0
  -25.2742   -9.5669   22.4790 H   0  0  0  0  0  0
  -23.9976   -7.4636   22.7493 H   0  0  0  0  0  0
  -21.0844   -8.8772   19.8958 H   0  0  0  0  0  0
  -22.3693  -10.9679   19.6197 H   0  0  0  0  0  0
  -21.2007   -7.6154   23.9699 H   0  0  0  0  0  0
  -21.1469   -6.0541   25.9060 H   0  0  0  0  0  0
  -22.0602   -2.7622   23.2853 H   0  0  0  0  0  0
  -22.4075  -11.9883   22.4804 H   0  0  0  0  0  0
  -21.1085  -13.1247   22.2638 H   0  0  0  0  0  0
  -24.6586  -15.8474   20.5087 H   0  0  0  0  0  0
  -26.2617  -15.6193   20.0382 H   0  0  0  0  0  0
  -26.7178  -32.5383   23.1038 H   0  0  0  0  0  0
  -24.9931  -33.9649   25.0274 H   0  0  0  0  0  0
  -22.7301  -31.3049   21.3820 H   0  0  0  0  0  0
  -23.3750  -35.9603   23.3293 H   0  0  0  0  0  0
  -24.3580  -36.8974   22.2083 H   0  0  0  0  0  0
  -23.7221  -37.6460   23.6724 H   0  0  0  0  0  0
  -26.1319  -31.5188   20.6139 H   0  0  0  0  0  0
  -26.8473  -30.7996   22.0236 H   0  0  0  0  0  0
  -28.1032  -28.9054   21.2355 H   0  0  0  0  0  0
  -25.9545  -25.8769   19.0234 H   0  0  0  0  0  0
  -23.9727  -27.2876   19.0182 H   0  0  0  0  0  0
  -23.7740  -30.5832   19.3977 H   0  0  0  0  0  0
  -22.7650  -29.2424   19.8479 H   0  0  0  0  0  0
  -25.1278  -36.1896   25.0818 H   0  0  0  0  0  0
  -21.0048  -28.3274   24.1367 H   0  0  0  0  0  0
  -20.5690  -26.2301   23.3639 H   0  0  0  0  0  0
  -21.6607  -26.7395   22.1186 H   0  0  0  0  0  0
  -19.6917  -25.6283   21.1233 H   0  0  0  0  0  0
  -19.6646  -27.3189   20.6780 H   0  0  0  0  0  0
  -17.4182  -26.6703   21.4043 H   0  0  0  0  0  0
  -18.0294  -26.0042   22.9055 H   0  0  0  0  0  0
  -19.7972  -30.7305   24.2152 H   0  0  0  0  0  0
  -17.5041  -31.6220   24.5226 H   0  0  0  0  0  0
  -15.5367  -30.2970   23.7648 H   0  0  0  0  0  0
  -15.8720  -28.0851   22.6976 H   0  0  0  0  0  0
  -24.5758  -30.7263   25.7765 H   0  0  0  0  0  0
  -24.8948  -32.3004   26.4910 H   0  0  0  0  0  0
  -25.7892  -30.8927   27.0245 H   0  0  0  0  0  0
  -26.3029  -29.6742   24.1264 H   0  0  0  0  0  0
  -27.4014  -29.7336   25.4871 H   0  0  0  0  0  0
  -27.8892  -30.4353   23.9621 H   0  0  0  0  0  0
  -27.2524  -33.3714   26.2034 H   0  0  0  0  0  0
  -28.3756  -32.7010   25.0327 H   0  0  0  0  0  0
  -28.0679  -31.8638   26.5491 H   0  0  0  0  0  0
  -28.2523  -38.0118   24.7552 H   0  0  0  0  0  0
  -28.1106  -36.2643   24.6186 H   0  0  0  0  0  0
  -27.2302  -37.1308   25.8867 H   0  0  0  0  0  0
  -20.9367  -29.8839   21.6924 H   0  0  0  0  0  0
  -26.0158  -38.2844   24.1423 H   0  0  0  0  0  0
  -28.3485  -18.3474   20.2474 H   0  0  0  0  0  0
  -32.2743  -16.8836   21.3241 H   0  0  0  0  0  0
  -26.9389  -24.4153   21.7090 H   0  0  0  0  0  0
  -26.0790  -22.1686   22.2393 H   0  0  0  0  0  0
  -27.6452  -22.2037   23.0045 H   0  0  0  0  0  0
  -30.1307  -22.5853   19.6668 H   0  0  0  0  0  0
  -28.6873  -22.1481   18.8490 H   0  0  0  0  0  0
  -26.8529  -20.8212   20.3928 H   0  0  0  0  0  0
  -27.4596  -20.0688   21.8430 H   0  0  0  0  0  0
  -31.4779  -22.2480   21.1413 H   0  0  0  0  0  0
  -32.6970  -21.3813   21.9683 H   0  0  0  0  0  0
  -27.8554  -25.0026   18.6478 H   0  0  0  0  0  0
  -29.4899  -25.0606   19.1471 H   0  0  0  0  0  0
  -28.8447  -15.7520   20.6480 H   0  0  0  0  0  0
  -30.0074  -21.8191   23.0040 H   0  0  0  0  0  0
  -31.3909  -22.5195   23.5295 H   0  0  0  0  0  0
  -31.1494  -20.9233   23.7510 H   0  0  0  0  0  0
  1 25  1  0  0  0
  1 30  2  0  0  0
  1 85  1  0  0  0
  2  3  1  0  0  0
  2 25  1  0  0  0
  2 88  1  0  0  0
  2 89  1  0  0  0
  3  4  1  0  0  0
  3 90  1  0  0  0
  3 91  1  0  0  0
  4  5  1  0  0  0
  4 92  1  0  0  0
  4 93  1  0  0  0
  5  6  1  0  0  0
  5 26  1  0  0  0
  5 94  1  0  0  0
  6 25  1  0  0  0
  6 95  1  0  0  0
  6 96  1  0  0  0
  7  8  2  0  0  0
  7 26  1  0  0  0
  7 29  1  0  0  0
  8  9  1  0  0  0
  8 22  1  0  0  0
  9 10  1  0  0  0
  9 27  2  0  0  0
 10 11  2  0  0  0
 10 15  1  0  0  0
 11 12  1  0  0  0
 11 97  1  0  0  0
 12 13  2  0  0  0
 12 98  1  0  0  0
 13 14  1  0  0  0
 13 31  1  0  0  0
 14 15  2  0  0  0
 14 99  1  0  0  0
 15100  1  0  0  0
 16 17  2  0  0  0
 16 21  1  0  0  0
 16 31  1  0  0  0
 17 18  1  0  0  0
 17101  1  0  0  0
 18 19  2  0  0  0
 18102  1  0  0  0
 19 20  1  0  0  0
 19 24  1  0  0  0
 20 21  2  0  0  0
 20103  1  0  0  0
 21 23  1  0  0  0
 22 28  1  0  0  0
 22 32  2  0  0  0
 26 27  1  0  0  0
 28104  1  0  0  0
 28105  1  0  0  0
 29106  1  0  0  0
 29107  1  0  0  0
 33 34  1  0  0  0
 33 66  1  0  0  0
 33 70  2  0  0  0
 34 36  1  0  0  0
 34 59  1  0  0  0
 34108  1  0  0  0
 35 44  2  0  0  0
 35 45  1  0  0  0
 35 68  1  0  0  0
 36 56  1  0  0  0
 36109  1  0  0  0
 37 39  1  0  0  0
 37 47  1  0  0  0
 37 66  1  0  0  0
 37110  1  0  0  0
 38 43  2  0  0  0
 38 46  1  0  0  0
 38 47  1  0  0  0
 39 64  1  0  0  0
 39 67  2  0  0  0
 40 52  1  0  0  0
 40 53  2  0  0  0
 40 58  1  0  0  0
 41111  1  0  0  0
 41112  1  0  0  0
 41113  1  0  0  0
 41 48  1  0  0  0
 42 43  1  0  0  0
 42 66  1  0  0  0
 42114  1  0  0  0
 42115  1  0  0  0
 43 44  1  0  0  0
 44116  1  0  0  0
 45 46  2  0  0  0
 45117  1  0  0  0
 46118  1  0  0  0
 47119  1  0  0  0
 47120  1  0  0  0
 48 56  1  0  0  0
 48 65  1  0  0  0
 48121  1  0  0  0
 49 50  1  0  0  0
 49 53  1  0  0  0
 49 64  1  0  0  0
 49122  1  0  0  0
 50 51  1  0  0  0
 50123  1  0  0  0
 50124  1  0  0  0
 51 52  1  0  0  0
 51125  1  0  0  0
 51126  1  0  0  0
 52127  1  0  0  0
 52128  1  0  0  0
 53 54  1  0  0  0
 54 55  2  0  0  0
 54129  1  0  0  0
 55 57  1  0  0  0
 55130  1  0  0  0
 56 69  2  0  0  0
 57 58  2  0  0  0
 57131  1  0  0  0
 58132  1  0  0  0
 59 60  1  0  0  0
 59 61  1  0  0  0
 59 62  1  0  0  0
 60133  1  0  0  0
 60134  1  0  0  0
 60135  1  0  0  0
 61136  1  0  0  0
 61137  1  0  0  0
 61138  1  0  0  0
 62139  1  0  0  0
 62140  1  0  0  0
 62141  1  0  0  0
 63 65  1  0  0  0
 63142  1  0  0  0
 63143  1  0  0  0
 63144  1  0  0  0
 64145  1  0  0  0
 65146  1  0  0  0
 68 83  1  0  0  0
 71 74  2  0  0  0
 71 75  1  0  0  0
 71147  1  0  0  0
 72 75  2  0  0  0
 72 76  1  0  0  0
 72148  1  0  0  0
 73 74  1  0  0  0
 73 76  2  0  0  0
 73 82  1  0  0  0
 74 84  1  0  0  0
 75 85  1  0  0  0
 76 87  1  0  0  0
 77 78  2  0  0  0
 77 79  1  0  0  0
 77149  1  0  0  0
 78 80  1  0  0  0
 78 83  1  0  0  0
 79 81  1  0  0  0
 79150  1  0  0  0
 79151  1  0  0  0
 80 84  1  0  0  0
 80152  1  0  0  0
 80153  1  0  0  0
 81 84  1  0  0  0
 81154  1  0  0  0
 81155  1  0  0  0
 82 86  1  0  0  0
 82156  1  0  0  0
 82157  1  0  0  0
 83158  1  0  0  0
 83159  1  0  0  0
 85160  1  0  0  0
 86161  1  0  0  0
 86162  1  0  0  0
 86163  1  0  0  0
M  CHG  1  86   1
M  ISO  4   1 100  68 101  83 101  85 100
M  END
> <chiral flag>
0

> <version>
0

> <s_m_source_file>
/data/baiqing/PycharmProjects/Reinvent-master-3.2/result/LINK_invent/BTK/process_docking_weight1_custom_product_contain_oxygen_bond_distance_aromatic_linkinvent_7_9_3/rearranged_h_0070.sdf

> <i_m_source_file_index>
45

> <r_mmod_Potential_Energy-OPLS-2005>
-15.1066255569458

> <r_mmod_Stretch_Energy-OPLS-2005>
135.879867553711

> <r_mmod_Bend_Energy-OPLS-2005>
192.641754150391

> <r_mmod_Torsional_Energy-OPLS-2005>
223.901901245117

> <r_mmod_Improper_Torsional_Energy-OPLS-2005>
7.87972497940063

> <r_mmod_Van_der_Waal_Energy-OPLS-2005>
149.622924804688

> <r_mmod_Electrostatic_Energy-OPLS-2005>
-341.288146972656

> <r_mmod_Solvation_Energy-OPLS-2005>
-477.334564208984

> <b_mmod_Minimization_Converged-OPLS-2005>
0

> <r_mmod_RMS_Derivative-OPLS-2005>
3.92590689659119

$$$$
45
                    3D
 Structure written by MMmdl.
158167  0  0  1  0            999 V2000
  -30.6378  -14.8005   20.4300 C   0  0  0  0  0  0
  -30.4219  -12.4882   19.4863 C   0  0  0  0  0  0
  -29.5091  -12.5034   18.2419 C   0  0  0  0  0  0
  -28.0374  -12.3248   18.6575 C   0  0  0  0  0  0
  -27.6344  -13.2447   19.8412 C   0  0  2  0  0  0
  -28.6800  -13.2369   20.9777 C   0  0  0  0  0  0
  -25.2484  -13.8225   20.5713 C   0  0  0  0  0  0
  -24.1792  -13.0453   20.9224 C   0  0  0  0  0  0
  -24.6402  -11.6932   20.8761 C   0  0  0  0  0  0
  -23.9082  -10.4301   21.0409 C   0  0  0  0  0  0
  -24.3629   -9.4214   21.9184 C   0  0  0  0  0  0
  -23.6303   -8.2247   22.0752 C   0  0  0  0  0  0
  -22.4284   -8.0286   21.3543 C   0  0  0  0  0  0
  -21.9923   -9.0259   20.4644 C   0  0  0  0  0  0
  -22.7254  -10.2140   20.3055 C   0  0  0  0  0  0
  -21.6858   -6.0741   22.5279 C   0  0  0  0  0  0
  -21.4015   -6.5645   23.8212 C   0  0  0  0  0  0
  -21.3659   -5.6796   24.9176 C   0  0  0  0  0  0
  -21.6044   -4.3059   24.7226 C   0  0  0  0  0  0
  -21.8818   -3.8152   23.4347 C   0  0  0  0  0  0
  -21.9194   -4.6968   22.3405 C   0  0  0  0  0  0
  -22.7809  -13.5221   21.1875 C   0  0  0  0  0  0
  -22.1664   -4.2156   21.0981 F   0  0  0  0  0  0
  -21.5628   -3.4540   25.7738 F   0  0  0  0  0  0
  -29.9729  -13.5878   20.3804 N   0  0  0  0  0  0
  -26.2910  -12.9454   20.3268 N   0  0  0  0  0  0
  -25.9334  -11.6586   20.5753 N   0  0  0  0  0  0
  -22.0455  -12.8209   22.0432 N   0  0  0  0  0  0
  -25.4153  -15.1951   20.4128 N   0  0  0  0  0  0
  -31.8432  -14.7837   20.1798 O   0  0  0  0  0  0
  -21.6644   -6.8885   21.4241 O   0  0  0  0  0  0
  -22.3493  -14.5525   20.6722 O   0  0  0  0  0  0
  -24.6362  -31.8520   23.1963 C   0  0  0  0  0  0
  -25.9174  -32.4730   23.8319 C   0  0  1  0  0  0
  -27.2118  -27.2169   20.1344 C   0  0  0  0  0  0
  -25.5953  -33.8531   24.2243 N   0  0  0  0  0  0
  -23.4344  -30.4760   21.5396 C   0  0  2  0  0  0
  -24.8818  -28.9200   20.1068 C   0  0  0  0  0  0
  -22.7530  -29.4595   22.4883 C   0  0  0  0  0  0
  -18.0297  -28.1400   22.8483 C   0  0  0  0  0  0
  -24.1487  -36.7255   23.2641 C   0  0  0  0  0  0
  -25.9853  -30.7502   21.3850 C   0  0  0  0  0  0
  -26.0555  -29.3705   20.7236 C   0  0  0  0  0  0
  -27.2227  -28.5319   20.7259 C   0  0  0  0  0  0
  -26.0190  -26.8581   19.4658 C   0  0  0  0  0  0
  -24.8715  -27.6738   19.4654 C   0  0  0  0  0  0
  -23.6559  -29.8121   20.1556 C   0  0  0  0  0  0
  -25.4118  -36.3044   24.0324 C   0  0  1  0  0  0
  -20.5906  -28.3717   23.1247 C   0  0  2  0  0  0
  -20.6778  -26.9429   22.5401 C   0  0  0  0  0  0
  -19.5750  -26.6392   21.5207 C   0  0  0  0  0  0
  -18.1935  -26.7941   22.1622 C   0  0  0  0  0  0
  -19.1554  -28.8877   23.2858 C   0  0  0  0  0  0
  -18.9469  -30.1473   23.8884 C   0  0  0  0  0  0
  -17.6465  -30.6593   24.0565 C   0  0  0  0  0  0
  -25.9065  -34.9420   23.5086 C   0  0  0  0  0  0
  -16.5357  -29.9089   23.6337 C   0  0  0  0  0  0
  -16.7282  -28.6507   23.0359 C   0  0  0  0  0  0
  -26.4530  -31.6570   25.0727 C   0  0  0  0  0  0
  -25.3740  -31.3732   26.1437 C   0  0  0  0  0  0
  -27.0388  -30.2976   24.6256 C   0  0  0  0  0  0
  -27.6076  -32.4327   25.7495 C   0  0  0  0  0  0
  -27.5574  -37.1785   24.8471 C   0  0  0  0  0  0
  -21.4231  -29.3048   22.3622 N   0  0  0  0  0  0
  -26.4283  -37.3755   23.9419 N   0  0  0  0  0  0
  -24.7043  -31.0456   22.0956 N   0  0  0  0  0  0
  -23.4211  -28.8136   23.2998 O   0  0  0  0  0  0
  -28.2748  -26.2708   20.2238 O   0  0  0  0  0  0
  -26.5630  -34.8901   22.4652 O   0  0  0  0  0  0
  -23.5503  -32.1360   23.7234 O   0  0  0  0  0  0
  -31.3034  -20.1122   19.7112 C   0  0  0  0  0  0
  -31.6367  -17.6951   19.7611 C   0  0  0  0  0  0
  -29.5533  -18.6824   20.5144 C   0  0  0  0  0  0
  -32.1128  -18.9847   19.4838 C   0  0  0  0  0  0
  -29.9872  -20.0718   20.2353 C   0  0  0  0  0  0
  -30.3507  -17.4545   20.2972 C   0  0  0  0  0  0
  -28.1372  -22.0878   20.7200 C   0  0  0  0  0  0
  -29.9105  -22.6957   19.8621 C   0  0  0  0  0  0
  -28.8489  -23.5436   20.6612 C   0  0  2  0  0  0
  -29.2306  -23.9666   22.0834 C   0  0  0  0  0  0
  -27.9921  -24.7826   20.0182 C   0  0  0  0  0  0
  -33.5185  -19.1464   18.9179 C   0  0  0  0  0  0
  -29.3536  -21.4362   20.4222 N   0  0  0  0  0  0
  -29.9336  -16.0165   20.5567 N   0  0  0  0  0  0
  -27.0221  -21.6486   20.9062 O   0  0  0  0  0  0
  -33.9586  -20.4020   19.0119 F   0  0  0  0  0  0
  -34.3749  -18.3630   19.5746 F   0  0  0  0  0  0
  -33.5210  -18.7942   17.6327 F   0  0  0  0  0  0
  -31.4644  -12.5903   19.1804 H   0  0  0  0  0  0
  -30.3587  -11.5275   19.9999 H   0  0  0  0  0  0
  -29.7997  -11.7126   17.5487 H   0  0  0  0  0  0
  -29.6318  -13.4446   17.7037 H   0  0  0  0  0  0
  -27.9038  -11.2802   18.9402 H   0  0  0  0  0  0
  -27.3790  -12.4942   17.8044 H   0  0  0  0  0  0
  -27.6119  -14.2553   19.4332 H   0  0  0  0  0  0
  -28.7290  -12.2593   21.4597 H   0  0  0  0  0  0
  -28.4086  -13.9521   21.7559 H   0  0  0  0  0  0
  -25.2769   -9.5693   22.4765 H   0  0  0  0  0  0
  -24.0014   -7.4637   22.7471 H   0  0  0  0  0  0
  -21.0856   -8.8779   19.8946 H   0  0  0  0  0  0
  -22.3710  -10.9678   19.6168 H   0  0  0  0  0  0
  -21.2006   -7.6151   23.9721 H   0  0  0  0  0  0
  -21.1483   -6.0524   25.9080 H   0  0  0  0  0  0
  -22.0597   -2.7612   23.2845 H   0  0  0  0  0  0
  -22.4075  -11.9875   22.4822 H   0  0  0  0  0  0
  -21.1065  -13.1222   22.2622 H   0  0  0  0  0  0
  -24.6437  -15.8453   20.5163 H   0  0  0  0  0  0
  -26.2595  -15.6357   20.0705 H   0  0  0  0  0  0
  -26.7236  -32.5366   23.1050 H   0  0  0  0  0  0
  -25.0105  -33.9663   25.0390 H   0  0  0  0  0  0
  -22.7320  -31.2993   21.3927 H   0  0  0  0  0  0
  -23.3749  -35.9588   23.3303 H   0  0  0  0  0  0
  -24.3567  -36.8880   22.2054 H   0  0  0  0  0  0
  -23.7238  -37.6454   23.6666 H   0  0  0  0  0  0
  -26.1350  -31.5103   20.6168 H   0  0  0  0  0  0
  -26.8583  -30.7950   22.0246 H   0  0  0  0  0  0
  -28.1161  -28.8674   21.2340 H   0  0  0  0  0  0
  -25.9366  -25.9137   18.9497 H   0  0  0  0  0  0
  -23.9763  -27.3265   18.9673 H   0  0  0  0  0  0
  -23.7859  -30.5887   19.4013 H   0  0  0  0  0  0
  -22.7734  -29.2492   19.8468 H   0  0  0  0  0  0
  -25.1304  -36.1880   25.0815 H   0  0  0  0  0  0
  -21.0008  -28.3302   24.1362 H   0  0  0  0  0  0
  -20.5666  -26.2334   23.3613 H   0  0  0  0  0  0
  -21.6647  -26.7439   22.1207 H   0  0  0  0  0  0
  -19.6902  -25.6301   21.1244 H   0  0  0  0  0  0
  -19.6681  -27.3189   20.6727 H   0  0  0  0  0  0
  -17.4206  -26.6691   21.4023 H   0  0  0  0  0  0
  -18.0332  -26.0087   22.9020 H   0  0  0  0  0  0
  -19.7944  -30.7297   24.2248 H   0  0  0  0  0  0
  -17.5018  -31.6273   24.5168 H   0  0  0  0  0  0
  -15.5356  -30.2984   23.7671 H   0  0  0  0  0  0
  -15.8682  -28.0817   22.7092 H   0  0  0  0  0  0
  -24.5934  -30.7059   25.7761 H   0  0  0  0  0  0
  -24.8911  -32.2901   26.4827 H   0  0  0  0  0  0
  -25.8055  -30.8939   27.0235 H   0  0  0  0  0  0
  -26.2989  -29.6699   24.1275 H   0  0  0  0  0  0
  -27.4037  -29.7273   25.4810 H   0  0  0  0  0  0
  -27.8883  -30.4228   23.9537 H   0  0  0  0  0  0
  -27.2687  -33.3648   26.2031 H   0  0  0  0  0  0
  -28.3901  -32.6858   25.0325 H   0  0  0  0  0  0
  -28.0723  -31.8477   26.5444 H   0  0  0  0  0  0
  -28.2600  -38.0074   24.7514 H   0  0  0  0  0  0
  -28.1063  -36.2607   24.6306 H   0  0  0  0  0  0
  -27.2292  -37.1447   25.8874 H   0  0  0  0  0  0
  -20.9429  -29.8765   21.6813 H   0  0  0  0  0  0
  -26.0150  -38.2823   24.1425 H   0  0  0  0  0  0
  -31.7549  -21.0559   19.4597 H   0  0  0  0  0  0
  -32.3252  -16.9047   19.5251 H   0  0  0  0  0  0
  -28.5599  -18.5581   20.9210 H   0  0  0  0  0  0
  -30.9327  -22.9263   20.1651 H   0  0  0  0  0  0
  -29.7978  -22.7599   18.7768 H   0  0  0  0  0  0
  -29.7669  -23.1809   22.6176 H   0  0  0  0  0  0
  -28.3491  -24.2201   22.6732 H   0  0  0  0  0  0
  -29.8770  -24.8444   22.0708 H   0  0  0  0  0  0
  -26.9725  -24.6190   20.3684 H   0  0  0  0  0  0
  -27.9420  -24.6339   18.9389 H   0  0  0  0  0  0
  -28.9609  -15.8922   20.7928 H   0  0  0  0  0  0
  1 25  1  0  0  0
  1 30  2  0  0  0
  1 84  1  0  0  0
  2  3  1  0  0  0
  2 25  1  0  0  0
  2 89  1  0  0  0
  2 90  1  0  0  0
  3  4  1  0  0  0
  3 91  1  0  0  0
  3 92  1  0  0  0
  4  5  1  0  0  0
  4 93  1  0  0  0
  4 94  1  0  0  0
  5  6  1  0  0  0
  5 26  1  0  0  0
  5 95  1  0  0  0
  6 25  1  0  0  0
  6 96  1  0  0  0
  6 97  1  0  0  0
  7  8  2  0  0  0
  7 26  1  0  0  0
  7 29  1  0  0  0
  8  9  1  0  0  0
  8 22  1  0  0  0
  9 10  1  0  0  0
  9 27  2  0  0  0
 10 11  2  0  0  0
 10 15  1  0  0  0
 11 12  1  0  0  0
 11 98  1  0  0  0
 12 13  2  0  0  0
 12 99  1  0  0  0
 13 14  1  0  0  0
 13 31  1  0  0  0
 14 15  2  0  0  0
 14100  1  0  0  0
 15101  1  0  0  0
 16 17  2  0  0  0
 16 21  1  0  0  0
 16 31  1  0  0  0
 17 18  1  0  0  0
 17102  1  0  0  0
 18 19  2  0  0  0
 18103  1  0  0  0
 19 20  1  0  0  0
 19 24  1  0  0  0
 20 21  2  0  0  0
 20104  1  0  0  0
 21 23  1  0  0  0
 22 28  1  0  0  0
 22 32  2  0  0  0
 26 27  1  0  0  0
 28105  1  0  0  0
 28106  1  0  0  0
 29107  1  0  0  0
 29108  1  0  0  0
 33 34  1  0  0  0
 33 66  1  0  0  0
 33 70  2  0  0  0
 34 36  1  0  0  0
 34 59  1  0  0  0
 34109  1  0  0  0
 35 44  2  0  0  0
 35 45  1  0  0  0
 35 68  1  0  0  0
 36 56  1  0  0  0
 36110  1  0  0  0
 37 39  1  0  0  0
 37 47  1  0  0  0
 37 66  1  0  0  0
 37111  1  0  0  0
 38 43  2  0  0  0
 38 46  1  0  0  0
 38 47  1  0  0  0
 39 64  1  0  0  0
 39 67  2  0  0  0
 40 52  1  0  0  0
 40 53  2  0  0  0
 40 58  1  0  0  0
 41112  1  0  0  0
 41113  1  0  0  0
 41114  1  0  0  0
 41 48  1  0  0  0
 42 43  1  0  0  0
 42 66  1  0  0  0
 42115  1  0  0  0
 42116  1  0  0  0
 43 44  1  0  0  0
 44117  1  0  0  0
 45 46  2  0  0  0
 45118  1  0  0  0
 46119  1  0  0  0
 47120  1  0  0  0
 47121  1  0  0  0
 48 56  1  0  0  0
 48 65  1  0  0  0
 48122  1  0  0  0
 49 50  1  0  0  0
 49 53  1  0  0  0
 49 64  1  0  0  0
 49123  1  0  0  0
 50 51  1  0  0  0
 50124  1  0  0  0
 50125  1  0  0  0
 51 52  1  0  0  0
 51126  1  0  0  0
 51127  1  0  0  0
 52128  1  0  0  0
 52129  1  0  0  0
 53 54  1  0  0  0
 54 55  2  0  0  0
 54130  1  0  0  0
 55 57  1  0  0  0
 55131  1  0  0  0
 56 69  2  0  0  0
 57 58  2  0  0  0
 57132  1  0  0  0
 58133  1  0  0  0
 59 60  1  0  0  0
 59 61  1  0  0  0
 59 62  1  0  0  0
 60134  1  0  0  0
 60135  1  0  0  0
 60136  1  0  0  0
 61137  1  0  0  0
 61138  1  0  0  0
 61139  1  0  0  0
 62140  1  0  0  0
 62141  1  0  0  0
 62142  1  0  0  0
 63 65  1  0  0  0
 63143  1  0  0  0
 63144  1  0  0  0
 63145  1  0  0  0
 64146  1  0  0  0
 65147  1  0  0  0
 68 81  1  0  0  0
 71 74  2  0  0  0
 71 75  1  0  0  0
 71148  1  0  0  0
 72 74  1  0  0  0
 72 76  2  0  0  0
 72149  1  0  0  0
 73 75  2  0  0  0
 73 76  1  0  0  0
 73150  1  0  0  0
 74 82  1  0  0  0
 75 83  1  0  0  0
 76 84  1  0  0  0
 77 79  1  0  0  0
 77 83  1  0  0  0
 77 85  2  0  0  0
 78 79  1  0  0  0
 78 83  1  0  0  0
 78151  1  0  0  0
 78152  1  0  0  0
 79 80  1  0  0  0
 79 81  1  0  0  0
 80153  1  0  0  0
 80154  1  0  0  0
 80155  1  0  0  0
 81156  1  0  0  0
 81157  1  0  0  0
 82 86  1  0  0  0
 82 87  1  0  0  0
 82 88  1  0  0  0
 84158  1  0  0  0
M  ISO  4   1 100  68 101  81 101  84 100
M  END
> <chiral flag>
0

> <version>
0

> <s_m_source_file>
/data/baiqing/PycharmProjects/Reinvent-master-3.2/result/LINK_invent/BTK/process_docking_weight1_custom_product_contain_oxygen_bond_distance_aromatic_linkinvent_7_9_3/rearranged_h_0070.sdf

> <i_m_source_file_index>
46

> <r_mmod_Potential_Energy-OPLS-2005>
337.610443115234

> <r_mmod_Stretch_Energy-OPLS-2005>
173.683685302734

> <r_mmod_Bend_Energy-OPLS-2005>
237.671005249023

> <r_mmod_Torsional_Energy-OPLS-2005>
235.479354858398

> <r_mmod_Improper_Torsional_Energy-OPLS-2005>
5.22566652297974

> <r_mmod_Van_der_Waal_Energy-OPLS-2005>
155.259628295898

> <r_mmod_Electrostatic_Energy-OPLS-2005>
-373.295623779297

> <r_mmod_Solvation_Energy-OPLS-2005>
-214.527862548828

> <b_mmod_Minimization_Converged-OPLS-2005>
0

> <r_mmod_RMS_Derivative-OPLS-2005>
0.967011511325836

$$$$
46
                    3D
 Structure written by MMmdl.
169178  0  0  1  0            999 V2000
  -30.7045  -14.4898   20.4883 C   0  0  0  0  0  0
  -30.4236  -12.2919   19.4453 C   0  0  0  0  0  0
  -29.4999  -12.4515   18.2200 C   0  0  0  0  0  0
  -28.0159  -12.3404   18.6241 C   0  0  0  0  0  0
  -27.6559  -13.2021   19.8643 C   0  0  2  0  0  0
  -28.7000  -13.0409   20.9946 C   0  0  0  0  0  0
  -25.2574  -13.8140   20.5695 C   0  0  0  0  0  0
  -24.1814  -13.0438   20.9195 C   0  0  0  0  0  0
  -24.6355  -11.6903   20.8733 C   0  0  0  0  0  0
  -23.9024  -10.4288   21.0411 C   0  0  0  0  0  0
  -24.3567   -9.4210   21.9186 C   0  0  0  0  0  0
  -23.6254   -8.2235   22.0743 C   0  0  0  0  0  0
  -22.4237   -8.0269   21.3540 C   0  0  0  0  0  0
  -21.9868   -9.0249   20.4647 C   0  0  0  0  0  0
  -22.7197  -10.2133   20.3060 C   0  0  0  0  0  0
  -21.6861   -6.0715   22.5276 C   0  0  0  0  0  0
  -21.4019   -6.5622   23.8211 C   0  0  0  0  0  0
  -21.3656   -5.6773   24.9168 C   0  0  0  0  0  0
  -21.6043   -4.3036   24.7239 C   0  0  0  0  0  0
  -21.8817   -3.8135   23.4354 C   0  0  0  0  0  0
  -21.9202   -4.6939   22.3408 C   0  0  0  0  0  0
  -22.7836  -13.5256   21.1864 C   0  0  0  0  0  0
  -22.1675   -4.2127   21.0989 F   0  0  0  0  0  0
  -21.5620   -3.4524   25.7753 F   0  0  0  0  0  0
  -30.0329  -13.3089   20.4335 N   0  0  0  0  0  0
  -26.2988  -12.9299   20.3318 N   0  0  0  0  0  0
  -25.9282  -11.6466   20.5745 N   0  0  0  0  0  0
  -22.0449  -12.8267   22.0422 N   0  0  0  0  0  0
  -25.4344  -15.1850   20.4133 N   0  0  0  0  0  0
  -31.8872  -14.5976   20.1560 O   0  0  0  0  0  0
  -21.6625   -6.8846   21.4232 O   0  0  0  0  0  0
  -22.3535  -14.5576   20.6727 O   0  0  0  0  0  0
  -24.6106  -31.8702   23.2103 C   0  0  0  0  0  0
  -25.9027  -32.4822   23.8383 C   0  0  1  0  0  0
  -27.2418  -27.4546   20.1075 C   0  0  0  0  0  0
  -25.5890  -33.8622   24.2329 N   0  0  0  0  0  0
  -23.3955  -30.4914   21.5503 C   0  0  2  0  0  0
  -24.8425  -28.9561   20.1152 C   0  0  0  0  0  0
  -22.7387  -29.4667   22.5018 C   0  0  0  0  0  0
  -18.0264  -28.1369   22.8503 C   0  0  0  0  0  0
  -24.1493  -36.7309   23.2644 C   0  0  0  0  0  0
  -25.9193  -30.8418   21.3592 C   0  0  0  0  0  0
  -25.9958  -29.4747   20.7145 C   0  0  0  0  0  0
  -27.1905  -28.7290   20.7103 C   0  0  0  0  0  0
  -26.0727  -26.9459   19.4940 C   0  0  0  0  0  0
  -24.8756  -27.6898   19.5035 C   0  0  0  0  0  0
  -23.6027  -29.8180   20.1646 C   0  0  0  0  0  0
  -25.4101  -36.3108   24.0352 C   0  0  1  0  0  0
  -20.5852  -28.3649   23.1349 C   0  0  2  0  0  0
  -20.6758  -26.9387   22.5438 C   0  0  0  0  0  0
  -19.5731  -26.6387   21.5234 C   0  0  0  0  0  0
  -18.1907  -26.7920   22.1631 C   0  0  0  0  0  0
  -19.1515  -28.8826   23.2916 C   0  0  0  0  0  0
  -18.9444  -30.1442   23.8905 C   0  0  0  0  0  0
  -17.6447  -30.6582   24.0569 C   0  0  0  0  0  0
  -25.9024  -34.9477   23.5134 C   0  0  0  0  0  0
  -16.5338  -29.9084   23.6324 C   0  0  0  0  0  0
  -16.7254  -28.6500   23.0345 C   0  0  0  0  0  0
  -26.4462  -31.6588   25.0706 C   0  0  0  0  0  0
  -25.3741  -31.3711   26.1465 C   0  0  0  0  0  0
  -27.0276  -30.3024   24.6067 C   0  0  0  0  0  0
  -27.6053  -32.4298   25.7451 C   0  0  0  0  0  0
  -27.5578  -37.1802   24.8461 C   0  0  0  0  0  0
  -21.4121  -29.3014   22.3757 N   0  0  0  0  0  0
  -26.4286  -37.3794   23.9413 N   0  0  0  0  0  0
  -24.6592  -31.0839   22.0982 N   0  0  0  0  0  0
  -23.4178  -28.8226   23.3063 O   0  0  0  0  0  0
  -28.4557  -26.8034   20.1484 O   0  0  0  0  0  0
  -26.5589  -34.8931   22.4695 O   0  0  0  0  0  0
  -23.5313  -32.1446   23.7517 O   0  0  0  0  0  0
  -29.6288  -18.5122   21.3209 C   0  0  0  0  0  0
  -29.5245  -19.8799   21.6715 C   0  0  0  0  0  0
  -30.3207  -20.5074   19.4748 C   0  0  0  0  0  0
  -30.0628  -18.1277   20.0313 C   0  0  0  0  0  0
  -29.8424  -20.9086   20.7451 C   0  0  0  0  0  0
  -30.4546  -19.1471   19.1183 C   0  0  0  0  0  0
  -30.0392  -23.3984   20.3993 C   0  0  0  0  0  0
  -29.1538  -15.9841   17.2872 C   0  0  0  0  0  0
  -28.9573  -16.4617   18.5257 C   0  0  0  0  0  0
  -31.8549  -19.3578   17.0669 C   0  0  0  0  0  0
  -28.5908  -24.2071   22.1287 C   0  0  0  0  0  0
  -28.8567  -22.7000   22.2514 C   0  0  0  0  0  0
  -29.4434  -24.7032   20.9478 C   0  0  1  0  0  0
  -30.5925  -25.6135   21.4401 C   0  0  0  0  0  0
  -28.5912  -25.4117   19.8502 C   0  0  0  0  0  0
  -30.0535  -16.6617   19.5591 C   0  0  2  0  0  0
  -29.6223  -22.3016   21.0755 N   0  0  0  0  0  0
  -30.8874  -18.7953   17.8079 N   0  0  0  0  0  0
  -29.9225  -15.5842   20.5601 N   0  0  0  0  0  0
  -30.8470  -23.4260   19.4646 O   0  0  0  0  0  0
  -32.5352  -20.3319   17.4009 O   0  0  0  0  0  0
  -31.4676  -12.3836   19.1347 H   0  0  0  0  0  0
  -30.3236  -11.2951   19.8763 H   0  0  0  0  0  0
  -29.7354  -11.6919   17.4731 H   0  0  0  0  0  0
  -29.6850  -13.4074   17.7370 H   0  0  0  0  0  0
  -27.8114  -11.2904   18.8315 H   0  0  0  0  0  0
  -27.3783  -12.6121   17.7815 H   0  0  0  0  0  0
  -27.6804  -14.2363   19.5294 H   0  0  0  0  0  0
  -28.6705  -12.0300   21.4045 H   0  0  0  0  0  0
  -28.4763  -13.7087   21.8289 H   0  0  0  0  0  0
  -25.2705   -9.5698   22.4764 H   0  0  0  0  0  0
  -23.9981   -7.4618   22.7447 H   0  0  0  0  0  0
  -21.0797   -8.8789   19.8948 H   0  0  0  0  0  0
  -22.3665  -10.9674   19.6165 H   0  0  0  0  0  0
  -21.2022   -7.6126   23.9714 H   0  0  0  0  0  0
  -21.1475   -6.0499   25.9070 H   0  0  0  0  0  0
  -22.0603   -2.7596   23.2882 H   0  0  0  0  0  0
  -22.4031  -11.9926   22.4818 H   0  0  0  0  0  0
  -21.1077  -13.1324   22.2625 H   0  0  0  0  0  0
  -24.6684  -15.8424   20.5160 H   0  0  0  0  0  0
  -26.2876  -15.6209   20.0908 H   0  0  0  0  0  0
  -26.7103  -32.5557   23.1155 H   0  0  0  0  0  0
  -25.0059  -33.9776   25.0483 H   0  0  0  0  0  0
  -22.6813  -31.3055   21.4115 H   0  0  0  0  0  0
  -23.3759  -35.9637   23.3303 H   0  0  0  0  0  0
  -24.3595  -36.8915   22.2058 H   0  0  0  0  0  0
  -23.7248  -37.6518   23.6648 H   0  0  0  0  0  0
  -26.0301  -31.6049   20.5874 H   0  0  0  0  0  0
  -26.8071  -30.8970   21.9762 H   0  0  0  0  0  0
  -28.0796  -29.1281   21.1791 H   0  0  0  0  0  0
  -26.0614  -25.9923   18.9916 H   0  0  0  0  0  0
  -23.9907  -27.2857   19.0315 H   0  0  0  0  0  0
  -23.7052  -30.5889   19.3995 H   0  0  0  0  0  0
  -22.7277  -29.2318   19.8782 H   0  0  0  0  0  0
  -25.1281  -36.1969   25.0851 H   0  0  0  0  0  0
  -20.9944  -28.3211   24.1468 H   0  0  0  0  0  0
  -20.5682  -26.2247   23.3618 H   0  0  0  0  0  0
  -21.6633  -26.7452   22.1222 H   0  0  0  0  0  0
  -19.6893  -25.6309   21.1239 H   0  0  0  0  0  0
  -19.6671  -27.3227   20.6785 H   0  0  0  0  0  0
  -17.4195  -26.6706   21.4006 H   0  0  0  0  0  0
  -18.0261  -26.0049   22.9007 H   0  0  0  0  0  0
  -19.7927  -30.7269   24.2256 H   0  0  0  0  0  0
  -17.5006  -31.6252   24.5185 H   0  0  0  0  0  0
  -15.5335  -30.2985   23.7647 H   0  0  0  0  0  0
  -15.8663  -28.0835   22.7033 H   0  0  0  0  0  0
  -24.5896  -30.7069   25.7811 H   0  0  0  0  0  0
  -24.8957  -32.2885   26.4910 H   0  0  0  0  0  0
  -25.8101  -30.8879   27.0218 H   0  0  0  0  0  0
  -26.2802  -29.6793   24.1142 H   0  0  0  0  0  0
  -27.4064  -29.7248   25.4507 H   0  0  0  0  0  0
  -27.8632  -30.4322   23.9187 H   0  0  0  0  0  0
  -27.2687  -33.3599   26.2037 H   0  0  0  0  0  0
  -28.3847  -32.6844   25.0263 H   0  0  0  0  0  0
  -28.0735  -31.8421   26.5356 H   0  0  0  0  0  0
  -28.2608  -38.0089   24.7511 H   0  0  0  0  0  0
  -28.1060  -36.2625   24.6270 H   0  0  0  0  0  0
  -27.2308  -37.1454   25.8869 H   0  0  0  0  0  0
  -20.9276  -29.8704   21.6962 H   0  0  0  0  0  0
  -26.0179  -38.2874   24.1403 H   0  0  0  0  0  0
  -29.3364  -17.7628   22.0434 H   0  0  0  0  0  0
  -29.1563  -20.1232   22.6591 H   0  0  0  0  0  0
  -30.5525  -21.2396   18.7184 H   0  0  0  0  0  0
  -28.3290  -15.8696   16.5997 H   0  0  0  0  0  0
  -30.1357  -15.6935   16.9386 H   0  0  0  0  0  0
  -27.9560  -16.7355   18.8274 H   0  0  0  0  0  0
  -31.9692  -18.8206   16.1129 H   0  0  0  0  0  0
  -28.8394  -24.7209   23.0576 H   0  0  0  0  0  0
  -27.5291  -24.3876   21.9543 H   0  0  0  0  0  0
  -27.9212  -22.1432   22.3167 H   0  0  0  0  0  0
  -29.4416  -22.4893   23.1491 H   0  0  0  0  0  0
  -31.2862  -25.0758   22.0858 H   0  0  0  0  0  0
  -30.2085  -26.4586   22.0134 H   0  0  0  0  0  0
  -31.1679  -26.0185   20.6070 H   0  0  0  0  0  0
  -27.6489  -24.8807   19.7364 H   0  0  0  0  0  0
  -29.0913  -25.3608   18.8825 H   0  0  0  0  0  0
  -31.0029  -16.5344   19.0357 H   0  0  0  0  0  0
  -30.4859  -17.9527   17.4178 H   0  0  0  0  0  0
  -28.9901  -15.4264   20.9089 H   0  0  0  0  0  0
  1 25  1  0  0  0
  1 30  2  0  0  0
  1 89  1  0  0  0
  2  3  1  0  0  0
  2 25  1  0  0  0
  2 92  1  0  0  0
  2 93  1  0  0  0
  3  4  1  0  0  0
  3 94  1  0  0  0
  3 95  1  0  0  0
  4  5  1  0  0  0
  4 96  1  0  0  0
  4 97  1  0  0  0
  5  6  1  0  0  0
  5 26  1  0  0  0
  5 98  1  0  0  0
  6 25  1  0  0  0
  6 99  1  0  0  0
  6100  1  0  0  0
  7  8  2  0  0  0
  7 26  1  0  0  0
  7 29  1  0  0  0
  8  9  1  0  0  0
  8 22  1  0  0  0
  9 10  1  0  0  0
  9 27  2  0  0  0
 10 11  2  0  0  0
 10 15  1  0  0  0
 11 12  1  0  0  0
 11101  1  0  0  0
 12 13  2  0  0  0
 12102  1  0  0  0
 13 14  1  0  0  0
 13 31  1  0  0  0
 14 15  2  0  0  0
 14103  1  0  0  0
 15104  1  0  0  0
 16 17  2  0  0  0
 16 21  1  0  0  0
 16 31  1  0  0  0
 17 18  1  0  0  0
 17105  1  0  0  0
 18 19  2  0  0  0
 18106  1  0  0  0
 19 20  1  0  0  0
 19 24  1  0  0  0
 20 21  2  0  0  0
 20107  1  0  0  0
 21 23  1  0  0  0
 22 28  1  0  0  0
 22 32  2  0  0  0
 26 27  1  0  0  0
 28108  1  0  0  0
 28109  1  0  0  0
 29110  1  0  0  0
 29111  1  0  0  0
 33 34  1  0  0  0
 33 66  1  0  0  0
 33 70  2  0  0  0
 34 36  1  0  0  0
 34 59  1  0  0  0
 34112  1  0  0  0
 35 44  2  0  0  0
 35 45  1  0  0  0
 35 68  1  0  0  0
 36 56  1  0  0  0
 36113  1  0  0  0
 37 39  1  0  0  0
 37 47  1  0  0  0
 37 66  1  0  0  0
 37114  1  0  0  0
 38 43  2  0  0  0
 38 46  1  0  0  0
 38 47  1  0  0  0
 39 64  1  0  0  0
 39 67  2  0  0  0
 40 52  1  0  0  0
 40 53  2  0  0  0
 40 58  1  0  0  0
 41115  1  0  0  0
 41116  1  0  0  0
 41117  1  0  0  0
 41 48  1  0  0  0
 42 43  1  0  0  0
 42 66  1  0  0  0
 42118  1  0  0  0
 42119  1  0  0  0
 43 44  1  0  0  0
 44120  1  0  0  0
 45 46  2  0  0  0
 45121  1  0  0  0
 46122  1  0  0  0
 47123  1  0  0  0
 47124  1  0  0  0
 48 56  1  0  0  0
 48 65  1  0  0  0
 48125  1  0  0  0
 49 50  1  0  0  0
 49 53  1  0  0  0
 49 64  1  0  0  0
 49126  1  0  0  0
 50 51  1  0  0  0
 50127  1  0  0  0
 50128  1  0  0  0
 51 52  1  0  0  0
 51129  1  0  0  0
 51130  1  0  0  0
 52131  1  0  0  0
 52132  1  0  0  0
 53 54  1  0  0  0
 54 55  2  0  0  0
 54133  1  0  0  0
 55 57  1  0  0  0
 55134  1  0  0  0
 56 69  2  0  0  0
 57 58  2  0  0  0
 57135  1  0  0  0
 58136  1  0  0  0
 59 60  1  0  0  0
 59 61  1  0  0  0
 59 62  1  0  0  0
 60137  1  0  0  0
 60138  1  0  0  0
 60139  1  0  0  0
 61140  1  0  0  0
 61141  1  0  0  0
 61142  1  0  0  0
 62143  1  0  0  0
 62144  1  0  0  0
 62145  1  0  0  0
 63 65  1  0  0  0
 63146  1  0  0  0
 63147  1  0  0  0
 63148  1  0  0  0
 64149  1  0  0  0
 65150  1  0  0  0
 68 85  1  0  0  0
 71 72  2  0  0  0
 71 74  1  0  0  0
 71151  1  0  0  0
 72 75  1  0  0  0
 72152  1  0  0  0
 73 75  2  0  0  0
 73 76  1  0  0  0
 73153  1  0  0  0
 74 76  2  0  0  0
 74 86  1  0  0  0
 75 87  1  0  0  0
 76 88  1  0  0  0
 77 83  1  0  0  0
 77 87  1  0  0  0
 77 90  2  0  0  0
 78 79  2  0  0  0
 78154  1  0  0  0
 78155  1  0  0  0
 79 86  1  0  0  0
 79156  1  0  0  0
 80 88  1  0  0  0
 80 91  2  0  0  0
 80157  1  0  0  0
 81 82  1  0  0  0
 81 83  1  0  0  0
 81158  1  0  0  0
 81159  1  0  0  0
 82 87  1  0  0  0
 82160  1  0  0  0
 82161  1  0  0  0
 83 84  1  0  0  0
 83 85  1  0  0  0
 84162  1  0  0  0
 84163  1  0  0  0
 84164  1  0  0  0
 85165  1  0  0  0
 85166  1  0  0  0
 86 89  1  0  0  0
 86167  1  0  0  0
 88168  1  0  0  0
 89169  1  0  0  0
M  ISO  4   1 100  68 101  85 101  89 100
M  END
> <chiral flag>
0

> <version>
0

> <s_m_source_file>
/data/baiqing/PycharmProjects/Reinvent-master-3.2/result/LINK_invent/BTK/process_docking_weight1_custom_product_contain_oxygen_bond_distance_aromatic_linkinvent_7_9_3/rearranged_h_0070.sdf

> <i_m_source_file_index>
47

> <r_mmod_Potential_Energy-OPLS-2005>
57.4696006774902

> <r_mmod_Stretch_Energy-OPLS-2005>
42.4326591491699

> <r_mmod_Bend_Energy-OPLS-2005>
139.617233276367

> <r_mmod_Torsional_Energy-OPLS-2005>
315.822143554688

> <r_mmod_Improper_Torsional_Energy-OPLS-2005>
13.399486541748

> <r_mmod_Van_der_Waal_Energy-OPLS-2005>
167.144348144531

> <r_mmod_Electrostatic_Energy-OPLS-2005>
-385.157135009766

> <r_mmod_Solvation_Energy-OPLS-2005>
-255.998046875

> <b_mmod_Minimization_Converged-OPLS-2005>
0

> <r_mmod_RMS_Derivative-OPLS-2005>
2.78915572166443

$$$$
47
                    3D
 Structure written by MMmdl.
152160  0  0  1  0            999 V2000
  -30.6164  -14.6554   20.4901 C   0  0  0  0  0  0
  -30.4398  -12.4009   19.4540 C   0  0  0  0  0  0
  -29.5083  -12.5066   18.2253 C   0  0  0  0  0  0
  -28.0313  -12.3428   18.6378 C   0  0  0  0  0  0
  -27.6514  -13.2180   19.8620 C   0  0  2  0  0  0
  -28.6975  -13.0819   20.9918 C   0  0  0  0  0  0
  -25.2544  -13.8166   20.5689 C   0  0  0  0  0  0
  -24.1812  -13.0423   20.9167 C   0  0  0  0  0  0
  -24.6392  -11.6900   20.8726 C   0  0  0  0  0  0
  -23.9064  -10.4285   21.0398 C   0  0  0  0  0  0
  -24.3617   -9.4204   21.9179 C   0  0  0  0  0  0
  -23.6290   -8.2242   22.0754 C   0  0  0  0  0  0
  -22.4272   -8.0280   21.3545 C   0  0  0  0  0  0
  -21.9905   -9.0252   20.4647 C   0  0  0  0  0  0
  -22.7235  -10.2129   20.3051 C   0  0  0  0  0  0
  -21.6853   -6.0733   22.5279 C   0  0  0  0  0  0
  -21.4015   -6.5637   23.8213 C   0  0  0  0  0  0
  -21.3659   -5.6790   24.9175 C   0  0  0  0  0  0
  -21.6044   -4.3053   24.7225 C   0  0  0  0  0  0
  -21.8820   -3.8145   23.4346 C   0  0  0  0  0  0
  -21.9193   -4.6961   22.3402 C   0  0  0  0  0  0
  -22.7838  -13.5219   21.1842 C   0  0  0  0  0  0
  -22.1662   -4.2148   21.0979 F   0  0  0  0  0  0
  -21.5628   -3.4537   25.7737 F   0  0  0  0  0  0
  -30.0118  -13.4260   20.4265 N   0  0  0  0  0  0
  -26.2982  -12.9356   20.3326 N   0  0  0  0  0  0
  -25.9324  -11.6506   20.5756 N   0  0  0  0  0  0
  -22.0487  -12.8217   22.0408 N   0  0  0  0  0  0
  -25.4206  -15.1895   20.4178 N   0  0  0  0  0  0
  -31.7849  -14.8123   20.1235 O   0  0  0  0  0  0
  -21.6637   -6.8877   21.4242 O   0  0  0  0  0  0
  -22.3519  -14.5530   20.6702 O   0  0  0  0  0  0
  -24.6259  -31.8595   23.2020 C   0  0  0  0  0  0
  -25.9107  -32.4778   23.8350 C   0  0  1  0  0  0
  -27.2249  -27.3166   20.1243 C   0  0  0  0  0  0
  -25.5922  -33.8578   24.2278 N   0  0  0  0  0  0
  -23.4199  -30.4822   21.5447 C   0  0  2  0  0  0
  -24.8672  -28.9338   20.1141 C   0  0  0  0  0  0
  -22.7473  -29.4622   22.4939 C   0  0  0  0  0  0
  -18.0286  -28.1386   22.8487 C   0  0  0  0  0  0
  -24.1490  -36.7295   23.2640 C   0  0  0  0  0  0
  -25.9606  -30.7895   21.3734 C   0  0  0  0  0  0
  -26.0356  -29.4154   20.7186 C   0  0  0  0  0  0
  -27.2191  -28.6191   20.7118 C   0  0  0  0  0  0
  -26.0380  -26.8900   19.4893 C   0  0  0  0  0  0
  -24.8701  -27.6764   19.4902 C   0  0  0  0  0  0
  -23.6352  -29.8146   20.1610 C   0  0  0  0  0  0
  -25.4115  -36.3084   24.0329 C   0  0  1  0  0  0
  -20.5885  -28.3689   23.1285 C   0  0  2  0  0  0
  -20.6775  -26.9412   22.5411 C   0  0  0  0  0  0
  -19.5751  -26.6385   21.5212 C   0  0  0  0  0  0
  -18.1931  -26.7929   22.1624 C   0  0  0  0  0  0
  -19.1538  -28.8855   23.2881 C   0  0  0  0  0  0
  -18.9461  -30.1457   23.8897 C   0  0  0  0  0  0
  -17.6461  -30.6587   24.0564 C   0  0  0  0  0  0
  -25.9050  -34.9452   23.5105 C   0  0  0  0  0  0
  -16.5352  -29.9085   23.6329 C   0  0  0  0  0  0
  -16.7273  -28.6503   23.0349 C   0  0  0  0  0  0
  -26.4492  -31.6589   25.0721 C   0  0  0  0  0  0
  -25.3727  -31.3727   26.1450 C   0  0  0  0  0  0
  -27.0336  -30.3013   24.6174 C   0  0  0  0  0  0
  -27.6054  -32.4322   25.7488 C   0  0  0  0  0  0
  -27.5579  -37.1804   24.8466 C   0  0  0  0  0  0
  -21.4187  -29.3042   22.3679 N   0  0  0  0  0  0
  -26.4294  -37.3777   23.9406 N   0  0  0  0  0  0
  -24.6876  -31.0606   22.0970 N   0  0  0  0  0  0
  -23.4196  -28.8163   23.3020 O   0  0  0  0  0  0
  -28.3451  -26.4737   20.1387 O   0  0  0  0  0  0
  -26.5620  -34.8918   22.4672 O   0  0  0  0  0  0
  -23.5423  -32.1394   23.7348 O   0  0  0  0  0  0
  -28.6973  -19.3429   20.3677 C   0  0  0  0  0  0
  -31.0989  -17.8876   20.4113 C   0  0  0  0  0  0
  -29.8928  -20.0770   20.1484 C   0  0  0  0  0  0
  -29.8986  -17.1553   20.5923 C   0  0  0  0  0  0
  -28.7048  -17.9290   20.5825 C   0  0  0  0  0  0
  -31.0957  -19.3002   20.1982 C   0  0  0  0  0  0
  -29.9113  -21.5512   19.7457 C   0  0  0  0  0  0
  -29.1507  -24.0284   19.8497 C   0  0  0  0  0  0
  -28.1520  -25.0474   20.5240 C   0  0  0  0  0  0
  -29.7957  -15.7067   20.8027 N   0  0  0  0  0  0
  -29.1262  -22.5848   20.2392 N   0  0  0  0  0  0
  -30.7846  -21.8524   18.7777 N   0  3  0  0  0  0
  -29.9465  -24.4369   18.9922 O   0  0  0  0  0  0
  -27.5245  -17.2867   20.7554 F   0  0  0  0  0  0
  -32.2938  -19.9031   19.9975 F   0  0  0  0  0  0
  -31.4804  -12.5291   19.1508 H   0  0  0  0  0  0
  -30.3788  -11.4072   19.9006 H   0  0  0  0  0  0
  -29.7746  -11.7513   17.4845 H   0  0  0  0  0  0
  -29.6481  -13.4732   17.7389 H   0  0  0  0  0  0
  -27.8711  -11.2903   18.8741 H   0  0  0  0  0  0
  -27.3763  -12.5671   17.7951 H   0  0  0  0  0  0
  -27.6634  -14.2511   19.5143 H   0  0  0  0  0  0
  -28.7117  -12.0624   21.3802 H   0  0  0  0  0  0
  -28.4420  -13.7189   21.8402 H   0  0  0  0  0  0
  -25.2764   -9.5681   22.4749 H   0  0  0  0  0  0
  -24.0000   -7.4634   22.7474 H   0  0  0  0  0  0
  -21.0835   -8.8772   19.8954 H   0  0  0  0  0  0
  -22.3695  -10.9667   19.6159 H   0  0  0  0  0  0
  -21.2008   -7.6146   23.9717 H   0  0  0  0  0  0
  -21.1479   -6.0519   25.9078 H   0  0  0  0  0  0
  -22.0599   -2.7607   23.2847 H   0  0  0  0  0  0
  -22.4101  -11.9876   22.4793 H   0  0  0  0  0  0
  -21.1110  -13.1252   22.2623 H   0  0  0  0  0  0
  -24.6536  -15.8360   20.5620 H   0  0  0  0  0  0
  -26.2862  -15.6629   20.1881 H   0  0  0  0  0  0
  -26.7174  -32.5448   23.1098 H   0  0  0  0  0  0
  -25.0068  -33.9723   25.0422 H   0  0  0  0  0  0
  -22.7138  -31.3026   21.4003 H   0  0  0  0  0  0
  -23.3748  -35.9631   23.3309 H   0  0  0  0  0  0
  -24.3580  -36.8907   22.2053 H   0  0  0  0  0  0
  -23.7247  -37.6501   23.6657 H   0  0  0  0  0  0
  -26.0915  -31.5514   20.6037 H   0  0  0  0  0  0
  -26.8412  -30.8399   22.0021 H   0  0  0  0  0  0
  -28.1174  -28.9858   21.1888 H   0  0  0  0  0  0
  -26.0000  -25.9367   18.9826 H   0  0  0  0  0  0
  -23.9772  -27.3050   19.0063 H   0  0  0  0  0  0
  -23.7547  -30.5895   19.4031 H   0  0  0  0  0  0
  -22.7552  -29.2435   19.8595 H   0  0  0  0  0  0
  -25.1296  -36.1939   25.0822 H   0  0  0  0  0  0
  -20.9978  -28.3264   24.1405 H   0  0  0  0  0  0
  -20.5675  -26.2298   23.3611 H   0  0  0  0  0  0
  -21.6644  -26.7443   22.1205 H   0  0  0  0  0  0
  -19.6912  -25.6295   21.1242 H   0  0  0  0  0  0
  -19.6688  -27.3195   20.6742 H   0  0  0  0  0  0
  -17.4200  -26.6676   21.4027 H   0  0  0  0  0  0
  -18.0331  -26.0071   22.9021 H   0  0  0  0  0  0
  -19.7937  -30.7275   24.2264 H   0  0  0  0  0  0
  -17.5015  -31.6267   24.5167 H   0  0  0  0  0  0
  -15.5353  -30.2986   23.7654 H   0  0  0  0  0  0
  -15.8674  -28.0823   22.7062 H   0  0  0  0  0  0
  -24.5902  -30.7075   25.7781 H   0  0  0  0  0  0
  -24.8917  -32.2892   26.4875 H   0  0  0  0  0  0
  -25.8054  -30.8906   27.0225 H   0  0  0  0  0  0
  -26.2908  -29.6762   24.1203 H   0  0  0  0  0  0
  -27.4041  -29.7272   25.4677 H   0  0  0  0  0  0
  -27.8774  -30.4303   23.9391 H   0  0  0  0  0  0
  -27.2668  -33.3623   26.2066 H   0  0  0  0  0  0
  -28.3861  -32.6882   25.0313 H   0  0  0  0  0  0
  -28.0724  -31.8447   26.5402 H   0  0  0  0  0  0
  -28.2605  -38.0093   24.7504 H   0  0  0  0  0  0
  -28.1067  -36.2625   24.6303 H   0  0  0  0  0  0
  -27.2297  -37.1467   25.8869 H   0  0  0  0  0  0
  -20.9364  -29.8764   21.6890 H   0  0  0  0  0  0
  -26.0178  -38.2855   24.1396 H   0  0  0  0  0  0
  -27.7447  -19.8496   20.3278 H   0  0  0  0  0  0
  -32.0477  -17.3738   20.4203 H   0  0  0  0  0  0
  -28.2873  -24.9788   21.6033 H   0  0  0  0  0  0
  -27.1436  -24.6875   20.3293 H   0  0  0  0  0  0
  -28.8683  -15.4141   21.0685 H   0  0  0  0  0  0
  -28.4892  -22.2666   20.9541 H   0  0  0  0  0  0
  -31.4812  -21.1765   18.4998 H   0  0  0  0  0  0
  -30.8535  -22.8147   18.4657 H   0  0  0  0  0  0
  1 25  1  0  0  0
  1 30  2  0  0  0
  1 80  1  0  0  0
  2  3  1  0  0  0
  2 25  1  0  0  0
  2 86  1  0  0  0
  2 87  1  0  0  0
  3  4  1  0  0  0
  3 88  1  0  0  0
  3 89  1  0  0  0
  4  5  1  0  0  0
  4 90  1  0  0  0
  4 91  1  0  0  0
  5  6  1  0  0  0
  5 26  1  0  0  0
  5 92  1  0  0  0
  6 25  1  0  0  0
  6 93  1  0  0  0
  6 94  1  0  0  0
  7  8  2  0  0  0
  7 26  1  0  0  0
  7 29  1  0  0  0
  8  9  1  0  0  0
  8 22  1  0  0  0
  9 10  1  0  0  0
  9 27  2  0  0  0
 10 11  2  0  0  0
 10 15  1  0  0  0
 11 12  1  0  0  0
 11 95  1  0  0  0
 12 13  2  0  0  0
 12 96  1  0  0  0
 13 14  1  0  0  0
 13 31  1  0  0  0
 14 15  2  0  0  0
 14 97  1  0  0  0
 15 98  1  0  0  0
 16 17  2  0  0  0
 16 21  1  0  0  0
 16 31  1  0  0  0
 17 18  1  0  0  0
 17 99  1  0  0  0
 18 19  2  0  0  0
 18100  1  0  0  0
 19 20  1  0  0  0
 19 24  1  0  0  0
 20 21  2  0  0  0
 20101  1  0  0  0
 21 23  1  0  0  0
 22 28  1  0  0  0
 22 32  2  0  0  0
 26 27  1  0  0  0
 28102  1  0  0  0
 28103  1  0  0  0
 29104  1  0  0  0
 29105  1  0  0  0
 33 34  1  0  0  0
 33 66  1  0  0  0
 33 70  2  0  0  0
 34 36  1  0  0  0
 34 59  1  0  0  0
 34106  1  0  0  0
 35 44  2  0  0  0
 35 45  1  0  0  0
 35 68  1  0  0  0
 36 56  1  0  0  0
 36107  1  0  0  0
 37 39  1  0  0  0
 37 47  1  0  0  0
 37 66  1  0  0  0
 37108  1  0  0  0
 38 43  2  0  0  0
 38 46  1  0  0  0
 38 47  1  0  0  0
 39 64  1  0  0  0
 39 67  2  0  0  0
 40 52  1  0  0  0
 40 53  2  0  0  0
 40 58  1  0  0  0
 41109  1  0  0  0
 41110  1  0  0  0
 41111  1  0  0  0
 41 48  1  0  0  0
 42 43  1  0  0  0
 42 66  1  0  0  0
 42112  1  0  0  0
 42113  1  0  0  0
 43 44  1  0  0  0
 44114  1  0  0  0
 45 46  2  0  0  0
 45115  1  0  0  0
 46116  1  0  0  0
 47117  1  0  0  0
 47118  1  0  0  0
 48 56  1  0  0  0
 48 65  1  0  0  0
 48119  1  0  0  0
 49 50  1  0  0  0
 49 53  1  0  0  0
 49 64  1  0  0  0
 49120  1  0  0  0
 50 51  1  0  0  0
 50121  1  0  0  0
 50122  1  0  0  0
 51 52  1  0  0  0
 51123  1  0  0  0
 51124  1  0  0  0
 52125  1  0  0  0
 52126  1  0  0  0
 53 54  1  0  0  0
 54 55  2  0  0  0
 54127  1  0  0  0
 55 57  1  0  0  0
 55128  1  0  0  0
 56 69  2  0  0  0
 57 58  2  0  0  0
 57129  1  0  0  0
 58130  1  0  0  0
 59 60  1  0  0  0
 59 61  1  0  0  0
 59 62  1  0  0  0
 60131  1  0  0  0
 60132  1  0  0  0
 60133  1  0  0  0
 61134  1  0  0  0
 61135  1  0  0  0
 61136  1  0  0  0
 62137  1  0  0  0
 62138  1  0  0  0
 62139  1  0  0  0
 63 65  1  0  0  0
 63140  1  0  0  0
 63141  1  0  0  0
 63142  1  0  0  0
 64143  1  0  0  0
 65144  1  0  0  0
 68 79  1  0  0  0
 71 73  2  0  0  0
 71 75  1  0  0  0
 71145  1  0  0  0
 72 74  1  0  0  0
 72 76  2  0  0  0
 72146  1  0  0  0
 73 76  1  0  0  0
 73 77  1  0  0  0
 74 75  2  0  0  0
 74 80  1  0  0  0
 75 84  1  0  0  0
 76 85  1  0  0  0
 77 81  1  0  0  0
 77 82  2  0  0  0
 78 79  1  0  0  0
 78 81  1  0  0  0
 78 83  2  0  0  0
 79147  1  0  0  0
 79148  1  0  0  0
 80149  1  0  0  0
 81150  1  0  0  0
 82151  1  0  0  0
 82152  1  0  0  0
M  CHG  1  82   1
M  ISO  4   1 100  68 101  79 101  80 100
M  END
> <chiral flag>
0

> <version>
0

> <s_m_source_file>
/data/baiqing/PycharmProjects/Reinvent-master-3.2/result/LINK_invent/BTK/process_docking_weight1_custom_product_contain_oxygen_bond_distance_aromatic_linkinvent_7_9_3/rearranged_h_0070.sdf

> <i_m_source_file_index>
48

> <r_mmod_Potential_Energy-OPLS-2005>
-275.511352539062

> <r_mmod_Stretch_Energy-OPLS-2005>
87.2251205444336

> <r_mmod_Bend_Energy-OPLS-2005>
144.979293823242

> <r_mmod_Torsional_Energy-OPLS-2005>
223.871215820312

> <r_mmod_Improper_Torsional_Energy-OPLS-2005>
5.30639219284058

> <r_mmod_Van_der_Waal_Energy-OPLS-2005>
159.224716186523

> <r_mmod_Electrostatic_Energy-OPLS-2005>
-479.045654296875

> <r_mmod_Solvation_Energy-OPLS-2005>
-467.777648925781

> <b_mmod_Minimization_Converged-OPLS-2005>
0

> <r_mmod_RMS_Derivative-OPLS-2005>
0.237884268164635

$$$$
48
                    3D
 Structure written by MMmdl.
153161  0  0  1  0            999 V2000
  -30.5909  -14.7049   20.4777 C   0  0  0  0  0  0
  -30.4462  -12.4315   19.4536 C   0  0  0  0  0  0
  -29.5107  -12.5125   18.2255 C   0  0  0  0  0  0
  -28.0341  -12.3424   18.6398 C   0  0  0  0  0  0
  -27.6511  -13.2201   19.8616 C   0  0  2  0  0  0
  -28.6998  -13.0965   20.9899 C   0  0  0  0  0  0
  -25.2551  -13.8158   20.5689 C   0  0  0  0  0  0
  -24.1818  -13.0419   20.9172 C   0  0  0  0  0  0
  -24.6395  -11.6895   20.8717 C   0  0  0  0  0  0
  -23.9066  -10.4280   21.0394 C   0  0  0  0  0  0
  -24.3615   -9.4199   21.9178 C   0  0  0  0  0  0
  -23.6288   -8.2238   22.0751 C   0  0  0  0  0  0
  -22.4272   -8.0277   21.3545 C   0  0  0  0  0  0
  -21.9905   -9.0246   20.4647 C   0  0  0  0  0  0
  -22.7234  -10.2124   20.3049 C   0  0  0  0  0  0
  -21.6852   -6.0733   22.5282 C   0  0  0  0  0  0
  -21.4015   -6.5635   23.8214 C   0  0  0  0  0  0
  -21.3653   -5.6789   24.9175 C   0  0  0  0  0  0
  -21.6042   -4.3052   24.7227 C   0  0  0  0  0  0
  -21.8822   -3.8146   23.4347 C   0  0  0  0  0  0
  -21.9195   -4.6963   22.3404 C   0  0  0  0  0  0
  -22.7844  -13.5219   21.1840 C   0  0  0  0  0  0
  -22.1665   -4.2148   21.0983 F   0  0  0  0  0  0
  -21.5622   -3.4536   25.7738 F   0  0  0  0  0  0
  -30.0060  -13.4617   20.4193 N   0  0  0  0  0  0
  -26.2989  -12.9354   20.3334 N   0  0  0  0  0  0
  -25.9335  -11.6506   20.5761 N   0  0  0  0  0  0
  -22.0491  -12.8208   22.0397 N   0  0  0  0  0  0
  -25.4232  -15.1881   20.4166 N   0  0  0  0  0  0
  -31.7633  -14.8669   20.1270 O   0  0  0  0  0  0
  -21.6638   -6.8873   21.4242 O   0  0  0  0  0  0
  -22.3530  -14.5532   20.6700 O   0  0  0  0  0  0
  -24.6299  -31.8553   23.1974 C   0  0  0  0  0  0
  -25.9125  -32.4759   23.8320 C   0  0  1  0  0  0
  -27.2256  -27.2801   20.1312 C   0  0  0  0  0  0
  -25.5921  -33.8554   24.2255 N   0  0  0  0  0  0
  -23.4277  -30.4773   21.5405 C   0  0  2  0  0  0
  -24.8786  -28.9270   20.1100 C   0  0  0  0  0  0
  -22.7507  -29.4599   22.4904 C   0  0  0  0  0  0
  -18.0294  -28.1395   22.8488 C   0  0  0  0  0  0
  -24.1488  -36.7275   23.2637 C   0  0  0  0  0  0
  -25.9721  -30.7760   21.3746 C   0  0  0  0  0  0
  -26.0496  -29.3983   20.7192 C   0  0  0  0  0  0
  -27.2308  -28.5890   20.7170 C   0  0  0  0  0  0
  -26.0381  -26.8772   19.4844 C   0  0  0  0  0  0
  -24.8771  -27.6730   19.4788 C   0  0  0  0  0  0
  -23.6469  -29.8106   20.1575 C   0  0  0  0  0  0
  -25.4113  -36.3066   24.0328 C   0  0  1  0  0  0
  -20.5901  -28.3696   23.1279 C   0  0  2  0  0  0
  -20.6784  -26.9412   22.5415 C   0  0  0  0  0  0
  -19.5752  -26.6395   21.5217 C   0  0  0  0  0  0
  -18.1935  -26.7939   22.1630 C   0  0  0  0  0  0
  -19.1551  -28.8867   23.2880 C   0  0  0  0  0  0
  -18.9470  -30.1471   23.8891 C   0  0  0  0  0  0
  -17.6465  -30.6595   24.0570 C   0  0  0  0  0  0
  -25.9058  -34.9436   23.5094 C   0  0  0  0  0  0
  -16.5357  -29.9093   23.6341 C   0  0  0  0  0  0
  -16.7285  -28.6517   23.0361 C   0  0  0  0  0  0
  -26.4501  -31.6572   25.0700 C   0  0  0  0  0  0
  -25.3728  -31.3720   26.1426 C   0  0  0  0  0  0
  -27.0337  -30.2987   24.6162 C   0  0  0  0  0  0
  -27.6055  -32.4308   25.7483 C   0  0  0  0  0  0
  -27.5573  -37.1798   24.8464 C   0  0  0  0  0  0
  -21.4217  -29.3029   22.3657 N   0  0  0  0  0  0
  -26.4279  -37.3769   23.9417 N   0  0  0  0  0  0
  -24.6955  -31.0543   22.0937 N   0  0  0  0  0  0
  -23.4213  -28.8142   23.3000 O   0  0  0  0  0  0
  -28.2983  -26.3637   20.1672 O   0  0  0  0  0  0
  -26.5626  -34.8907   22.4663 O   0  0  0  0  0  0
  -23.5457  -32.1354   23.7285 O   0  0  0  0  0  0
  -28.6258  -19.4114   21.0755 C   0  0  0  0  0  0
  -30.9710  -18.0195   20.4046 C   0  0  0  0  0  0
  -29.7832  -20.2062   20.8748 C   0  0  0  0  0  0
  -30.9656  -19.4559   20.4967 C   0  0  0  0  0  0
  -29.8234  -17.2335   20.6966 C   0  0  0  0  0  0
  -28.6482  -17.9826   20.9892 C   0  0  0  0  0  0
  -28.6852  -23.6491   20.4394 C   0  0  0  0  0  0
  -29.8747  -21.6494   21.4661 C   0  0  0  0  0  0
  -28.0035  -25.0519   20.8330 C   0  0  0  0  0  0
  -29.3683  -22.9542   21.3109 N   0  0  0  0  0  0
  -32.2023  -20.0936   20.2939 N   0  0  0  0  0  0
  -29.7430  -15.7561   20.7575 N   0  0  0  0  0  0
  -30.6226  -21.6515   22.5222 N   0  3  0  0  0  0
  -27.5086  -17.2930   21.2459 F   0  0  0  0  0  0
  -31.4831  -12.5743   19.1445 H   0  0  0  0  0  0
  -30.4035  -11.4402   19.9071 H   0  0  0  0  0  0
  -29.7829  -11.7526   17.4914 H   0  0  0  0  0  0
  -29.6411  -13.4754   17.7288 H   0  0  0  0  0  0
  -27.8774  -11.2894   18.8784 H   0  0  0  0  0  0
  -27.3784  -12.5626   17.7962 H   0  0  0  0  0  0
  -27.6593  -14.2522   19.5113 H   0  0  0  0  0  0
  -28.7287  -12.0768   21.3761 H   0  0  0  0  0  0
  -28.4417  -13.7292   21.8406 H   0  0  0  0  0  0
  -25.2761   -9.5679   22.4745 H   0  0  0  0  0  0
  -23.9998   -7.4635   22.7472 H   0  0  0  0  0  0
  -21.0834   -8.8764   19.8955 H   0  0  0  0  0  0
  -22.3690  -10.9659   19.6154 H   0  0  0  0  0  0
  -21.2010   -7.6145   23.9717 H   0  0  0  0  0  0
  -21.1468   -6.0519   25.9078 H   0  0  0  0  0  0
  -22.0605   -2.7610   23.2851 H   0  0  0  0  0  0
  -22.4106  -11.9864   22.4777 H   0  0  0  0  0  0
  -21.1112  -13.1235   22.2603 H   0  0  0  0  0  0
  -24.6641  -15.8399   20.5787 H   0  0  0  0  0  0
  -26.2941  -15.6535   20.1944 H   0  0  0  0  0  0
  -26.7193  -32.5433   23.1068 H   0  0  0  0  0  0
  -25.0070  -33.9692   25.0402 H   0  0  0  0  0  0
  -22.7235  -31.2989   21.3942 H   0  0  0  0  0  0
  -23.3746  -35.9611   23.3304 H   0  0  0  0  0  0
  -24.3577  -36.8894   22.2050 H   0  0  0  0  0  0
  -23.7240  -37.6477   23.6657 H   0  0  0  0  0  0
  -26.1076  -31.5367   20.6042 H   0  0  0  0  0  0
  -26.8509  -30.8285   22.0054 H   0  0  0  0  0  0
  -28.1283  -28.9438   21.2054 H   0  0  0  0  0  0
  -25.9984  -25.9142   18.9947 H   0  0  0  0  0  0
  -23.9837  -27.3101   18.9893 H   0  0  0  0  0  0
  -23.7679  -30.5855   19.3993 H   0  0  0  0  0  0
  -22.7665  -29.2416   19.8544 H   0  0  0  0  0  0
  -25.1302  -36.1902   25.0819 H   0  0  0  0  0  0
  -21.0005  -28.3265   24.1396 H   0  0  0  0  0  0
  -20.5696  -26.2297   23.3615 H   0  0  0  0  0  0
  -21.6656  -26.7448   22.1200 H   0  0  0  0  0  0
  -19.6908  -25.6312   21.1244 H   0  0  0  0  0  0
  -19.6693  -27.3213   20.6751 H   0  0  0  0  0  0
  -17.4212  -26.6699   21.4021 H   0  0  0  0  0  0
  -18.0324  -26.0087   22.9034 H   0  0  0  0  0  0
  -19.7942  -30.7303   24.2246 H   0  0  0  0  0  0
  -17.5017  -31.6272   24.5177 H   0  0  0  0  0  0
  -15.5360  -30.2997   23.7663 H   0  0  0  0  0  0
  -15.8685  -28.0836   22.7070 H   0  0  0  0  0  0
  -24.5912  -30.7054   25.7759 H   0  0  0  0  0  0
  -24.8905  -32.2890   26.4820 H   0  0  0  0  0  0
  -25.8060  -30.8925   27.0212 H   0  0  0  0  0  0
  -26.2903  -29.6737   24.1193 H   0  0  0  0  0  0
  -27.4033  -29.7245   25.4667 H   0  0  0  0  0  0
  -27.8783  -30.4259   23.9385 H   0  0  0  0  0  0
  -27.2657  -33.3614   26.2034 H   0  0  0  0  0  0
  -28.3883  -32.6850   25.0327 H   0  0  0  0  0  0
  -28.0685  -31.8433   26.5419 H   0  0  0  0  0  0
  -28.2598  -38.0093   24.7525 H   0  0  0  0  0  0
  -28.1073  -36.2629   24.6287 H   0  0  0  0  0  0
  -27.2297  -37.1440   25.8869 H   0  0  0  0  0  0
  -20.9394  -29.8739   21.6858 H   0  0  0  0  0  0
  -26.0157  -38.2840   24.1429 H   0  0  0  0  0  0
  -27.7218  -19.8960   21.4055 H   0  0  0  0  0  0
  -31.8930  -17.5116   20.1635 H   0  0  0  0  0  0
  -28.4736  -23.2910   19.4280 H   0  0  0  0  0  0
  -28.2282  -25.2197   21.8867 H   0  0  0  0  0  0
  -26.9307  -24.8625   20.8272 H   0  0  0  0  0  0
  -32.1746  -21.1002   20.1595 H   0  0  0  0  0  0
  -32.8731  -19.6379   19.6851 H   0  0  0  0  0  0
  -28.8254  -15.4316   21.0231 H   0  0  0  0  0  0
  -31.1367  -20.8289   22.8328 H   0  0  0  0  0  0
  -30.7812  -22.4926   23.0674 H   0  0  0  0  0  0
  1 25  1  0  0  0
  1 30  2  0  0  0
  1 82  1  0  0  0
  2  3  1  0  0  0
  2 25  1  0  0  0
  2 85  1  0  0  0
  2 86  1  0  0  0
  3  4  1  0  0  0
  3 87  1  0  0  0
  3 88  1  0  0  0
  4  5  1  0  0  0
  4 89  1  0  0  0
  4 90  1  0  0  0
  5  6  1  0  0  0
  5 26  1  0  0  0
  5 91  1  0  0  0
  6 25  1  0  0  0
  6 92  1  0  0  0
  6 93  1  0  0  0
  7  8  2  0  0  0
  7 26  1  0  0  0
  7 29  1  0  0  0
  8  9  1  0  0  0
  8 22  1  0  0  0
  9 10  1  0  0  0
  9 27  2  0  0  0
 10 11  2  0  0  0
 10 15  1  0  0  0
 11 12  1  0  0  0
 11 94  1  0  0  0
 12 13  2  0  0  0
 12 95  1  0  0  0
 13 14  1  0  0  0
 13 31  1  0  0  0
 14 15  2  0  0  0
 14 96  1  0  0  0
 15 97  1  0  0  0
 16 17  2  0  0  0
 16 21  1  0  0  0
 16 31  1  0  0  0
 17 18  1  0  0  0
 17 98  1  0  0  0
 18 19  2  0  0  0
 18 99  1  0  0  0
 19 20  1  0  0  0
 19 24  1  0  0  0
 20 21  2  0  0  0
 20100  1  0  0  0
 21 23  1  0  0  0
 22 28  1  0  0  0
 22 32  2  0  0  0
 26 27  1  0  0  0
 28101  1  0  0  0
 28102  1  0  0  0
 29103  1  0  0  0
 29104  1  0  0  0
 33 34  1  0  0  0
 33 66  1  0  0  0
 33 70  2  0  0  0
 34 36  1  0  0  0
 34 59  1  0  0  0
 34105  1  0  0  0
 35 44  2  0  0  0
 35 45  1  0  0  0
 35 68  1  0  0  0
 36 56  1  0  0  0
 36106  1  0  0  0
 37 39  1  0  0  0
 37 47  1  0  0  0
 37 66  1  0  0  0
 37107  1  0  0  0
 38 43  2  0  0  0
 38 46  1  0  0  0
 38 47  1  0  0  0
 39 64  1  0  0  0
 39 67  2  0  0  0
 40 52  1  0  0  0
 40 53  2  0  0  0
 40 58  1  0  0  0
 41108  1  0  0  0
 41109  1  0  0  0
 41110  1  0  0  0
 41 48  1  0  0  0
 42 43  1  0  0  0
 42 66  1  0  0  0
 42111  1  0  0  0
 42112  1  0  0  0
 43 44  1  0  0  0
 44113  1  0  0  0
 45 46  2  0  0  0
 45114  1  0  0  0
 46115  1  0  0  0
 47116  1  0  0  0
 47117  1  0  0  0
 48 56  1  0  0  0
 48 65  1  0  0  0
 48118  1  0  0  0
 49 50  1  0  0  0
 49 53  1  0  0  0
 49 64  1  0  0  0
 49119  1  0  0  0
 50 51  1  0  0  0
 50120  1  0  0  0
 50121  1  0  0  0
 51 52  1  0  0  0
 51122  1  0  0  0
 51123  1  0  0  0
 52124  1  0  0  0
 52125  1  0  0  0
 53 54  1  0  0  0
 54 55  2  0  0  0
 54126  1  0  0  0
 55 57  1  0  0  0
 55127  1  0  0  0
 56 69  2  0  0  0
 57 58  2  0  0  0
 57128  1  0  0  0
 58129  1  0  0  0
 59 60  1  0  0  0
 59 61  1  0  0  0
 59 62  1  0  0  0
 60130  1  0  0  0
 60131  1  0  0  0
 60132  1  0  0  0
 61133  1  0  0  0
 61134  1  0  0  0
 61135  1  0  0  0
 62136  1  0  0  0
 62137  1  0  0  0
 62138  1  0  0  0
 63 65  1  0  0  0
 63139  1  0  0  0
 63140  1  0  0  0
 63141  1  0  0  0
 64142  1  0  0  0
 65143  1  0  0  0
 68 79  1  0  0  0
 71 73  2  0  0  0
 71 76  1  0  0  0
 71144  1  0  0  0
 72 74  2  0  0  0
 72 75  1  0  0  0
 72145  1  0  0  0
 73 74  1  0  0  0
 73 78  1  0  0  0
 74 81  1  0  0  0
 75 76  2  0  0  0
 75 82  1  0  0  0
 76 84  1  0  0  0
 77 79  1  0  0  0
 77 80  2  0  0  0
 77146  1  0  0  0
 78 80  1  0  0  0
 78 83  2  0  0  0
 79147  1  0  0  0
 79148  1  0  0  0
 81149  1  0  0  0
 81150  1  0  0  0
 82151  1  0  0  0
 83152  1  0  0  0
 83153  1  0  0  0
M  CHG  1  83   1
M  ISO  4   1 100  68 101  79 101  82 100
M  END
> <chiral flag>
0

> <version>
0

> <s_m_source_file>
/data/baiqing/PycharmProjects/Reinvent-master-3.2/result/LINK_invent/BTK/process_docking_weight1_custom_product_contain_oxygen_bond_distance_aromatic_linkinvent_7_9_3/rearranged_h_0070.sdf

> <i_m_source_file_index>
49

> <r_mmod_Potential_Energy-OPLS-2005>
318.889770507812

> <r_mmod_Stretch_Energy-OPLS-2005>
120.341575622559

> <r_mmod_Bend_Energy-OPLS-2005>
249.948577880859

> <r_mmod_Torsional_Energy-OPLS-2005>
273.392730712891

> <r_mmod_Improper_Torsional_Energy-OPLS-2005>
13.7758378982544

> <r_mmod_Van_der_Waal_Energy-OPLS-2005>
139.408721923828

> <r_mmod_Electrostatic_Energy-OPLS-2005>
-80.7379531860352

> <r_mmod_Solvation_Energy-OPLS-2005>
-470.391174316406

> <b_mmod_Minimization_Converged-OPLS-2005>
0

> <r_mmod_RMS_Derivative-OPLS-2005>
1.63209521770477

$$$$
49
                    3D
 Structure written by MMmdl.
145153  0  0  1  0            999 V2000
  -30.2598  -15.7449   20.3192 C   0  0  0  0  0  0
  -30.4154  -13.1620   19.5470 C   0  0  0  0  0  0
  -29.5548  -12.6848   18.3387 C   0  0  0  0  0  0
  -28.1368  -12.3035   18.7855 C   0  0  0  0  0  0
  -27.5917  -13.3191   19.8129 C   0  0  2  0  0  0
  -28.5987  -13.6986   20.9273 C   0  0  0  0  0  0
  -25.2300  -13.8300   20.5810 C   0  0  0  0  0  0
  -24.1701  -13.0434   20.9296 C   0  0  0  0  0  0
  -24.6419  -11.6950   20.8764 C   0  0  0  0  0  0
  -23.9125  -10.4293   21.0394 C   0  0  0  0  0  0
  -24.3658   -9.4206   21.9178 C   0  0  0  0  0  0
  -23.6316   -8.2248   22.0753 C   0  0  0  0  0  0
  -22.4296   -8.0289   21.3544 C   0  0  0  0  0  0
  -21.9945   -9.0264   20.4642 C   0  0  0  0  0  0
  -22.7290  -10.2134   20.3047 C   0  0  0  0  0  0
  -21.6860   -6.0742   22.5279 C   0  0  0  0  0  0
  -21.4019   -6.5644   23.8213 C   0  0  0  0  0  0
  -21.3661   -5.6795   24.9174 C   0  0  0  0  0  0
  -21.6044   -4.3057   24.7223 C   0  0  0  0  0  0
  -21.8818   -3.8151   23.4344 C   0  0  0  0  0  0
  -21.9195   -4.6969   22.3401 C   0  0  0  0  0  0
  -22.7711  -13.5155   21.1927 C   0  0  0  0  0  0
  -22.1662   -4.2154   21.0978 F   0  0  0  0  0  0
  -21.5627   -3.4540   25.7735 F   0  0  0  0  0  0
  -29.7566  -14.3559   20.2679 N   0  0  0  0  0  0
  -26.2760  -12.9652   20.3250 N   0  0  0  0  0  0
  -25.9370  -11.6710   20.5697 N   0  0  0  0  0  0
  -22.0381  -12.8128   22.0478 N   0  0  0  0  0  0
  -25.3876  -15.2044   20.4253 N   0  0  0  0  0  0
  -31.4950  -15.6667   20.1533 O   0  0  0  0  0  0
  -21.6650   -6.8890   21.4243 O   0  0  0  0  0  0
  -22.3383  -14.5452   20.6762 O   0  0  0  0  0  0
  -24.6909  -31.7898   23.1445 C   0  0  0  0  0  0
  -25.9453  -32.4414   23.8020 C   0  0  1  0  0  0
  -27.2296  -26.6129   20.2282 C   0  0  0  0  0  0
  -25.6000  -33.8246   24.1898 N   0  0  0  0  0  0
  -23.5212  -30.3869   21.4998 C   0  0  2  0  0  0
  -24.9796  -28.7066   20.1217 C   0  0  0  0  0  0
  -22.7797  -29.4258   22.4688 C   0  0  0  0  0  0
  -18.0342  -28.1426   22.8451 C   0  0  0  0  0  0
  -24.1495  -36.7130   23.2654 C   0  0  0  0  0  0
  -26.1041  -30.4908   21.4252 C   0  0  0  0  0  0
  -26.1663  -29.0440   20.7820 C   0  0  0  0  0  0
  -27.2680  -28.0252   20.8053 C   0  0  0  0  0  0
  -26.0142  -26.5101   19.4989 C   0  0  0  0  0  0
  -24.9468  -27.4660   19.4578 C   0  0  0  0  0  0
  -23.7805  -29.6737   20.1393 C   0  0  0  0  0  0
  -25.4149  -36.2865   24.0275 C   0  0  1  0  0  0
  -20.5980  -28.3788   23.1128 C   0  0  2  0  0  0
  -20.6803  -26.9439   22.5407 C   0  0  0  0  0  0
  -19.5781  -26.6368   21.5218 C   0  0  0  0  0  0
  -18.1964  -26.7952   22.1618 C   0  0  0  0  0  0
  -19.1610  -28.8933   23.2768 C   0  0  0  0  0  0
  -18.9515  -30.1515   23.8817 C   0  0  0  0  0  0
  -17.6504  -30.6606   24.0549 C   0  0  0  0  0  0
  -25.9135  -34.9257   23.4931 C   0  0  0  0  0  0
  -16.5393  -29.9086   23.6352 C   0  0  0  0  0  0
  -16.7322  -28.6509   23.0369 C   0  0  0  0  0  0
  -26.4607  -31.6489   25.0681 C   0  0  0  0  0  0
  -25.3651  -31.3833   26.1280 C   0  0  0  0  0  0
  -27.0556  -30.2816   24.6651 C   0  0  0  0  0  0
  -27.6038  -32.4374   25.7503 C   0  0  0  0  0  0
  -27.5562  -37.1719   24.8464 C   0  0  0  0  0  0
  -21.4437  -29.3017   22.3437 N   0  0  0  0  0  0
  -26.4266  -37.3637   23.9410 N   0  0  0  0  0  0
  -24.7963  -30.9253   22.0751 N   0  0  0  0  0  0
  -23.4201  -28.7876   23.3075 O   0  0  0  0  0  0
  -28.2147  -25.3803   20.2731 O   0  0  0  0  0  0
  -26.5789  -34.8852   22.4558 O   0  0  0  0  0  0
  -23.5911  -32.1019   23.6343 O   0  0  0  0  0  0
  -30.1643  -22.3071   20.6409 C   0  0  0  0  0  0
  -30.9445  -21.2048   20.9333 C   0  0  0  0  0  0
  -28.7099  -22.3417   20.3164 C   0  0  0  0  0  0
  -30.6894  -19.6496   21.0882 C   0  0  0  0  0  0
  -28.4200  -20.4752   20.2065 C   0  0  0  0  0  0
  -29.5823  -18.9621   20.2279 C   0  0  2  0  0  0
  -27.9205  -23.6283   20.1904 N   0  0  0  0  0  0
  -29.4968  -17.1386   20.3729 N   0  0  0  0  0  0
  -31.4012  -13.4380   19.1716 H   0  0  0  0  0  0
  -30.6016  -12.3379   20.2379 H   0  0  0  0  0  0
  -30.0321  -11.8428   17.8357 H   0  0  0  0  0  0
  -29.4974  -13.4893   17.6039 H   0  0  0  0  0  0
  -28.1838  -11.3145   19.2431 H   0  0  0  0  0  0
  -27.4691  -12.2172   17.9273 H   0  0  0  0  0  0
  -27.4399  -14.2258   19.2253 H   0  0  0  0  0  0
  -28.8830  -12.8353   21.5309 H   0  0  0  0  0  0
  -28.1426  -14.4133   21.6140 H   0  0  0  0  0  0
  -25.2796   -9.5680   22.4764 H   0  0  0  0  0  0
  -24.0016   -7.4641   22.7479 H   0  0  0  0  0  0
  -21.0874   -8.8793   19.8949 H   0  0  0  0  0  0
  -22.3748  -10.9676   19.6159 H   0  0  0  0  0  0
  -21.2015   -7.6152   23.9718 H   0  0  0  0  0  0
  -21.1483   -6.0524   25.9077 H   0  0  0  0  0  0
  -22.0595   -2.7613   23.2843 H   0  0  0  0  0  0
  -22.4029  -11.9806   22.4873 H   0  0  0  0  0  0
  -21.0985  -13.1115   22.2677 H   0  0  0  0  0  0
  -24.6140  -15.8508   20.5370 H   0  0  0  0  0  0
  -26.2259  -15.6471   20.0735 H   0  0  0  0  0  0
  -26.7540  -32.4863   23.0733 H   0  0  0  0  0  0
  -25.0042  -33.9270   24.9981 H   0  0  0  0  0  0
  -22.8515  -31.2263   21.3016 H   0  0  0  0  0  0
  -23.3782  -35.9433   23.3248 H   0  0  0  0  0  0
  -24.3562  -36.8867   22.2082 H   0  0  0  0  0  0
  -23.7229  -37.6276   23.6784 H   0  0  0  0  0  0
  -26.3168  -31.2068   20.6303 H   0  0  0  0  0  0
  -26.9519  -30.5637   22.0937 H   0  0  0  0  0  0
  -28.1614  -28.2934   21.3511 H   0  0  0  0  0  0
  -25.8466  -25.5787   18.9769 H   0  0  0  0  0  0
  -24.0555  -27.1993   18.9066 H   0  0  0  0  0  0
  -23.9637  -30.4290   19.3742 H   0  0  0  0  0  0
  -22.8835  -29.1445   19.8133 H   0  0  0  0  0  0
  -25.1362  -36.1613   25.0764 H   0  0  0  0  0  0
  -21.0060  -28.3420   24.1256 H   0  0  0  0  0  0
  -20.5656  -26.2415   23.3677 H   0  0  0  0  0  0
  -21.6664  -26.7367   22.1232 H   0  0  0  0  0  0
  -19.6935  -25.6257   21.1300 H   0  0  0  0  0  0
  -19.6728  -27.3134   20.6713 H   0  0  0  0  0  0
  -17.4234  -26.6696   21.4020 H   0  0  0  0  0  0
  -18.0348  -26.0113   22.9032 H   0  0  0  0  0  0
  -19.7990  -30.7351   24.2152 H   0  0  0  0  0  0
  -17.5054  -31.6278   24.5167 H   0  0  0  0  0  0
  -15.5389  -30.2963   23.7722 H   0  0  0  0  0  0
  -15.8723  -28.0800   22.7130 H   0  0  0  0  0  0
  -24.5867  -30.7150   25.7579 H   0  0  0  0  0  0
  -24.8807  -32.3062   26.4476 H   0  0  0  0  0  0
  -25.7808  -30.9147   27.0209 H   0  0  0  0  0  0
  -26.3291  -29.6399   24.1657 H   0  0  0  0  0  0
  -27.3957  -29.7303   25.5428 H   0  0  0  0  0  0
  -27.9282  -30.3918   24.0211 H   0  0  0  0  0  0
  -27.2566  -33.3757   26.1841 H   0  0  0  0  0  0
  -28.3970  -32.6804   25.0419 H   0  0  0  0  0  0
  -28.0574  -31.8666   26.5617 H   0  0  0  0  0  0
  -28.2534  -38.0057   24.7526 H   0  0  0  0  0  0
  -28.1104  -36.2579   24.6274 H   0  0  0  0  0  0
  -27.2279  -37.1330   25.8866 H   0  0  0  0  0  0
  -20.9763  -29.8656   21.6475 H   0  0  0  0  0  0
  -26.0084  -38.2678   24.1434 H   0  0  0  0  0  0
  -30.6243  -23.2848   20.6402 H   0  0  0  0  0  0
  -31.9723  -21.4503   21.1620 H   0  0  0  0  0  0
  -30.4877  -19.4627   22.1434 H   0  0  0  0  0  0
  -31.6356  -19.1482   20.8802 H   0  0  0  0  0  0
  -27.7979  -20.3441   19.3216 H   0  0  0  0  0  0
  -27.7297  -20.2838   21.0277 H   0  0  0  0  0  0
  -29.9790  -19.0100   19.2129 H   0  0  0  0  0  0
  -28.5233  -16.8967   20.4969 H   0  0  0  0  0  0
  1 25  1  0  0  0
  1 30  2  0  0  0
  1 78  1  0  0  0
  2  3  1  0  0  0
  2 25  1  0  0  0
  2 79  1  0  0  0
  2 80  1  0  0  0
  3  4  1  0  0  0
  3 81  1  0  0  0
  3 82  1  0  0  0
  4  5  1  0  0  0
  4 83  1  0  0  0
  4 84  1  0  0  0
  5  6  1  0  0  0
  5 26  1  0  0  0
  5 85  1  0  0  0
  6 25  1  0  0  0
  6 86  1  0  0  0
  6 87  1  0  0  0
  7  8  2  0  0  0
  7 26  1  0  0  0
  7 29  1  0  0  0
  8  9  1  0  0  0
  8 22  1  0  0  0
  9 10  1  0  0  0
  9 27  2  0  0  0
 10 11  2  0  0  0
 10 15  1  0  0  0
 11 12  1  0  0  0
 11 88  1  0  0  0
 12 13  2  0  0  0
 12 89  1  0  0  0
 13 14  1  0  0  0
 13 31  1  0  0  0
 14 15  2  0  0  0
 14 90  1  0  0  0
 15 91  1  0  0  0
 16 17  2  0  0  0
 16 21  1  0  0  0
 16 31  1  0  0  0
 17 18  1  0  0  0
 17 92  1  0  0  0
 18 19  2  0  0  0
 18 93  1  0  0  0
 19 20  1  0  0  0
 19 24  1  0  0  0
 20 21  2  0  0  0
 20 94  1  0  0  0
 21 23  1  0  0  0
 22 28  1  0  0  0
 22 32  2  0  0  0
 26 27  1  0  0  0
 28 95  1  0  0  0
 28 96  1  0  0  0
 29 97  1  0  0  0
 29 98  1  0  0  0
 33 34  1  0  0  0
 33 66  1  0  0  0
 33 70  2  0  0  0
 34 36  1  0  0  0
 34 59  1  0  0  0
 34 99  1  0  0  0
 35 44  2  0  0  0
 35 45  1  0  0  0
 35 68  1  0  0  0
 36 56  1  0  0  0
 36100  1  0  0  0
 37 39  1  0  0  0
 37 47  1  0  0  0
 37 66  1  0  0  0
 37101  1  0  0  0
 38 43  2  0  0  0
 38 46  1  0  0  0
 38 47  1  0  0  0
 39 64  1  0  0  0
 39 67  2  0  0  0
 40 52  1  0  0  0
 40 53  2  0  0  0
 40 58  1  0  0  0
 41102  1  0  0  0
 41103  1  0  0  0
 41104  1  0  0  0
 41 48  1  0  0  0
 42 43  1  0  0  0
 42 66  1  0  0  0
 42105  1  0  0  0
 42106  1  0  0  0
 43 44  1  0  0  0
 44107  1  0  0  0
 45 46  2  0  0  0
 45108  1  0  0  0
 46109  1  0  0  0
 47110  1  0  0  0
 47111  1  0  0  0
 48 56  1  0  0  0
 48 65  1  0  0  0
 48112  1  0  0  0
 49 50  1  0  0  0
 49 53  1  0  0  0
 49 64  1  0  0  0
 49113  1  0  0  0
 50 51  1  0  0  0
 50114  1  0  0  0
 50115  1  0  0  0
 51 52  1  0  0  0
 51116  1  0  0  0
 51117  1  0  0  0
 52118  1  0  0  0
 52119  1  0  0  0
 53 54  1  0  0  0
 54 55  2  0  0  0
 54120  1  0  0  0
 55 57  1  0  0  0
 55121  1  0  0  0
 56 69  2  0  0  0
 57 58  2  0  0  0
 57122  1  0  0  0
 58123  1  0  0  0
 59 60  1  0  0  0
 59 61  1  0  0  0
 59 62  1  0  0  0
 60124  1  0  0  0
 60125  1  0  0  0
 60126  1  0  0  0
 61127  1  0  0  0
 61128  1  0  0  0
 61129  1  0  0  0
 62130  1  0  0  0
 62131  1  0  0  0
 62132  1  0  0  0
 63 65  1  0  0  0
 63133  1  0  0  0
 63134  1  0  0  0
 63135  1  0  0  0
 64136  1  0  0  0
 65137  1  0  0  0
 68 77  1  0  0  0
 71 72  2  0  0  0
 71 73  1  0  0  0
 71138  1  0  0  0
 72 74  1  0  0  0
 72139  1  0  0  0
 73 75  1  0  0  0
 73 77  2  0  0  0
 74 76  1  0  0  0
 74140  1  0  0  0
 74141  1  0  0  0
 75 76  1  0  0  0
 75142  1  0  0  0
 75143  1  0  0  0
 76 78  1  0  0  0
 76144  1  0  0  0
 78145  1  0  0  0
M  ISO  4   1 100  68 101  77 101  78 100
M  END
> <chiral flag>
0

> <version>
0

> <s_m_source_file>
/data/baiqing/PycharmProjects/Reinvent-master-3.2/result/LINK_invent/BTK/process_docking_weight1_custom_product_contain_oxygen_bond_distance_aromatic_linkinvent_7_9_3/rearranged_h_0070.sdf

> <i_m_source_file_index>
50

> <r_mmod_Potential_Energy-OPLS-2005>
2790.27709960938

> <r_mmod_Stretch_Energy-OPLS-2005>
1256.33288574219

> <r_mmod_Bend_Energy-OPLS-2005>
709.548645019531

> <r_mmod_Torsional_Energy-OPLS-2005>
205.369049072266

> <r_mmod_Improper_Torsional_Energy-OPLS-2005>
3.6652352809906

> <r_mmod_Van_der_Waal_Energy-OPLS-2005>
117.178756713867

> <r_mmod_Electrostatic_Energy-OPLS-2005>
-345.847564697266

> <r_mmod_Solvation_Energy-OPLS-2005>
-230.84260559082

> <b_mmod_Minimization_Converged-OPLS-2005>
1

> <r_mmod_RMS_Derivative-OPLS-2005>
0.0475938208401203

$$$$
50
                    3D
 Structure written by MMmdl.
156164  0  0  1  0            999 V2000
  -30.6299  -14.6598   20.4549 C   0  0  0  0  0  0
  -30.4436  -12.4008   19.4403 C   0  0  0  0  0  0
  -29.5084  -12.5009   18.2144 C   0  0  0  0  0  0
  -28.0322  -12.3353   18.6265 C   0  0  0  0  0  0
  -27.6538  -13.2130   19.8481 C   0  0  2  0  0  0
  -28.7039  -13.1007   20.9779 C   0  0  0  0  0  0
  -25.2563  -13.8161   20.5584 C   0  0  0  0  0  0
  -24.1853  -13.0441   20.9197 C   0  0  0  0  0  0
  -24.6429  -11.6909   20.8743 C   0  0  0  0  0  0
  -23.9096  -10.4295   21.0409 C   0  0  0  0  0  0
  -24.3643   -9.4205   21.9179 C   0  0  0  0  0  0
  -23.6312   -8.2247   22.0751 C   0  0  0  0  0  0
  -22.4294   -8.0283   21.3532 C   0  0  0  0  0  0
  -21.9924   -9.0270   20.4645 C   0  0  0  0  0  0
  -22.7263  -10.2151   20.3054 C   0  0  0  0  0  0
  -21.6853   -6.0742   22.5276 C   0  0  0  0  0  0
  -21.4017   -6.5641   23.8216 C   0  0  0  0  0  0
  -21.3648   -5.6789   24.9166 C   0  0  0  0  0  0
  -21.6048   -4.3060   24.7215 C   0  0  0  0  0  0
  -21.8814   -3.8148   23.4337 C   0  0  0  0  0  0
  -21.9199   -4.6966   22.3394 C   0  0  0  0  0  0
  -22.7873  -13.5234   21.1848 C   0  0  0  0  0  0
  -22.1654   -4.2150   21.0978 F   0  0  0  0  0  0
  -21.5636   -3.4542   25.7734 F   0  0  0  0  0  0
  -30.0172  -13.4343   20.4033 N   0  0  0  0  0  0
  -26.3004  -12.9337   20.3237 N   0  0  0  0  0  0
  -25.9359  -11.6500   20.5749 N   0  0  0  0  0  0
  -22.0507  -12.8236   22.0397 N   0  0  0  0  0  0
  -25.4221  -15.1877   20.3823 N   0  0  0  0  0  0
  -31.8137  -14.7858   20.1418 O   0  0  0  0  0  0
  -21.6633   -6.8892   21.4241 O   0  0  0  0  0  0
  -22.3550  -14.5515   20.6669 O   0  0  0  0  0  0
  -24.6271  -31.8600   23.2010 C   0  0  0  0  0  0
  -25.9130  -32.4775   23.8334 C   0  0  1  0  0  0
  -27.2185  -27.3114   20.1308 C   0  0  0  0  0  0
  -25.5946  -33.8578   24.2252 N   0  0  0  0  0  0
  -23.4186  -30.4839   21.5415 C   0  0  2  0  0  0
  -24.8634  -28.9314   20.1134 C   0  0  0  0  0  0
  -22.7461  -29.4661   22.4931 C   0  0  0  0  0  0
  -18.0291  -28.1411   22.8511 C   0  0  0  0  0  0
  -24.1486  -36.7267   23.2641 C   0  0  0  0  0  0
  -25.9603  -30.7876   21.3722 C   0  0  0  0  0  0
  -26.0301  -29.4119   20.7200 C   0  0  0  0  0  0
  -27.2110  -28.6138   20.7188 C   0  0  0  0  0  0
  -26.0392  -26.8894   19.4843 C   0  0  0  0  0  0
  -24.8678  -27.6748   19.4875 C   0  0  0  0  0  0
  -23.6338  -29.8154   20.1574 C   0  0  0  0  0  0
  -25.4119  -36.3080   24.0336 C   0  0  1  0  0  0
  -20.5893  -28.3713   23.1282 C   0  0  2  0  0  0
  -20.6794  -26.9431   22.5424 C   0  0  0  0  0  0
  -19.5765  -26.6402   21.5231 C   0  0  0  0  0  0
  -18.1944  -26.7963   22.1634 C   0  0  0  0  0  0
  -19.1550  -28.8879   23.2893 C   0  0  0  0  0  0
  -18.9483  -30.1487   23.8903 C   0  0  0  0  0  0
  -17.6484  -30.6617   24.0590 C   0  0  0  0  0  0
  -25.9070  -34.9457   23.5093 C   0  0  0  0  0  0
  -16.5372  -29.9129   23.6345 C   0  0  0  0  0  0
  -16.7276  -28.6541   23.0373 C   0  0  0  0  0  0
  -26.4523  -31.6606   25.0723 C   0  0  0  0  0  0
  -25.3747  -31.3774   26.1442 C   0  0  0  0  0  0
  -27.0366  -30.3032   24.6179 C   0  0  0  0  0  0
  -27.6052  -32.4368   25.7513 C   0  0  0  0  0  0
  -27.5574  -37.1802   24.8474 C   0  0  0  0  0  0
  -21.4180  -29.3056   22.3666 N   0  0  0  0  0  0
  -26.4278  -37.3796   23.9423 N   0  0  0  0  0  0
  -24.6865  -31.0638   22.0935 N   0  0  0  0  0  0
  -23.4180  -28.8200   23.3017 O   0  0  0  0  0  0
  -28.3499  -26.4801   20.1493 O   0  0  0  0  0  0
  -26.5628  -34.8931   22.4654 O   0  0  0  0  0  0
  -23.5435  -32.1391   23.7356 O   0  0  0  0  0  0
  -28.7668  -19.3935   20.9415 C   0  0  0  0  0  0
  -28.8139  -17.9683   21.0539 C   0  0  0  0  0  0
  -30.8682  -19.3369   19.7817 C   0  0  0  0  0  0
  -29.8045  -20.1235   20.3122 C   0  0  0  0  0  0
  -29.8842  -17.1779   20.5442 C   0  0  0  0  0  0
  -30.9131  -17.9109   19.8810 C   0  0  0  0  0  0
  -29.8579  -21.6391   20.2395 C   0  0  0  0  0  0
  -26.9945  -24.5957   21.2677 C   0  0  0  0  0  0
  -28.8060  -23.9562   19.5368 C   0  0  0  0  0  0
  -28.3002  -25.0483   20.5807 C   0  0  1  0  0  0
  -31.0344  -22.2138   20.4717 N   0  0  0  0  0  0
  -29.7962  -15.7196   20.7078 N   0  0  0  0  0  0
  -28.8192  -22.4838   19.9514 N   0  3  0  0  0  0
  -31.9630  -17.2771   19.3081 F   0  0  0  0  0  0
  -31.4816  -12.5292   19.1293 H   0  0  0  0  0  0
  -30.3861  -11.4112   19.8949 H   0  0  0  0  0  0
  -29.7786  -11.7477   17.4732 H   0  0  0  0  0  0
  -29.6412  -13.4676   17.7245 H   0  0  0  0  0  0
  -27.8693  -11.2820   18.8569 H   0  0  0  0  0  0
  -27.3809  -12.5624   17.7819 H   0  0  0  0  0  0
  -27.6641  -14.2405   19.4870 H   0  0  0  0  0  0
  -28.7246  -12.0949   21.3991 H   0  0  0  0  0  0
  -28.4494  -13.7668   21.8039 H   0  0  0  0  0  0
  -25.2800   -9.5673   22.4727 H   0  0  0  0  0  0
  -24.0025   -7.4627   22.7458 H   0  0  0  0  0  0
  -21.0862   -8.8793   19.8939 H   0  0  0  0  0  0
  -22.3734  -10.9686   19.6142 H   0  0  0  0  0  0
  -21.1999   -7.6153   23.9715 H   0  0  0  0  0  0
  -21.1470   -6.0522   25.9078 H   0  0  0  0  0  0
  -22.0606   -2.7617   23.2838 H   0  0  0  0  0  0
  -22.4145  -11.9947   22.4868 H   0  0  0  0  0  0
  -21.1088  -13.1203   22.2525 H   0  0  0  0  0  0
  -24.6242  -15.8118   20.4258 H   0  0  0  0  0  0
  -26.2090  -15.5963   19.8945 H   0  0  0  0  0  0
  -26.7205  -32.5447   23.1080 H   0  0  0  0  0  0
  -25.0133  -33.9715   25.0419 H   0  0  0  0  0  0
  -22.7128  -31.3057   21.3971 H   0  0  0  0  0  0
  -23.3764  -35.9589   23.3337 H   0  0  0  0  0  0
  -24.3557  -36.8842   22.2045 H   0  0  0  0  0  0
  -23.7242  -37.6485   23.6631 H   0  0  0  0  0  0
  -26.0960  -31.5468   20.6011 H   0  0  0  0  0  0
  -26.8415  -30.8365   22.0017 H   0  0  0  0  0  0
  -28.1063  -28.9813   21.1988 H   0  0  0  0  0  0
  -26.0185  -25.9359   18.9796 H   0  0  0  0  0  0
  -23.9755  -27.3027   19.0012 H   0  0  0  0  0  0
  -23.7605  -30.5913   19.4004 H   0  0  0  0  0  0
  -22.7532  -29.2484   19.8505 H   0  0  0  0  0  0
  -25.1313  -36.1905   25.0836 H   0  0  0  0  0  0
  -21.0018  -28.3327   24.1387 H   0  0  0  0  0  0
  -20.5737  -26.2328   23.3637 H   0  0  0  0  0  0
  -21.6667  -26.7489   22.1204 H   0  0  0  0  0  0
  -19.6929  -25.6311   21.1278 H   0  0  0  0  0  0
  -19.6721  -27.3213   20.6763 H   0  0  0  0  0  0
  -17.4232  -26.6734   21.4018 H   0  0  0  0  0  0
  -18.0317  -26.0089   22.9007 H   0  0  0  0  0  0
  -19.7958  -30.7314   24.2264 H   0  0  0  0  0  0
  -17.5044  -31.6297   24.5195 H   0  0  0  0  0  0
  -15.5384  -30.3050   23.7659 H   0  0  0  0  0  0
  -15.8671  -28.0871   22.7079 H   0  0  0  0  0  0
  -24.5888  -30.7155   25.7794 H   0  0  0  0  0  0
  -24.8987  -32.2968   26.4875 H   0  0  0  0  0  0
  -25.8077  -30.8962   27.0215 H   0  0  0  0  0  0
  -26.2938  -29.6789   24.1194 H   0  0  0  0  0  0
  -27.4039  -29.7285   25.4692 H   0  0  0  0  0  0
  -27.8836  -30.4343   23.9422 H   0  0  0  0  0  0
  -27.2608  -33.3625   26.2128 H   0  0  0  0  0  0
  -28.3862  -32.6986   25.0368 H   0  0  0  0  0  0
  -28.0721  -31.8481   26.5411 H   0  0  0  0  0  0
  -28.2624  -38.0072   24.7527 H   0  0  0  0  0  0
  -28.1031  -36.2609   24.6295 H   0  0  0  0  0  0
  -27.2282  -37.1464   25.8873 H   0  0  0  0  0  0
  -20.9347  -29.8738   21.6855 H   0  0  0  0  0  0
  -26.0141  -38.2864   24.1443 H   0  0  0  0  0  0
  -27.9267  -19.9240   21.3686 H   0  0  0  0  0  0
  -27.9938  -17.4763   21.5574 H   0  0  0  0  0  0
  -31.6863  -19.8328   19.2791 H   0  0  0  0  0  0
  -26.6200  -25.3362   21.9725 H   0  0  0  0  0  0
  -27.1652  -23.6852   21.8409 H   0  0  0  0  0  0
  -26.2063  -24.3641   20.5510 H   0  0  0  0  0  0
  -29.8024  -24.2315   19.1872 H   0  0  0  0  0  0
  -28.1760  -24.0209   18.6476 H   0  0  0  0  0  0
  -29.0424  -25.0286   21.3789 H   0  0  0  0  0  0
  -31.8073  -21.6373   20.7673 H   0  0  0  0  0  0
  -31.1309  -23.2090   20.5579 H   0  0  0  0  0  0
  -28.8862  -15.4038   20.9962 H   0  0  0  0  0  0
  -27.9249  -22.0232   19.8518 H   0  0  0  0  0  0
  1 25  1  0  0  0
  1 30  2  0  0  0
  1 82  1  0  0  0
  2  3  1  0  0  0
  2 25  1  0  0  0
  2 85  1  0  0  0
  2 86  1  0  0  0
  3  4  1  0  0  0
  3 87  1  0  0  0
  3 88  1  0  0  0
  4  5  1  0  0  0
  4 89  1  0  0  0
  4 90  1  0  0  0
  5  6  1  0  0  0
  5 26  1  0  0  0
  5 91  1  0  0  0
  6 25  1  0  0  0
  6 92  1  0  0  0
  6 93  1  0  0  0
  7  8  2  0  0  0
  7 26  1  0  0  0
  7 29  1  0  0  0
  8  9  1  0  0  0
  8 22  1  0  0  0
  9 10  1  0  0  0
  9 27  2  0  0  0
 10 11  2  0  0  0
 10 15  1  0  0  0
 11 12  1  0  0  0
 11 94  1  0  0  0
 12 13  2  0  0  0
 12 95  1  0  0  0
 13 14  1  0  0  0
 13 31  1  0  0  0
 14 15  2  0  0  0
 14 96  1  0  0  0
 15 97  1  0  0  0
 16 17  2  0  0  0
 16 21  1  0  0  0
 16 31  1  0  0  0
 17 18  1  0  0  0
 17 98  1  0  0  0
 18 19  2  0  0  0
 18 99  1  0  0  0
 19 20  1  0  0  0
 19 24  1  0  0  0
 20 21  2  0  0  0
 20100  1  0  0  0
 21 23  1  0  0  0
 22 28  1  0  0  0
 22 32  2  0  0  0
 26 27  1  0  0  0
 28101  1  0  0  0
 28102  1  0  0  0
 29103  1  0  0  0
 29104  1  0  0  0
 33 34  1  0  0  0
 33 66  1  0  0  0
 33 70  2  0  0  0
 34 36  1  0  0  0
 34 59  1  0  0  0
 34105  1  0  0  0
 35 44  2  0  0  0
 35 45  1  0  0  0
 35 68  1  0  0  0
 36 56  1  0  0  0
 36106  1  0  0  0
 37 39  1  0  0  0
 37 47  1  0  0  0
 37 66  1  0  0  0
 37107  1  0  0  0
 38 43  2  0  0  0
 38 46  1  0  0  0
 38 47  1  0  0  0
 39 64  1  0  0  0
 39 67  2  0  0  0
 40 52  1  0  0  0
 40 53  2  0  0  0
 40 58  1  0  0  0
 41108  1  0  0  0
 41109  1  0  0  0
 41110  1  0  0  0
 41 48  1  0  0  0
 42 43  1  0  0  0
 42 66  1  0  0  0
 42111  1  0  0  0
 42112  1  0  0  0
 43 44  1  0  0  0
 44113  1  0  0  0
 45 46  2  0  0  0
 45114  1  0  0  0
 46115  1  0  0  0
 47116  1  0  0  0
 47117  1  0  0  0
 48 56  1  0  0  0
 48 65  1  0  0  0
 48118  1  0  0  0
 49 50  1  0  0  0
 49 53  1  0  0  0
 49 64  1  0  0  0
 49119  1  0  0  0
 50 51  1  0  0  0
 50120  1  0  0  0
 50121  1  0  0  0
 51 52  1  0  0  0
 51122  1  0  0  0
 51123  1  0  0  0
 52124  1  0  0  0
 52125  1  0  0  0
 53 54  1  0  0  0
 54 55  2  0  0  0
 54126  1  0  0  0
 55 57  1  0  0  0
 55127  1  0  0  0
 56 69  2  0  0  0
 57 58  2  0  0  0
 57128  1  0  0  0
 58129  1  0  0  0
 59 60  1  0  0  0
 59 61  1  0  0  0
 59 62  1  0  0  0
 60130  1  0  0  0
 60131  1  0  0  0
 60132  1  0  0  0
 61133  1  0  0  0
 61134  1  0  0  0
 61135  1  0  0  0
 62136  1  0  0  0
 62137  1  0  0  0
 62138  1  0  0  0
 63 65  1  0  0  0
 63139  1  0  0  0
 63140  1  0  0  0
 63141  1  0  0  0
 64142  1  0  0  0
 65143  1  0  0  0
 68 80  1  0  0  0
 71 72  2  0  0  0
 71 74  1  0  0  0
 71144  1  0  0  0
 72 75  1  0  0  0
 72145  1  0  0  0
 73 74  2  0  0  0
 73 76  1  0  0  0
 73146  1  0  0  0
 74 77  1  0  0  0
 75 76  2  0  0  0
 75 82  1  0  0  0
 76 84  1  0  0  0
 77 81  1  0  0  0
 77 83  2  0  0  0
 78147  1  0  0  0
 78148  1  0  0  0
 78149  1  0  0  0
 78 80  1  0  0  0
 79 80  1  0  0  0
 79 83  1  0  0  0
 79150  1  0  0  0
 79151  1  0  0  0
 80152  1  0  0  0
 81153  1  0  0  0
 81154  1  0  0  0
 82155  1  0  0  0
 83156  1  0  0  0
M  CHG  1  83   1
M  ISO  4   1 100  68 101  80 101  82 100
M  END
> <chiral flag>
0

> <version>
0

> <s_m_source_file>
/data/baiqing/PycharmProjects/Reinvent-master-3.2/result/LINK_invent/BTK/process_docking_weight1_custom_product_contain_oxygen_bond_distance_aromatic_linkinvent_7_9_3/rearranged_h_0070.sdf

> <i_m_source_file_index>
51

> <r_mmod_Potential_Energy-OPLS-2005>
-228.232986450195

> <r_mmod_Stretch_Energy-OPLS-2005>
84.2971343994141

> <r_mmod_Bend_Energy-OPLS-2005>
158.383224487305

> <r_mmod_Torsional_Energy-OPLS-2005>
244.38720703125

> <r_mmod_Improper_Torsional_Energy-OPLS-2005>
5.8462610244751

> <r_mmod_Van_der_Waal_Energy-OPLS-2005>
144.307373046875

> <r_mmod_Electrostatic_Energy-OPLS-2005>
-483.278137207031

> <r_mmod_Solvation_Energy-OPLS-2005>
-435.502075195312

> <b_mmod_Minimization_Converged-OPLS-2005>
0

> <r_mmod_RMS_Derivative-OPLS-2005>
3.3498113155365

$$$$
51
                    3D
 Structure written by MMmdl.
150158  0  0  1  0            999 V2000
  -30.6073  -14.6759   20.4867 C   0  0  0  0  0  0
  -30.4404  -12.4121   19.4590 C   0  0  0  0  0  0
  -29.5105  -12.5076   18.2283 C   0  0  0  0  0  0
  -28.0337  -12.3402   18.6395 C   0  0  0  0  0  0
  -27.6509  -13.2181   19.8604 C   0  0  2  0  0  0
  -28.6959  -13.0919   20.9921 C   0  0  0  0  0  0
  -25.2554  -13.8172   20.5681 C   0  0  0  0  0  0
  -24.1826  -13.0437   20.9199 C   0  0  0  0  0  0
  -24.6395  -11.6908   20.8745 C   0  0  0  0  0  0
  -23.9063  -10.4291   21.0408 C   0  0  0  0  0  0
  -24.3615   -9.4206   21.9185 C   0  0  0  0  0  0
  -23.6290   -8.2242   22.0754 C   0  0  0  0  0  0
  -22.4273   -8.0281   21.3543 C   0  0  0  0  0  0
  -21.9907   -9.0255   20.4647 C   0  0  0  0  0  0
  -22.7236  -10.2135   20.3058 C   0  0  0  0  0  0
  -21.6853   -6.0735   22.5278 C   0  0  0  0  0  0
  -21.4015   -6.5639   23.8211 C   0  0  0  0  0  0
  -21.3659   -5.6791   24.9173 C   0  0  0  0  0  0
  -21.6043   -4.3053   24.7224 C   0  0  0  0  0  0
  -21.8820   -3.8145   23.4345 C   0  0  0  0  0  0
  -21.9193   -4.6962   22.3401 C   0  0  0  0  0  0
  -22.7849  -13.5230   21.1857 C   0  0  0  0  0  0
  -22.1661   -4.2148   21.0979 F   0  0  0  0  0  0
  -21.5627   -3.4538   25.7737 F   0  0  0  0  0  0
  -30.0073  -13.4424   20.4256 N   0  0  0  0  0  0
  -26.2977  -12.9352   20.3302 N   0  0  0  0  0  0
  -25.9324  -11.6509   20.5756 N   0  0  0  0  0  0
  -22.0488  -12.8226   22.0414 N   0  0  0  0  0  0
  -25.4263  -15.1894   20.4076 N   0  0  0  0  0  0
  -31.7782  -14.8259   20.1250 O   0  0  0  0  0  0
  -21.6639   -6.8878   21.4240 O   0  0  0  0  0  0
  -22.3536  -14.5535   20.6701 O   0  0  0  0  0  0
  -24.6278  -31.8584   23.2013 C   0  0  0  0  0  0
  -25.9118  -32.4771   23.8346 C   0  0  1  0  0  0
  -27.2231  -27.3016   20.1185 C   0  0  0  0  0  0
  -25.5926  -33.8572   24.2272 N   0  0  0  0  0  0
  -23.4223  -30.4822   21.5443 C   0  0  2  0  0  0
  -24.8687  -28.9356   20.1108 C   0  0  0  0  0  0
  -22.7483  -29.4618   22.4928 C   0  0  0  0  0  0
  -18.0288  -28.1385   22.8487 C   0  0  0  0  0  0
  -24.1489  -36.7292   23.2639 C   0  0  0  0  0  0
  -25.9654  -30.7840   21.3750 C   0  0  0  0  0  0
  -26.0392  -29.4105   20.7158 C   0  0  0  0  0  0
  -27.2195  -28.6060   20.7082 C   0  0  0  0  0  0
  -26.0274  -26.8846   19.4887 C   0  0  0  0  0  0
  -24.8660  -27.6790   19.4878 C   0  0  0  0  0  0
  -23.6378  -29.8177   20.1597 C   0  0  0  0  0  0
  -25.4114  -36.3079   24.0328 C   0  0  1  0  0  0
  -20.5890  -28.3691   23.1278 C   0  0  2  0  0  0
  -20.6777  -26.9413   22.5408 C   0  0  0  0  0  0
  -19.5750  -26.6383   21.5212 C   0  0  0  0  0  0
  -18.1932  -26.7926   22.1627 C   0  0  0  0  0  0
  -19.1541  -28.8855   23.2878 C   0  0  0  0  0  0
  -18.9463  -30.1456   23.8895 C   0  0  0  0  0  0
  -17.6462  -30.6587   24.0563 C   0  0  0  0  0  0
  -25.9052  -34.9448   23.5101 C   0  0  0  0  0  0
  -16.5354  -29.9085   23.6329 C   0  0  0  0  0  0
  -16.7275  -28.6502   23.0352 C   0  0  0  0  0  0
  -26.4496  -31.6586   25.0724 C   0  0  0  0  0  0
  -25.3725  -31.3732   26.1449 C   0  0  0  0  0  0
  -27.0342  -30.3007   24.6191 C   0  0  0  0  0  0
  -27.6050  -32.4327   25.7496 C   0  0  0  0  0  0
  -27.5580  -37.1800   24.8464 C   0  0  0  0  0  0
  -21.4194  -29.3044   22.3671 N   0  0  0  0  0  0
  -26.4291  -37.3774   23.9409 N   0  0  0  0  0  0
  -24.6908  -31.0583   22.0970 N   0  0  0  0  0  0
  -23.4200  -28.8156   23.3011 O   0  0  0  0  0  0
  -28.3348  -26.4395   20.1725 O   0  0  0  0  0  0
  -26.5623  -34.8918   22.4669 O   0  0  0  0  0  0
  -23.5437  -32.1389   23.7332 O   0  0  0  0  0  0
  -31.1099  -19.3271   20.2361 C   0  0  0  0  0  0
  -31.0704  -17.9001   20.2919 C   0  0  0  0  0  0
  -28.7697  -18.0345   20.9505 C   0  0  0  0  0  0
  -29.9949  -20.1667   20.5435 C   0  0  0  0  0  0
  -29.8960  -17.2003   20.6702 C   0  0  0  0  0  0
  -28.8079  -19.4686   20.8935 C   0  0  0  0  0  0
  -30.1958  -21.7061   20.6431 C   0  0  0  0  0  0
  -29.3162  -24.0311   20.4225 C   0  0  0  0  0  0
  -28.1042  -24.9693   20.0272 C   0  0  0  0  0  0
  -29.7797  -15.7339   20.7933 N   0  0  0  0  0  0
  -29.2164  -22.6442   20.3736 N   0  0  0  0  0  0
  -31.3438  -22.0519   20.9504 O   0  0  0  0  0  0
  -30.3494  -24.6164   20.7710 O   0  0  0  0  0  0
  -27.6910  -20.1689   21.2097 F   0  0  0  0  0  0
  -31.4808  -12.5426   19.1564 H   0  0  0  0  0  0
  -30.3827  -11.4208   19.9113 H   0  0  0  0  0  0
  -29.7808  -11.7502   17.4914 H   0  0  0  0  0  0
  -29.6471  -13.4731   17.7383 H   0  0  0  0  0  0
  -27.8761  -11.2879   18.8788 H   0  0  0  0  0  0
  -27.3790  -12.5603   17.7955 H   0  0  0  0  0  0
  -27.6625  -14.2496   19.5082 H   0  0  0  0  0  0
  -28.7156  -12.0745   21.3858 H   0  0  0  0  0  0
  -28.4373  -13.7328   21.8364 H   0  0  0  0  0  0
  -25.2763   -9.5681   22.4758 H   0  0  0  0  0  0
  -23.9999   -7.4634   22.7474 H   0  0  0  0  0  0
  -21.0837   -8.8776   19.8955 H   0  0  0  0  0  0
  -22.3695  -10.9675   19.6167 H   0  0  0  0  0  0
  -21.2011   -7.6148   23.9714 H   0  0  0  0  0  0
  -21.1479   -6.0522   25.9075 H   0  0  0  0  0  0
  -22.0600   -2.7608   23.2847 H   0  0  0  0  0  0
  -22.4102  -11.9889   22.4806 H   0  0  0  0  0  0
  -21.1107  -13.1258   22.2618 H   0  0  0  0  0  0
  -24.6530  -15.8386   20.5038 H   0  0  0  0  0  0
  -26.2597  -15.6224   20.0316 H   0  0  0  0  0  0
  -26.7186  -32.5435   23.1094 H   0  0  0  0  0  0
  -25.0067  -33.9712   25.0411 H   0  0  0  0  0  0
  -22.7169  -31.3033   21.4010 H   0  0  0  0  0  0
  -23.3749  -35.9626   23.3300 H   0  0  0  0  0  0
  -24.3580  -36.8916   22.2054 H   0  0  0  0  0  0
  -23.7244  -37.6494   23.6663 H   0  0  0  0  0  0
  -26.0999  -31.5475   20.6075 H   0  0  0  0  0  0
  -26.8447  -30.8316   22.0059 H   0  0  0  0  0  0
  -28.1168  -28.9655   21.1922 H   0  0  0  0  0  0
  -25.9582  -25.9260   18.9974 H   0  0  0  0  0  0
  -23.9692  -27.3102   19.0088 H   0  0  0  0  0  0
  -23.7586  -30.5946   19.4038 H   0  0  0  0  0  0
  -22.7570  -29.2489   19.8562 H   0  0  0  0  0  0
  -25.1294  -36.1930   25.0820 H   0  0  0  0  0  0
  -20.9983  -28.3267   24.1398 H   0  0  0  0  0  0
  -20.5679  -26.2301   23.3608 H   0  0  0  0  0  0
  -21.6645  -26.7440   22.1200 H   0  0  0  0  0  0
  -19.6911  -25.6294   21.1242 H   0  0  0  0  0  0
  -19.6685  -27.3193   20.6742 H   0  0  0  0  0  0
  -17.4198  -26.6670   21.4034 H   0  0  0  0  0  0
  -18.0337  -26.0071   22.9027 H   0  0  0  0  0  0
  -19.7938  -30.7274   24.2263 H   0  0  0  0  0  0
  -17.5016  -31.6266   24.5165 H   0  0  0  0  0  0
  -15.5354  -30.2987   23.7653 H   0  0  0  0  0  0
  -15.8676  -28.0820   22.7069 H   0  0  0  0  0  0
  -24.5891  -30.7092   25.7776 H   0  0  0  0  0  0
  -24.8930  -32.2904   26.4878 H   0  0  0  0  0  0
  -25.8044  -30.8900   27.0222 H   0  0  0  0  0  0
  -26.2922  -29.6756   24.1210 H   0  0  0  0  0  0
  -27.4029  -29.7266   25.4701 H   0  0  0  0  0  0
  -27.8795  -30.4289   23.9426 H   0  0  0  0  0  0
  -27.2653  -33.3625   26.2072 H   0  0  0  0  0  0
  -28.3861  -32.6892   25.0326 H   0  0  0  0  0  0
  -28.0718  -31.8457   26.5416 H   0  0  0  0  0  0
  -28.2592  -38.0102   24.7515 H   0  0  0  0  0  0
  -28.1081  -36.2634   24.6281 H   0  0  0  0  0  0
  -27.2298  -37.1439   25.8867 H   0  0  0  0  0  0
  -20.9373  -29.8771   21.6885 H   0  0  0  0  0  0
  -26.0171  -38.2848   24.1412 H   0  0  0  0  0  0
  -32.0518  -19.7909   19.9783 H   0  0  0  0  0  0
  -31.9744  -17.3550   20.0595 H   0  0  0  0  0  0
  -27.8370  -17.5735   21.2409 H   0  0  0  0  0  0
  -27.2515  -24.6708   20.6384 H   0  0  0  0  0  0
  -27.8559  -24.7465   18.9893 H   0  0  0  0  0  0
  -28.8671  -15.4162   21.0815 H   0  0  0  0  0  0
  -28.3198  -22.2658   20.1088 H   0  0  0  0  0  0
  1 25  1  0  0  0
  1 30  2  0  0  0
  1 80  1  0  0  0
  2  3  1  0  0  0
  2 25  1  0  0  0
  2 85  1  0  0  0
  2 86  1  0  0  0
  3  4  1  0  0  0
  3 87  1  0  0  0
  3 88  1  0  0  0
  4  5  1  0  0  0
  4 89  1  0  0  0
  4 90  1  0  0  0
  5  6  1  0  0  0
  5 26  1  0  0  0
  5 91  1  0  0  0
  6 25  1  0  0  0
  6 92  1  0  0  0
  6 93  1  0  0  0
  7  8  2  0  0  0
  7 26  1  0  0  0
  7 29  1  0  0  0
  8  9  1  0  0  0
  8 22  1  0  0  0
  9 10  1  0  0  0
  9 27  2  0  0  0
 10 11  2  0  0  0
 10 15  1  0  0  0
 11 12  1  0  0  0
 11 94  1  0  0  0
 12 13  2  0  0  0
 12 95  1  0  0  0
 13 14  1  0  0  0
 13 31  1  0  0  0
 14 15  2  0  0  0
 14 96  1  0  0  0
 15 97  1  0  0  0
 16 17  2  0  0  0
 16 21  1  0  0  0
 16 31  1  0  0  0
 17 18  1  0  0  0
 17 98  1  0  0  0
 18 19  2  0  0  0
 18 99  1  0  0  0
 19 20  1  0  0  0
 19 24  1  0  0  0
 20 21  2  0  0  0
 20100  1  0  0  0
 21 23  1  0  0  0
 22 28  1  0  0  0
 22 32  2  0  0  0
 26 27  1  0  0  0
 28101  1  0  0  0
 28102  1  0  0  0
 29103  1  0  0  0
 29104  1  0  0  0
 33 34  1  0  0  0
 33 66  1  0  0  0
 33 70  2  0  0  0
 34 36  1  0  0  0
 34 59  1  0  0  0
 34105  1  0  0  0
 35 44  2  0  0  0
 35 45  1  0  0  0
 35 68  1  0  0  0
 36 56  1  0  0  0
 36106  1  0  0  0
 37 39  1  0  0  0
 37 47  1  0  0  0
 37 66  1  0  0  0
 37107  1  0  0  0
 38 43  2  0  0  0
 38 46  1  0  0  0
 38 47  1  0  0  0
 39 64  1  0  0  0
 39 67  2  0  0  0
 40 52  1  0  0  0
 40 53  2  0  0  0
 40 58  1  0  0  0
 41108  1  0  0  0
 41109  1  0  0  0
 41110  1  0  0  0
 41 48  1  0  0  0
 42 43  1  0  0  0
 42 66  1  0  0  0
 42111  1  0  0  0
 42112  1  0  0  0
 43 44  1  0  0  0
 44113  1  0  0  0
 45 46  2  0  0  0
 45114  1  0  0  0
 46115  1  0  0  0
 47116  1  0  0  0
 47117  1  0  0  0
 48 56  1  0  0  0
 48 65  1  0  0  0
 48118  1  0  0  0
 49 50  1  0  0  0
 49 53  1  0  0  0
 49 64  1  0  0  0
 49119  1  0  0  0
 50 51  1  0  0  0
 50120  1  0  0  0
 50121  1  0  0  0
 51 52  1  0  0  0
 51122  1  0  0  0
 51123  1  0  0  0
 52124  1  0  0  0
 52125  1  0  0  0
 53 54  1  0  0  0
 54 55  2  0  0  0
 54126  1  0  0  0
 55 57  1  0  0  0
 55127  1  0  0  0
 56 69  2  0  0  0
 57 58  2  0  0  0
 57128  1  0  0  0
 58129  1  0  0  0
 59 60  1  0  0  0
 59 61  1  0  0  0
 59 62  1  0  0  0
 60130  1  0  0  0
 60131  1  0  0  0
 60132  1  0  0  0
 61133  1  0  0  0
 61134  1  0  0  0
 61135  1  0  0  0
 62136  1  0  0  0
 62137  1  0  0  0
 62138  1  0  0  0
 63 65  1  0  0  0
 63139  1  0  0  0
 63140  1  0  0  0
 63141  1  0  0  0
 64142  1  0  0  0
 65143  1  0  0  0
 68 79  1  0  0  0
 71 72  2  0  0  0
 71 74  1  0  0  0
 71144  1  0  0  0
 72 75  1  0  0  0
 72145  1  0  0  0
 73 75  2  0  0  0
 73 76  1  0  0  0
 73146  1  0  0  0
 74 76  2  0  0  0
 74 77  1  0  0  0
 75 80  1  0  0  0
 76 84  1  0  0  0
 77 81  1  0  0  0
 77 82  2  0  0  0
 78 79  1  0  0  0
 78 81  1  0  0  0
 78 83  2  0  0  0
 79147  1  0  0  0
 79148  1  0  0  0
 80149  1  0  0  0
 81150  1  0  0  0
M  ISO  4   1 100  68 101  79 101  80 100
M  END
> <chiral flag>
0

> <version>
0

> <s_m_source_file>
/data/baiqing/PycharmProjects/Reinvent-master-3.2/result/LINK_invent/BTK/process_docking_weight1_custom_product_contain_oxygen_bond_distance_aromatic_linkinvent_7_9_3/rearranged_h_0070.sdf

> <i_m_source_file_index>
52

> <r_mmod_Potential_Energy-OPLS-2005>
-25.2279872894287

> <r_mmod_Stretch_Energy-OPLS-2005>
93.0222396850586

> <r_mmod_Bend_Energy-OPLS-2005>
149.318771362305

> <r_mmod_Torsional_Energy-OPLS-2005>
218.844543457031

> <r_mmod_Improper_Torsional_Energy-OPLS-2005>
5.19262266159058

> <r_mmod_Van_der_Waal_Energy-OPLS-2005>
153.32763671875

> <r_mmod_Electrostatic_Energy-OPLS-2005>
-423.644866943359

> <r_mmod_Solvation_Energy-OPLS-2005>
-280.388793945312

> <b_mmod_Minimization_Converged-OPLS-2005>
0

> <r_mmod_RMS_Derivative-OPLS-2005>
0.22262866795063

$$$$
52
                    3D
 Structure written by MMmdl.
158167  0  0  1  0            999 V2000
  -30.6227  -14.6249   20.5097 C   0  0  0  0  0  0
  -30.4410  -12.3843   19.4483 C   0  0  0  0  0  0
  -29.5080  -12.5066   18.2224 C   0  0  0  0  0  0
  -28.0304  -12.3461   18.6341 C   0  0  0  0  0  0
  -27.6558  -13.2124   19.8659 C   0  0  2  0  0  0
  -28.7007  -13.0532   20.9939 C   0  0  0  0  0  0
  -25.2575  -13.8162   20.5678 C   0  0  0  0  0  0
  -24.1837  -13.0436   20.9191 C   0  0  0  0  0  0
  -24.6397  -11.6904   20.8741 C   0  0  0  0  0  0
  -23.9062  -10.4291   21.0409 C   0  0  0  0  0  0
  -24.3613   -9.4206   21.9185 C   0  0  0  0  0  0
  -23.6288   -8.2242   22.0754 C   0  0  0  0  0  0
  -22.4272   -8.0280   21.3543 C   0  0  0  0  0  0
  -21.9905   -9.0256   20.4648 C   0  0  0  0  0  0
  -22.7234  -10.2135   20.3058 C   0  0  0  0  0  0
  -21.6853   -6.0734   22.5278 C   0  0  0  0  0  0
  -21.4015   -6.5638   23.8211 C   0  0  0  0  0  0
  -21.3658   -5.6791   24.9172 C   0  0  0  0  0  0
  -21.6044   -4.3054   24.7224 C   0  0  0  0  0  0
  -21.8820   -3.8145   23.4346 C   0  0  0  0  0  0
  -21.9193   -4.6961   22.3402 C   0  0  0  0  0  0
  -22.7859  -13.5235   21.1851 C   0  0  0  0  0  0
  -22.1661   -4.2145   21.0980 F   0  0  0  0  0  0
  -21.5628   -3.4539   25.7738 F   0  0  0  0  0  0
  -30.0182  -13.3978   20.4341 N   0  0  0  0  0  0
  -26.3001  -12.9334   20.3324 N   0  0  0  0  0  0
  -25.9324  -11.6493   20.5761 N   0  0  0  0  0  0
  -22.0497  -12.8231   22.0407 N   0  0  0  0  0  0
  -25.4298  -15.1881   20.4072 N   0  0  0  0  0  0
  -31.7805  -14.7970   20.1167 O   0  0  0  0  0  0
  -21.6637   -6.8876   21.4239 O   0  0  0  0  0  0
  -22.3547  -14.5541   20.6697 O   0  0  0  0  0  0
  -24.6251  -31.8613   23.2042 C   0  0  0  0  0  0
  -25.9103  -32.4788   23.8364 C   0  0  1  0  0  0
  -27.2248  -27.3306   20.1111 C   0  0  0  0  0  0
  -25.5923  -33.8588   24.2290 N   0  0  0  0  0  0
  -23.4181  -30.4862   21.5470 C   0  0  2  0  0  0
  -24.8640  -28.9452   20.1117 C   0  0  0  0  0  0
  -22.7469  -29.4631   22.4941 C   0  0  0  0  0  0
  -18.0286  -28.1383   22.8488 C   0  0  0  0  0  0
  -24.1489  -36.7299   23.2638 C   0  0  0  0  0  0
  -25.9591  -30.7959   21.3739 C   0  0  0  0  0  0
  -26.0335  -29.4250   20.7144 C   0  0  0  0  0  0
  -27.2170  -28.6301   20.7041 C   0  0  0  0  0  0
  -26.0291  -26.9036   19.4844 C   0  0  0  0  0  0
  -24.8633  -27.6894   19.4887 C   0  0  0  0  0  0
  -23.6320  -29.8239   20.1615 C   0  0  0  0  0  0
  -25.4113  -36.3090   24.0330 C   0  0  1  0  0  0
  -20.5886  -28.3687   23.1286 C   0  0  2  0  0  0
  -20.6776  -26.9411   22.5410 C   0  0  0  0  0  0
  -19.5751  -26.6384   21.5212 C   0  0  0  0  0  0
  -18.1932  -26.7926   22.1627 C   0  0  0  0  0  0
  -19.1538  -28.8851   23.2883 C   0  0  0  0  0  0
  -18.9461  -30.1454   23.8898 C   0  0  0  0  0  0
  -17.6461  -30.6586   24.0565 C   0  0  0  0  0  0
  -25.9049  -34.9457   23.5109 C   0  0  0  0  0  0
  -16.5352  -29.9085   23.6329 C   0  0  0  0  0  0
  -16.7274  -28.6503   23.0350 C   0  0  0  0  0  0
  -26.4490  -31.6592   25.0728 C   0  0  0  0  0  0
  -25.3728  -31.3730   26.1459 C   0  0  0  0  0  0
  -27.0330  -30.3018   24.6173 C   0  0  0  0  0  0
  -27.6051  -32.4325   25.7496 C   0  0  0  0  0  0
  -27.5581  -37.1805   24.8464 C   0  0  0  0  0  0
  -21.4185  -29.3043   22.3682 N   0  0  0  0  0  0
  -26.4294  -37.3782   23.9407 N   0  0  0  0  0  0
  -24.6862  -31.0636   22.0988 N   0  0  0  0  0  0
  -23.4201  -28.8164   23.3009 O   0  0  0  0  0  0
  -28.3467  -26.4876   20.1618 O   0  0  0  0  0  0
  -26.5616  -34.8919   22.4675 O   0  0  0  0  0  0
  -23.5416  -32.1405   23.7376 O   0  0  0  0  0  0
  -31.0122  -19.2749   20.3128 C   0  0  0  0  0  0
  -31.0105  -17.8476   20.3259 C   0  0  0  0  0  0
  -28.7717  -17.8899   21.2034 C   0  0  0  0  0  0
  -29.9071  -20.0536   20.7707 C   0  0  0  0  0  0
  -29.8910  -17.1120   20.7956 C   0  0  0  0  0  0
  -28.7716  -19.3158   21.1934 C   0  0  0  0  0  0
  -30.9410  -22.0127   21.7737 C   0  0  0  0  0  0
  -31.0573  -23.5273   22.0244 C   0  0  0  0  0  0
  -28.9907  -22.4603   20.3025 C   0  0  0  0  0  0
  -29.2935  -24.0275   20.3994 C   0  0  1  0  0  0
  -28.1126  -25.0299   20.0520 C   0  0  0  0  0  0
  -29.9953  -21.5174   20.9235 N   0  0  0  0  0  0
  -29.8041  -15.6538   20.8919 N   0  0  0  0  0  0
  -29.8314  -24.3008   21.7421 N   0  3  0  0  0  0
  -31.7366  -21.2897   22.3846 O   0  0  0  0  0  0
  -27.6791  -19.9723   21.6523 F   0  0  0  0  0  0
  -31.4816  -12.5127   19.1454 H   0  0  0  0  0  0
  -30.3780  -11.3855   19.8831 H   0  0  0  0  0  0
  -29.7697  -11.7576   17.4738 H   0  0  0  0  0  0
  -29.6519  -13.4775   17.7457 H   0  0  0  0  0  0
  -27.8647  -11.2923   18.8613 H   0  0  0  0  0  0
  -27.3758  -12.5812   17.7939 H   0  0  0  0  0  0
  -27.6778  -14.2495   19.5311 H   0  0  0  0  0  0
  -28.7098  -12.0269   21.3640 H   0  0  0  0  0  0
  -28.4467  -13.6733   21.8549 H   0  0  0  0  0  0
  -25.2761   -9.5679   22.4757 H   0  0  0  0  0  0
  -23.9996   -7.4633   22.7474 H   0  0  0  0  0  0
  -21.0835   -8.8777   19.8956 H   0  0  0  0  0  0
  -22.3694  -10.9675   19.6166 H   0  0  0  0  0  0
  -21.2009   -7.6147   23.9713 H   0  0  0  0  0  0
  -21.1478   -6.0522   25.9075 H   0  0  0  0  0  0
  -22.0601   -2.7606   23.2849 H   0  0  0  0  0  0
  -22.4110  -11.9892   22.4800 H   0  0  0  0  0  0
  -21.1117  -13.1262   22.2612 H   0  0  0  0  0  0
  -24.6579  -15.8392   20.5032 H   0  0  0  0  0  0
  -26.2665  -15.6201   20.0372 H   0  0  0  0  0  0
  -26.7170  -32.5461   23.1114 H   0  0  0  0  0  0
  -25.0072  -33.9736   25.0435 H   0  0  0  0  0  0
  -22.7112  -31.3066   21.4060 H   0  0  0  0  0  0
  -23.3747  -35.9636   23.3307 H   0  0  0  0  0  0
  -24.3581  -36.8912   22.2051 H   0  0  0  0  0  0
  -23.7244  -37.6505   23.6653 H   0  0  0  0  0  0
  -26.0898  -31.5608   20.6073 H   0  0  0  0  0  0
  -26.8398  -30.8429   22.0028 H   0  0  0  0  0  0
  -28.1139  -28.9954   21.1845 H   0  0  0  0  0  0
  -25.9584  -25.9486   18.9867 H   0  0  0  0  0  0
  -23.9670  -27.3172   19.0115 H   0  0  0  0  0  0
  -23.7512  -30.6021   19.4067 H   0  0  0  0  0  0
  -22.7520  -29.2539   19.8579 H   0  0  0  0  0  0
  -25.1293  -36.1948   25.0823 H   0  0  0  0  0  0
  -20.9979  -28.3260   24.1406 H   0  0  0  0  0  0
  -20.5683  -26.2295   23.3608 H   0  0  0  0  0  0
  -21.6644  -26.7445   22.1199 H   0  0  0  0  0  0
  -19.6914  -25.6296   21.1239 H   0  0  0  0  0  0
  -19.6687  -27.3198   20.6745 H   0  0  0  0  0  0
  -17.4200  -26.6671   21.4030 H   0  0  0  0  0  0
  -18.0336  -26.0068   22.9024 H   0  0  0  0  0  0
  -19.7937  -30.7270   24.2267 H   0  0  0  0  0  0
  -17.5016  -31.6264   24.5168 H   0  0  0  0  0  0
  -15.5353  -30.2989   23.7650 H   0  0  0  0  0  0
  -15.8674  -28.0824   22.7062 H   0  0  0  0  0  0
  -24.5896  -30.7085   25.7790 H   0  0  0  0  0  0
  -24.8926  -32.2899   26.4889 H   0  0  0  0  0  0
  -25.8055  -30.8904   27.0230 H   0  0  0  0  0  0
  -26.2901  -29.6773   24.1196 H   0  0  0  0  0  0
  -27.4031  -29.7269   25.4672 H   0  0  0  0  0  0
  -27.8770  -30.4309   23.9393 H   0  0  0  0  0  0
  -27.2659  -33.3619   26.2083 H   0  0  0  0  0  0
  -28.3855  -32.6897   25.0321 H   0  0  0  0  0  0
  -28.0727  -31.8446   26.5405 H   0  0  0  0  0  0
  -28.2600  -38.0101   24.7511 H   0  0  0  0  0  0
  -28.1075  -36.2632   24.6291 H   0  0  0  0  0  0
  -27.2298  -37.1455   25.8867 H   0  0  0  0  0  0
  -20.9357  -29.8775   21.6904 H   0  0  0  0  0  0
  -26.0178  -38.2859   24.1406 H   0  0  0  0  0  0
  -31.9092  -19.7793   19.9825 H   0  0  0  0  0  0
  -31.8982  -17.3315   19.9891 H   0  0  0  0  0  0
  -27.8835  -17.3918   21.5636 H   0  0  0  0  0  0
  -31.8700  -23.9073   21.4047 H   0  0  0  0  0  0
  -31.3501  -23.6990   23.0607 H   0  0  0  0  0  0
  -28.8605  -22.1837   19.2556 H   0  0  0  0  0  0
  -28.0293  -22.2659   20.7787 H   0  0  0  0  0  0
  -30.0939  -24.2493   19.6913 H   0  0  0  0  0  0
  -27.2595  -24.7694   20.6812 H   0  0  0  0  0  0
  -27.8149  -24.8142   19.0254 H   0  0  0  0  0  0
  -28.9124  -15.3139   21.2179 H   0  0  0  0  0  0
  -30.0428  -25.2838   21.8225 H   0  0  0  0  0  0
  -29.1389  -24.0887   22.4440 H   0  0  0  0  0  0
  1 25  1  0  0  0
  1 30  2  0  0  0
  1 83  1  0  0  0
  2  3  1  0  0  0
  2 25  1  0  0  0
  2 87  1  0  0  0
  2 88  1  0  0  0
  3  4  1  0  0  0
  3 89  1  0  0  0
  3 90  1  0  0  0
  4  5  1  0  0  0
  4 91  1  0  0  0
  4 92  1  0  0  0
  5  6  1  0  0  0
  5 26  1  0  0  0
  5 93  1  0  0  0
  6 25  1  0  0  0
  6 94  1  0  0  0
  6 95  1  0  0  0
  7  8  2  0  0  0
  7 26  1  0  0  0
  7 29  1  0  0  0
  8  9  1  0  0  0
  8 22  1  0  0  0
  9 10  1  0  0  0
  9 27  2  0  0  0
 10 11  2  0  0  0
 10 15  1  0  0  0
 11 12  1  0  0  0
 11 96  1  0  0  0
 12 13  2  0  0  0
 12 97  1  0  0  0
 13 14  1  0  0  0
 13 31  1  0  0  0
 14 15  2  0  0  0
 14 98  1  0  0  0
 15 99  1  0  0  0
 16 17  2  0  0  0
 16 21  1  0  0  0
 16 31  1  0  0  0
 17 18  1  0  0  0
 17100  1  0  0  0
 18 19  2  0  0  0
 18101  1  0  0  0
 19 20  1  0  0  0
 19 24  1  0  0  0
 20 21  2  0  0  0
 20102  1  0  0  0
 21 23  1  0  0  0
 22 28  1  0  0  0
 22 32  2  0  0  0
 26 27  1  0  0  0
 28103  1  0  0  0
 28104  1  0  0  0
 29105  1  0  0  0
 29106  1  0  0  0
 33 34  1  0  0  0
 33 66  1  0  0  0
 33 70  2  0  0  0
 34 36  1  0  0  0
 34 59  1  0  0  0
 34107  1  0  0  0
 35 44  2  0  0  0
 35 45  1  0  0  0
 35 68  1  0  0  0
 36 56  1  0  0  0
 36108  1  0  0  0
 37 39  1  0  0  0
 37 47  1  0  0  0
 37 66  1  0  0  0
 37109  1  0  0  0
 38 43  2  0  0  0
 38 46  1  0  0  0
 38 47  1  0  0  0
 39 64  1  0  0  0
 39 67  2  0  0  0
 40 52  1  0  0  0
 40 53  2  0  0  0
 40 58  1  0  0  0
 41110  1  0  0  0
 41111  1  0  0  0
 41112  1  0  0  0
 41 48  1  0  0  0
 42 43  1  0  0  0
 42 66  1  0  0  0
 42113  1  0  0  0
 42114  1  0  0  0
 43 44  1  0  0  0
 44115  1  0  0  0
 45 46  2  0  0  0
 45116  1  0  0  0
 46117  1  0  0  0
 47118  1  0  0  0
 47119  1  0  0  0
 48 56  1  0  0  0
 48 65  1  0  0  0
 48120  1  0  0  0
 49 50  1  0  0  0
 49 53  1  0  0  0
 49 64  1  0  0  0
 49121  1  0  0  0
 50 51  1  0  0  0
 50122  1  0  0  0
 50123  1  0  0  0
 51 52  1  0  0  0
 51124  1  0  0  0
 51125  1  0  0  0
 52126  1  0  0  0
 52127  1  0  0  0
 53 54  1  0  0  0
 54 55  2  0  0  0
 54128  1  0  0  0
 55 57  1  0  0  0
 55129  1  0  0  0
 56 69  2  0  0  0
 57 58  2  0  0  0
 57130  1  0  0  0
 58131  1  0  0  0
 59 60  1  0  0  0
 59 61  1  0  0  0
 59 62  1  0  0  0
 60132  1  0  0  0
 60133  1  0  0  0
 60134  1  0  0  0
 61135  1  0  0  0
 61136  1  0  0  0
 61137  1  0  0  0
 62138  1  0  0  0
 62139  1  0  0  0
 62140  1  0  0  0
 63 65  1  0  0  0
 63141  1  0  0  0
 63142  1  0  0  0
 63143  1  0  0  0
 64144  1  0  0  0
 65145  1  0  0  0
 68 81  1  0  0  0
 71 72  2  0  0  0
 71 74  1  0  0  0
 71146  1  0  0  0
 72 75  1  0  0  0
 72147  1  0  0  0
 73 75  2  0  0  0
 73 76  1  0  0  0
 73148  1  0  0  0
 74 76  2  0  0  0
 74 82  1  0  0  0
 75 83  1  0  0  0
 76 86  1  0  0  0
 77 78  1  0  0  0
 77 82  1  0  0  0
 77 85  2  0  0  0
 78 84  1  0  0  0
 78149  1  0  0  0
 78150  1  0  0  0
 79 80  1  0  0  0
 79 82  1  0  0  0
 79151  1  0  0  0
 79152  1  0  0  0
 80 81  1  0  0  0
 80 84  1  0  0  0
 80153  1  0  0  0
 81154  1  0  0  0
 81155  1  0  0  0
 83156  1  0  0  0
 84157  1  0  0  0
 84158  1  0  0  0
M  CHG  1  84   1
M  ISO  4   1 100  68 101  81 101  83 100
M  END
> <chiral flag>
0

> <version>
0

> <s_m_source_file>
/data/baiqing/PycharmProjects/Reinvent-master-3.2/result/LINK_invent/BTK/process_docking_weight1_custom_product_contain_oxygen_bond_distance_aromatic_linkinvent_7_9_3/rearranged_h_0070.sdf

> <i_m_source_file_index>
53

> <r_mmod_Potential_Energy-OPLS-2005>
-93.7250747680664

> <r_mmod_Stretch_Energy-OPLS-2005>
82.8102798461914

> <r_mmod_Bend_Energy-OPLS-2005>
134.157363891602

> <r_mmod_Torsional_Energy-OPLS-2005>
310.063598632812

> <r_mmod_Improper_Torsional_Energy-OPLS-2005>
4.61828327178955

> <r_mmod_Van_der_Waal_Energy-OPLS-2005>
158.993026733398

> <r_mmod_Electrostatic_Energy-OPLS-2005>
-337.972564697266

> <r_mmod_Solvation_Energy-OPLS-2005>
-490.171722412109

> <b_mmod_Minimization_Converged-OPLS-2005>
0

> <r_mmod_RMS_Derivative-OPLS-2005>
0.257955104112625

$$$$
53
                    3D
 Structure written by MMmdl.
152160  0  0  1  0            999 V2000
  -30.6086  -14.6552   20.4954 C   0  0  0  0  0  0
  -30.4411  -12.4009   19.4544 C   0  0  0  0  0  0
  -29.5100  -12.5067   18.2252 C   0  0  0  0  0  0
  -28.0327  -12.3410   18.6359 C   0  0  0  0  0  0
  -27.6524  -13.2141   19.8609 C   0  0  2  0  0  0
  -28.6965  -13.0727   20.9920 C   0  0  0  0  0  0
  -25.2557  -13.8161   20.5661 C   0  0  0  0  0  0
  -24.1831  -13.0435   20.9203 C   0  0  0  0  0  0
  -24.6393  -11.6904   20.8748 C   0  0  0  0  0  0
  -23.9061  -10.4289   21.0411 C   0  0  0  0  0  0
  -24.3615   -9.4204   21.9185 C   0  0  0  0  0  0
  -23.6290   -8.2242   22.0757 C   0  0  0  0  0  0
  -22.4272   -8.0281   21.3547 C   0  0  0  0  0  0
  -21.9905   -9.0257   20.4651 C   0  0  0  0  0  0
  -22.7234  -10.2135   20.3059 C   0  0  0  0  0  0
  -21.6853   -6.0733   22.5278 C   0  0  0  0  0  0
  -21.4015   -6.5636   23.8211 C   0  0  0  0  0  0
  -21.3659   -5.6790   24.9174 C   0  0  0  0  0  0
  -21.6044   -4.3054   24.7224 C   0  0  0  0  0  0
  -21.8820   -3.8145   23.4345 C   0  0  0  0  0  0
  -21.9193   -4.6961   22.3400 C   0  0  0  0  0  0
  -22.7854  -13.5234   21.1858 C   0  0  0  0  0  0
  -22.1663   -4.2148   21.0977 F   0  0  0  0  0  0
  -21.5627   -3.4537   25.7736 F   0  0  0  0  0  0
  -30.0110  -13.4222   20.4305 N   0  0  0  0  0  0
  -26.2979  -12.9335   20.3292 N   0  0  0  0  0  0
  -25.9317  -11.6496   20.5751 N   0  0  0  0  0  0
  -22.0488  -12.8235   22.0413 N   0  0  0  0  0  0
  -25.4253  -15.1877   20.4004 N   0  0  0  0  0  0
  -31.7739  -14.8183   20.1196 O   0  0  0  0  0  0
  -21.6638   -6.8877   21.4241 O   0  0  0  0  0  0
  -22.3547  -14.5540   20.6700 O   0  0  0  0  0  0
  -24.6256  -31.8597   23.2018 C   0  0  0  0  0  0
  -25.9104  -32.4779   23.8350 C   0  0  1  0  0  0
  -27.2262  -27.3188   20.1258 C   0  0  0  0  0  0
  -25.5919  -33.8580   24.2279 N   0  0  0  0  0  0
  -23.4198  -30.4821   21.5443 C   0  0  2  0  0  0
  -24.8675  -28.9332   20.1143 C   0  0  0  0  0  0
  -22.7472  -29.4622   22.4938 C   0  0  0  0  0  0
  -18.0287  -28.1385   22.8487 C   0  0  0  0  0  0
  -24.1490  -36.7296   23.2640 C   0  0  0  0  0  0
  -25.9599  -30.7904   21.3728 C   0  0  0  0  0  0
  -26.0355  -29.4162   20.7185 C   0  0  0  0  0  0
  -27.2195  -28.6212   20.7125 C   0  0  0  0  0  0
  -26.0399  -26.8891   19.4921 C   0  0  0  0  0  0
  -24.8712  -27.6747   19.4920 C   0  0  0  0  0  0
  -23.6353  -29.8138   20.1608 C   0  0  0  0  0  0
  -25.4115  -36.3085   24.0330 C   0  0  1  0  0  0
  -20.5886  -28.3690   23.1285 C   0  0  2  0  0  0
  -20.6776  -26.9413   22.5409 C   0  0  0  0  0  0
  -19.5750  -26.6386   21.5212 C   0  0  0  0  0  0
  -18.1932  -26.7929   22.1628 C   0  0  0  0  0  0
  -19.1538  -28.8856   23.2882 C   0  0  0  0  0  0
  -18.9461  -30.1459   23.8897 C   0  0  0  0  0  0
  -17.6461  -30.6588   24.0564 C   0  0  0  0  0  0
  -25.9049  -34.9452   23.5106 C   0  0  0  0  0  0
  -16.5353  -29.9086   23.6328 C   0  0  0  0  0  0
  -16.7274  -28.6504   23.0349 C   0  0  0  0  0  0
  -26.4491  -31.6589   25.0720 C   0  0  0  0  0  0
  -25.3727  -31.3729   26.1451 C   0  0  0  0  0  0
  -27.0332  -30.3014   24.6171 C   0  0  0  0  0  0
  -27.6056  -32.4320   25.7484 C   0  0  0  0  0  0
  -27.5577  -37.1809   24.8469 C   0  0  0  0  0  0
  -21.4186  -29.3043   22.3678 N   0  0  0  0  0  0
  -26.4298  -37.3774   23.9401 N   0  0  0  0  0  0
  -24.6871  -31.0608   22.0967 N   0  0  0  0  0  0
  -23.4196  -28.8164   23.3019 O   0  0  0  0  0  0
  -28.3470  -26.4779   20.1400 O   0  0  0  0  0  0
  -26.5619  -34.8918   22.4674 O   0  0  0  0  0  0
  -23.5420  -32.1395   23.7346 O   0  0  0  0  0  0
  -28.6324  -19.3423   20.4867 C   0  0  0  0  0  0
  -31.0039  -19.2932   20.1130 C   0  0  0  0  0  0
  -28.6626  -17.9300   20.7206 C   0  0  0  0  0  0
  -31.0316  -17.8812   20.3323 C   0  0  0  0  0  0
  -29.8048  -20.0689   20.1527 C   0  0  0  0  0  0
  -29.8518  -17.1482   20.6236 C   0  0  0  0  0  0
  -29.8183  -21.5337   19.7250 C   0  0  0  0  0  0
  -29.1110  -24.0207   19.8406 C   0  0  0  0  0  0
  -28.1585  -25.0592   20.5506 C   0  0  0  0  0  0
  -29.7816  -15.6974   20.8343 N   0  0  0  0  0  0
  -29.0930  -22.5871   20.2567 N   0  0  0  0  0  0
  -30.6359  -21.7852   18.6964 N   0  3  0  0  0  0
  -29.8615  -24.4039   18.9324 O   0  0  0  0  0  0
  -31.4816  -12.5327   19.1518 H   0  0  0  0  0  0
  -30.3830  -11.4058   19.8984 H   0  0  0  0  0  0
  -29.7776  -11.7521   17.4843 H   0  0  0  0  0  0
  -29.6494  -13.4737   17.7395 H   0  0  0  0  0  0
  -27.8727  -11.2882   18.8709 H   0  0  0  0  0  0
  -27.3787  -12.5662   17.7928 H   0  0  0  0  0  0
  -27.6687  -14.2477   19.5157 H   0  0  0  0  0  0
  -28.7114  -12.0505   21.3733 H   0  0  0  0  0  0
  -28.4382  -13.7027   21.8448 H   0  0  0  0  0  0
  -25.2762   -9.5679   22.4756 H   0  0  0  0  0  0
  -24.0000   -7.4631   22.7474 H   0  0  0  0  0  0
  -21.0836   -8.8778   19.8956 H   0  0  0  0  0  0
  -22.3695  -10.9676   19.6170 H   0  0  0  0  0  0
  -21.2009   -7.6145   23.9716 H   0  0  0  0  0  0
  -21.1477   -6.0519   25.9077 H   0  0  0  0  0  0
  -22.0600   -2.7607   23.2846 H   0  0  0  0  0  0
  -22.4095  -11.9898   22.4811 H   0  0  0  0  0  0
  -21.1108  -13.1275   22.2612 H   0  0  0  0  0  0
  -24.6411  -15.8271   20.4704 H   0  0  0  0  0  0
  -26.2378  -15.6073   19.9683 H   0  0  0  0  0  0
  -26.7173  -32.5451   23.1099 H   0  0  0  0  0  0
  -25.0065  -33.9726   25.0422 H   0  0  0  0  0  0
  -22.7135  -31.3021   21.3995 H   0  0  0  0  0  0
  -23.3742  -35.9641   23.3325 H   0  0  0  0  0  0
  -24.3577  -36.8892   22.2050 H   0  0  0  0  0  0
  -23.7259  -37.6512   23.6646 H   0  0  0  0  0  0
  -26.0900  -31.5520   20.6027 H   0  0  0  0  0  0
  -26.8408  -30.8416   22.0010 H   0  0  0  0  0  0
  -28.1173  -28.9886   21.1896 H   0  0  0  0  0  0
  -26.0049  -25.9333   18.9896 H   0  0  0  0  0  0
  -23.9782  -27.3014   19.0097 H   0  0  0  0  0  0
  -23.7544  -30.5886   19.4025 H   0  0  0  0  0  0
  -22.7553  -29.2426   19.8596 H   0  0  0  0  0  0
  -25.1297  -36.1942   25.0823 H   0  0  0  0  0  0
  -20.9980  -28.3265   24.1405 H   0  0  0  0  0  0
  -20.5677  -26.2299   23.3609 H   0  0  0  0  0  0
  -21.6645  -26.7446   22.1200 H   0  0  0  0  0  0
  -19.6911  -25.6297   21.1241 H   0  0  0  0  0  0
  -19.6683  -27.3196   20.6741 H   0  0  0  0  0  0
  -17.4198  -26.6672   21.4035 H   0  0  0  0  0  0
  -18.0336  -26.0074   22.9027 H   0  0  0  0  0  0
  -19.7938  -30.7277   24.2261 H   0  0  0  0  0  0
  -17.5014  -31.6268   24.5168 H   0  0  0  0  0  0
  -15.5353  -30.2986   23.7653 H   0  0  0  0  0  0
  -15.8675  -28.0823   22.7059 H   0  0  0  0  0  0
  -24.5894  -30.7086   25.7782 H   0  0  0  0  0  0
  -24.8927  -32.2897   26.4884 H   0  0  0  0  0  0
  -25.8053  -30.8901   27.0221 H   0  0  0  0  0  0
  -26.2904  -29.6761   24.1203 H   0  0  0  0  0  0
  -27.4042  -29.7274   25.4674 H   0  0  0  0  0  0
  -27.8767  -30.4303   23.9384 H   0  0  0  0  0  0
  -27.2677  -33.3627   26.2054 H   0  0  0  0  0  0
  -28.3866  -32.6868   25.0307 H   0  0  0  0  0  0
  -28.0720  -31.8446   26.5403 H   0  0  0  0  0  0
  -28.2617  -38.0084   24.7488 H   0  0  0  0  0  0
  -28.1051  -36.2615   24.6333 H   0  0  0  0  0  0
  -27.2291  -37.1506   25.8873 H   0  0  0  0  0  0
  -20.9361  -29.8765   21.6890 H   0  0  0  0  0  0
  -26.0182  -38.2857   24.1376 H   0  0  0  0  0  0
  -27.6811  -19.8549   20.5262 H   0  0  0  0  0  0
  -31.9402  -19.7799   19.8768 H   0  0  0  0  0  0
  -27.7286  -17.4390   20.9544 H   0  0  0  0  0  0
  -31.9804  -17.3684   20.2613 H   0  0  0  0  0  0
  -28.3455  -25.0015   21.6228 H   0  0  0  0  0  0
  -27.1366  -24.7114   20.4104 H   0  0  0  0  0  0
  -28.8787  -15.3717   21.1405 H   0  0  0  0  0  0
  -28.4998  -22.2853   21.0149 H   0  0  0  0  0  0
  -31.1241  -21.0354   18.2330 H   0  0  0  0  0  0
  -30.7101  -22.7354   18.3527 H   0  0  0  0  0  0
  1 25  1  0  0  0
  1 30  2  0  0  0
  1 80  1  0  0  0
  2  3  1  0  0  0
  2 25  1  0  0  0
  2 84  1  0  0  0
  2 85  1  0  0  0
  3  4  1  0  0  0
  3 86  1  0  0  0
  3 87  1  0  0  0
  4  5  1  0  0  0
  4 88  1  0  0  0
  4 89  1  0  0  0
  5  6  1  0  0  0
  5 26  1  0  0  0
  5 90  1  0  0  0
  6 25  1  0  0  0
  6 91  1  0  0  0
  6 92  1  0  0  0
  7  8  2  0  0  0
  7 26  1  0  0  0
  7 29  1  0  0  0
  8  9  1  0  0  0
  8 22  1  0  0  0
  9 10  1  0  0  0
  9 27  2  0  0  0
 10 11  2  0  0  0
 10 15  1  0  0  0
 11 12  1  0  0  0
 11 93  1  0  0  0
 12 13  2  0  0  0
 12 94  1  0  0  0
 13 14  1  0  0  0
 13 31  1  0  0  0
 14 15  2  0  0  0
 14 95  1  0  0  0
 15 96  1  0  0  0
 16 17  2  0  0  0
 16 21  1  0  0  0
 16 31  1  0  0  0
 17 18  1  0  0  0
 17 97  1  0  0  0
 18 19  2  0  0  0
 18 98  1  0  0  0
 19 20  1  0  0  0
 19 24  1  0  0  0
 20 21  2  0  0  0
 20 99  1  0  0  0
 21 23  1  0  0  0
 22 28  1  0  0  0
 22 32  2  0  0  0
 26 27  1  0  0  0
 28100  1  0  0  0
 28101  1  0  0  0
 29102  1  0  0  0
 29103  1  0  0  0
 33 34  1  0  0  0
 33 66  1  0  0  0
 33 70  2  0  0  0
 34 36  1  0  0  0
 34 59  1  0  0  0
 34104  1  0  0  0
 35 44  2  0  0  0
 35 45  1  0  0  0
 35 68  1  0  0  0
 36 56  1  0  0  0
 36105  1  0  0  0
 37 39  1  0  0  0
 37 47  1  0  0  0
 37 66  1  0  0  0
 37106  1  0  0  0
 38 43  2  0  0  0
 38 46  1  0  0  0
 38 47  1  0  0  0
 39 64  1  0  0  0
 39 67  2  0  0  0
 40 52  1  0  0  0
 40 53  2  0  0  0
 40 58  1  0  0  0
 41107  1  0  0  0
 41108  1  0  0  0
 41109  1  0  0  0
 41 48  1  0  0  0
 42 43  1  0  0  0
 42 66  1  0  0  0
 42110  1  0  0  0
 42111  1  0  0  0
 43 44  1  0  0  0
 44112  1  0  0  0
 45 46  2  0  0  0
 45113  1  0  0  0
 46114  1  0  0  0
 47115  1  0  0  0
 47116  1  0  0  0
 48 56  1  0  0  0
 48 65  1  0  0  0
 48117  1  0  0  0
 49 50  1  0  0  0
 49 53  1  0  0  0
 49 64  1  0  0  0
 49118  1  0  0  0
 50 51  1  0  0  0
 50119  1  0  0  0
 50120  1  0  0  0
 51 52  1  0  0  0
 51121  1  0  0  0
 51122  1  0  0  0
 52123  1  0  0  0
 52124  1  0  0  0
 53 54  1  0  0  0
 54 55  2  0  0  0
 54125  1  0  0  0
 55 57  1  0  0  0
 55126  1  0  0  0
 56 69  2  0  0  0
 57 58  2  0  0  0
 57127  1  0  0  0
 58128  1  0  0  0
 59 60  1  0  0  0
 59 61  1  0  0  0
 59 62  1  0  0  0
 60129  1  0  0  0
 60130  1  0  0  0
 60131  1  0  0  0
 61132  1  0  0  0
 61133  1  0  0  0
 61134  1  0  0  0
 62135  1  0  0  0
 62136  1  0  0  0
 62137  1  0  0  0
 63 65  1  0  0  0
 63138  1  0  0  0
 63139  1  0  0  0
 63140  1  0  0  0
 64141  1  0  0  0
 65142  1  0  0  0
 68 79  1  0  0  0
 71 73  2  0  0  0
 71 75  1  0  0  0
 71143  1  0  0  0
 72 74  1  0  0  0
 72 75  2  0  0  0
 72144  1  0  0  0
 73 76  1  0  0  0
 73145  1  0  0  0
 74 76  2  0  0  0
 74146  1  0  0  0
 75 77  1  0  0  0
 76 80  1  0  0  0
 77 81  1  0  0  0
 77 82  2  0  0  0
 78 79  1  0  0  0
 78 81  1  0  0  0
 78 83  2  0  0  0
 79147  1  0  0  0
 79148  1  0  0  0
 80149  1  0  0  0
 81150  1  0  0  0
 82151  1  0  0  0
 82152  1  0  0  0
M  CHG  1  82   1
M  ISO  4   1 100  68 101  79 101  80 100
M  END
> <chiral flag>
0

> <version>
0

> <s_m_source_file>
/data/baiqing/PycharmProjects/Reinvent-master-3.2/result/LINK_invent/BTK/process_docking_weight1_custom_product_contain_oxygen_bond_distance_aromatic_linkinvent_7_9_3/rearranged_h_0070.sdf

> <i_m_source_file_index>
54

> <r_mmod_Potential_Energy-OPLS-2005>
-213.933837890625

> <r_mmod_Stretch_Energy-OPLS-2005>
85.8899307250977

> <r_mmod_Bend_Energy-OPLS-2005>
144.363891601562

> <r_mmod_Torsional_Energy-OPLS-2005>
224.400650024414

> <r_mmod_Improper_Torsional_Energy-OPLS-2005>
5.34828853607178

> <r_mmod_Van_der_Waal_Energy-OPLS-2005>
156.283920288086

> <r_mmod_Electrostatic_Energy-OPLS-2005>
-419.147979736328

> <r_mmod_Solvation_Energy-OPLS-2005>
-461.139282226562

> <b_mmod_Minimization_Converged-OPLS-2005>
0

> <r_mmod_RMS_Derivative-OPLS-2005>
0.407842755317688

$$$$
54
                    3D
 Structure written by MMmdl.
168177  0  0  1  0            999 V2000
  -30.5188  -15.0795   20.4223 C   0  0  0  0  0  0
  -30.4399  -12.6926   19.4872 C   0  0  0  0  0  0
  -29.5193  -12.5410   18.2532 C   0  0  0  0  0  0
  -28.0655  -12.2909   18.6950 C   0  0  0  0  0  0
  -27.6186  -13.2547   19.8240 C   0  0  2  0  0  0
  -28.6648  -13.3688   20.9519 C   0  0  0  0  0  0
  -25.2423  -13.8214   20.5712 C   0  0  0  0  0  0
  -24.1750  -13.0425   20.9237 C   0  0  0  0  0  0
  -24.6378  -11.6914   20.8759 C   0  0  0  0  0  0
  -23.9052  -10.4290   21.0410 C   0  0  0  0  0  0
  -24.3591   -9.4205   21.9188 C   0  0  0  0  0  0
  -23.6271   -8.2246   22.0769 C   0  0  0  0  0  0
  -22.4260   -8.0274   21.3561 C   0  0  0  0  0  0
  -21.9899   -9.0245   20.4670 C   0  0  0  0  0  0
  -22.7227  -10.2129   20.3068 C   0  0  0  0  0  0
  -21.6869   -6.0710   22.5265 C   0  0  0  0  0  0
  -21.4017   -6.5615   23.8194 C   0  0  0  0  0  0
  -21.3660   -5.6777   24.9154 C   0  0  0  0  0  0
  -21.6050   -4.3044   24.7221 C   0  0  0  0  0  0
  -21.8818   -3.8121   23.4354 C   0  0  0  0  0  0
  -21.9193   -4.6930   22.3398 C   0  0  0  0  0  0
  -22.7766  -13.5197   21.1872 C   0  0  0  0  0  0
  -22.1662   -4.2103   21.0982 F   0  0  0  0  0  0
  -21.5643   -3.4533   25.7749 F   0  0  0  0  0  0
  -29.9087  -13.8195   20.3146 N   0  0  0  0  0  0
  -26.2843  -12.9457   20.3230 N   0  0  0  0  0  0
  -25.9321  -11.6577   20.5729 N   0  0  0  0  0  0
  -22.0409  -12.8215   22.0437 N   0  0  0  0  0  0
  -25.4085  -15.1946   20.4139 N   0  0  0  0  0  0
  -31.7467  -15.0771   20.2694 O   0  0  0  0  0  0
  -21.6653   -6.8855   21.4232 O   0  0  0  0  0  0
  -22.3462  -14.5503   20.6695 O   0  0  0  0  0  0
  -24.6532  -31.8357   23.1805 C   0  0  0  0  0  0
  -25.9264  -32.4648   23.8231 C   0  0  1  0  0  0
  -27.2087  -27.0378   20.1733 C   0  0  0  0  0  0
  -25.5967  -33.8461   24.2141 N   0  0  0  0  0  0
  -23.4613  -30.4526   21.5271 C   0  0  2  0  0  0
  -24.9110  -28.8603   20.1128 C   0  0  0  0  0  0
  -22.7609  -29.4512   22.4819 C   0  0  0  0  0  0
  -18.0321  -28.1405   22.8480 C   0  0  0  0  0  0
  -24.1486  -36.7235   23.2645 C   0  0  0  0  0  0
  -26.0239  -30.6777   21.3935 C   0  0  0  0  0  0
  -26.0924  -29.2779   20.7393 C   0  0  0  0  0  0
  -27.2432  -28.3866   20.7447 C   0  0  0  0  0  0
  -26.0031  -26.7479   19.4981 C   0  0  0  0  0  0
  -24.8862  -27.6130   19.4717 C   0  0  0  0  0  0
  -23.6930  -29.7755   20.1509 C   0  0  0  0  0  0
  -25.4124  -36.3010   24.0308 C   0  0  1  0  0  0
  -20.5940  -28.3744   23.1198 C   0  0  2  0  0  0
  -20.6797  -26.9433   22.5398 C   0  0  0  0  0  0
  -19.5773  -26.6381   21.5207 C   0  0  0  0  0  0
  -18.1954  -26.7943   22.1621 C   0  0  0  0  0  0
  -19.1582  -28.8896   23.2833 C   0  0  0  0  0  0
  -18.9494  -30.1484   23.8872 C   0  0  0  0  0  0
  -17.6487  -30.6598   24.0558 C   0  0  0  0  0  0
  -25.9079  -34.9384   23.5038 C   0  0  0  0  0  0
  -16.5379  -29.9084   23.6342 C   0  0  0  0  0  0
  -16.7300  -28.6503   23.0363 C   0  0  0  0  0  0
  -26.4550  -31.6560   25.0718 C   0  0  0  0  0  0
  -25.3693  -31.3794   26.1389 C   0  0  0  0  0  0
  -27.0431  -30.2945   24.6364 C   0  0  0  0  0  0
  -27.6060  -32.4352   25.7509 C   0  0  0  0  0  0
  -27.5572  -37.1774   24.8467 C   0  0  0  0  0  0
  -21.4295  -29.3051   22.3560 N   0  0  0  0  0  0
  -26.4279  -37.3735   23.9409 N   0  0  0  0  0  0
  -24.7336  -31.0128   22.0878 N   0  0  0  0  0  0
  -23.4207  -28.8061   23.3003 O   0  0  0  0  0  0
  -28.2371  -25.9968   20.2056 O   0  0  0  0  0  0
  -26.5666  -34.8901   22.4618 O   0  0  0  0  0  0
  -23.5625  -32.1263   23.6970 O   0  0  0  0  0  0
  -31.0038  -18.0772   23.3792 C   0  0  0  0  0  0
  -31.6601  -19.1871   22.8506 C   0  0  0  0  0  0
  -30.2408  -17.2899   22.5154 C   0  0  0  0  0  0
  -31.3514  -19.6779   21.5631 C   0  0  0  0  0  0
  -30.1888  -19.1683   20.8781 C   0  0  0  0  0  0
  -29.9904  -17.6625   21.1708 C   0  0  0  0  0  0
  -29.0582  -21.6393   21.0107 C   0  0  0  0  0  0
  -34.8944  -20.5044   21.5742 C   0  0  0  0  0  0
  -33.7590  -20.0154   21.0430 C   0  0  0  0  0  0
  -28.3725  -22.1222   18.8539 C   0  0  0  0  0  0
  -28.8525  -20.6115   19.0110 C   0  0  0  0  0  0
  -28.8155  -22.9715   20.0782 C   0  0  1  0  0  0
  -32.1907  -21.0249   19.4952 C   0  0  0  0  0  0
  -32.3980  -22.0107   21.7971 C   0  0  0  0  0  0
  -27.9452  -24.4390   20.4462 C   0  0  0  0  0  0
  -32.3840  -20.6894   20.9870 C   0  0  0  0  0  0
  -29.2969  -20.3740   20.3928 N   0  0  0  0  0  0
  -29.7822  -16.3343   20.3941 N   0  0  0  0  0  0
  -29.0034  -21.7628   22.2376 O   0  0  0  0  0  0
  -31.4644  -12.8760   19.1615 H   0  0  0  0  0  0
  -30.4741  -11.7685   20.0664 H   0  0  0  0  0  0
  -29.8640  -11.7247   17.6175 H   0  0  0  0  0  0
  -29.5651  -13.4478   17.6471 H   0  0  0  0  0  0
  -28.0024  -11.2598   19.0448 H   0  0  0  0  0  0
  -27.3877  -12.3640   17.8427 H   0  0  0  0  0  0
  -27.5519  -14.2345   19.3502 H   0  0  0  0  0  0
  -28.7992  -12.4191   21.4711 H   0  0  0  0  0  0
  -28.3426  -14.0975   21.6983 H   0  0  0  0  0  0
  -25.2727   -9.5692   22.4766 H   0  0  0  0  0  0
  -23.9979   -7.4646   22.7494 H   0  0  0  0  0  0
  -21.0831   -8.8768   19.8979 H   0  0  0  0  0  0
  -22.3668  -10.9666   19.6188 H   0  0  0  0  0  0
  -21.2011   -7.6121   23.9677 H   0  0  0  0  0  0
  -21.1490   -6.0514   25.9054 H   0  0  0  0  0  0
  -22.0602   -2.7581   23.2870 H   0  0  0  0  0  0
  -22.4020  -11.9897   22.4847 H   0  0  0  0  0  0
  -21.1035  -13.1275   22.2613 H   0  0  0  0  0  0
  -24.6384  -15.8445   20.5378 H   0  0  0  0  0  0
  -26.2517  -15.6429   20.0842 H   0  0  0  0  0  0
  -26.7322  -32.5232   23.0944 H   0  0  0  0  0  0
  -25.0107  -33.9562   25.0289 H   0  0  0  0  0  0
  -22.7702  -31.2826   21.3655 H   0  0  0  0  0  0
  -23.3759  -35.9558   23.3292 H   0  0  0  0  0  0
  -24.3567  -36.8890   22.2065 H   0  0  0  0  0  0
  -23.7225  -37.6418   23.6695 H   0  0  0  0  0  0
  -26.1902  -31.4236   20.6157 H   0  0  0  0  0  0
  -26.8903  -30.7334   22.0410 H   0  0  0  0  0  0
  -28.1441  -28.7055   21.2509 H   0  0  0  0  0  0
  -25.8956  -25.8018   18.9887 H   0  0  0  0  0  0
  -23.9906  -27.2935   18.9569 H   0  0  0  0  0  0
  -23.8357  -30.5453   19.3916 H   0  0  0  0  0  0
  -22.8057  -29.2217   19.8393 H   0  0  0  0  0  0
  -25.1314  -36.1832   25.0798 H   0  0  0  0  0  0
  -21.0040  -28.3345   24.1317 H   0  0  0  0  0  0
  -20.5685  -26.2353   23.3627 H   0  0  0  0  0  0
  -21.6655  -26.7415   22.1203 H   0  0  0  0  0  0
  -19.6925  -25.6282   21.1262 H   0  0  0  0  0  0
  -19.6714  -27.3168   20.6719 H   0  0  0  0  0  0
  -17.4217  -26.6696   21.4022 H   0  0  0  0  0  0
  -18.0354  -26.0088   22.9024 H   0  0  0  0  0  0
  -19.7969  -30.7311   24.2221 H   0  0  0  0  0  0
  -17.5038  -31.6277   24.5163 H   0  0  0  0  0  0
  -15.5378  -30.2972   23.7689 H   0  0  0  0  0  0
  -15.8702  -28.0808   22.7092 H   0  0  0  0  0  0
  -24.5877  -30.7137   25.7705 H   0  0  0  0  0  0
  -24.8874  -32.2990   26.4717 H   0  0  0  0  0  0
  -25.7938  -30.9031   27.0231 H   0  0  0  0  0  0
  -26.3071  -29.6649   24.1340 H   0  0  0  0  0  0
  -27.3979  -29.7285   25.4986 H   0  0  0  0  0  0
  -27.9007  -30.4177   23.9748 H   0  0  0  0  0  0
  -27.2642  -33.3691   26.1986 H   0  0  0  0  0  0
  -28.3918  -32.6847   25.0366 H   0  0  0  0  0  0
  -28.0659  -31.8536   26.5508 H   0  0  0  0  0  0
  -28.2580  -38.0081   24.7513 H   0  0  0  0  0  0
  -28.1077  -36.2604   24.6291 H   0  0  0  0  0  0
  -27.2288  -37.1420   25.8872 H   0  0  0  0  0  0
  -20.9524  -29.8749   21.6722 H   0  0  0  0  0  0
  -26.0143  -38.2803   24.1419 H   0  0  0  0  0  0
  -31.2390  -17.7238   24.3744 H   0  0  0  0  0  0
  -32.4499  -19.6405   23.4343 H   0  0  0  0  0  0
  -29.9658  -16.3112   22.8841 H   0  0  0  0  0  0
  -35.8035  -19.9216   21.5477 H   0  0  0  0  0  0
  -34.9513  -21.4752   22.0435 H   0  0  0  0  0  0
  -33.7988  -19.0329   20.5954 H   0  0  0  0  0  0
  -27.2834  -22.1476   18.7831 H   0  0  0  0  0  0
  -28.7479  -22.5535   17.9259 H   0  0  0  0  0  0
  -29.6690  -20.3913   18.3247 H   0  0  0  0  0  0
  -28.0410  -19.9254   18.7643 H   0  0  0  0  0  0
  -29.8310  -23.3149   19.8879 H   0  0  0  0  0  0
  -32.1045  -20.1269   18.8843 H   0  0  0  0  0  0
  -33.0453  -21.5850   19.1150 H   0  0  0  0  0  0
  -31.3330  -21.6591   19.3067 H   0  0  0  0  0  0
  -32.6480  -21.8479   22.8456 H   0  0  0  0  0  0
  -31.4485  -22.5343   21.7783 H   0  0  0  0  0  0
  -33.1267  -22.7137   21.3955 H   0  0  0  0  0  0
  -27.7986  -24.3912   21.5246 H   0  0  0  0  0  0
  -26.9460  -24.2549   20.0565 H   0  0  0  0  0  0
  -28.8304  -16.2103   20.0838 H   0  0  0  0  0  0
  1 25  1  0  0  0
  1 30  2  0  0  0
  1 88  1  0  0  0
  2  3  1  0  0  0
  2 25  1  0  0  0
  2 90  1  0  0  0
  2 91  1  0  0  0
  3  4  1  0  0  0
  3 92  1  0  0  0
  3 93  1  0  0  0
  4  5  1  0  0  0
  4 94  1  0  0  0
  4 95  1  0  0  0
  5  6  1  0  0  0
  5 26  1  0  0  0
  5 96  1  0  0  0
  6 25  1  0  0  0
  6 97  1  0  0  0
  6 98  1  0  0  0
  7  8  2  0  0  0
  7 26  1  0  0  0
  7 29  1  0  0  0
  8  9  1  0  0  0
  8 22  1  0  0  0
  9 10  1  0  0  0
  9 27  2  0  0  0
 10 11  2  0  0  0
 10 15  1  0  0  0
 11 12  1  0  0  0
 11 99  1  0  0  0
 12 13  2  0  0  0
 12100  1  0  0  0
 13 14  1  0  0  0
 13 31  1  0  0  0
 14 15  2  0  0  0
 14101  1  0  0  0
 15102  1  0  0  0
 16 17  2  0  0  0
 16 21  1  0  0  0
 16 31  1  0  0  0
 17 18  1  0  0  0
 17103  1  0  0  0
 18 19  2  0  0  0
 18104  1  0  0  0
 19 20  1  0  0  0
 19 24  1  0  0  0
 20 21  2  0  0  0
 20105  1  0  0  0
 21 23  1  0  0  0
 22 28  1  0  0  0
 22 32  2  0  0  0
 26 27  1  0  0  0
 28106  1  0  0  0
 28107  1  0  0  0
 29108  1  0  0  0
 29109  1  0  0  0
 33 34  1  0  0  0
 33 66  1  0  0  0
 33 70  2  0  0  0
 34 36  1  0  0  0
 34 59  1  0  0  0
 34110  1  0  0  0
 35 44  2  0  0  0
 35 45  1  0  0  0
 35 68  1  0  0  0
 36 56  1  0  0  0
 36111  1  0  0  0
 37 39  1  0  0  0
 37 47  1  0  0  0
 37 66  1  0  0  0
 37112  1  0  0  0
 38 43  2  0  0  0
 38 46  1  0  0  0
 38 47  1  0  0  0
 39 64  1  0  0  0
 39 67  2  0  0  0
 40 52  1  0  0  0
 40 53  2  0  0  0
 40 58  1  0  0  0
 41113  1  0  0  0
 41114  1  0  0  0
 41115  1  0  0  0
 41 48  1  0  0  0
 42 43  1  0  0  0
 42 66  1  0  0  0
 42116  1  0  0  0
 42117  1  0  0  0
 43 44  1  0  0  0
 44118  1  0  0  0
 45 46  2  0  0  0
 45119  1  0  0  0
 46120  1  0  0  0
 47121  1  0  0  0
 47122  1  0  0  0
 48 56  1  0  0  0
 48 65  1  0  0  0
 48123  1  0  0  0
 49 50  1  0  0  0
 49 53  1  0  0  0
 49 64  1  0  0  0
 49124  1  0  0  0
 50 51  1  0  0  0
 50125  1  0  0  0
 50126  1  0  0  0
 51 52  1  0  0  0
 51127  1  0  0  0
 51128  1  0  0  0
 52129  1  0  0  0
 52130  1  0  0  0
 53 54  1  0  0  0
 54 55  2  0  0  0
 54131  1  0  0  0
 55 57  1  0  0  0
 55132  1  0  0  0
 56 69  2  0  0  0
 57 58  2  0  0  0
 57133  1  0  0  0
 58134  1  0  0  0
 59 60  1  0  0  0
 59 61  1  0  0  0
 59 62  1  0  0  0
 60135  1  0  0  0
 60136  1  0  0  0
 60137  1  0  0  0
 61138  1  0  0  0
 61139  1  0  0  0
 61140  1  0  0  0
 62141  1  0  0  0
 62142  1  0  0  0
 62143  1  0  0  0
 63 65  1  0  0  0
 63144  1  0  0  0
 63145  1  0  0  0
 63146  1  0  0  0
 64147  1  0  0  0
 65148  1  0  0  0
 68 85  1  0  0  0
 71 72  2  0  0  0
 71 73  1  0  0  0
 71149  1  0  0  0
 72 74  1  0  0  0
 72150  1  0  0  0
 73 76  2  0  0  0
 73151  1  0  0  0
 74 75  2  0  0  0
 74 86  1  0  0  0
 75 76  1  0  0  0
 75 87  1  0  0  0
 76 88  1  0  0  0
 77 82  1  0  0  0
 77 87  1  0  0  0
 77 89  2  0  0  0
 78 79  2  0  0  0
 78152  1  0  0  0
 78153  1  0  0  0
 79 86  1  0  0  0
 79154  1  0  0  0
 80 81  1  0  0  0
 80 82  1  0  0  0
 80155  1  0  0  0
 80156  1  0  0  0
 81 87  1  0  0  0
 81157  1  0  0  0
 81158  1  0  0  0
 82 85  1  0  0  0
 82159  1  0  0  0
 83160  1  0  0  0
 83161  1  0  0  0
 83162  1  0  0  0
 83 86  1  0  0  0
 84 86  1  0  0  0
 84163  1  0  0  0
 84164  1  0  0  0
 84165  1  0  0  0
 85166  1  0  0  0
 85167  1  0  0  0
 88168  1  0  0  0
M  ISO  4   1 100  68 101  85 101  88 100
M  END
> <chiral flag>
0

> <version>
0

> <s_m_source_file>
/data/baiqing/PycharmProjects/Reinvent-master-3.2/result/LINK_invent/BTK/process_docking_weight1_custom_product_contain_oxygen_bond_distance_aromatic_linkinvent_7_9_3/rearranged_h_0070.sdf

> <i_m_source_file_index>
55

> <r_mmod_Potential_Energy-OPLS-2005>
1156.24682617188

> <r_mmod_Stretch_Energy-OPLS-2005>
383.317687988281

> <r_mmod_Bend_Energy-OPLS-2005>
412.031097412109

> <r_mmod_Torsional_Energy-OPLS-2005>
521.655944824219

> <r_mmod_Improper_Torsional_Energy-OPLS-2005>
15.6596031188965

> <r_mmod_Van_der_Waal_Energy-OPLS-2005>
139.900695800781

> <r_mmod_Electrostatic_Energy-OPLS-2005>
-388.731384277344

> <r_mmod_Solvation_Energy-OPLS-2005>
-224.302490234375

> <b_mmod_Minimization_Converged-OPLS-2005>
0

> <r_mmod_RMS_Derivative-OPLS-2005>
2.64020681381226

$$$$
55
                    3D
 Structure written by MMmdl.
165174  0  0  1  0            999 V2000
  -30.5974  -14.7516   20.4479 C   0  0  0  0  0  0
  -30.4354  -12.4459   19.4969 C   0  0  0  0  0  0
  -29.5218  -12.4821   18.2511 C   0  0  0  0  0  0
  -28.0415  -12.3346   18.6510 C   0  0  0  0  0  0
  -27.6457  -13.2327   19.8529 C   0  0  2  0  0  0
  -28.6833  -13.1619   20.9941 C   0  0  0  0  0  0
  -25.2528  -13.8193   20.5688 C   0  0  0  0  0  0
  -24.1811  -13.0446   20.9189 C   0  0  0  0  0  0
  -24.6389  -11.6922   20.8729 C   0  0  0  0  0  0
  -23.9060  -10.4300   21.0398 C   0  0  0  0  0  0
  -24.3609   -9.4216   21.9177 C   0  0  0  0  0  0
  -23.6287   -8.2245   22.0744 C   0  0  0  0  0  0
  -22.4268   -8.0277   21.3537 C   0  0  0  0  0  0
  -21.9904   -9.0251   20.4645 C   0  0  0  0  0  0
  -22.7227  -10.2131   20.3055 C   0  0  0  0  0  0
  -21.6858   -6.0736   22.5278 C   0  0  0  0  0  0
  -21.4023   -6.5639   23.8213 C   0  0  0  0  0  0
  -21.3662   -5.6789   24.9172 C   0  0  0  0  0  0
  -21.6041   -4.3048   24.7220 C   0  0  0  0  0  0
  -21.8818   -3.8146   23.4345 C   0  0  0  0  0  0
  -21.9201   -4.6965   22.3403 C   0  0  0  0  0  0
  -22.7839  -13.5236   21.1857 C   0  0  0  0  0  0
  -22.1670   -4.2153   21.0981 F   0  0  0  0  0  0
  -21.5618   -3.4534   25.7732 F   0  0  0  0  0  0
  -29.9926  -13.5121   20.4279 N   0  0  0  0  0  0
  -26.2952  -12.9406   20.3255 N   0  0  0  0  0  0
  -25.9323  -11.6549   20.5724 N   0  0  0  0  0  0
  -22.0471  -12.8235   22.0409 N   0  0  0  0  0  0
  -25.4225  -15.1915   20.4133 N   0  0  0  0  0  0
  -31.7639  -14.8676   20.0590 O   0  0  0  0  0  0
  -21.6636   -6.8871   21.4237 O   0  0  0  0  0  0
  -22.3537  -14.5555   20.6722 O   0  0  0  0  0  0
  -24.6339  -31.8541   23.1991 C   0  0  0  0  0  0
  -25.9156  -32.4748   23.8344 C   0  0  1  0  0  0
  -27.2120  -27.2420   20.1311 C   0  0  0  0  0  0
  -25.5940  -33.8551   24.2253 N   0  0  0  0  0  0
  -23.4311  -30.4779   21.5430 C   0  0  2  0  0  0
  -24.8771  -28.9269   20.1072 C   0  0  0  0  0  0
  -22.7517  -29.4593   22.4903 C   0  0  0  0  0  0
  -18.0298  -28.1392   22.8485 C   0  0  0  0  0  0
  -24.1487  -36.7280   23.2640 C   0  0  0  0  0  0
  -25.9798  -30.7598   21.3842 C   0  0  0  0  0  0
  -26.0497  -29.3829   20.7222 C   0  0  0  0  0  0
  -27.2196  -28.5528   20.7241 C   0  0  0  0  0  0
  -26.0189  -26.8688   19.4704 C   0  0  0  0  0  0
  -24.8684  -27.6793   19.4686 C   0  0  0  0  0  0
  -23.6502  -29.8174   20.1571 C   0  0  0  0  0  0
  -25.4112  -36.3065   24.0324 C   0  0  1  0  0  0
  -20.5905  -28.3702   23.1260 C   0  0  2  0  0  0
  -20.6784  -26.9413   22.5407 C   0  0  0  0  0  0
  -19.5758  -26.6381   21.5212 C   0  0  0  0  0  0
  -18.1937  -26.7935   22.1623 C   0  0  0  0  0  0
  -19.1555  -28.8866   23.2866 C   0  0  0  0  0  0
  -18.9475  -30.1465   23.8886 C   0  0  0  0  0  0
  -17.6474  -30.6589   24.0560 C   0  0  0  0  0  0
  -25.9057  -34.9434   23.5089 C   0  0  0  0  0  0
  -16.5363  -29.9082   23.6338 C   0  0  0  0  0  0
  -16.7284  -28.6503   23.0353 C   0  0  0  0  0  0
  -26.4512  -31.6589   25.0749 C   0  0  0  0  0  0
  -25.3727  -31.3772   26.1468 C   0  0  0  0  0  0
  -27.0354  -30.2993   24.6267 C   0  0  0  0  0  0
  -27.6060  -32.4342   25.7517 C   0  0  0  0  0  0
  -27.5576  -37.1791   24.8460 C   0  0  0  0  0  0
  -21.4224  -29.3044   22.3647 N   0  0  0  0  0  0
  -26.4280  -37.3768   23.9415 N   0  0  0  0  0  0
  -24.7005  -31.0493   22.0975 N   0  0  0  0  0  0
  -23.4209  -28.8127   23.3007 O   0  0  0  0  0  0
  -28.2881  -26.3190   20.2177 O   0  0  0  0  0  0
  -26.5632  -34.8912   22.4660 O   0  0  0  0  0  0
  -23.5482  -32.1373   23.7273 O   0  0  0  0  0  0
  -28.9181  -19.4038   18.4228 C   0  0  0  0  0  0
  -29.5595  -18.4953   20.5839 C   0  0  0  0  0  0
  -29.2143  -19.6754   19.7837 C   0  0  0  0  0  0
  -28.9844  -18.1031   17.8683 C   0  0  0  0  0  0
  -29.6507  -17.1375   20.0397 C   0  0  0  0  0  0
  -29.3559  -17.0041   18.6639 C   0  0  0  0  0  0
  -29.0513  -22.3001   19.5691 C   0  0  0  0  0  0
  -28.2131  -18.5321   15.5036 C   0  0  0  0  0  0
  -28.6302  -22.9473   21.7767 C   0  0  0  0  0  0
  -29.0690  -21.4527   21.6874 C   0  0  0  0  0  0
  -29.0109  -23.6260   20.4416 C   0  0  1  0  0  0
  -27.8307  -17.7747   14.2385 C   0  0  0  0  0  0
  -30.4492  -24.1785   20.5024 C   0  0  0  0  0  0
  -28.0326  -24.8474   19.9606 C   0  0  0  0  0  0
  -29.1022  -21.0997   20.2702 N   0  0  0  0  0  0
  -28.6387  -17.7737   16.5251 N   0  0  0  0  0  0
  -29.8524  -15.8710   20.7998 N   0  0  0  0  0  0
  -29.0833  -22.4029   18.3392 O   0  0  0  0  0  0
  -28.1349  -19.7612   15.5167 O   0  0  0  0  0  0
  -29.3479  -15.7798   18.0830 F   0  0  0  0  0  0
  -31.4795  -12.5627   19.2013 H   0  0  0  0  0  0
  -30.3760  -11.4726   19.9852 H   0  0  0  0  0  0
  -29.7972  -11.6817   17.5634 H   0  0  0  0  0  0
  -29.6725  -13.4119   17.7032 H   0  0  0  0  0  0
  -27.8754  -11.2873   18.9031 H   0  0  0  0  0  0
  -27.3996  -12.5437   17.7952 H   0  0  0  0  0  0
  -27.6425  -14.2548   19.4747 H   0  0  0  0  0  0
  -28.7097  -12.1634   21.4318 H   0  0  0  0  0  0
  -28.4089  -13.8387   21.8038 H   0  0  0  0  0  0
  -25.2745   -9.5702   22.4766 H   0  0  0  0  0  0
  -23.9997   -7.4633   22.7461 H   0  0  0  0  0  0
  -21.0832   -8.8772   19.8951 H   0  0  0  0  0  0
  -22.3669  -10.9674   19.6175 H   0  0  0  0  0  0
  -21.2017   -7.6146   23.9720 H   0  0  0  0  0  0
  -21.1488   -6.0516   25.9074 H   0  0  0  0  0  0
  -22.0598   -2.7611   23.2847 H   0  0  0  0  0  0
  -22.4090  -11.9907   22.4810 H   0  0  0  0  0  0
  -21.1103  -13.1284   22.2612 H   0  0  0  0  0  0
  -24.6499  -15.8407   20.5133 H   0  0  0  0  0  0
  -26.2652  -15.6281   20.0634 H   0  0  0  0  0  0
  -26.7220  -32.5385   23.1084 H   0  0  0  0  0  0
  -25.0080  -33.9690   25.0394 H   0  0  0  0  0  0
  -22.7290  -31.3015   21.3994 H   0  0  0  0  0  0
  -23.3750  -35.9607   23.3294 H   0  0  0  0  0  0
  -24.3576  -36.8914   22.2054 H   0  0  0  0  0  0
  -23.7237  -37.6475   23.6675 H   0  0  0  0  0  0
  -26.1272  -31.5219   20.6186 H   0  0  0  0  0  0
  -26.8534  -30.8025   22.0228 H   0  0  0  0  0  0
  -28.1133  -28.8924   21.2283 H   0  0  0  0  0  0
  -25.9366  -25.9215   18.9601 H   0  0  0  0  0  0
  -23.9732  -27.3284   18.9735 H   0  0  0  0  0  0
  -23.7805  -30.5976   19.4061 H   0  0  0  0  0  0
  -22.7669  -29.2566   19.8471 H   0  0  0  0  0  0
  -25.1294  -36.1904   25.0814 H   0  0  0  0  0  0
  -20.9999  -28.3281   24.1381 H   0  0  0  0  0  0
  -20.5681  -26.2310   23.3615 H   0  0  0  0  0  0
  -21.6650  -26.7431   22.1203 H   0  0  0  0  0  0
  -19.6911  -25.6287   21.1252 H   0  0  0  0  0  0
  -19.6692  -27.3184   20.6736 H   0  0  0  0  0  0
  -17.4202  -26.6686   21.4024 H   0  0  0  0  0  0
  -18.0330  -26.0079   22.9023 H   0  0  0  0  0  0
  -19.7945  -30.7289   24.2244 H   0  0  0  0  0  0
  -17.5024  -31.6270   24.5161 H   0  0  0  0  0  0
  -15.5362  -30.2980   23.7671 H   0  0  0  0  0  0
  -15.8685  -28.0819   22.7075 H   0  0  0  0  0  0
  -24.5881  -30.7136   25.7817 H   0  0  0  0  0  0
  -24.8941  -32.2952   26.4888 H   0  0  0  0  0  0
  -25.8033  -30.8957   27.0257 H   0  0  0  0  0  0
  -26.2945  -29.6745   24.1259 H   0  0  0  0  0  0
  -27.3973  -29.7264   25.4821 H   0  0  0  0  0  0
  -27.8862  -30.4253   23.9566 H   0  0  0  0  0  0
  -27.2656  -33.3638   26.2096 H   0  0  0  0  0  0
  -28.3867  -32.6909   25.0344 H   0  0  0  0  0  0
  -28.0735  -31.8471   26.5437 H   0  0  0  0  0  0
  -28.2587  -38.0097   24.7514 H   0  0  0  0  0  0
  -28.1080  -36.2627   24.6268 H   0  0  0  0  0  0
  -27.2303  -37.1421   25.8866 H   0  0  0  0  0  0
  -20.9410  -29.8775   21.6857 H   0  0  0  0  0  0
  -26.0158  -38.2834   24.1430 H   0  0  0  0  0  0
  -28.5908  -20.2039   17.7860 H   0  0  0  0  0  0
  -29.7512  -18.6340   21.6384 H   0  0  0  0  0  0
  -29.0700  -23.4473   22.6403 H   0  0  0  0  0  0
  -27.5489  -22.9859   21.9150 H   0  0  0  0  0  0
  -28.3927  -20.8019   22.2434 H   0  0  0  0  0  0
  -30.0710  -21.3222   22.0978 H   0  0  0  0  0  0
  -27.2090  -16.9105   14.4755 H   0  0  0  0  0  0
  -28.7245  -17.4254   13.7216 H   0  0  0  0  0  0
  -27.2676  -18.4145   13.5593 H   0  0  0  0  0  0
  -31.1777  -23.4039   20.7458 H   0  0  0  0  0  0
  -30.5367  -24.9568   21.2610 H   0  0  0  0  0  0
  -30.7418  -24.6175   19.5482 H   0  0  0  0  0  0
  -27.0498  -24.6097   20.3682 H   0  0  0  0  0  0
  -27.9180  -24.7592   18.8801 H   0  0  0  0  0  0
  -28.6939  -16.7822   16.3286 H   0  0  0  0  0  0
  -29.0628  -15.6360   21.3829 H   0  0  0  0  0  0
  1 25  1  0  0  0
  1 30  2  0  0  0
  1 87  1  0  0  0
  2  3  1  0  0  0
  2 25  1  0  0  0
  2 91  1  0  0  0
  2 92  1  0  0  0
  3  4  1  0  0  0
  3 93  1  0  0  0
  3 94  1  0  0  0
  4  5  1  0  0  0
  4 95  1  0  0  0
  4 96  1  0  0  0
  5  6  1  0  0  0
  5 26  1  0  0  0
  5 97  1  0  0  0
  6 25  1  0  0  0
  6 98  1  0  0  0
  6 99  1  0  0  0
  7  8  2  0  0  0
  7 26  1  0  0  0
  7 29  1  0  0  0
  8  9  1  0  0  0
  8 22  1  0  0  0
  9 10  1  0  0  0
  9 27  2  0  0  0
 10 11  2  0  0  0
 10 15  1  0  0  0
 11 12  1  0  0  0
 11100  1  0  0  0
 12 13  2  0  0  0
 12101  1  0  0  0
 13 14  1  0  0  0
 13 31  1  0  0  0
 14 15  2  0  0  0
 14102  1  0  0  0
 15103  1  0  0  0
 16 17  2  0  0  0
 16 21  1  0  0  0
 16 31  1  0  0  0
 17 18  1  0  0  0
 17104  1  0  0  0
 18 19  2  0  0  0
 18105  1  0  0  0
 19 20  1  0  0  0
 19 24  1  0  0  0
 20 21  2  0  0  0
 20106  1  0  0  0
 21 23  1  0  0  0
 22 28  1  0  0  0
 22 32  2  0  0  0
 26 27  1  0  0  0
 28107  1  0  0  0
 28108  1  0  0  0
 29109  1  0  0  0
 29110  1  0  0  0
 33 34  1  0  0  0
 33 66  1  0  0  0
 33 70  2  0  0  0
 34 36  1  0  0  0
 34 59  1  0  0  0
 34111  1  0  0  0
 35 44  2  0  0  0
 35 45  1  0  0  0
 35 68  1  0  0  0
 36 56  1  0  0  0
 36112  1  0  0  0
 37 39  1  0  0  0
 37 47  1  0  0  0
 37 66  1  0  0  0
 37113  1  0  0  0
 38 43  2  0  0  0
 38 46  1  0  0  0
 38 47  1  0  0  0
 39 64  1  0  0  0
 39 67  2  0  0  0
 40 52  1  0  0  0
 40 53  2  0  0  0
 40 58  1  0  0  0
 41114  1  0  0  0
 41115  1  0  0  0
 41116  1  0  0  0
 41 48  1  0  0  0
 42 43  1  0  0  0
 42 66  1  0  0  0
 42117  1  0  0  0
 42118  1  0  0  0
 43 44  1  0  0  0
 44119  1  0  0  0
 45 46  2  0  0  0
 45120  1  0  0  0
 46121  1  0  0  0
 47122  1  0  0  0
 47123  1  0  0  0
 48 56  1  0  0  0
 48 65  1  0  0  0
 48124  1  0  0  0
 49 50  1  0  0  0
 49 53  1  0  0  0
 49 64  1  0  0  0
 49125  1  0  0  0
 50 51  1  0  0  0
 50126  1  0  0  0
 50127  1  0  0  0
 51 52  1  0  0  0
 51128  1  0  0  0
 51129  1  0  0  0
 52130  1  0  0  0
 52131  1  0  0  0
 53 54  1  0  0  0
 54 55  2  0  0  0
 54132  1  0  0  0
 55 57  1  0  0  0
 55133  1  0  0  0
 56 69  2  0  0  0
 57 58  2  0  0  0
 57134  1  0  0  0
 58135  1  0  0  0
 59 60  1  0  0  0
 59 61  1  0  0  0
 59 62  1  0  0  0
 60136  1  0  0  0
 60137  1  0  0  0
 60138  1  0  0  0
 61139  1  0  0  0
 61140  1  0  0  0
 61141  1  0  0  0
 62142  1  0  0  0
 62143  1  0  0  0
 62144  1  0  0  0
 63 65  1  0  0  0
 63145  1  0  0  0
 63146  1  0  0  0
 63147  1  0  0  0
 64148  1  0  0  0
 65149  1  0  0  0
 68 84  1  0  0  0
 71 73  2  0  0  0
 71 74  1  0  0  0
 71150  1  0  0  0
 72 73  1  0  0  0
 72 75  2  0  0  0
 72151  1  0  0  0
 73 85  1  0  0  0
 74 76  2  0  0  0
 74 86  1  0  0  0
 75 76  1  0  0  0
 75 87  1  0  0  0
 76 90  1  0  0  0
 77 81  1  0  0  0
 77 85  1  0  0  0
 77 88  2  0  0  0
 78 82  1  0  0  0
 78 86  1  0  0  0
 78 89  2  0  0  0
 79 80  1  0  0  0
 79 81  1  0  0  0
 79152  1  0  0  0
 79153  1  0  0  0
 80 85  1  0  0  0
 80154  1  0  0  0
 80155  1  0  0  0
 81 83  1  0  0  0
 81 84  1  0  0  0
 82156  1  0  0  0
 82157  1  0  0  0
 82158  1  0  0  0
 83159  1  0  0  0
 83160  1  0  0  0
 83161  1  0  0  0
 84162  1  0  0  0
 84163  1  0  0  0
 86164  1  0  0  0
 87165  1  0  0  0
M  ISO  4   1 100  68 101  84 101  87 100
M  END
> <chiral flag>
0

> <version>
0

> <s_m_source_file>
/data/baiqing/PycharmProjects/Reinvent-master-3.2/result/LINK_invent/BTK/process_docking_weight1_custom_product_contain_oxygen_bond_distance_aromatic_linkinvent_7_9_3/rearranged_h_0070.sdf

> <i_m_source_file_index>
56

> <r_mmod_Potential_Energy-OPLS-2005>
241.579162597656

> <r_mmod_Stretch_Energy-OPLS-2005>
141.258529663086

> <r_mmod_Bend_Energy-OPLS-2005>
210.669097900391

> <r_mmod_Torsional_Energy-OPLS-2005>
313.983764648438

> <r_mmod_Improper_Torsional_Energy-OPLS-2005>
6.2309193611145

> <r_mmod_Van_der_Waal_Energy-OPLS-2005>
148.842636108398

> <r_mmod_Electrostatic_Energy-OPLS-2005>
-424.350341796875

> <r_mmod_Solvation_Energy-OPLS-2005>
-250.301193237305

> <b_mmod_Minimization_Converged-OPLS-2005>
0

> <r_mmod_RMS_Derivative-OPLS-2005>
1.55991721153259

$$$$
56
                    3D
 Structure written by MMmdl.
152160  0  0  1  0            999 V2000
  -30.6113  -14.6535   20.4959 C   0  0  0  0  0  0
  -30.4403  -12.4000   19.4549 C   0  0  0  0  0  0
  -29.5092  -12.5064   18.2258 C   0  0  0  0  0  0
  -28.0320  -12.3412   18.6366 C   0  0  0  0  0  0
  -27.6518  -13.2150   19.8611 C   0  0  2  0  0  0
  -28.6959  -13.0750   20.9923 C   0  0  0  0  0  0
  -25.2556  -13.8162   20.5679 C   0  0  0  0  0  0
  -24.1827  -13.0433   20.9206 C   0  0  0  0  0  0
  -24.6391  -11.6902   20.8745 C   0  0  0  0  0  0
  -23.9057  -10.4288   21.0410 C   0  0  0  0  0  0
  -24.3612   -9.4204   21.9186 C   0  0  0  0  0  0
  -23.6289   -8.2239   22.0753 C   0  0  0  0  0  0
  -22.4271   -8.0277   21.3544 C   0  0  0  0  0  0
  -21.9903   -9.0252   20.4649 C   0  0  0  0  0  0
  -22.7228  -10.2134   20.3059 C   0  0  0  0  0  0
  -21.6852   -6.0733   22.5279 C   0  0  0  0  0  0
  -21.4014   -6.5638   23.8212 C   0  0  0  0  0  0
  -21.3659   -5.6790   24.9175 C   0  0  0  0  0  0
  -21.6044   -4.3052   24.7225 C   0  0  0  0  0  0
  -21.8819   -3.8145   23.4346 C   0  0  0  0  0  0
  -21.9193   -4.6961   22.3402 C   0  0  0  0  0  0
  -22.7851  -13.5234   21.1863 C   0  0  0  0  0  0
  -22.1662   -4.2148   21.0980 F   0  0  0  0  0  0
  -21.5629   -3.4536   25.7737 F   0  0  0  0  0  0
  -30.0108  -13.4223   20.4305 N   0  0  0  0  0  0
  -26.2977  -12.9338   20.3295 N   0  0  0  0  0  0
  -25.9316  -11.6498   20.5747 N   0  0  0  0  0  0
  -22.0485  -12.8232   22.0417 N   0  0  0  0  0  0
  -25.4265  -15.1881   20.4065 N   0  0  0  0  0  0
  -31.7774  -14.8138   20.1212 O   0  0  0  0  0  0
  -21.6636   -6.8875   21.4240 O   0  0  0  0  0  0
  -22.3544  -14.5542   20.6705 O   0  0  0  0  0  0
  -24.6257  -31.8597   23.2019 C   0  0  0  0  0  0
  -25.9104  -32.4778   23.8351 C   0  0  1  0  0  0
  -27.2254  -27.3182   20.1256 C   0  0  0  0  0  0
  -25.5920  -33.8579   24.2276 N   0  0  0  0  0  0
  -23.4197  -30.4822   21.5448 C   0  0  2  0  0  0
  -24.8672  -28.9337   20.1145 C   0  0  0  0  0  0
  -22.7472  -29.4621   22.4942 C   0  0  0  0  0  0
  -18.0284  -28.1386   22.8486 C   0  0  0  0  0  0
  -24.1490  -36.7295   23.2639 C   0  0  0  0  0  0
  -25.9604  -30.7904   21.3732 C   0  0  0  0  0  0
  -26.0354  -29.4162   20.7185 C   0  0  0  0  0  0
  -27.2193  -28.6208   20.7120 C   0  0  0  0  0  0
  -26.0390  -26.8900   19.4908 C   0  0  0  0  0  0
  -24.8706  -27.6760   19.4910 C   0  0  0  0  0  0
  -23.6349  -29.8141   20.1613 C   0  0  0  0  0  0
  -25.4114  -36.3083   24.0329 C   0  0  1  0  0  0
  -20.5883  -28.3687   23.1289 C   0  0  2  0  0  0
  -20.6773  -26.9411   22.5415 C   0  0  0  0  0  0
  -19.5752  -26.6385   21.5215 C   0  0  0  0  0  0
  -18.1930  -26.7929   22.1624 C   0  0  0  0  0  0
  -19.1536  -28.8853   23.2881 C   0  0  0  0  0  0
  -18.9458  -30.1456   23.8896 C   0  0  0  0  0  0
  -17.6458  -30.6586   24.0564 C   0  0  0  0  0  0
  -25.9050  -34.9452   23.5104 C   0  0  0  0  0  0
  -16.5349  -29.9086   23.6331 C   0  0  0  0  0  0
  -16.7272  -28.6505   23.0349 C   0  0  0  0  0  0
  -26.4491  -31.6588   25.0721 C   0  0  0  0  0  0
  -25.3726  -31.3732   26.1452 C   0  0  0  0  0  0
  -27.0327  -30.3009   24.6175 C   0  0  0  0  0  0
  -27.6060  -32.4317   25.7483 C   0  0  0  0  0  0
  -27.5581  -37.1799   24.8462 C   0  0  0  0  0  0
  -21.4186  -29.3039   22.3683 N   0  0  0  0  0  0
  -26.4293  -37.3776   23.9406 N   0  0  0  0  0  0
  -24.6874  -31.0608   22.0970 N   0  0  0  0  0  0
  -23.4194  -28.8163   23.3025 O   0  0  0  0  0  0
  -28.3467  -26.4772   20.1407 O   0  0  0  0  0  0
  -26.5622  -34.8920   22.4672 O   0  0  0  0  0  0
  -23.5421  -32.1392   23.7350 O   0  0  0  0  0  0
  -28.7029  -19.3670   20.4587 C   0  0  0  0  0  0
  -28.7011  -17.9533   20.6866 C   0  0  0  0  0  0
  -31.0759  -17.8723   20.3696 C   0  0  0  0  0  0
  -29.8948  -20.0821   20.1651 C   0  0  0  0  0  0
  -29.8796  -17.1536   20.6229 C   0  0  0  0  0  0
  -31.0848  -19.2841   20.1524 C   0  0  0  0  0  0
  -29.9190  -21.5589   19.7612 C   0  0  0  0  0  0
  -29.1629  -24.0366   19.8665 C   0  0  0  0  0  0
  -28.1568  -25.0530   20.5319 C   0  0  0  0  0  0
  -29.7876  -15.7010   20.8269 N   0  0  0  0  0  0
  -29.1370  -22.5936   20.2561 N   0  0  0  0  0  0
  -30.7922  -21.8607   18.7927 N   0  3  0  0  0  0
  -29.9652  -24.4470   19.0161 O   0  0  0  0  0  0
  -32.2819  -19.8630   19.8833 F   0  0  0  0  0  0
  -31.4807  -12.5308   19.1519 H   0  0  0  0  0  0
  -30.3812  -11.4051   19.8991 H   0  0  0  0  0  0
  -29.7771  -11.7525   17.4843 H   0  0  0  0  0  0
  -29.6483  -13.4739   17.7407 H   0  0  0  0  0  0
  -27.8715  -11.2885   18.8722 H   0  0  0  0  0  0
  -27.3775  -12.5663   17.7936 H   0  0  0  0  0  0
  -27.6677  -14.2483   19.5150 H   0  0  0  0  0  0
  -28.7099  -12.0536   21.3759 H   0  0  0  0  0  0
  -28.4377  -13.7074   21.8431 H   0  0  0  0  0  0
  -25.2759   -9.5682   22.4756 H   0  0  0  0  0  0
  -24.0001   -7.4629   22.7469 H   0  0  0  0  0  0
  -21.0833   -8.8771   19.8956 H   0  0  0  0  0  0
  -22.3686  -10.9673   19.6169 H   0  0  0  0  0  0
  -21.2005   -7.6145   23.9715 H   0  0  0  0  0  0
  -21.1482   -6.0520   25.9078 H   0  0  0  0  0  0
  -22.0599   -2.7606   23.2844 H   0  0  0  0  0  0
  -22.4095  -11.9892   22.4809 H   0  0  0  0  0  0
  -21.1106  -13.1267   22.2623 H   0  0  0  0  0  0
  -24.6483  -15.8326   20.4953 H   0  0  0  0  0  0
  -26.2471  -15.6137   19.9969 H   0  0  0  0  0  0
  -26.7173  -32.5452   23.1102 H   0  0  0  0  0  0
  -25.0063  -33.9724   25.0418 H   0  0  0  0  0  0
  -22.7135  -31.3024   21.4007 H   0  0  0  0  0  0
  -23.3752  -35.9628   23.3301 H   0  0  0  0  0  0
  -24.3581  -36.8916   22.2053 H   0  0  0  0  0  0
  -23.7243  -37.6498   23.6661 H   0  0  0  0  0  0
  -26.0909  -31.5527   20.6037 H   0  0  0  0  0  0
  -26.8411  -30.8409   22.0018 H   0  0  0  0  0  0
  -28.1179  -28.9882   21.1874 H   0  0  0  0  0  0
  -26.0028  -25.9363   18.9850 H   0  0  0  0  0  0
  -23.9776  -27.3043   19.0074 H   0  0  0  0  0  0
  -23.7540  -30.5889   19.4032 H   0  0  0  0  0  0
  -22.7553  -29.2421   19.8603 H   0  0  0  0  0  0
  -25.1295  -36.1937   25.0822 H   0  0  0  0  0  0
  -20.9976  -28.3263   24.1408 H   0  0  0  0  0  0
  -20.5674  -26.2297   23.3613 H   0  0  0  0  0  0
  -21.6643  -26.7442   22.1209 H   0  0  0  0  0  0
  -19.6912  -25.6296   21.1245 H   0  0  0  0  0  0
  -19.6691  -27.3197   20.6746 H   0  0  0  0  0  0
  -17.4201  -26.6678   21.4024 H   0  0  0  0  0  0
  -18.0326  -26.0070   22.9020 H   0  0  0  0  0  0
  -19.7933  -30.7274   24.2263 H   0  0  0  0  0  0
  -17.5012  -31.6265   24.5168 H   0  0  0  0  0  0
  -15.5349  -30.2987   23.7655 H   0  0  0  0  0  0
  -15.8673  -28.0827   22.7059 H   0  0  0  0  0  0
  -24.5898  -30.7082   25.7785 H   0  0  0  0  0  0
  -24.8921  -32.2902   26.4873 H   0  0  0  0  0  0
  -25.8051  -30.8913   27.0230 H   0  0  0  0  0  0
  -26.2896  -29.6760   24.1207 H   0  0  0  0  0  0
  -27.4030  -29.7264   25.4676 H   0  0  0  0  0  0
  -27.8766  -30.4290   23.9391 H   0  0  0  0  0  0
  -27.2682  -33.3621   26.2060 H   0  0  0  0  0  0
  -28.3866  -32.6868   25.0303 H   0  0  0  0  0  0
  -28.0734  -31.8441   26.5394 H   0  0  0  0  0  0
  -28.2601  -38.0095   24.7509 H   0  0  0  0  0  0
  -28.1076  -36.2625   24.6288 H   0  0  0  0  0  0
  -27.2301  -37.1450   25.8867 H   0  0  0  0  0  0
  -20.9365  -29.8758   21.6890 H   0  0  0  0  0  0
  -26.0177  -38.2854   24.1406 H   0  0  0  0  0  0
  -27.7590  -19.8930   20.4741 H   0  0  0  0  0  0
  -27.7519  -17.4765   20.8888 H   0  0  0  0  0  0
  -32.0181  -17.3479   20.3229 H   0  0  0  0  0  0
  -28.2873  -24.9891   21.6120 H   0  0  0  0  0  0
  -27.1510  -24.6881   20.3327 H   0  0  0  0  0  0
  -28.8788  -15.3827   21.1239 H   0  0  0  0  0  0
  -28.4973  -22.2741   20.9679 H   0  0  0  0  0  0
  -31.4887  -21.1812   18.5211 H   0  0  0  0  0  0
  -30.8706  -22.8243   18.4879 H   0  0  0  0  0  0
  1 25  1  0  0  0
  1 30  2  0  0  0
  1 80  1  0  0  0
  2  3  1  0  0  0
  2 25  1  0  0  0
  2 85  1  0  0  0
  2 86  1  0  0  0
  3  4  1  0  0  0
  3 87  1  0  0  0
  3 88  1  0  0  0
  4  5  1  0  0  0
  4 89  1  0  0  0
  4 90  1  0  0  0
  5  6  1  0  0  0
  5 26  1  0  0  0
  5 91  1  0  0  0
  6 25  1  0  0  0
  6 92  1  0  0  0
  6 93  1  0  0  0
  7  8  2  0  0  0
  7 26  1  0  0  0
  7 29  1  0  0  0
  8  9  1  0  0  0
  8 22  1  0  0  0
  9 10  1  0  0  0
  9 27  2  0  0  0
 10 11  2  0  0  0
 10 15  1  0  0  0
 11 12  1  0  0  0
 11 94  1  0  0  0
 12 13  2  0  0  0
 12 95  1  0  0  0
 13 14  1  0  0  0
 13 31  1  0  0  0
 14 15  2  0  0  0
 14 96  1  0  0  0
 15 97  1  0  0  0
 16 17  2  0  0  0
 16 21  1  0  0  0
 16 31  1  0  0  0
 17 18  1  0  0  0
 17 98  1  0  0  0
 18 19  2  0  0  0
 18 99  1  0  0  0
 19 20  1  0  0  0
 19 24  1  0  0  0
 20 21  2  0  0  0
 20100  1  0  0  0
 21 23  1  0  0  0
 22 28  1  0  0  0
 22 32  2  0  0  0
 26 27  1  0  0  0
 28101  1  0  0  0
 28102  1  0  0  0
 29103  1  0  0  0
 29104  1  0  0  0
 33 34  1  0  0  0
 33 66  1  0  0  0
 33 70  2  0  0  0
 34 36  1  0  0  0
 34 59  1  0  0  0
 34105  1  0  0  0
 35 44  2  0  0  0
 35 45  1  0  0  0
 35 68  1  0  0  0
 36 56  1  0  0  0
 36106  1  0  0  0
 37 39  1  0  0  0
 37 47  1  0  0  0
 37 66  1  0  0  0
 37107  1  0  0  0
 38 43  2  0  0  0
 38 46  1  0  0  0
 38 47  1  0  0  0
 39 64  1  0  0  0
 39 67  2  0  0  0
 40 52  1  0  0  0
 40 53  2  0  0  0
 40 58  1  0  0  0
 41108  1  0  0  0
 41109  1  0  0  0
 41110  1  0  0  0
 41 48  1  0  0  0
 42 43  1  0  0  0
 42 66  1  0  0  0
 42111  1  0  0  0
 42112  1  0  0  0
 43 44  1  0  0  0
 44113  1  0  0  0
 45 46  2  0  0  0
 45114  1  0  0  0
 46115  1  0  0  0
 47116  1  0  0  0
 47117  1  0  0  0
 48 56  1  0  0  0
 48 65  1  0  0  0
 48118  1  0  0  0
 49 50  1  0  0  0
 49 53  1  0  0  0
 49 64  1  0  0  0
 49119  1  0  0  0
 50 51  1  0  0  0
 50120  1  0  0  0
 50121  1  0  0  0
 51 52  1  0  0  0
 51122  1  0  0  0
 51123  1  0  0  0
 52124  1  0  0  0
 52125  1  0  0  0
 53 54  1  0  0  0
 54 55  2  0  0  0
 54126  1  0  0  0
 55 57  1  0  0  0
 55127  1  0  0  0
 56 69  2  0  0  0
 57 58  2  0  0  0
 57128  1  0  0  0
 58129  1  0  0  0
 59 60  1  0  0  0
 59 61  1  0  0  0
 59 62  1  0  0  0
 60130  1  0  0  0
 60131  1  0  0  0
 60132  1  0  0  0
 61133  1  0  0  0
 61134  1  0  0  0
 61135  1  0  0  0
 62136  1  0  0  0
 62137  1  0  0  0
 62138  1  0  0  0
 63 65  1  0  0  0
 63139  1  0  0  0
 63140  1  0  0  0
 63141  1  0  0  0
 64142  1  0  0  0
 65143  1  0  0  0
 68 79  1  0  0  0
 71 72  2  0  0  0
 71 74  1  0  0  0
 71144  1  0  0  0
 72 75  1  0  0  0
 72145  1  0  0  0
 73 75  2  0  0  0
 73 76  1  0  0  0
 73146  1  0  0  0
 74 76  2  0  0  0
 74 77  1  0  0  0
 75 80  1  0  0  0
 76 84  1  0  0  0
 77 81  1  0  0  0
 77 82  2  0  0  0
 78 79  1  0  0  0
 78 81  1  0  0  0
 78 83  2  0  0  0
 79147  1  0  0  0
 79148  1  0  0  0
 80149  1  0  0  0
 81150  1  0  0  0
 82151  1  0  0  0
 82152  1  0  0  0
M  CHG  1  82   1
M  ISO  4   1 100  68 101  79 101  80 100
M  END
> <chiral flag>
0

> <version>
0

> <s_m_source_file>
/data/baiqing/PycharmProjects/Reinvent-master-3.2/result/LINK_invent/BTK/process_docking_weight1_custom_product_contain_oxygen_bond_distance_aromatic_linkinvent_7_9_3/rearranged_h_0070.sdf

> <i_m_source_file_index>
57

> <r_mmod_Potential_Energy-OPLS-2005>
-171.113098144531

> <r_mmod_Stretch_Energy-OPLS-2005>
88.8483047485352

> <r_mmod_Bend_Energy-OPLS-2005>
143.545318603516

> <r_mmod_Torsional_Energy-OPLS-2005>
223.217269897461

> <r_mmod_Improper_Torsional_Energy-OPLS-2005>
5.6275429725647

> <r_mmod_Van_der_Waal_Energy-OPLS-2005>
160.325942993164

> <r_mmod_Electrostatic_Energy-OPLS-2005>
-378.513397216797

> <r_mmod_Solvation_Energy-OPLS-2005>
-464.06884765625

> <b_mmod_Minimization_Converged-OPLS-2005>
0

> <r_mmod_RMS_Derivative-OPLS-2005>
0.336467862129211

$$$$
57
                    3D
 Structure written by MMmdl.
158167  0  0  1  0            999 V2000
  -30.6072  -14.7457   20.4488 C   0  0  0  0  0  0
  -30.4348  -12.4490   19.4873 C   0  0  0  0  0  0
  -29.5162  -12.5036   18.2457 C   0  0  0  0  0  0
  -28.0405  -12.3348   18.6535 C   0  0  0  0  0  0
  -27.6461  -13.2335   19.8557 C   0  0  2  0  0  0
  -28.6869  -13.1632   20.9960 C   0  0  0  0  0  0
  -25.2519  -13.8205   20.5689 C   0  0  0  0  0  0
  -24.1801  -13.0450   20.9190 C   0  0  0  0  0  0
  -24.6390  -11.6926   20.8734 C   0  0  0  0  0  0
  -23.9064  -10.4299   21.0400 C   0  0  0  0  0  0
  -24.3615   -9.4217   21.9183 C   0  0  0  0  0  0
  -23.6291   -8.2248   22.0756 C   0  0  0  0  0  0
  -22.4275   -8.0280   21.3546 C   0  0  0  0  0  0
  -21.9906   -9.0253   20.4651 C   0  0  0  0  0  0
  -22.7231  -10.2135   20.3058 C   0  0  0  0  0  0
  -21.6855   -6.0731   22.5276 C   0  0  0  0  0  0
  -21.4015   -6.5637   23.8208 C   0  0  0  0  0  0
  -21.3664   -5.6793   24.9172 C   0  0  0  0  0  0
  -21.6045   -4.3053   24.7225 C   0  0  0  0  0  0
  -21.8818   -3.8143   23.4344 C   0  0  0  0  0  0
  -21.9197   -4.6959   22.3400 C   0  0  0  0  0  0
  -22.7827  -13.5237   21.1856 C   0  0  0  0  0  0
  -22.1671   -4.2143   21.0979 F   0  0  0  0  0  0
  -21.5626   -3.4540   25.7737 F   0  0  0  0  0  0
  -29.9955  -13.5099   20.4258 N   0  0  0  0  0  0
  -26.2952  -12.9416   20.3287 N   0  0  0  0  0  0
  -25.9325  -11.6555   20.5745 N   0  0  0  0  0  0
  -22.0468  -12.8231   22.0412 N   0  0  0  0  0  0
  -25.4232  -15.1929   20.4122 N   0  0  0  0  0  0
  -31.7798  -14.8544   20.0778 O   0  0  0  0  0  0
  -21.6641   -6.8876   21.4239 O   0  0  0  0  0  0
  -22.3516  -14.5548   20.6711 O   0  0  0  0  0  0
  -24.6327  -31.8553   23.1987 C   0  0  0  0  0  0
  -25.9151  -32.4752   23.8332 C   0  0  1  0  0  0
  -27.2138  -27.2483   20.1263 C   0  0  0  0  0  0
  -25.5944  -33.8554   24.2250 N   0  0  0  0  0  0
  -23.4298  -30.4794   21.5423 C   0  0  2  0  0  0
  -24.8762  -28.9303   20.1059 C   0  0  0  0  0  0
  -22.7515  -29.4607   22.4907 C   0  0  0  0  0  0
  -18.0295  -28.1395   22.8478 C   0  0  0  0  0  0
  -24.1491  -36.7288   23.2639 C   0  0  0  0  0  0
  -25.9776  -30.7612   21.3846 C   0  0  0  0  0  0
  -26.0475  -29.3839   20.7253 C   0  0  0  0  0  0
  -27.2160  -28.5531   20.7311 C   0  0  0  0  0  0
  -26.0272  -26.8874   19.4448 C   0  0  0  0  0  0
  -24.8727  -27.6907   19.4534 C   0  0  0  0  0  0
  -23.6480  -29.8176   20.1568 C   0  0  0  0  0  0
  -25.4119  -36.3069   24.0323 C   0  0  1  0  0  0
  -20.5901  -28.3712   23.1259 C   0  0  2  0  0  0
  -20.6784  -26.9430   22.5403 C   0  0  0  0  0  0
  -19.5758  -26.6389   21.5211 C   0  0  0  0  0  0
  -18.1938  -26.7934   22.1622 C   0  0  0  0  0  0
  -19.1548  -28.8870   23.2862 C   0  0  0  0  0  0
  -18.9470  -30.1468   23.8887 C   0  0  0  0  0  0
  -17.6470  -30.6594   24.0565 C   0  0  0  0  0  0
  -25.9063  -34.9440   23.5088 C   0  0  0  0  0  0
  -16.5362  -29.9093   23.6332 C   0  0  0  0  0  0
  -16.7282  -28.6511   23.0352 C   0  0  0  0  0  0
  -26.4504  -31.6581   25.0731 C   0  0  0  0  0  0
  -25.3710  -31.3748   26.1441 C   0  0  0  0  0  0
  -27.0351  -30.2988   24.6242 C   0  0  0  0  0  0
  -27.6055  -32.4325   25.7504 C   0  0  0  0  0  0
  -27.5582  -37.1800   24.8463 C   0  0  0  0  0  0
  -21.4221  -29.3053   22.3645 N   0  0  0  0  0  0
  -26.4292  -37.3771   23.9408 N   0  0  0  0  0  0
  -24.6990  -31.0505   22.0975 N   0  0  0  0  0  0
  -23.4208  -28.8152   23.3015 O   0  0  0  0  0  0
  -28.2911  -26.3264   20.2207 O   0  0  0  0  0  0
  -26.5636  -34.8919   22.4659 O   0  0  0  0  0  0
  -23.5474  -32.1389   23.7271 O   0  0  0  0  0  0
  -29.6603  -18.5006   20.6687 C   0  0  0  0  0  0
  -29.4968  -18.3034   17.8916 C   0  0  0  0  0  0
  -29.4683  -19.7278   19.8951 C   0  0  0  0  0  0
  -29.7791  -17.1747   20.0598 C   0  0  0  0  0  0
  -29.3937  -19.5702   18.4931 C   0  0  0  0  0  0
  -29.6778  -17.1325   18.6486 C   0  0  0  0  0  0
  -30.5515  -21.8815   20.4596 C   0  0  0  0  0  0
  -30.2927  -23.4052   20.3698 C   0  0  0  0  0  0
  -28.3200  -22.1347   20.1958 C   0  0  0  0  0  0
  -28.7902  -23.6034   20.6381 C   0  0  1  0  0  0
  -28.5464  -23.7571   22.1547 C   0  0  0  0  0  0
  -28.0645  -24.8642   19.9056 C   0  0  0  0  0  0
  -29.4297  -21.1324   20.3954 N   0  0  0  0  0  0
  -29.8601  -15.8708   20.7733 N   0  0  0  0  0  0
  -31.6932  -21.4314   20.5953 O   0  0  0  0  0  0
  -29.2476  -20.6546   17.6936 F   0  0  0  0  0  0
  -29.7049  -15.9472   17.9933 F   0  0  0  0  0  0
  -31.4773  -12.5672   19.1867 H   0  0  0  0  0  0
  -30.3750  -11.4715   19.9675 H   0  0  0  0  0  0
  -29.7981  -11.7274   17.5336 H   0  0  0  0  0  0
  -29.6487  -13.4532   17.7266 H   0  0  0  0  0  0
  -27.8925  -11.2862   18.9135 H   0  0  0  0  0  0
  -27.3872  -12.5333   17.8030 H   0  0  0  0  0  0
  -27.6452  -14.2566   19.4783 H   0  0  0  0  0  0
  -28.7158  -12.1656   21.4366 H   0  0  0  0  0  0
  -28.4173  -13.8441   21.8046 H   0  0  0  0  0  0
  -25.2756   -9.5695   22.4759 H   0  0  0  0  0  0
  -24.0001   -7.4643   22.7477 H   0  0  0  0  0  0
  -21.0835   -8.8766   19.8966 H   0  0  0  0  0  0
  -22.3677  -10.9670   19.6168 H   0  0  0  0  0  0
  -21.2004   -7.6147   23.9707 H   0  0  0  0  0  0
  -21.1496   -6.0524   25.9074 H   0  0  0  0  0  0
  -22.0595   -2.7604   23.2841 H   0  0  0  0  0  0
  -22.4071  -11.9893   22.4807 H   0  0  0  0  0  0
  -21.1089  -13.1273   22.2617 H   0  0  0  0  0  0
  -24.6581  -15.8493   20.5235 H   0  0  0  0  0  0
  -26.2752  -15.6303   20.0855 H   0  0  0  0  0  0
  -26.7219  -32.5392   23.1073 H   0  0  0  0  0  0
  -25.0067  -33.9686   25.0378 H   0  0  0  0  0  0
  -22.7267  -31.3024   21.3978 H   0  0  0  0  0  0
  -23.3752  -35.9622   23.3297 H   0  0  0  0  0  0
  -24.3584  -36.8916   22.2055 H   0  0  0  0  0  0
  -23.7244  -37.6488   23.6667 H   0  0  0  0  0  0
  -26.1220  -31.5211   20.6157 H   0  0  0  0  0  0
  -26.8534  -30.8070   22.0200 H   0  0  0  0  0  0
  -28.1060  -28.8895   21.2442 H   0  0  0  0  0  0
  -25.9506  -25.9594   18.8994 H   0  0  0  0  0  0
  -23.9827  -27.3452   18.9452 H   0  0  0  0  0  0
  -23.7746  -30.5957   19.4031 H   0  0  0  0  0  0
  -22.7654  -29.2532   19.8498 H   0  0  0  0  0  0
  -25.1298  -36.1917   25.0814 H   0  0  0  0  0  0
  -20.9987  -28.3295   24.1383 H   0  0  0  0  0  0
  -20.5688  -26.2332   23.3614 H   0  0  0  0  0  0
  -21.6652  -26.7457   22.1200 H   0  0  0  0  0  0
  -19.6926  -25.6296   21.1251 H   0  0  0  0  0  0
  -19.6690  -27.3190   20.6731 H   0  0  0  0  0  0
  -17.4210  -26.6676   21.4024 H   0  0  0  0  0  0
  -18.0345  -26.0080   22.9024 H   0  0  0  0  0  0
  -19.7948  -30.7281   24.2255 H   0  0  0  0  0  0
  -17.5029  -31.6270   24.5174 H   0  0  0  0  0  0
  -15.5362  -30.2997   23.7660 H   0  0  0  0  0  0
  -15.8681  -28.0829   22.7073 H   0  0  0  0  0  0
  -24.5895  -30.7087   25.7766 H   0  0  0  0  0  0
  -24.8889  -32.2924   26.4824 H   0  0  0  0  0  0
  -25.8011  -30.8953   27.0243 H   0  0  0  0  0  0
  -26.2942  -29.6734   24.1247 H   0  0  0  0  0  0
  -27.3992  -29.7257   25.4779 H   0  0  0  0  0  0
  -27.8842  -30.4246   23.9520 H   0  0  0  0  0  0
  -27.2660  -33.3632   26.2062 H   0  0  0  0  0  0
  -28.3873  -32.6873   25.0336 H   0  0  0  0  0  0
  -28.0715  -31.8462   26.5435 H   0  0  0  0  0  0
  -28.2593  -38.0103   24.7516 H   0  0  0  0  0  0
  -28.1083  -36.2634   24.6276 H   0  0  0  0  0  0
  -27.2305  -37.1436   25.8867 H   0  0  0  0  0  0
  -20.9423  -29.8777   21.6839 H   0  0  0  0  0  0
  -26.0169  -38.2846   24.1402 H   0  0  0  0  0  0
  -29.7197  -18.5802   21.7440 H   0  0  0  0  0  0
  -29.4284  -18.2274   16.8173 H   0  0  0  0  0  0
  -30.5488  -23.7316   19.3615 H   0  0  0  0  0  0
  -30.9203  -23.9607   21.0670 H   0  0  0  0  0  0
  -28.0364  -22.1494   19.1434 H   0  0  0  0  0  0
  -27.4319  -21.8210   20.7451 H   0  0  0  0  0  0
  -29.0091  -22.9561   22.7327 H   0  0  0  0  0  0
  -27.4804  -23.7491   22.3843 H   0  0  0  0  0  0
  -28.9510  -24.7009   22.5228 H   0  0  0  0  0  0
  -27.0157  -24.6435   20.0968 H   0  0  0  0  0  0
  -28.1932  -24.7532   18.8283 H   0  0  0  0  0  0
  -29.0369  -15.6578   21.3157 H   0  0  0  0  0  0
  1 25  1  0  0  0
  1 30  2  0  0  0
  1 84  1  0  0  0
  2  3  1  0  0  0
  2 25  1  0  0  0
  2 88  1  0  0  0
  2 89  1  0  0  0
  3  4  1  0  0  0
  3 90  1  0  0  0
  3 91  1  0  0  0
  4  5  1  0  0  0
  4 92  1  0  0  0
  4 93  1  0  0  0
  5  6  1  0  0  0
  5 26  1  0  0  0
  5 94  1  0  0  0
  6 25  1  0  0  0
  6 95  1  0  0  0
  6 96  1  0  0  0
  7  8  2  0  0  0
  7 26  1  0  0  0
  7 29  1  0  0  0
  8  9  1  0  0  0
  8 22  1  0  0  0
  9 10  1  0  0  0
  9 27  2  0  0  0
 10 11  2  0  0  0
 10 15  1  0  0  0
 11 12  1  0  0  0
 11 97  1  0  0  0
 12 13  2  0  0  0
 12 98  1  0  0  0
 13 14  1  0  0  0
 13 31  1  0  0  0
 14 15  2  0  0  0
 14 99  1  0  0  0
 15100  1  0  0  0
 16 17  2  0  0  0
 16 21  1  0  0  0
 16 31  1  0  0  0
 17 18  1  0  0  0
 17101  1  0  0  0
 18 19  2  0  0  0
 18102  1  0  0  0
 19 20  1  0  0  0
 19 24  1  0  0  0
 20 21  2  0  0  0
 20103  1  0  0  0
 21 23  1  0  0  0
 22 28  1  0  0  0
 22 32  2  0  0  0
 26 27  1  0  0  0
 28104  1  0  0  0
 28105  1  0  0  0
 29106  1  0  0  0
 29107  1  0  0  0
 33 34  1  0  0  0
 33 66  1  0  0  0
 33 70  2  0  0  0
 34 36  1  0  0  0
 34 59  1  0  0  0
 34108  1  0  0  0
 35 44  2  0  0  0
 35 45  1  0  0  0
 35 68  1  0  0  0
 36 56  1  0  0  0
 36109  1  0  0  0
 37 39  1  0  0  0
 37 47  1  0  0  0
 37 66  1  0  0  0
 37110  1  0  0  0
 38 43  2  0  0  0
 38 46  1  0  0  0
 38 47  1  0  0  0
 39 64  1  0  0  0
 39 67  2  0  0  0
 40 52  1  0  0  0
 40 53  2  0  0  0
 40 58  1  0  0  0
 41111  1  0  0  0
 41112  1  0  0  0
 41113  1  0  0  0
 41 48  1  0  0  0
 42 43  1  0  0  0
 42 66  1  0  0  0
 42114  1  0  0  0
 42115  1  0  0  0
 43 44  1  0  0  0
 44116  1  0  0  0
 45 46  2  0  0  0
 45117  1  0  0  0
 46118  1  0  0  0
 47119  1  0  0  0
 47120  1  0  0  0
 48 56  1  0  0  0
 48 65  1  0  0  0
 48121  1  0  0  0
 49 50  1  0  0  0
 49 53  1  0  0  0
 49 64  1  0  0  0
 49122  1  0  0  0
 50 51  1  0  0  0
 50123  1  0  0  0
 50124  1  0  0  0
 51 52  1  0  0  0
 51125  1  0  0  0
 51126  1  0  0  0
 52127  1  0  0  0
 52128  1  0  0  0
 53 54  1  0  0  0
 54 55  2  0  0  0
 54129  1  0  0  0
 55 57  1  0  0  0
 55130  1  0  0  0
 56 69  2  0  0  0
 57 58  2  0  0  0
 57131  1  0  0  0
 58132  1  0  0  0
 59 60  1  0  0  0
 59 61  1  0  0  0
 59 62  1  0  0  0
 60133  1  0  0  0
 60134  1  0  0  0
 60135  1  0  0  0
 61136  1  0  0  0
 61137  1  0  0  0
 61138  1  0  0  0
 62139  1  0  0  0
 62140  1  0  0  0
 62141  1  0  0  0
 63 65  1  0  0  0
 63142  1  0  0  0
 63143  1  0  0  0
 63144  1  0  0  0
 64145  1  0  0  0
 65146  1  0  0  0
 68 82  1  0  0  0
 71 73  2  0  0  0
 71 74  1  0  0  0
 71147  1  0  0  0
 72 75  2  0  0  0
 72 76  1  0  0  0
 72148  1  0  0  0
 73 75  1  0  0  0
 73 83  1  0  0  0
 74 76  2  0  0  0
 74 84  1  0  0  0
 75 86  1  0  0  0
 76 87  1  0  0  0
 77 78  1  0  0  0
 77 83  1  0  0  0
 77 85  2  0  0  0
 78 80  1  0  0  0
 78149  1  0  0  0
 78150  1  0  0  0
 79 80  1  0  0  0
 79 83  1  0  0  0
 79151  1  0  0  0
 79152  1  0  0  0
 80 81  1  0  0  0
 80 82  1  0  0  0
 81153  1  0  0  0
 81154  1  0  0  0
 81155  1  0  0  0
 82156  1  0  0  0
 82157  1  0  0  0
 84158  1  0  0  0
M  ISO  4   1 100  68 101  82 101  84 100
M  END
> <chiral flag>
0

> <version>
0

> <s_m_source_file>
/data/baiqing/PycharmProjects/Reinvent-master-3.2/result/LINK_invent/BTK/process_docking_weight1_custom_product_contain_oxygen_bond_distance_aromatic_linkinvent_7_9_3/rearranged_h_0070.sdf

> <i_m_source_file_index>
58

> <r_mmod_Potential_Energy-OPLS-2005>
237.067718505859

> <r_mmod_Stretch_Energy-OPLS-2005>
128.725128173828

> <r_mmod_Bend_Energy-OPLS-2005>
197.736267089844

> <r_mmod_Torsional_Energy-OPLS-2005>
329.643280029297

> <r_mmod_Improper_Torsional_Energy-OPLS-2005>
7.106849193573

> <r_mmod_Van_der_Waal_Energy-OPLS-2005>
140.20231628418

> <r_mmod_Electrostatic_Energy-OPLS-2005>
-432.935760498047

> <r_mmod_Solvation_Energy-OPLS-2005>
-225.602844238281

> <b_mmod_Minimization_Converged-OPLS-2005>
0

> <r_mmod_RMS_Derivative-OPLS-2005>
0.708268940448761

$$$$
58
                    3D
 Structure written by MMmdl.
160169  0  0  1  0            999 V2000
  -30.7245  -14.7567   20.5506 C   0  0  0  0  0  0
  -30.4508  -12.4979   19.4611 C   0  0  0  0  0  0
  -29.5164  -12.5498   18.2297 C   0  0  0  0  0  0
  -28.0598  -12.3384   18.6669 C   0  0  0  0  0  0
  -27.6677  -13.2440   19.8603 C   0  0  2  0  0  0
  -28.7224  -13.2026   20.9974 C   0  0  0  0  0  0
  -25.2608  -13.8207   20.5690 C   0  0  0  0  0  0
  -24.1882  -13.0428   20.9133 C   0  0  0  0  0  0
  -24.6494  -11.6908   20.8671 C   0  0  0  0  0  0
  -23.9169  -10.4263   21.0314 C   0  0  0  0  0  0
  -24.3698   -9.4169   21.9100 C   0  0  0  0  0  0
  -23.6355   -8.2217   22.0717 C   0  0  0  0  0  0
  -22.4310   -8.0269   21.3551 C   0  0  0  0  0  0
  -21.9973   -9.0231   20.4610 C   0  0  0  0  0  0
  -22.7328  -10.2102   20.2965 C   0  0  0  0  0  0
  -21.6856   -6.0696   22.5246 C   0  0  0  0  0  0
  -21.4050   -6.5612   23.8183 C   0  0  0  0  0  0
  -21.3655   -5.6762   24.9151 C   0  0  0  0  0  0
  -21.6055   -4.3025   24.7214 C   0  0  0  0  0  0
  -21.8829   -3.8109   23.4341 C   0  0  0  0  0  0
  -21.9232   -4.6922   22.3388 C   0  0  0  0  0  0
  -22.7878  -13.5183   21.1854 C   0  0  0  0  0  0
  -22.1655   -4.2105   21.0950 F   0  0  0  0  0  0
  -21.5657   -3.4511   25.7730 F   0  0  0  0  0  0
  -30.0331  -13.5545   20.4276 N   0  0  0  0  0  0
  -26.3129  -12.9469   20.3395 N   0  0  0  0  0  0
  -25.9461  -11.6583   20.5779 N   0  0  0  0  0  0
  -22.0583  -12.8039   22.0359 N   0  0  0  0  0  0
  -25.4289  -15.1917   20.4078 N   0  0  0  0  0  0
  -31.7926  -14.8816   19.9436 O   0  0  0  0  0  0
  -21.6679   -6.8860   21.4225 O   0  0  0  0  0  0
  -22.3454  -14.5454   20.6723 O   0  0  0  0  0  0
  -24.6356  -31.8477   23.1963 C   0  0  0  0  0  0
  -25.9109  -32.4721   23.8337 C   0  0  1  0  0  0
  -27.2060  -27.1795   20.1543 C   0  0  0  0  0  0
  -25.5847  -33.8525   24.2204 N   0  0  0  0  0  0
  -23.4389  -30.4703   21.5369 C   0  0  2  0  0  0
  -24.8903  -28.9017   20.1140 C   0  0  0  0  0  0
  -22.7540  -29.4541   22.4839 C   0  0  0  0  0  0
  -18.0333  -28.1361   22.8542 C   0  0  0  0  0  0
  -24.1476  -36.7309   23.2660 C   0  0  0  0  0  0
  -25.9934  -30.7370   21.3845 C   0  0  0  0  0  0
  -26.0664  -29.3505   20.7289 C   0  0  0  0  0  0
  -27.2307  -28.5068   20.7333 C   0  0  0  0  0  0
  -26.0078  -26.8236   19.5032 C   0  0  0  0  0  0
  -24.8664  -27.6467   19.4914 C   0  0  0  0  0  0
  -23.6661  -29.7986   20.1569 C   0  0  0  0  0  0
  -25.4103  -36.3051   24.0325 C   0  0  1  0  0  0
  -20.5962  -28.3730   23.1239 C   0  0  2  0  0  0
  -20.6819  -26.9404   22.5493 C   0  0  0  0  0  0
  -19.5831  -26.6399   21.5299 C   0  0  0  0  0  0
  -18.1990  -26.7929   22.1637 C   0  0  0  0  0  0
  -19.1580  -28.8866   23.2839 C   0  0  0  0  0  0
  -18.9418  -30.1444   23.8836 C   0  0  0  0  0  0
  -17.6409  -30.6540   24.0512 C   0  0  0  0  0  0
  -25.9013  -34.9426   23.5090 C   0  0  0  0  0  0
  -16.5324  -29.8993   23.6290 C   0  0  0  0  0  0
  -16.7294  -28.6387   23.0396 C   0  0  0  0  0  0
  -26.4512  -31.6598   25.0748 C   0  0  0  0  0  0
  -25.3752  -31.3737   26.1478 C   0  0  0  0  0  0
  -27.0369  -30.2993   24.6308 C   0  0  0  0  0  0
  -27.6020  -32.4439   25.7455 C   0  0  0  0  0  0
  -27.5591  -37.1817   24.8453 C   0  0  0  0  0  0
  -21.4259  -29.3049   22.3601 N   0  0  0  0  0  0
  -26.4302  -37.3763   23.9383 N   0  0  0  0  0  0
  -24.7086  -31.0382   22.0944 N   0  0  0  0  0  0
  -23.4215  -28.8092   23.2949 O   0  0  0  0  0  0
  -28.2485  -26.1989   20.1865 O   0  0  0  0  0  0
  -26.5697  -34.8887   22.4709 O   0  0  0  0  0  0
  -23.5470  -32.1335   23.7175 O   0  0  0  0  0  0
  -27.5232  -18.1083   22.0965 C   0  0  0  0  0  0
  -27.9237  -19.3838   21.6579 C   0  0  0  0  0  0
  -28.3271  -16.9754   21.9015 C   0  0  0  0  0  0
  -29.1347  -19.5894   20.9586 C   0  0  0  0  0  0
  -29.5922  -17.0458   21.2840 C   0  0  0  0  0  0
  -29.9874  -18.3904   20.7953 C   0  0  0  0  0  0
  -28.3724  -22.7011   19.0812 C   0  0  0  0  0  0
  -28.5759  -23.3844   20.2252 C   0  0  0  0  0  0
  -28.8687  -21.3059   19.1634 C   0  0  0  0  0  0
  -31.7734  -16.1539   23.3977 C   0  0  0  0  0  0
  -30.7945  -15.4836   22.7553 C   0  0  0  0  0  0
  -29.2315  -22.3211   21.1758 C   0  0  0  0  0  0
  -27.5548  -23.1667   17.8741 C   0  0  0  0  0  0
  -27.8994  -24.7898   20.6921 C   0  0  0  0  0  0
  -29.2957  -20.9978   20.4231 N   0  0  0  0  0  0
  -30.3466  -15.7493   21.4501 N   0  0  0  0  0  0
  -28.8948  -20.5039   18.2248 O   0  0  0  0  0  0
  -31.2052  -18.5417   20.2188 F   0  0  0  0  0  0
  -31.4848  -12.6111   19.1315 H   0  0  0  0  0  0
  -30.4085  -11.5093   19.9197 H   0  0  0  0  0  0
  -29.8008  -11.7981   17.4942 H   0  0  0  0  0  0
  -29.6188  -13.5134   17.7271 H   0  0  0  0  0  0
  -27.9556  -11.2929   18.9648 H   0  0  0  0  0  0
  -27.3876  -12.4859   17.8232 H   0  0  0  0  0  0
  -27.6569  -14.2627   19.4716 H   0  0  0  0  0  0
  -28.7710  -12.2174   21.4594 H   0  0  0  0  0  0
  -28.4443  -13.8988   21.7841 H   0  0  0  0  0  0
  -25.2862   -9.5622   22.4663 H   0  0  0  0  0  0
  -24.0034   -7.4601   22.7419 H   0  0  0  0  0  0
  -21.0915   -8.8748   19.8925 H   0  0  0  0  0  0
  -22.3780  -10.9610   19.6046 H   0  0  0  0  0  0
  -21.2021   -7.6107   23.9675 H   0  0  0  0  0  0
  -21.1485   -6.0483   25.9047 H   0  0  0  0  0  0
  -22.0640   -2.7578   23.2848 H   0  0  0  0  0  0
  -22.4343  -11.9762   22.4719 H   0  0  0  0  0  0
  -21.1142  -13.0881   22.2570 H   0  0  0  0  0  0
  -24.6634  -15.8517   20.5004 H   0  0  0  0  0  0
  -26.3040  -15.6392   20.1685 H   0  0  0  0  0  0
  -26.7180  -32.5348   23.1088 H   0  0  0  0  0  0
  -24.9766  -33.9641   25.0191 H   0  0  0  0  0  0
  -22.7426  -31.2946   21.3799 H   0  0  0  0  0  0
  -23.3713  -35.9687   23.3305 H   0  0  0  0  0  0
  -24.3535  -36.8973   22.2078 H   0  0  0  0  0  0
  -23.7268  -37.6520   23.6698 H   0  0  0  0  0  0
  -26.1374  -31.4984   20.6157 H   0  0  0  0  0  0
  -26.8743  -30.7882   22.0161 H   0  0  0  0  0  0
  -28.1302  -28.8483   21.2319 H   0  0  0  0  0  0
  -25.9185  -25.8664   19.0124 H   0  0  0  0  0  0
  -23.9637  -27.2920   19.0100 H   0  0  0  0  0  0
  -23.7943  -30.5605   19.3882 H   0  0  0  0  0  0
  -22.7868  -29.2306   19.8471 H   0  0  0  0  0  0
  -25.1288  -36.1952   25.0840 H   0  0  0  0  0  0
  -21.0007  -28.3352   24.1393 H   0  0  0  0  0  0
  -20.5598  -26.2415   23.3774 H   0  0  0  0  0  0
  -21.6688  -26.7303   22.1433 H   0  0  0  0  0  0
  -19.6953  -25.6319   21.1240 H   0  0  0  0  0  0
  -19.6733  -27.3273   20.6885 H   0  0  0  0  0  0
  -17.4374  -26.6744   21.3929 H   0  0  0  0  0  0
  -18.0381  -25.9998   22.8950 H   0  0  0  0  0  0
  -19.7887  -30.7308   24.2109 H   0  0  0  0  0  0
  -17.4916  -31.6211   24.5146 H   0  0  0  0  0  0
  -15.5306  -30.2895   23.7562 H   0  0  0  0  0  0
  -15.8694  -28.0646   22.7233 H   0  0  0  0  0  0
  -24.5923  -30.7068   25.7851 H   0  0  0  0  0  0
  -24.8956  -32.2880   26.4938 H   0  0  0  0  0  0
  -25.8125  -30.8939   27.0222 H   0  0  0  0  0  0
  -26.2950  -29.6746   24.1314 H   0  0  0  0  0  0
  -27.3954  -29.7297   25.4888 H   0  0  0  0  0  0
  -27.8899  -30.4228   23.9637 H   0  0  0  0  0  0
  -27.2551  -33.3746   26.1936 H   0  0  0  0  0  0
  -28.3814  -32.7017   25.0271 H   0  0  0  0  0  0
  -28.0716  -31.8685   26.5438 H   0  0  0  0  0  0
  -28.2597  -38.0129   24.7454 H   0  0  0  0  0  0
  -28.1101  -36.2628   24.6319 H   0  0  0  0  0  0
  -27.2279  -37.1527   25.8862 H   0  0  0  0  0  0
  -20.9480  -29.8781   21.6809 H   0  0  0  0  0  0
  -26.0178  -38.2853   24.1376 H   0  0  0  0  0  0
  -26.5770  -17.9876   22.6035 H   0  0  0  0  0  0
  -27.2465  -20.2114   21.8122 H   0  0  0  0  0  0
  -27.9816  -16.0282   22.2926 H   0  0  0  0  0  0
  -32.0573  -15.8840   24.4098 H   0  0  0  0  0  0
  -32.3139  -16.9677   22.9363 H   0  0  0  0  0  0
  -30.2553  -14.6771   23.2368 H   0  0  0  0  0  0
  -28.7097  -22.2381   22.1324 H   0  0  0  0  0  0
  -30.2520  -22.6519   21.3862 H   0  0  0  0  0  0
  -28.1584  -23.7758   17.1946 H   0  0  0  0  0  0
  -26.6786  -23.7431   18.1719 H   0  0  0  0  0  0
  -27.1681  -22.3237   17.2929 H   0  0  0  0  0  0
  -28.0063  -24.8318   21.7797 H   0  0  0  0  0  0
  -26.8304  -24.6142   20.5611 H   0  0  0  0  0  0
  1 25  1  0  0  0
  1 30  2  0  0  0
  1 86  1  0  0  0
  2  3  1  0  0  0
  2 25  1  0  0  0
  2 89  1  0  0  0
  2 90  1  0  0  0
  3  4  1  0  0  0
  3 91  1  0  0  0
  3 92  1  0  0  0
  4  5  1  0  0  0
  4 93  1  0  0  0
  4 94  1  0  0  0
  5  6  1  0  0  0
  5 26  1  0  0  0
  5 95  1  0  0  0
  6 25  1  0  0  0
  6 96  1  0  0  0
  6 97  1  0  0  0
  7  8  2  0  0  0
  7 26  1  0  0  0
  7 29  1  0  0  0
  8  9  1  0  0  0
  8 22  1  0  0  0
  9 10  1  0  0  0
  9 27  2  0  0  0
 10 11  2  0  0  0
 10 15  1  0  0  0
 11 12  1  0  0  0
 11 98  1  0  0  0
 12 13  2  0  0  0
 12 99  1  0  0  0
 13 14  1  0  0  0
 13 31  1  0  0  0
 14 15  2  0  0  0
 14100  1  0  0  0
 15101  1  0  0  0
 16 17  2  0  0  0
 16 21  1  0  0  0
 16 31  1  0  0  0
 17 18  1  0  0  0
 17102  1  0  0  0
 18 19  2  0  0  0
 18103  1  0  0  0
 19 20  1  0  0  0
 19 24  1  0  0  0
 20 21  2  0  0  0
 20104  1  0  0  0
 21 23  1  0  0  0
 22 28  1  0  0  0
 22 32  2  0  0  0
 26 27  1  0  0  0
 28105  1  0  0  0
 28106  1  0  0  0
 29107  1  0  0  0
 29108  1  0  0  0
 33 34  1  0  0  0
 33 66  1  0  0  0
 33 70  2  0  0  0
 34 36  1  0  0  0
 34 59  1  0  0  0
 34109  1  0  0  0
 35 44  2  0  0  0
 35 45  1  0  0  0
 35 68  1  0  0  0
 36 56  1  0  0  0
 36110  1  0  0  0
 37 39  1  0  0  0
 37 47  1  0  0  0
 37 66  1  0  0  0
 37111  1  0  0  0
 38 43  2  0  0  0
 38 46  1  0  0  0
 38 47  1  0  0  0
 39 64  1  0  0  0
 39 67  2  0  0  0
 40 52  1  0  0  0
 40 53  2  0  0  0
 40 58  1  0  0  0
 41112  1  0  0  0
 41113  1  0  0  0
 41114  1  0  0  0
 41 48  1  0  0  0
 42 43  1  0  0  0
 42 66  1  0  0  0
 42115  1  0  0  0
 42116  1  0  0  0
 43 44  1  0  0  0
 44117  1  0  0  0
 45 46  2  0  0  0
 45118  1  0  0  0
 46119  1  0  0  0
 47120  1  0  0  0
 47121  1  0  0  0
 48 56  1  0  0  0
 48 65  1  0  0  0
 48122  1  0  0  0
 49 50  1  0  0  0
 49 53  1  0  0  0
 49 64  1  0  0  0
 49123  1  0  0  0
 50 51  1  0  0  0
 50124  1  0  0  0
 50125  1  0  0  0
 51 52  1  0  0  0
 51126  1  0  0  0
 51127  1  0  0  0
 52128  1  0  0  0
 52129  1  0  0  0
 53 54  1  0  0  0
 54 55  2  0  0  0
 54130  1  0  0  0
 55 57  1  0  0  0
 55131  1  0  0  0
 56 69  2  0  0  0
 57 58  2  0  0  0
 57132  1  0  0  0
 58133  1  0  0  0
 59 60  1  0  0  0
 59 61  1  0  0  0
 59 62  1  0  0  0
 60134  1  0  0  0
 60135  1  0  0  0
 60136  1  0  0  0
 61137  1  0  0  0
 61138  1  0  0  0
 61139  1  0  0  0
 62140  1  0  0  0
 62141  1  0  0  0
 62142  1  0  0  0
 63 65  1  0  0  0
 63143  1  0  0  0
 63144  1  0  0  0
 63145  1  0  0  0
 64146  1  0  0  0
 65147  1  0  0  0
 68 84  1  0  0  0
 71 72  2  0  0  0
 71 73  1  0  0  0
 71148  1  0  0  0
 72 74  1  0  0  0
 72149  1  0  0  0
 73 75  2  0  0  0
 73150  1  0  0  0
 74 76  2  0  0  0
 74 85  1  0  0  0
 75 76  1  0  0  0
 75 86  1  0  0  0
 76 88  1  0  0  0
 77 78  2  0  0  0
 77 79  1  0  0  0
 77 83  1  0  0  0
 78 82  1  0  0  0
 78 84  1  0  0  0
 79 85  1  0  0  0
 79 87  2  0  0  0
 80 81  2  0  0  0
 80151  1  0  0  0
 80152  1  0  0  0
 81 86  1  0  0  0
 81153  1  0  0  0
 82 85  1  0  0  0
 82154  1  0  0  0
 82155  1  0  0  0
 83156  1  0  0  0
 83157  1  0  0  0
 83158  1  0  0  0
 84159  1  0  0  0
 84160  1  0  0  0
M  ISO  4   1 100  68 101  84 101  86 100
M  END
> <chiral flag>
0

> <version>
0

> <s_m_source_file>
/data/baiqing/PycharmProjects/Reinvent-master-3.2/result/LINK_invent/BTK/process_docking_weight1_custom_product_contain_oxygen_bond_distance_aromatic_linkinvent_7_9_3/rearranged_h_0070.sdf

> <i_m_source_file_index>
59

> <r_mmod_Potential_Energy-OPLS-2005>
673.039916992188

> <r_mmod_Stretch_Energy-OPLS-2005>
184.193359375

> <r_mmod_Bend_Energy-OPLS-2005>
283.908233642578

> <r_mmod_Torsional_Energy-OPLS-2005>
453.792938232422

> <r_mmod_Improper_Torsional_Energy-OPLS-2005>
7.68328142166138

> <r_mmod_Van_der_Waal_Energy-OPLS-2005>
118.465270996094

> <r_mmod_Electrostatic_Energy-OPLS-2005>
-282.635681152344

> <r_mmod_Solvation_Energy-OPLS-2005>
-211.270126342773

> <b_mmod_Minimization_Converged-OPLS-2005>
0

> <r_mmod_RMS_Derivative-OPLS-2005>
10.2078485488892

$$$$
59
                    3D
 Structure written by MMmdl.
159167  0  0  1  0            999 V2000
  -30.5826  -14.6847   20.5066 C   0  0  0  0  0  0
  -30.4433  -12.4219   19.4625 C   0  0  0  0  0  0
  -29.5107  -12.5167   18.2328 C   0  0  0  0  0  0
  -28.0349  -12.3422   18.6435 C   0  0  0  0  0  0
  -27.6527  -13.2146   19.8675 C   0  0  2  0  0  0
  -28.6947  -13.0722   20.9996 C   0  0  0  0  0  0
  -25.2559  -13.8169   20.5675 C   0  0  0  0  0  0
  -24.1825  -13.0440   20.9198 C   0  0  0  0  0  0
  -24.6392  -11.6905   20.8745 C   0  0  0  0  0  0
  -23.9054  -10.4294   21.0419 C   0  0  0  0  0  0
  -24.3610   -9.4208   21.9196 C   0  0  0  0  0  0
  -23.6290   -8.2241   22.0759 C   0  0  0  0  0  0
  -22.4268   -8.0287   21.3551 C   0  0  0  0  0  0
  -21.9902   -9.0258   20.4648 C   0  0  0  0  0  0
  -22.7229  -10.2141   20.3063 C   0  0  0  0  0  0
  -21.6853   -6.0734   22.5278 C   0  0  0  0  0  0
  -21.4017   -6.5640   23.8212 C   0  0  0  0  0  0
  -21.3659   -5.6795   24.9175 C   0  0  0  0  0  0
  -21.6042   -4.3056   24.7225 C   0  0  0  0  0  0
  -21.8819   -3.8145   23.4347 C   0  0  0  0  0  0
  -21.9193   -4.6961   22.3402 C   0  0  0  0  0  0
  -22.7848  -13.5239   21.1857 C   0  0  0  0  0  0
  -22.1661   -4.2148   21.0980 F   0  0  0  0  0  0
  -21.5625   -3.4541   25.7738 F   0  0  0  0  0  0
  -30.0065  -13.4390   20.4430 N   0  0  0  0  0  0
  -26.2981  -12.9339   20.3327 N   0  0  0  0  0  0
  -25.9321  -11.6496   20.5763 N   0  0  0  0  0  0
  -22.0492  -12.8233   22.0412 N   0  0  0  0  0  0
  -25.4283  -15.1886   20.4053 N   0  0  0  0  0  0
  -31.7226  -14.8805   20.0733 O   0  0  0  0  0  0
  -21.6641   -6.8878   21.4241 O   0  0  0  0  0  0
  -22.3530  -14.5548   20.6710 O   0  0  0  0  0  0
  -24.6249  -31.8547   23.1976 C   0  0  0  0  0  0
  -25.9092  -32.4750   23.8309 C   0  0  1  0  0  0
  -27.2341  -27.3084   20.1158 C   0  0  0  0  0  0
  -25.5906  -33.8548   24.2237 N   0  0  0  0  0  0
  -23.4180  -30.4719   21.5434 C   0  0  2  0  0  0
  -24.8631  -28.9160   20.1115 C   0  0  0  0  0  0
  -22.7449  -29.4587   22.4985 C   0  0  0  0  0  0
  -18.0275  -28.1369   22.8493 C   0  0  0  0  0  0
  -24.1487  -36.7285   23.2641 C   0  0  0  0  0  0
  -25.9554  -30.7851   21.3638 C   0  0  0  0  0  0
  -26.0293  -29.4090   20.7074 C   0  0  0  0  0  0
  -27.2114  -28.6160   20.6955 C   0  0  0  0  0  0
  -26.0390  -26.8505   19.5222 C   0  0  0  0  0  0
  -24.8704  -27.6432   19.5123 C   0  0  0  0  0  0
  -23.6269  -29.7921   20.1628 C   0  0  0  0  0  0
  -25.4115  -36.3064   24.0324 C   0  0  1  0  0  0
  -20.5863  -28.3654   23.1321 C   0  0  2  0  0  0
  -20.6756  -26.9389   22.5421 C   0  0  0  0  0  0
  -19.5738  -26.6367   21.5214 C   0  0  0  0  0  0
  -18.1916  -26.7918   22.1623 C   0  0  0  0  0  0
  -19.1523  -28.8835   23.2898 C   0  0  0  0  0  0
  -18.9447  -30.1442   23.8905 C   0  0  0  0  0  0
  -17.6447  -30.6577   24.0557 C   0  0  0  0  0  0
  -25.9042  -34.9433   23.5084 C   0  0  0  0  0  0
  -16.5335  -29.9063   23.6345 C   0  0  0  0  0  0
  -16.7264  -28.6482   23.0370 C   0  0  0  0  0  0
  -26.4478  -31.6589   25.0702 C   0  0  0  0  0  0
  -25.3718  -31.3744   26.1440 C   0  0  0  0  0  0
  -27.0328  -30.3021   24.6159 C   0  0  0  0  0  0
  -27.6025  -32.4342   25.7482 C   0  0  0  0  0  0
  -27.5580  -37.1795   24.8465 C   0  0  0  0  0  0
  -21.4166  -29.3008   22.3729 N   0  0  0  0  0  0
  -26.4297  -37.3760   23.9395 N   0  0  0  0  0  0
  -24.6856  -31.0540   22.0927 N   0  0  0  0  0  0
  -23.4173  -28.8151   23.3085 O   0  0  0  0  0  0
  -28.4078  -26.5431   20.1949 O   0  0  0  0  0  0
  -26.5617  -34.8909   22.4655 O   0  0  0  0  0  0
  -23.5417  -32.1341   23.7310 O   0  0  0  0  0  0
  -28.5192  -18.8901   19.3636 C   0  0  0  0  0  0
  -30.0538  -18.1687   21.5583 C   0  0  0  0  0  0
  -28.8443  -19.9471   20.2665 C   0  0  0  0  0  0
  -29.6581  -19.5417   21.3782 C   0  0  0  0  0  0
  -29.6718  -17.1186   20.6715 C   0  0  0  0  0  0
  -28.9015  -17.5297   19.5571 C   0  0  0  0  0  0
  -28.1432  -21.3291   20.0679 C   0  0  0  0  0  0
  -30.1888  -25.1033   20.0264 C   0  0  0  0  0  0
  -28.5142  -25.0635   18.1935 C   0  0  0  0  0  0
  -28.0158  -23.8947   20.4550 C   0  0  0  0  0  0
  -28.6794  -25.1562   19.7232 C   0  0  0  0  0  0
  -30.0520  -20.4456   22.3701 N   0  0  0  0  0  0
  -29.7995  -15.6927   21.0145 N   0  0  0  0  0  0
  -28.7124  -22.5388   20.3724 N   0  0  0  0  0  0
  -27.0041  -21.3160   19.5949 O   0  0  0  0  0  0
  -28.4494  -16.5902   18.6920 F   0  0  0  0  0  0
  -31.4821  -12.5633   19.1597 H   0  0  0  0  0  0
  -30.3954  -11.4262   19.9065 H   0  0  0  0  0  0
  -29.7839  -11.7638   17.4930 H   0  0  0  0  0  0
  -29.6403  -13.4839   17.7454 H   0  0  0  0  0  0
  -27.8810  -11.2883   18.8812 H   0  0  0  0  0  0
  -27.3778  -12.5634   17.8018 H   0  0  0  0  0  0
  -27.6702  -14.2488   19.5261 H   0  0  0  0  0  0
  -28.7182  -12.0473   21.3726 H   0  0  0  0  0  0
  -28.4249  -13.6889   21.8584 H   0  0  0  0  0  0
  -25.2759   -9.5686   22.4766 H   0  0  0  0  0  0
  -24.0001   -7.4632   22.7479 H   0  0  0  0  0  0
  -21.0832   -8.8779   19.8952 H   0  0  0  0  0  0
  -22.3694  -10.9684   19.6169 H   0  0  0  0  0  0
  -21.2015   -7.6151   23.9714 H   0  0  0  0  0  0
  -21.1479   -6.0527   25.9080 H   0  0  0  0  0  0
  -22.0597   -2.7607   23.2849 H   0  0  0  0  0  0
  -22.4105  -11.9892   22.4793 H   0  0  0  0  0  0
  -21.1119  -13.1267   22.2632 H   0  0  0  0  0  0
  -24.6559  -15.8392   20.4973 H   0  0  0  0  0  0
  -26.2635  -15.6164   20.0253 H   0  0  0  0  0  0
  -26.7162  -32.5418   23.1058 H   0  0  0  0  0  0
  -25.0082  -33.9679   25.0404 H   0  0  0  0  0  0
  -22.7130  -31.2920   21.3957 H   0  0  0  0  0  0
  -23.3747  -35.9622   23.3307 H   0  0  0  0  0  0
  -24.3586  -36.8905   22.2058 H   0  0  0  0  0  0
  -23.7242  -37.6490   23.6661 H   0  0  0  0  0  0
  -26.0830  -31.5491   20.5956 H   0  0  0  0  0  0
  -26.8364  -30.8361   21.9928 H   0  0  0  0  0  0
  -28.1106  -28.9921   21.1628 H   0  0  0  0  0  0
  -25.9752  -25.8639   19.0934 H   0  0  0  0  0  0
  -23.9695  -27.2529   19.0591 H   0  0  0  0  0  0
  -23.7299  -30.5564   19.3926 H   0  0  0  0  0  0
  -22.7490  -29.2092   19.8794 H   0  0  0  0  0  0
  -25.1307  -36.1914   25.0822 H   0  0  0  0  0  0
  -20.9956  -28.3207   24.1440 H   0  0  0  0  0  0
  -20.5658  -26.2254   23.3599 H   0  0  0  0  0  0
  -21.6630  -26.7425   22.1217 H   0  0  0  0  0  0
  -19.6897  -25.6276   21.1248 H   0  0  0  0  0  0
  -19.6687  -27.3170   20.6742 H   0  0  0  0  0  0
  -17.4190  -26.6677   21.4015 H   0  0  0  0  0  0
  -18.0318  -26.0052   22.9016 H   0  0  0  0  0  0
  -19.7920  -30.7260   24.2275 H   0  0  0  0  0  0
  -17.4993  -31.6266   24.5133 H   0  0  0  0  0  0
  -15.5333  -30.2955   23.7664 H   0  0  0  0  0  0
  -15.8666  -28.0780   22.7108 H   0  0  0  0  0  0
  -24.5872  -30.7114   25.7779 H   0  0  0  0  0  0
  -24.8940  -32.2926   26.4864 H   0  0  0  0  0  0
  -25.8044  -30.8920   27.0211 H   0  0  0  0  0  0
  -26.2903  -29.6781   24.1175 H   0  0  0  0  0  0
  -27.4036  -29.7273   25.4653 H   0  0  0  0  0  0
  -27.8754  -30.4330   23.9367 H   0  0  0  0  0  0
  -27.2608  -33.3631   26.2050 H   0  0  0  0  0  0
  -28.3829  -32.6921   25.0316 H   0  0  0  0  0  0
  -28.0689  -31.8488   26.5414 H   0  0  0  0  0  0
  -28.2600  -38.0085   24.7504 H   0  0  0  0  0  0
  -28.1074  -36.2624   24.6304 H   0  0  0  0  0  0
  -27.2299  -37.1458   25.8866 H   0  0  0  0  0  0
  -20.9345  -29.8712   21.6923 H   0  0  0  0  0  0
  -26.0184  -38.2841   24.1378 H   0  0  0  0  0  0
  -27.8864  -19.1110   18.5166 H   0  0  0  0  0  0
  -30.6083  -17.8979   22.4454 H   0  0  0  0  0  0
  -30.7126  -25.9530   19.5874 H   0  0  0  0  0  0
  -30.6611  -24.2024   19.6338 H   0  0  0  0  0  0
  -30.3717  -25.1308   21.1015 H   0  0  0  0  0  0
  -28.9994  -25.9005   17.6913 H   0  0  0  0  0  0
  -27.4758  -25.0462   17.8729 H   0  0  0  0  0  0
  -28.9633  -24.1468   17.8106 H   0  0  0  0  0  0
  -26.9769  -23.8071   20.1326 H   0  0  0  0  0  0
  -27.9546  -24.1291   21.5183 H   0  0  0  0  0  0
  -30.4508  -20.0674   23.2245 H   0  0  0  0  0  0
  -29.4607  -21.2475   22.5618 H   0  0  0  0  0  0
  -28.9624  -15.3174   21.4319 H   0  0  0  0  0  0
  -29.6661  -22.5029   20.7046 H   0  0  0  0  0  0
  1 25  1  0  0  0
  1 30  2  0  0  0
  1 83  1  0  0  0
  2  3  1  0  0  0
  2 25  1  0  0  0
  2 87  1  0  0  0
  2 88  1  0  0  0
  3  4  1  0  0  0
  3 89  1  0  0  0
  3 90  1  0  0  0
  4  5  1  0  0  0
  4 91  1  0  0  0
  4 92  1  0  0  0
  5  6  1  0  0  0
  5 26  1  0  0  0
  5 93  1  0  0  0
  6 25  1  0  0  0
  6 94  1  0  0  0
  6 95  1  0  0  0
  7  8  2  0  0  0
  7 26  1  0  0  0
  7 29  1  0  0  0
  8  9  1  0  0  0
  8 22  1  0  0  0
  9 10  1  0  0  0
  9 27  2  0  0  0
 10 11  2  0  0  0
 10 15  1  0  0  0
 11 12  1  0  0  0
 11 96  1  0  0  0
 12 13  2  0  0  0
 12 97  1  0  0  0
 13 14  1  0  0  0
 13 31  1  0  0  0
 14 15  2  0  0  0
 14 98  1  0  0  0
 15 99  1  0  0  0
 16 17  2  0  0  0
 16 21  1  0  0  0
 16 31  1  0  0  0
 17 18  1  0  0  0
 17100  1  0  0  0
 18 19  2  0  0  0
 18101  1  0  0  0
 19 20  1  0  0  0
 19 24  1  0  0  0
 20 21  2  0  0  0
 20102  1  0  0  0
 21 23  1  0  0  0
 22 28  1  0  0  0
 22 32  2  0  0  0
 26 27  1  0  0  0
 28103  1  0  0  0
 28104  1  0  0  0
 29105  1  0  0  0
 29106  1  0  0  0
 33 34  1  0  0  0
 33 66  1  0  0  0
 33 70  2  0  0  0
 34 36  1  0  0  0
 34 59  1  0  0  0
 34107  1  0  0  0
 35 44  2  0  0  0
 35 45  1  0  0  0
 35 68  1  0  0  0
 36 56  1  0  0  0
 36108  1  0  0  0
 37 39  1  0  0  0
 37 47  1  0  0  0
 37 66  1  0  0  0
 37109  1  0  0  0
 38 43  2  0  0  0
 38 46  1  0  0  0
 38 47  1  0  0  0
 39 64  1  0  0  0
 39 67  2  0  0  0
 40 52  1  0  0  0
 40 53  2  0  0  0
 40 58  1  0  0  0
 41110  1  0  0  0
 41111  1  0  0  0
 41112  1  0  0  0
 41 48  1  0  0  0
 42 43  1  0  0  0
 42 66  1  0  0  0
 42113  1  0  0  0
 42114  1  0  0  0
 43 44  1  0  0  0
 44115  1  0  0  0
 45 46  2  0  0  0
 45116  1  0  0  0
 46117  1  0  0  0
 47118  1  0  0  0
 47119  1  0  0  0
 48 56  1  0  0  0
 48 65  1  0  0  0
 48120  1  0  0  0
 49 50  1  0  0  0
 49 53  1  0  0  0
 49 64  1  0  0  0
 49121  1  0  0  0
 50 51  1  0  0  0
 50122  1  0  0  0
 50123  1  0  0  0
 51 52  1  0  0  0
 51124  1  0  0  0
 51125  1  0  0  0
 52126  1  0  0  0
 52127  1  0  0  0
 53 54  1  0  0  0
 54 55  2  0  0  0
 54128  1  0  0  0
 55 57  1  0  0  0
 55129  1  0  0  0
 56 69  2  0  0  0
 57 58  2  0  0  0
 57130  1  0  0  0
 58131  1  0  0  0
 59 60  1  0  0  0
 59 61  1  0  0  0
 59 62  1  0  0  0
 60132  1  0  0  0
 60133  1  0  0  0
 60134  1  0  0  0
 61135  1  0  0  0
 61136  1  0  0  0
 61137  1  0  0  0
 62138  1  0  0  0
 62139  1  0  0  0
 62140  1  0  0  0
 63 65  1  0  0  0
 63141  1  0  0  0
 63142  1  0  0  0
 63143  1  0  0  0
 64144  1  0  0  0
 65145  1  0  0  0
 68 81  1  0  0  0
 71 73  2  0  0  0
 71 76  1  0  0  0
 71146  1  0  0  0
 72 74  2  0  0  0
 72 75  1  0  0  0
 72147  1  0  0  0
 73 74  1  0  0  0
 73 77  1  0  0  0
 74 82  1  0  0  0
 75 76  2  0  0  0
 75 83  1  0  0  0
 76 86  1  0  0  0
 77 84  1  0  0  0
 77 85  2  0  0  0
 78148  1  0  0  0
 78149  1  0  0  0
 78150  1  0  0  0
 78 81  1  0  0  0
 79 81  1  0  0  0
 79151  1  0  0  0
 79152  1  0  0  0
 79153  1  0  0  0
 80 81  1  0  0  0
 80 84  1  0  0  0
 80154  1  0  0  0
 80155  1  0  0  0
 82156  1  0  0  0
 82157  1  0  0  0
 83158  1  0  0  0
 84159  1  0  0  0
M  ISO  4   1 100  68 101  81 101  83 100
M  END
> <chiral flag>
0

> <version>
0

> <s_m_source_file>
/data/baiqing/PycharmProjects/Reinvent-master-3.2/result/LINK_invent/BTK/process_docking_weight1_custom_product_contain_oxygen_bond_distance_aromatic_linkinvent_7_9_3/rearranged_h_0070.sdf

> <i_m_source_file_index>
60

> <r_mmod_Potential_Energy-OPLS-2005>
61.9921951293945

> <r_mmod_Stretch_Energy-OPLS-2005>
93.7258453369141

> <r_mmod_Bend_Energy-OPLS-2005>
194.646820068359

> <r_mmod_Torsional_Energy-OPLS-2005>
263.986083984375

> <r_mmod_Improper_Torsional_Energy-OPLS-2005>
11.0602521896362

> <r_mmod_Van_der_Waal_Energy-OPLS-2005>
135.863479614258

> <r_mmod_Electrostatic_Energy-OPLS-2005>
-467.6953125

> <r_mmod_Solvation_Energy-OPLS-2005>
-226.092025756836

> <b_mmod_Minimization_Converged-OPLS-2005>
0

> <r_mmod_RMS_Derivative-OPLS-2005>
1.3775327205658

$$$$
60
                    3D
 Structure written by MMmdl.
156165  0  0  1  0            999 V2000
  -30.5781  -14.8672   20.5517 C   0  0  0  0  0  0
  -30.4404  -12.5549   19.5077 C   0  0  0  0  0  0
  -29.5278  -12.5679   18.2566 C   0  0  0  0  0  0
  -28.0494  -12.3665   18.6421 C   0  0  0  0  0  0
  -27.6409  -13.2373   19.8590 C   0  0  2  0  0  0
  -28.6742  -13.1110   20.9917 C   0  0  0  0  0  0
  -25.2466  -13.8164   20.5609 C   0  0  0  0  0  0
  -24.1788  -13.0410   20.9130 C   0  0  0  0  0  0
  -24.6413  -11.6900   20.8698 C   0  0  0  0  0  0
  -23.9070  -10.4277   21.0381 C   0  0  0  0  0  0
  -24.3624   -9.4201   21.9165 C   0  0  0  0  0  0
  -23.6288   -8.2263   22.0756 C   0  0  0  0  0  0
  -22.4284   -8.0297   21.3552 C   0  0  0  0  0  0
  -21.9886   -9.0254   20.4647 C   0  0  0  0  0  0
  -22.7233  -10.2125   20.3030 C   0  0  0  0  0  0
  -21.6847   -6.0723   22.5268 C   0  0  0  0  0  0
  -21.4021   -6.5621   23.8194 C   0  0  0  0  0  0
  -21.3669   -5.6787   24.9161 C   0  0  0  0  0  0
  -21.6050   -4.3051   24.7208 C   0  0  0  0  0  0
  -21.8815   -3.8139   23.4339 C   0  0  0  0  0  0
  -21.9196   -4.6947   22.3392 C   0  0  0  0  0  0
  -22.7821  -13.5188   21.1812 C   0  0  0  0  0  0
  -22.1652   -4.2132   21.0974 F   0  0  0  0  0  0
  -21.5633   -3.4538   25.7729 F   0  0  0  0  0  0
  -29.9612  -13.6062   20.4600 N   0  0  0  0  0  0
  -26.2920  -12.9386   20.3248 N   0  0  0  0  0  0
  -25.9345  -11.6519   20.5682 N   0  0  0  0  0  0
  -22.0489  -12.8183   22.0399 N   0  0  0  0  0  0
  -25.4110  -15.1883   20.3927 N   0  0  0  0  0  0
  -31.7156  -14.9222   20.0643 O   0  0  0  0  0  0
  -21.6643   -6.8894   21.4251 O   0  0  0  0  0  0
  -22.3494  -14.5501   20.6665 O   0  0  0  0  0  0
  -24.6418  -31.8480   23.1928 C   0  0  0  0  0  0
  -25.9190  -32.4716   23.8311 C   0  0  1  0  0  0
  -27.2149  -27.1664   20.1464 C   0  0  0  0  0  0
  -25.5949  -33.8521   24.2226 N   0  0  0  0  0  0
  -23.4443  -30.4680   21.5387 C   0  0  2  0  0  0
  -24.8962  -28.9062   20.1037 C   0  0  0  0  0  0
  -22.7560  -29.4568   22.4884 C   0  0  0  0  0  0
  -18.0300  -28.1379   22.8481 C   0  0  0  0  0  0
  -24.1502  -36.7286   23.2637 C   0  0  0  0  0  0
  -25.9986  -30.7268   21.3924 C   0  0  0  0  0  0
  -26.0702  -29.3437   20.7306 C   0  0  0  0  0  0
  -27.2317  -28.4861   20.7448 C   0  0  0  0  0  0
  -26.0258  -26.8385   19.4556 C   0  0  0  0  0  0
  -24.8847  -27.6670   19.4479 C   0  0  0  0  0  0
  -23.6691  -29.8039   20.1538 C   0  0  0  0  0  0
  -25.4131  -36.3058   24.0322 C   0  0  1  0  0  0
  -20.5922  -28.3719   23.1240 C   0  0  2  0  0  0
  -20.6795  -26.9418   22.5419 C   0  0  0  0  0  0
  -19.5767  -26.6382   21.5230 C   0  0  0  0  0  0
  -18.1944  -26.7923   22.1637 C   0  0  0  0  0  0
  -19.1549  -28.8867   23.2853 C   0  0  0  0  0  0
  -18.9468  -30.1465   23.8886 C   0  0  0  0  0  0
  -17.6470  -30.6585   24.0551 C   0  0  0  0  0  0
  -25.9079  -34.9418   23.5075 C   0  0  0  0  0  0
  -16.5365  -29.9076   23.6321 C   0  0  0  0  0  0
  -16.7286  -28.6485   23.0346 C   0  0  0  0  0  0
  -26.4507  -31.6561   25.0733 C   0  0  0  0  0  0
  -25.3686  -31.3751   26.1422 C   0  0  0  0  0  0
  -27.0338  -30.2946   24.6297 C   0  0  0  0  0  0
  -27.6054  -32.4305   25.7506 C   0  0  0  0  0  0
  -27.5585  -37.1814   24.8465 C   0  0  0  0  0  0
  -21.4258  -29.3052   22.3617 N   0  0  0  0  0  0
  -26.4314  -37.3753   23.9386 N   0  0  0  0  0  0
  -24.7150  -31.0347   22.0964 N   0  0  0  0  0  0
  -23.4222  -28.8102   23.3006 O   0  0  0  0  0  0
  -28.2392  -26.1608   20.2117 O   0  0  0  0  0  0
  -26.5653  -34.8905   22.4655 O   0  0  0  0  0  0
  -23.5545  -32.1358   23.7153 O   0  0  0  0  0  0
  -31.3192  -20.2857   20.8584 C   0  0  0  0  0  0
  -32.1547  -19.1988   21.1606 C   0  0  0  0  0  0
  -29.5076  -18.7435   20.6039 C   0  0  0  0  0  0
  -29.9324  -20.1724   20.6067 C   0  0  0  0  0  0
  -31.6926  -17.8743   21.1923 C   0  0  0  0  0  0
  -30.3504  -17.5383   20.8623 C   0  0  0  0  0  0
  -28.5052  -23.5067   20.3910 C   0  0  0  0  0  0
  -27.9625  -22.1444   20.6348 C   0  0  0  0  0  0
  -27.8802  -16.5217   22.3136 C   0  0  0  0  0  0
  -27.8617  -24.7673   20.4223 C   0  0  0  0  0  0
  -29.0547  -15.8992   22.1087 C   0  0  0  0  0  0
  -29.8877  -22.8335   20.1593 C   0  0  0  0  0  0
  -29.2171  -21.5065   20.4112 N   0  0  0  0  0  0
  -32.6126  -16.9315   21.6393 N   0  0  0  0  0  0
  -29.9210  -16.0630   21.0155 N   0  0  0  0  0  0
  -26.8535  -21.7820   20.9658 O   0  0  0  0  0  0
  -31.4768  -12.7045   19.2004 H   0  0  0  0  0  0
  -30.4353  -11.5699   19.9785 H   0  0  0  0  0  0
  -29.8439  -11.7998   17.5498 H   0  0  0  0  0  0
  -29.6432  -13.5229   17.7428 H   0  0  0  0  0  0
  -27.9087  -11.3105   18.8767 H   0  0  0  0  0  0
  -27.4043  -12.5762   17.7854 H   0  0  0  0  0  0
  -27.6499  -14.2740   19.5224 H   0  0  0  0  0  0
  -28.7561  -12.0646   21.2935 H   0  0  0  0  0  0
  -28.3268  -13.5965   21.8956 H   0  0  0  0  0  0
  -25.2765   -9.5678   22.4731 H   0  0  0  0  0  0
  -23.9978   -7.4656   22.7485 H   0  0  0  0  0  0
  -21.0811   -8.8778   19.8960 H   0  0  0  0  0  0
  -22.3691  -10.9656   19.6148 H   0  0  0  0  0  0
  -21.2021   -7.6130   23.9670 H   0  0  0  0  0  0
  -21.1497   -6.0535   25.9048 H   0  0  0  0  0  0
  -22.0592   -2.7597   23.2840 H   0  0  0  0  0  0
  -22.4099  -11.9849   22.4776 H   0  0  0  0  0  0
  -21.1126  -13.1272   22.2661 H   0  0  0  0  0  0
  -24.6480  -15.8452   20.5032 H   0  0  0  0  0  0
  -26.2754  -15.6277   20.0964 H   0  0  0  0  0  0
  -26.7248  -32.5314   23.1043 H   0  0  0  0  0  0
  -25.0054  -33.9659   25.0333 H   0  0  0  0  0  0
  -22.7459  -31.2950   21.3881 H   0  0  0  0  0  0
  -23.3763  -35.9626   23.3329 H   0  0  0  0  0  0
  -24.3587  -36.8882   22.2048 H   0  0  0  0  0  0
  -23.7273  -37.6503   23.6640 H   0  0  0  0  0  0
  -26.1552  -31.4856   20.6259 H   0  0  0  0  0  0
  -26.8717  -30.7744   22.0307 H   0  0  0  0  0  0
  -28.1224  -28.8110   21.2642 H   0  0  0  0  0  0
  -25.9548  -25.8927   18.9367 H   0  0  0  0  0  0
  -23.9931  -27.3346   18.9378 H   0  0  0  0  0  0
  -23.7961  -30.5835   19.4031 H   0  0  0  0  0  0
  -22.7869  -29.2417   19.8468 H   0  0  0  0  0  0
  -25.1324  -36.1921   25.0821 H   0  0  0  0  0  0
  -20.9995  -28.3297   24.1364 H   0  0  0  0  0  0
  -20.5696  -26.2328   23.3624 H   0  0  0  0  0  0
  -21.6649  -26.7430   22.1195 H   0  0  0  0  0  0
  -19.6934  -25.6286   21.1250 H   0  0  0  0  0  0
  -19.6697  -27.3195   20.6743 H   0  0  0  0  0  0
  -17.4208  -26.6660   21.4035 H   0  0  0  0  0  0
  -18.0337  -26.0078   22.9040 H   0  0  0  0  0  0
  -19.7942  -30.7269   24.2269 H   0  0  0  0  0  0
  -17.5013  -31.6258   24.5142 H   0  0  0  0  0  0
  -15.5349  -30.2963   23.7658 H   0  0  0  0  0  0
  -15.8690  -28.0798   22.7076 H   0  0  0  0  0  0
  -24.5901  -30.7055   25.7755 H   0  0  0  0  0  0
  -24.8825  -32.2918   26.4761 H   0  0  0  0  0  0
  -25.7978  -30.8994   27.0252 H   0  0  0  0  0  0
  -26.2934  -29.6711   24.1272 H   0  0  0  0  0  0
  -27.3895  -29.7212   25.4874 H   0  0  0  0  0  0
  -27.8882  -30.4181   23.9641 H   0  0  0  0  0  0
  -27.2660  -33.3620   26.2058 H   0  0  0  0  0  0
  -28.3871  -32.6851   25.0331 H   0  0  0  0  0  0
  -28.0706  -31.8437   26.5435 H   0  0  0  0  0  0
  -28.2620  -38.0090   24.7463 H   0  0  0  0  0  0
  -28.1069  -36.2621   24.6362 H   0  0  0  0  0  0
  -27.2290  -37.1537   25.8864 H   0  0  0  0  0  0
  -20.9465  -29.8746   21.6781 H   0  0  0  0  0  0
  -26.0208  -38.2851   24.1317 H   0  0  0  0  0  0
  -31.8034  -21.2492   20.8735 H   0  0  0  0  0  0
  -33.1871  -19.4056   21.4018 H   0  0  0  0  0  0
  -28.4663  -18.5670   20.3890 H   0  0  0  0  0  0
  -27.3079  -16.3279   23.2127 H   0  0  0  0  0  0
  -27.4479  -17.2137   21.6129 H   0  0  0  0  0  0
  -26.8135  -24.7196   20.6820 H   0  0  0  0  0  0
  -29.4337  -15.2088   22.8524 H   0  0  0  0  0  0
  -30.6588  -23.0708   20.8935 H   0  0  0  0  0  0
  -30.3026  -22.8879   19.1523 H   0  0  0  0  0  0
  -32.5459  -16.0431   21.1376 H   0  0  0  0  0  0
  -33.5798  -17.2311   21.7103 H   0  0  0  0  0  0
  1 25  1  0  0  0
  1 30  2  0  0  0
  1 85  1  0  0  0
  2  3  1  0  0  0
  2 25  1  0  0  0
  2 87  1  0  0  0
  2 88  1  0  0  0
  3  4  1  0  0  0
  3 89  1  0  0  0
  3 90  1  0  0  0
  4  5  1  0  0  0
  4 91  1  0  0  0
  4 92  1  0  0  0
  5  6  1  0  0  0
  5 26  1  0  0  0
  5 93  1  0  0  0
  6 25  1  0  0  0
  6 94  1  0  0  0
  6 95  1  0  0  0
  7  8  2  0  0  0
  7 26  1  0  0  0
  7 29  1  0  0  0
  8  9  1  0  0  0
  8 22  1  0  0  0
  9 10  1  0  0  0
  9 27  2  0  0  0
 10 11  2  0  0  0
 10 15  1  0  0  0
 11 12  1  0  0  0
 11 96  1  0  0  0
 12 13  2  0  0  0
 12 97  1  0  0  0
 13 14  1  0  0  0
 13 31  1  0  0  0
 14 15  2  0  0  0
 14 98  1  0  0  0
 15 99  1  0  0  0
 16 17  2  0  0  0
 16 21  1  0  0  0
 16 31  1  0  0  0
 17 18  1  0  0  0
 17100  1  0  0  0
 18 19  2  0  0  0
 18101  1  0  0  0
 19 20  1  0  0  0
 19 24  1  0  0  0
 20 21  2  0  0  0
 20102  1  0  0  0
 21 23  1  0  0  0
 22 28  1  0  0  0
 22 32  2  0  0  0
 26 27  1  0  0  0
 28103  1  0  0  0
 28104  1  0  0  0
 29105  1  0  0  0
 29106  1  0  0  0
 33 34  1  0  0  0
 33 66  1  0  0  0
 33 70  2  0  0  0
 34 36  1  0  0  0
 34 59  1  0  0  0
 34107  1  0  0  0
 35 44  2  0  0  0
 35 45  1  0  0  0
 35 68  1  0  0  0
 36 56  1  0  0  0
 36108  1  0  0  0
 37 39  1  0  0  0
 37 47  1  0  0  0
 37 66  1  0  0  0
 37109  1  0  0  0
 38 43  2  0  0  0
 38 46  1  0  0  0
 38 47  1  0  0  0
 39 64  1  0  0  0
 39 67  2  0  0  0
 40 52  1  0  0  0
 40 53  2  0  0  0
 40 58  1  0  0  0
 41110  1  0  0  0
 41111  1  0  0  0
 41112  1  0  0  0
 41 48  1  0  0  0
 42 43  1  0  0  0
 42 66  1  0  0  0
 42113  1  0  0  0
 42114  1  0  0  0
 43 44  1  0  0  0
 44115  1  0  0  0
 45 46  2  0  0  0
 45116  1  0  0  0
 46117  1  0  0  0
 47118  1  0  0  0
 47119  1  0  0  0
 48 56  1  0  0  0
 48 65  1  0  0  0
 48120  1  0  0  0
 49 50  1  0  0  0
 49 53  1  0  0  0
 49 64  1  0  0  0
 49121  1  0  0  0
 50 51  1  0  0  0
 50122  1  0  0  0
 50123  1  0  0  0
 51 52  1  0  0  0
 51124  1  0  0  0
 51125  1  0  0  0
 52126  1  0  0  0
 52127  1  0  0  0
 53 54  1  0  0  0
 54 55  2  0  0  0
 54128  1  0  0  0
 55 57  1  0  0  0
 55129  1  0  0  0
 56 69  2  0  0  0
 57 58  2  0  0  0
 57130  1  0  0  0
 58131  1  0  0  0
 59 60  1  0  0  0
 59 61  1  0  0  0
 59 62  1  0  0  0
 60132  1  0  0  0
 60133  1  0  0  0
 60134  1  0  0  0
 61135  1  0  0  0
 61136  1  0  0  0
 61137  1  0  0  0
 62138  1  0  0  0
 62139  1  0  0  0
 62140  1  0  0  0
 63 65  1  0  0  0
 63141  1  0  0  0
 63142  1  0  0  0
 63143  1  0  0  0
 64144  1  0  0  0
 65145  1  0  0  0
 68 80  1  0  0  0
 71 72  2  0  0  0
 71 74  1  0  0  0
 71146  1  0  0  0
 72 75  1  0  0  0
 72147  1  0  0  0
 73 74  2  0  0  0
 73 76  1  0  0  0
 73148  1  0  0  0
 74 83  1  0  0  0
 75 76  2  0  0  0
 75 84  1  0  0  0
 76 85  1  0  0  0
 77 78  1  0  0  0
 77 80  2  0  0  0
 77 82  1  0  0  0
 78 83  1  0  0  0
 78 86  2  0  0  0
 79 81  2  0  0  0
 79149  1  0  0  0
 79150  1  0  0  0
 80151  1  0  0  0
 81 85  1  0  0  0
 81152  1  0  0  0
 82 83  1  0  0  0
 82153  1  0  0  0
 82154  1  0  0  0
 84155  1  0  0  0
 84156  1  0  0  0
M  ISO  4   1 100  68 101  80 101  85 100
M  END
> <chiral flag>
0

> <version>
0

> <s_m_source_file>
/data/baiqing/PycharmProjects/Reinvent-master-3.2/result/LINK_invent/BTK/process_docking_weight1_custom_product_contain_oxygen_bond_distance_aromatic_linkinvent_7_9_3/rearranged_h_0070.sdf

> <i_m_source_file_index>
61

> <r_mmod_Potential_Energy-OPLS-2005>
586.671264648438

> <r_mmod_Stretch_Energy-OPLS-2005>
217.207046508789

> <r_mmod_Bend_Energy-OPLS-2005>
319.722564697266

> <r_mmod_Torsional_Energy-OPLS-2005>
334.579956054688

> <r_mmod_Improper_Torsional_Energy-OPLS-2005>
11.7224025726318

> <r_mmod_Van_der_Waal_Energy-OPLS-2005>
171.261856079102

> <r_mmod_Electrostatic_Energy-OPLS-2005>
-406.771820068359

> <r_mmod_Solvation_Energy-OPLS-2005>
-207.291732788086

> <b_mmod_Minimization_Converged-OPLS-2005>
0

> <r_mmod_RMS_Derivative-OPLS-2005>
5.74239158630371

$$$$
61
                    3D
 Structure written by MMmdl.
156164  0  0  1  0            999 V2000
  -30.6136  -14.7859   20.4354 C   0  0  0  0  0  0
  -30.4269  -12.4801   19.4692 C   0  0  0  0  0  0
  -29.5053  -12.5028   18.2312 C   0  0  0  0  0  0
  -28.0343  -12.3194   18.6515 C   0  0  0  0  0  0
  -27.6336  -13.2354   19.8386 C   0  0  2  0  0  0
  -28.6818  -13.2108   20.9717 C   0  0  0  0  0  0
  -25.2487  -13.8197   20.5701 C   0  0  0  0  0  0
  -24.1793  -13.0435   20.9221 C   0  0  0  0  0  0
  -24.6396  -11.6917   20.8757 C   0  0  0  0  0  0
  -23.9077  -10.4291   21.0410 C   0  0  0  0  0  0
  -24.3627   -9.4204   21.9187 C   0  0  0  0  0  0
  -23.6300   -8.2239   22.0756 C   0  0  0  0  0  0
  -22.4281   -8.0280   21.3546 C   0  0  0  0  0  0
  -21.9919   -9.0255   20.4649 C   0  0  0  0  0  0
  -22.7250  -10.2132   20.3059 C   0  0  0  0  0  0
  -21.6854   -6.0735   22.5281 C   0  0  0  0  0  0
  -21.4015   -6.5639   23.8215 C   0  0  0  0  0  0
  -21.3661   -5.6794   24.9178 C   0  0  0  0  0  0
  -21.6044   -4.3056   24.7231 C   0  0  0  0  0  0
  -21.8819   -3.8148   23.4352 C   0  0  0  0  0  0
  -21.9193   -4.6963   22.3407 C   0  0  0  0  0  0
  -22.7815  -13.5211   21.1875 C   0  0  0  0  0  0
  -22.1661   -4.2148   21.0984 F   0  0  0  0  0  0
  -21.5630   -3.4540   25.7744 F   0  0  0  0  0  0
  -29.9721  -13.5651   20.3708 N   0  0  0  0  0  0
  -26.2905  -12.9412   20.3246 N   0  0  0  0  0  0
  -25.9322  -11.6553   20.5749 N   0  0  0  0  0  0
  -22.0464  -12.8200   22.0428 N   0  0  0  0  0  0
  -25.4142  -15.1925   20.4123 N   0  0  0  0  0  0
  -31.8262  -14.8166   20.2072 O   0  0  0  0  0  0
  -21.6642   -6.8878   21.4244 O   0  0  0  0  0  0
  -22.3504  -14.5519   20.6723 O   0  0  0  0  0  0
  -24.6331  -31.8525   23.1947 C   0  0  0  0  0  0
  -25.9146  -32.4742   23.8306 C   0  0  1  0  0  0
  -27.2189  -27.2419   20.1415 C   0  0  0  0  0  0
  -25.5938  -33.8546   24.2238 N   0  0  0  0  0  0
  -23.4308  -30.4728   21.5382 C   0  0  2  0  0  0
  -24.8783  -28.9083   20.1152 C   0  0  0  0  0  0
  -22.7508  -29.4590   22.4905 C   0  0  0  0  0  0
  -18.0295  -28.1384   22.8480 C   0  0  0  0  0  0
  -24.1488  -36.7278   23.2637 C   0  0  0  0  0  0
  -25.9763  -30.7600   21.3751 C   0  0  0  0  0  0
  -26.0497  -29.3766   20.7256 C   0  0  0  0  0  0
  -27.2255  -28.5567   20.7241 C   0  0  0  0  0  0
  -26.0304  -26.8427   19.4995 C   0  0  0  0  0  0
  -24.8736  -27.6498   19.4910 C   0  0  0  0  0  0
  -23.6505  -29.7994   20.1571 C   0  0  0  0  0  0
  -25.4116  -36.3064   24.0324 C   0  0  1  0  0  0
  -20.5901  -28.3695   23.1265 C   0  0  2  0  0  0
  -20.6785  -26.9411   22.5406 C   0  0  0  0  0  0
  -19.5761  -26.6381   21.5209 C   0  0  0  0  0  0
  -18.1940  -26.7926   22.1619 C   0  0  0  0  0  0
  -19.1548  -28.8857   23.2867 C   0  0  0  0  0  0
  -18.9466  -30.1456   23.8885 C   0  0  0  0  0  0
  -17.6465  -30.6582   24.0561 C   0  0  0  0  0  0
  -25.9057  -34.9437   23.5084 C   0  0  0  0  0  0
  -16.5356  -29.9077   23.6328 C   0  0  0  0  0  0
  -16.7282  -28.6496   23.0348 C   0  0  0  0  0  0
  -26.4505  -31.6569   25.0699 C   0  0  0  0  0  0
  -25.3722  -31.3724   26.1415 C   0  0  0  0  0  0
  -27.0355  -30.2987   24.6186 C   0  0  0  0  0  0
  -27.6061  -32.4306   25.7479 C   0  0  0  0  0  0
  -27.5577  -37.1793   24.8463 C   0  0  0  0  0  0
  -21.4214  -29.3042   22.3650 N   0  0  0  0  0  0
  -26.4283  -37.3771   23.9413 N   0  0  0  0  0  0
  -24.6994  -31.0475   22.0927 N   0  0  0  0  0  0
  -23.4198  -28.8141   23.3019 O   0  0  0  0  0  0
  -28.3200  -26.3517   20.1167 O   0  0  0  0  0  0
  -26.5624  -34.8920   22.4649 O   0  0  0  0  0  0
  -23.5479  -32.1344   23.7237 O   0  0  0  0  0  0
  -27.4625  -19.3184   18.7630 C   0  0  0  0  0  0
  -28.2616  -18.2573   19.2402 C   0  0  0  0  0  0
  -27.6712  -20.6546   19.1686 C   0  0  0  0  0  0
  -29.4994  -19.8829   20.5621 C   0  0  0  0  0  0
  -29.3079  -18.4847   20.1591 C   0  0  0  0  0  0
  -28.6945  -21.0081   20.0785 C   0  0  0  0  0  0
  -30.2510  -17.2900   20.5448 C   0  0  0  0  0  0
  -28.3526  -23.6463   19.9893 C   0  0  0  0  0  0
  -27.1892  -24.9314   21.8701 C   0  0  0  0  0  0
  -29.6778  -25.1182   21.6219 C   0  0  0  0  0  0
  -28.3475  -25.0205   20.8529 C   0  0  0  0  0  0
  -28.8274  -22.4362   20.5192 N   0  0  0  0  0  0
  -29.8442  -15.9537   20.4874 N   0  0  0  0  0  0
  -31.3897  -17.5995   20.9104 O   0  0  0  0  0  0
  -27.9252  -23.7077   18.8345 O   0  0  0  0  0  0
  -31.4671  -12.6018   19.1622 H   0  0  0  0  0  0
  -30.3749  -11.5148   19.9751 H   0  0  0  0  0  0
  -29.7934  -11.7208   17.5278 H   0  0  0  0  0  0
  -29.6226  -13.4498   17.7015 H   0  0  0  0  0  0
  -27.9046  -11.2735   18.9341 H   0  0  0  0  0  0
  -27.3720  -12.4870   17.8010 H   0  0  0  0  0  0
  -27.6123  -14.2478   19.4351 H   0  0  0  0  0  0
  -28.7307  -12.2276   21.4416 H   0  0  0  0  0  0
  -28.4149  -13.9183   21.7594 H   0  0  0  0  0  0
  -25.2767   -9.5681   22.4770 H   0  0  0  0  0  0
  -24.0009   -7.4630   22.7476 H   0  0  0  0  0  0
  -21.0847   -8.8777   19.8956 H   0  0  0  0  0  0
  -22.3704  -10.9677   19.6177 H   0  0  0  0  0  0
  -21.2005   -7.6149   23.9716 H   0  0  0  0  0  0
  -21.1482   -6.0526   25.9080 H   0  0  0  0  0  0
  -22.0596   -2.7611   23.2853 H   0  0  0  0  0  0
  -22.4086  -11.9859   22.4807 H   0  0  0  0  0  0
  -21.1084  -13.1229   22.2644 H   0  0  0  0  0  0
  -24.6405  -15.8385   20.5257 H   0  0  0  0  0  0
  -26.2499  -15.6394   20.0621 H   0  0  0  0  0  0
  -26.7211  -32.5389   23.1047 H   0  0  0  0  0  0
  -25.0105  -33.9676   25.0400 H   0  0  0  0  0  0
  -22.7284  -31.2951   21.3878 H   0  0  0  0  0  0
  -23.3755  -35.9604   23.3286 H   0  0  0  0  0  0
  -24.3577  -36.8908   22.2053 H   0  0  0  0  0  0
  -23.7235  -37.6474   23.6667 H   0  0  0  0  0  0
  -26.1122  -31.5165   20.6008 H   0  0  0  0  0  0
  -26.8553  -30.8154   22.0059 H   0  0  0  0  0  0
  -28.1281  -28.9137   21.1999 H   0  0  0  0  0  0
  -25.9941  -25.8782   19.0127 H   0  0  0  0  0  0
  -23.9788  -27.2886   19.0028 H   0  0  0  0  0  0
  -23.7785  -30.5710   19.3974 H   0  0  0  0  0  0
  -22.7683  -29.2332   19.8530 H   0  0  0  0  0  0
  -25.1305  -36.1897   25.0816 H   0  0  0  0  0  0
  -20.9998  -28.3277   24.1384 H   0  0  0  0  0  0
  -20.5680  -26.2311   23.3615 H   0  0  0  0  0  0
  -21.6656  -26.7430   22.1206 H   0  0  0  0  0  0
  -19.6921  -25.6292   21.1237 H   0  0  0  0  0  0
  -19.6694  -27.3191   20.6739 H   0  0  0  0  0  0
  -17.4214  -26.6672   21.4017 H   0  0  0  0  0  0
  -18.0339  -26.0070   22.9017 H   0  0  0  0  0  0
  -19.7943  -30.7275   24.2249 H   0  0  0  0  0  0
  -17.5015  -31.6259   24.5165 H   0  0  0  0  0  0
  -15.5354  -30.2971   23.7653 H   0  0  0  0  0  0
  -15.8685  -28.0809   22.7067 H   0  0  0  0  0  0
  -24.5911  -30.7056   25.7737 H   0  0  0  0  0  0
  -24.8898  -32.2895   26.4807 H   0  0  0  0  0  0
  -25.8035  -30.8922   27.0207 H   0  0  0  0  0  0
  -26.2938  -29.6728   24.1207 H   0  0  0  0  0  0
  -27.4033  -29.7254   25.4705 H   0  0  0  0  0  0
  -27.8817  -30.4259   23.9431 H   0  0  0  0  0  0
  -27.2674  -33.3618   26.2035 H   0  0  0  0  0  0
  -28.3891  -32.6838   25.0317 H   0  0  0  0  0  0
  -28.0706  -31.8435   26.5411 H   0  0  0  0  0  0
  -28.2593  -38.0093   24.7530 H   0  0  0  0  0  0
  -28.1075  -36.2630   24.6269 H   0  0  0  0  0  0
  -27.2297  -37.1417   25.8864 H   0  0  0  0  0  0
  -20.9399  -29.8756   21.6848 H   0  0  0  0  0  0
  -26.0155  -38.2838   24.1427 H   0  0  0  0  0  0
  -26.6722  -19.1046   18.0571 H   0  0  0  0  0  0
  -28.0808  -17.2609   18.8619 H   0  0  0  0  0  0
  -27.0066  -21.4065   18.7690 H   0  0  0  0  0  0
  -30.3054  -20.0922   21.2514 H   0  0  0  0  0  0
  -27.2802  -24.0453   22.4989 H   0  0  0  0  0  0
  -26.2202  -24.8659   21.3751 H   0  0  0  0  0  0
  -27.1710  -25.7965   22.5332 H   0  0  0  0  0  0
  -30.5260  -25.1461   20.9366 H   0  0  0  0  0  0
  -29.8256  -24.2780   22.3004 H   0  0  0  0  0  0
  -29.7161  -26.0272   22.2222 H   0  0  0  0  0  0
  -29.2953  -22.5551   21.4067 H   0  0  0  0  0  0
  -28.8524  -15.8182   20.4083 H   0  0  0  0  0  0
  1 25  1  0  0  0
  1 30  2  0  0  0
  1 83  1  0  0  0
  2  3  1  0  0  0
  2 25  1  0  0  0
  2 86  1  0  0  0
  2 87  1  0  0  0
  3  4  1  0  0  0
  3 88  1  0  0  0
  3 89  1  0  0  0
  4  5  1  0  0  0
  4 90  1  0  0  0
  4 91  1  0  0  0
  5  6  1  0  0  0
  5 26  1  0  0  0
  5 92  1  0  0  0
  6 25  1  0  0  0
  6 93  1  0  0  0
  6 94  1  0  0  0
  7  8  2  0  0  0
  7 26  1  0  0  0
  7 29  1  0  0  0
  8  9  1  0  0  0
  8 22  1  0  0  0
  9 10  1  0  0  0
  9 27  2  0  0  0
 10 11  2  0  0  0
 10 15  1  0  0  0
 11 12  1  0  0  0
 11 95  1  0  0  0
 12 13  2  0  0  0
 12 96  1  0  0  0
 13 14  1  0  0  0
 13 31  1  0  0  0
 14 15  2  0  0  0
 14 97  1  0  0  0
 15 98  1  0  0  0
 16 17  2  0  0  0
 16 21  1  0  0  0
 16 31  1  0  0  0
 17 18  1  0  0  0
 17 99  1  0  0  0
 18 19  2  0  0  0
 18100  1  0  0  0
 19 20  1  0  0  0
 19 24  1  0  0  0
 20 21  2  0  0  0
 20101  1  0  0  0
 21 23  1  0  0  0
 22 28  1  0  0  0
 22 32  2  0  0  0
 26 27  1  0  0  0
 28102  1  0  0  0
 28103  1  0  0  0
 29104  1  0  0  0
 29105  1  0  0  0
 33 34  1  0  0  0
 33 66  1  0  0  0
 33 70  2  0  0  0
 34 36  1  0  0  0
 34 59  1  0  0  0
 34106  1  0  0  0
 35 44  2  0  0  0
 35 45  1  0  0  0
 35 68  1  0  0  0
 36 56  1  0  0  0
 36107  1  0  0  0
 37 39  1  0  0  0
 37 47  1  0  0  0
 37 66  1  0  0  0
 37108  1  0  0  0
 38 43  2  0  0  0
 38 46  1  0  0  0
 38 47  1  0  0  0
 39 64  1  0  0  0
 39 67  2  0  0  0
 40 52  1  0  0  0
 40 53  2  0  0  0
 40 58  1  0  0  0
 41109  1  0  0  0
 41110  1  0  0  0
 41111  1  0  0  0
 41 48  1  0  0  0
 42 43  1  0  0  0
 42 66  1  0  0  0
 42112  1  0  0  0
 42113  1  0  0  0
 43 44  1  0  0  0
 44114  1  0  0  0
 45 46  2  0  0  0
 45115  1  0  0  0
 46116  1  0  0  0
 47117  1  0  0  0
 47118  1  0  0  0
 48 56  1  0  0  0
 48 65  1  0  0  0
 48119  1  0  0  0
 49 50  1  0  0  0
 49 53  1  0  0  0
 49 64  1  0  0  0
 49120  1  0  0  0
 50 51  1  0  0  0
 50121  1  0  0  0
 50122  1  0  0  0
 51 52  1  0  0  0
 51123  1  0  0  0
 51124  1  0  0  0
 52125  1  0  0  0
 52126  1  0  0  0
 53 54  1  0  0  0
 54 55  2  0  0  0
 54127  1  0  0  0
 55 57  1  0  0  0
 55128  1  0  0  0
 56 69  2  0  0  0
 57 58  2  0  0  0
 57129  1  0  0  0
 58130  1  0  0  0
 59 60  1  0  0  0
 59 61  1  0  0  0
 59 62  1  0  0  0
 60131  1  0  0  0
 60132  1  0  0  0
 60133  1  0  0  0
 61134  1  0  0  0
 61135  1  0  0  0
 61136  1  0  0  0
 62137  1  0  0  0
 62138  1  0  0  0
 62139  1  0  0  0
 63 65  1  0  0  0
 63140  1  0  0  0
 63141  1  0  0  0
 63142  1  0  0  0
 64143  1  0  0  0
 65144  1  0  0  0
 68 81  1  0  0  0
 71 72  2  0  0  0
 71 73  1  0  0  0
 71145  1  0  0  0
 72 75  1  0  0  0
 72146  1  0  0  0
 73 76  2  0  0  0
 73147  1  0  0  0
 74 75  2  0  0  0
 74 76  1  0  0  0
 74148  1  0  0  0
 75 77  1  0  0  0
 76 82  1  0  0  0
 77 83  1  0  0  0
 77 84  2  0  0  0
 78 81  1  0  0  0
 78 82  1  0  0  0
 78 85  2  0  0  0
 79149  1  0  0  0
 79150  1  0  0  0
 79151  1  0  0  0
 79 81  1  0  0  0
 80 81  1  0  0  0
 80152  1  0  0  0
 80153  1  0  0  0
 80154  1  0  0  0
 82155  1  0  0  0
 83156  1  0  0  0
M  ISO  4   1 100  68 101  81 101  83 100
M  END
> <chiral flag>
0

> <version>
0

> <s_m_source_file>
/data/baiqing/PycharmProjects/Reinvent-master-3.2/result/LINK_invent/BTK/process_docking_weight1_custom_product_contain_oxygen_bond_distance_aromatic_linkinvent_7_9_3/rearranged_h_0070.sdf

> <i_m_source_file_index>
62

> <r_mmod_Potential_Energy-OPLS-2005>
119.960372924805

> <r_mmod_Stretch_Energy-OPLS-2005>
144.582000732422

> <r_mmod_Bend_Energy-OPLS-2005>
175.225296020508

> <r_mmod_Torsional_Energy-OPLS-2005>
277.392639160156

> <r_mmod_Improper_Torsional_Energy-OPLS-2005>
6.93590402603149

> <r_mmod_Van_der_Waal_Energy-OPLS-2005>
136.63850402832

> <r_mmod_Electrostatic_Energy-OPLS-2005>
-475.009002685547

> <r_mmod_Solvation_Energy-OPLS-2005>
-246.049667358398

> <b_mmod_Minimization_Converged-OPLS-2005>
0

> <r_mmod_RMS_Derivative-OPLS-2005>
0.888975918292999

$$$$
62
                    3D
 Structure written by MMmdl.
157165  0  0  1  0            999 V2000
  -30.5843  -14.6468   20.4689 C   0  0  0  0  0  0
  -30.4367  -12.3807   19.4476 C   0  0  0  0  0  0
  -29.5073  -12.4894   18.2185 C   0  0  0  0  0  0
  -28.0244  -12.3422   18.6270 C   0  0  0  0  0  0
  -27.6473  -13.2099   19.8563 C   0  0  2  0  0  0
  -28.6923  -13.0619   20.9835 C   0  0  0  0  0  0
  -25.2520  -13.8145   20.5620 C   0  0  0  0  0  0
  -24.1816  -13.0424   20.9155 C   0  0  0  0  0  0
  -24.6379  -11.6890   20.8722 C   0  0  0  0  0  0
  -23.9057  -10.4278   21.0407 C   0  0  0  0  0  0
  -24.3611   -9.4195   21.9192 C   0  0  0  0  0  0
  -23.6288   -8.2230   22.0762 C   0  0  0  0  0  0
  -22.4270   -8.0274   21.3544 C   0  0  0  0  0  0
  -21.9894   -9.0251   20.4657 C   0  0  0  0  0  0
  -22.7221  -10.2129   20.3065 C   0  0  0  0  0  0
  -21.6847   -6.0733   22.5273 C   0  0  0  0  0  0
  -21.4007   -6.5632   23.8215 C   0  0  0  0  0  0
  -21.3664   -5.6789   24.9177 C   0  0  0  0  0  0
  -21.6043   -4.3053   24.7220 C   0  0  0  0  0  0
  -21.8823   -3.8144   23.4335 C   0  0  0  0  0  0
  -21.9188   -4.6955   22.3396 C   0  0  0  0  0  0
  -22.7831  -13.5227   21.1835 C   0  0  0  0  0  0
  -22.1659   -4.2147   21.0967 F   0  0  0  0  0  0
  -21.5629   -3.4542   25.7728 F   0  0  0  0  0  0
  -30.0036  -13.4082   20.4145 N   0  0  0  0  0  0
  -26.2953  -12.9313   20.3286 N   0  0  0  0  0  0
  -25.9300  -11.6478   20.5769 N   0  0  0  0  0  0
  -22.0479  -12.8252   22.0401 N   0  0  0  0  0  0
  -25.4159  -15.1877   20.3962 N   0  0  0  0  0  0
  -31.7690  -14.8174   20.1660 O   0  0  0  0  0  0
  -21.6634   -6.8866   21.4227 O   0  0  0  0  0  0
  -22.3504  -14.5533   20.6689 O   0  0  0  0  0  0
  -24.6290  -31.8558   23.1998 C   0  0  0  0  0  0
  -25.9139  -32.4746   23.8325 C   0  0  1  0  0  0
  -27.2107  -27.2767   20.1118 C   0  0  0  0  0  0
  -25.5948  -33.8542   24.2244 N   0  0  0  0  0  0
  -23.4252  -30.4775   21.5436 C   0  0  2  0  0  0
  -24.8664  -28.9282   20.1149 C   0  0  0  0  0  0
  -22.7518  -29.4585   22.4949 C   0  0  0  0  0  0
  -18.0286  -28.1406   22.8482 C   0  0  0  0  0  0
  -24.1492  -36.7278   23.2633 C   0  0  0  0  0  0
  -25.9720  -30.7683   21.3848 C   0  0  0  0  0  0
  -26.0382  -29.3948   20.7227 C   0  0  0  0  0  0
  -27.2130  -28.5794   20.7082 C   0  0  0  0  0  0
  -26.0179  -26.8814   19.4648 C   0  0  0  0  0  0
  -24.8588  -27.6807   19.4765 C   0  0  0  0  0  0
  -23.6413  -29.8145   20.1593 C   0  0  0  0  0  0
  -25.4129  -36.3065   24.0308 C   0  0  1  0  0  0
  -20.5890  -28.3709   23.1295 C   0  0  2  0  0  0
  -20.6789  -26.9440   22.5419 C   0  0  0  0  0  0
  -19.5755  -26.6408   21.5219 C   0  0  0  0  0  0
  -18.1937  -26.7953   22.1626 C   0  0  0  0  0  0
  -19.1547  -28.8882   23.2870 C   0  0  0  0  0  0
  -18.9451  -30.1492   23.8889 C   0  0  0  0  0  0
  -17.6442  -30.6604   24.0570 C   0  0  0  0  0  0
  -25.9073  -34.9428   23.5076 C   0  0  0  0  0  0
  -16.5341  -29.9109   23.6345 C   0  0  0  0  0  0
  -16.7267  -28.6530   23.0364 C   0  0  0  0  0  0
  -26.4506  -31.6586   25.0725 C   0  0  0  0  0  0
  -25.3719  -31.3741   26.1445 C   0  0  0  0  0  0
  -27.0323  -30.2969   24.6249 C   0  0  0  0  0  0
  -27.6066  -32.4339   25.7497 C   0  0  0  0  0  0
  -27.5578  -37.1803   24.8474 C   0  0  0  0  0  0
  -21.4229  -29.3014   22.3676 N   0  0  0  0  0  0
  -26.4314  -37.3757   23.9383 N   0  0  0  0  0  0
  -24.6931  -31.0542   22.0969 N   0  0  0  0  0  0
  -23.4237  -28.8177   23.3083 O   0  0  0  0  0  0
  -28.3369  -26.4302   20.1767 O   0  0  0  0  0  0
  -26.5653  -34.8908   22.4649 O   0  0  0  0  0  0
  -23.5448  -32.1388   23.7310 O   0  0  0  0  0  0
  -28.6090  -19.3212   20.2494 C   0  0  0  0  0  0
  -30.9958  -17.9066   20.6973 C   0  0  0  0  0  0
  -29.7874  -20.0954   20.4019 C   0  0  0  0  0  0
  -29.8114  -17.1431   20.5369 C   0  0  0  0  0  0
  -28.6251  -17.8944   20.3194 C   0  0  0  0  0  0
  -30.9815  -19.3361   20.6387 C   0  0  0  0  0  0
  -29.8104  -21.6344   20.1981 C   0  0  0  0  0  0
  -27.8505  -24.1008   22.2074 C   0  0  0  0  0  0
  -30.2093  -24.4134   21.5066 C   0  0  0  0  0  0
  -28.2755  -24.9588   19.9003 C   0  0  0  0  0  0
  -28.8195  -23.9500   21.0248 C   0  0  0  0  0  0
  -29.7057  -15.6836   20.6317 N   0  0  0  0  0  0
  -28.8382  -22.4485   20.7277 N   0  0  0  0  0  0
  -30.7527  -22.1223   19.5726 O   0  0  0  0  0  0
  -27.4604  -17.2249   20.1575 F   0  0  0  0  0  0
  -32.1576  -19.9784   20.8367 F   0  0  0  0  0  0
  -31.4817  -12.5011   19.1512 H   0  0  0  0  0  0
  -30.3617  -11.3866   19.8926 H   0  0  0  0  0  0
  -29.7652  -11.7238   17.4852 H   0  0  0  0  0  0
  -29.6604  -13.4505   17.7249 H   0  0  0  0  0  0
  -27.8448  -11.2903   18.8520 H   0  0  0  0  0  0
  -27.3782  -12.5860   17.7825 H   0  0  0  0  0  0
  -27.6612  -14.2448   19.5149 H   0  0  0  0  0  0
  -28.7050  -12.0428   21.3733 H   0  0  0  0  0  0
  -28.4484  -13.7043   21.8308 H   0  0  0  0  0  0
  -25.2758   -9.5666   22.4778 H   0  0  0  0  0  0
  -23.9986   -7.4613   22.7493 H   0  0  0  0  0  0
  -21.0822   -8.8781   19.8969 H   0  0  0  0  0  0
  -22.3686  -10.9676   19.6191 H   0  0  0  0  0  0
  -21.2001   -7.6150   23.9709 H   0  0  0  0  0  0
  -21.1487   -6.0524   25.9078 H   0  0  0  0  0  0
  -22.0595   -2.7604   23.2838 H   0  0  0  0  0  0
  -22.4086  -11.9940   22.4834 H   0  0  0  0  0  0
  -21.1114  -13.1334   22.2625 H   0  0  0  0  0  0
  -24.6395  -15.8312   20.5018 H   0  0  0  0  0  0
  -26.2633  -15.6557   20.0917 H   0  0  0  0  0  0
  -26.7219  -32.5405   23.1077 H   0  0  0  0  0  0
  -25.0091  -33.9670   25.0387 H   0  0  0  0  0  0
  -22.7178  -31.2957   21.3963 H   0  0  0  0  0  0
  -23.3741  -35.9622   23.3333 H   0  0  0  0  0  0
  -24.3581  -36.8865   22.2042 H   0  0  0  0  0  0
  -23.7255  -37.6483   23.6647 H   0  0  0  0  0  0
  -26.1290  -31.5359   20.6260 H   0  0  0  0  0  0
  -26.8422  -30.8005   22.0299 H   0  0  0  0  0  0
  -28.1181  -28.9251   21.1869 H   0  0  0  0  0  0
  -25.9400  -25.9547   18.9250 H   0  0  0  0  0  0
  -23.9672  -27.3279   18.9759 H   0  0  0  0  0  0
  -23.7725  -30.5859   19.3985 H   0  0  0  0  0  0
  -22.7611  -29.2438   19.8542 H   0  0  0  0  0  0
  -25.1311  -36.1908   25.0798 H   0  0  0  0  0  0
  -20.9939  -28.3277   24.1434 H   0  0  0  0  0  0
  -20.5709  -26.2310   23.3612 H   0  0  0  0  0  0
  -21.6659  -26.7494   22.1186 H   0  0  0  0  0  0
  -19.6914  -25.6319   21.1268 H   0  0  0  0  0  0
  -19.6696  -27.3207   20.6737 H   0  0  0  0  0  0
  -17.4203  -26.6694   21.4028 H   0  0  0  0  0  0
  -18.0341  -26.0099   22.9026 H   0  0  0  0  0  0
  -19.7923  -30.7321   24.2253 H   0  0  0  0  0  0
  -17.4995  -31.6286   24.5188 H   0  0  0  0  0  0
  -15.5345  -30.3000   23.7678 H   0  0  0  0  0  0
  -15.8676  -28.0844   22.7092 H   0  0  0  0  0  0
  -24.5911  -30.7074   25.7763 H   0  0  0  0  0  0
  -24.8906  -32.2907   26.4859 H   0  0  0  0  0  0
  -25.8043  -30.8926   27.0227 H   0  0  0  0  0  0
  -26.2880  -29.6749   24.1264 H   0  0  0  0  0  0
  -27.3911  -29.7225   25.4801 H   0  0  0  0  0  0
  -27.8829  -30.4169   23.9536 H   0  0  0  0  0  0
  -27.2654  -33.3627   26.2086 H   0  0  0  0  0  0
  -28.3869  -32.6929   25.0323 H   0  0  0  0  0  0
  -28.0750  -31.8469   26.5405 H   0  0  0  0  0  0
  -28.2634  -38.0067   24.7484 H   0  0  0  0  0  0
  -28.1038  -36.2592   24.6365 H   0  0  0  0  0  0
  -27.2303  -37.1543   25.8886 H   0  0  0  0  0  0
  -20.9475  -29.8670   21.6793 H   0  0  0  0  0  0
  -26.0192  -38.2830   24.1351 H   0  0  0  0  0  0
  -27.6738  -19.8212   20.0447 H   0  0  0  0  0  0
  -31.9327  -17.3975   20.8812 H   0  0  0  0  0  0
  -27.7998  -25.1379   22.5414 H   0  0  0  0  0  0
  -28.1544  -23.4993   23.0635 H   0  0  0  0  0  0
  -26.8406  -23.7906   21.9287 H   0  0  0  0  0  0
  -30.1757  -25.4368   21.8831 H   0  0  0  0  0  0
  -30.9471  -24.3972   20.7045 H   0  0  0  0  0  0
  -30.5699  -23.7893   22.3266 H   0  0  0  0  0  0
  -28.8227  -24.7863   18.9733 H   0  0  0  0  0  0
  -27.2636  -24.6284   19.6877 H   0  0  0  0  0  0
  -28.7526  -15.3592   20.7070 H   0  0  0  0  0  0
  -28.0970  -21.9321   21.1802 H   0  0  0  0  0  0
  1 25  1  0  0  0
  1 30  2  0  0  0
  1 82  1  0  0  0
  2  3  1  0  0  0
  2 25  1  0  0  0
  2 87  1  0  0  0
  2 88  1  0  0  0
  3  4  1  0  0  0
  3 89  1  0  0  0
  3 90  1  0  0  0
  4  5  1  0  0  0
  4 91  1  0  0  0
  4 92  1  0  0  0
  5  6  1  0  0  0
  5 26  1  0  0  0
  5 93  1  0  0  0
  6 25  1  0  0  0
  6 94  1  0  0  0
  6 95  1  0  0  0
  7  8  2  0  0  0
  7 26  1  0  0  0
  7 29  1  0  0  0
  8  9  1  0  0  0
  8 22  1  0  0  0
  9 10  1  0  0  0
  9 27  2  0  0  0
 10 11  2  0  0  0
 10 15  1  0  0  0
 11 12  1  0  0  0
 11 96  1  0  0  0
 12 13  2  0  0  0
 12 97  1  0  0  0
 13 14  1  0  0  0
 13 31  1  0  0  0
 14 15  2  0  0  0
 14 98  1  0  0  0
 15 99  1  0  0  0
 16 17  2  0  0  0
 16 21  1  0  0  0
 16 31  1  0  0  0
 17 18  1  0  0  0
 17100  1  0  0  0
 18 19  2  0  0  0
 18101  1  0  0  0
 19 20  1  0  0  0
 19 24  1  0  0  0
 20 21  2  0  0  0
 20102  1  0  0  0
 21 23  1  0  0  0
 22 28  1  0  0  0
 22 32  2  0  0  0
 26 27  1  0  0  0
 28103  1  0  0  0
 28104  1  0  0  0
 29105  1  0  0  0
 29106  1  0  0  0
 33 34  1  0  0  0
 33 66  1  0  0  0
 33 70  2  0  0  0
 34 36  1  0  0  0
 34 59  1  0  0  0
 34107  1  0  0  0
 35 44  2  0  0  0
 35 45  1  0  0  0
 35 68  1  0  0  0
 36 56  1  0  0  0
 36108  1  0  0  0
 37 39  1  0  0  0
 37 47  1  0  0  0
 37 66  1  0  0  0
 37109  1  0  0  0
 38 43  2  0  0  0
 38 46  1  0  0  0
 38 47  1  0  0  0
 39 64  1  0  0  0
 39 67  2  0  0  0
 40 52  1  0  0  0
 40 53  2  0  0  0
 40 58  1  0  0  0
 41110  1  0  0  0
 41111  1  0  0  0
 41112  1  0  0  0
 41 48  1  0  0  0
 42 43  1  0  0  0
 42 66  1  0  0  0
 42113  1  0  0  0
 42114  1  0  0  0
 43 44  1  0  0  0
 44115  1  0  0  0
 45 46  2  0  0  0
 45116  1  0  0  0
 46117  1  0  0  0
 47118  1  0  0  0
 47119  1  0  0  0
 48 56  1  0  0  0
 48 65  1  0  0  0
 48120  1  0  0  0
 49 50  1  0  0  0
 49 53  1  0  0  0
 49 64  1  0  0  0
 49121  1  0  0  0
 50 51  1  0  0  0
 50122  1  0  0  0
 50123  1  0  0  0
 51 52  1  0  0  0
 51124  1  0  0  0
 51125  1  0  0  0
 52126  1  0  0  0
 52127  1  0  0  0
 53 54  1  0  0  0
 54 55  2  0  0  0
 54128  1  0  0  0
 55 57  1  0  0  0
 55129  1  0  0  0
 56 69  2  0  0  0
 57 58  2  0  0  0
 57130  1  0  0  0
 58131  1  0  0  0
 59 60  1  0  0  0
 59 61  1  0  0  0
 59 62  1  0  0  0
 60132  1  0  0  0
 60133  1  0  0  0
 60134  1  0  0  0
 61135  1  0  0  0
 61136  1  0  0  0
 61137  1  0  0  0
 62138  1  0  0  0
 62139  1  0  0  0
 62140  1  0  0  0
 63 65  1  0  0  0
 63141  1  0  0  0
 63142  1  0  0  0
 63143  1  0  0  0
 64144  1  0  0  0
 65145  1  0  0  0
 68 80  1  0  0  0
 71 73  2  0  0  0
 71 75  1  0  0  0
 71146  1  0  0  0
 72 74  1  0  0  0
 72 76  2  0  0  0
 72147  1  0  0  0
 73 76  1  0  0  0
 73 77  1  0  0  0
 74 75  2  0  0  0
 74 82  1  0  0  0
 75 85  1  0  0  0
 76 86  1  0  0  0
 77 83  1  0  0  0
 77 84  2  0  0  0
 78148  1  0  0  0
 78149  1  0  0  0
 78150  1  0  0  0
 78 81  1  0  0  0
 79 81  1  0  0  0
 79151  1  0  0  0
 79152  1  0  0  0
 79153  1  0  0  0
 80 81  1  0  0  0
 80154  1  0  0  0
 80155  1  0  0  0
 81 83  1  0  0  0
 82156  1  0  0  0
 83157  1  0  0  0
M  ISO  4   1 100  68 101  80 101  82 100
M  END
> <chiral flag>
0

> <version>
0

> <s_m_source_file>
/data/baiqing/PycharmProjects/Reinvent-master-3.2/result/LINK_invent/BTK/process_docking_weight1_custom_product_contain_oxygen_bond_distance_aromatic_linkinvent_7_9_3/rearranged_h_0070.sdf

> <i_m_source_file_index>
63

> <r_mmod_Potential_Energy-OPLS-2005>
13.8182945251465

> <r_mmod_Stretch_Energy-OPLS-2005>
92.3197174072266

> <r_mmod_Bend_Energy-OPLS-2005>
164.107467651367

> <r_mmod_Torsional_Energy-OPLS-2005>
228.854782104492

> <r_mmod_Improper_Torsional_Energy-OPLS-2005>
7.10716009140015

> <r_mmod_Van_der_Waal_Energy-OPLS-2005>
143.639770507812

> <r_mmod_Electrostatic_Energy-OPLS-2005>
-462.809692382812

> <r_mmod_Solvation_Energy-OPLS-2005>
-219.907867431641

> <b_mmod_Minimization_Converged-OPLS-2005>
0

> <r_mmod_RMS_Derivative-OPLS-2005>
4.3827166557312

$$$$
63
                    3D
 Structure written by MMmdl.
153162  0  0  1  0            999 V2000
  -30.5756  -14.7466   20.4904 C   0  0  0  0  0  0
  -30.4502  -12.4596   19.4699 C   0  0  0  0  0  0
  -29.5169  -12.5243   18.2380 C   0  0  0  0  0  0
  -28.0418  -12.3434   18.6493 C   0  0  0  0  0  0
  -27.6518  -13.2251   19.8651 C   0  0  2  0  0  0
  -28.6977  -13.1105   20.9972 C   0  0  0  0  0  0
  -25.2520  -13.8167   20.5637 C   0  0  0  0  0  0
  -24.1811  -13.0425   20.9175 C   0  0  0  0  0  0
  -24.6405  -11.6905   20.8745 C   0  0  0  0  0  0
  -23.9075  -10.4287   21.0408 C   0  0  0  0  0  0
  -24.3622   -9.4202   21.9187 C   0  0  0  0  0  0
  -23.6293   -8.2240   22.0756 C   0  0  0  0  0  0
  -22.4276   -8.0280   21.3545 C   0  0  0  0  0  0
  -21.9914   -9.0255   20.4647 C   0  0  0  0  0  0
  -22.7247  -10.2132   20.3057 C   0  0  0  0  0  0
  -21.6852   -6.0735   22.5279 C   0  0  0  0  0  0
  -21.4014   -6.5639   23.8212 C   0  0  0  0  0  0
  -21.3659   -5.6792   24.9175 C   0  0  0  0  0  0
  -21.6044   -4.3055   24.7225 C   0  0  0  0  0  0
  -21.8819   -3.8147   23.4346 C   0  0  0  0  0  0
  -21.9193   -4.6963   22.3402 C   0  0  0  0  0  0
  -22.7834  -13.5215   21.1845 C   0  0  0  0  0  0
  -22.1661   -4.2149   21.0980 F   0  0  0  0  0  0
  -21.5629   -3.4538   25.7738 F   0  0  0  0  0  0
  -30.0039  -13.4919   20.4341 N   0  0  0  0  0  0
  -26.2985  -12.9376   20.3336 N   0  0  0  0  0  0
  -25.9345  -11.6523   20.5785 N   0  0  0  0  0  0
  -22.0487  -12.8210   22.0413 N   0  0  0  0  0  0
  -25.4155  -15.1876   20.3953 N   0  0  0  0  0  0
  -31.7279  -14.9243   20.0814 O   0  0  0  0  0  0
  -21.6639   -6.8879   21.4241 O   0  0  0  0  0  0
  -22.3507  -14.5519   20.6697 O   0  0  0  0  0  0
  -24.6319  -31.8545   23.1978 C   0  0  0  0  0  0
  -25.9139  -32.4753   23.8330 C   0  0  1  0  0  0
  -27.2276  -27.2651   20.1322 C   0  0  0  0  0  0
  -25.5930  -33.8555   24.2252 N   0  0  0  0  0  0
  -23.4306  -30.4756   21.5406 C   0  0  2  0  0  0
  -24.8824  -28.9221   20.1108 C   0  0  0  0  0  0
  -22.7512  -29.4595   22.4906 C   0  0  0  0  0  0
  -18.0294  -28.1389   22.8483 C   0  0  0  0  0  0
  -24.1489  -36.7283   23.2640 C   0  0  0  0  0  0
  -25.9767  -30.7682   21.3789 C   0  0  0  0  0  0
  -26.0539  -29.3901   20.7222 C   0  0  0  0  0  0
  -27.2325  -28.5736   20.7236 C   0  0  0  0  0  0
  -26.0366  -26.8650   19.4909 C   0  0  0  0  0  0
  -24.8782  -27.6666   19.4835 C   0  0  0  0  0  0
  -23.6513  -29.8078   20.1577 C   0  0  0  0  0  0
  -25.4116  -36.3068   24.0326 C   0  0  1  0  0  0
  -20.5899  -28.3702   23.1265 C   0  0  2  0  0  0
  -20.6781  -26.9417   22.5408 C   0  0  0  0  0  0
  -19.5756  -26.6383   21.5212 C   0  0  0  0  0  0
  -18.1937  -26.7930   22.1625 C   0  0  0  0  0  0
  -19.1548  -28.8863   23.2868 C   0  0  0  0  0  0
  -18.9468  -30.1462   23.8888 C   0  0  0  0  0  0
  -17.6466  -30.6589   24.0561 C   0  0  0  0  0  0
  -25.9056  -34.9439   23.5092 C   0  0  0  0  0  0
  -16.5358  -29.9085   23.6332 C   0  0  0  0  0  0
  -16.7280  -28.6503   23.0354 C   0  0  0  0  0  0
  -26.4504  -31.6581   25.0723 C   0  0  0  0  0  0
  -25.3722  -31.3732   26.1438 C   0  0  0  0  0  0
  -27.0357  -30.2997   24.6217 C   0  0  0  0  0  0
  -27.6052  -32.4327   25.7500 C   0  0  0  0  0  0
  -27.5578  -37.1797   24.8465 C   0  0  0  0  0  0
  -21.4217  -29.3045   22.3651 N   0  0  0  0  0  0
  -26.4291  -37.3768   23.9408 N   0  0  0  0  0  0
  -24.6986  -31.0506   22.0956 N   0  0  0  0  0  0
  -23.4205  -28.8137   23.3013 O   0  0  0  0  0  0
  -28.2843  -26.3255   20.1684 O   0  0  0  0  0  0
  -26.5632  -34.8916   22.4664 O   0  0  0  0  0  0
  -23.5465  -32.1366   23.7267 O   0  0  0  0  0  0
  -30.1232  -19.5372   19.8175 C   0  0  0  0  0  0
  -30.3483  -18.1086   19.8808 C   0  0  0  0  0  0
  -28.6604  -19.3984   21.6468 C   0  0  0  0  0  0
  -28.8618  -17.9812   21.7385 C   0  0  0  0  0  0
  -29.2501  -20.2743   20.6870 C   0  0  0  0  0  0
  -29.7101  -17.2652   20.8401 C   0  0  0  0  0  0
  -28.4655  -23.7613   20.6428 C   0  0  0  0  0  0
  -28.0480  -22.5897   21.4071 C   0  0  0  0  0  0
  -28.0022  -25.0716   20.7870 C   0  0  0  0  0  0
  -29.4334  -22.8408   19.8359 C   0  0  0  0  0  0
  -28.1388  -17.2436   22.8605 C   0  0  0  0  0  0
  -28.9143  -21.7324   20.6952 N   0  0  0  0  0  0
  -29.7547  -15.7764   20.9195 N   0  0  0  0  0  0
  -27.2402  -22.4767   22.3062 O   0  0  0  0  0  0
  -29.0193  -16.7742   23.7446 F   0  0  0  0  0  0
  -27.4098  -16.2335   22.3882 F   0  0  0  0  0  0
  -31.4871  -12.6087   19.1643 H   0  0  0  0  0  0
  -30.4148  -11.4708   19.9297 H   0  0  0  0  0  0
  -29.7983  -11.7617   17.5106 H   0  0  0  0  0  0
  -29.6402  -13.4852   17.7360 H   0  0  0  0  0  0
  -27.8952  -11.2913   18.8963 H   0  0  0  0  0  0
  -27.3845  -12.5513   17.8042 H   0  0  0  0  0  0
  -27.6588  -14.2561   19.5104 H   0  0  0  0  0  0
  -28.7348  -12.0908   21.3833 H   0  0  0  0  0  0
  -28.4241  -13.7367   21.8472 H   0  0  0  0  0  0
  -25.2767   -9.5676   22.4762 H   0  0  0  0  0  0
  -24.0001   -7.4631   22.7476 H   0  0  0  0  0  0
  -21.0846   -8.8776   19.8952 H   0  0  0  0  0  0
  -22.3708  -10.9671   19.6165 H   0  0  0  0  0  0
  -21.2007   -7.6147   23.9716 H   0  0  0  0  0  0
  -21.1481   -6.0522   25.9077 H   0  0  0  0  0  0
  -22.0599   -2.7609   23.2847 H   0  0  0  0  0  0
  -22.4110  -11.9874   22.4800 H   0  0  0  0  0  0
  -21.1108  -13.1236   22.2628 H   0  0  0  0  0  0
  -24.6513  -15.8410   20.5224 H   0  0  0  0  0  0
  -26.2782  -15.6367   20.1182 H   0  0  0  0  0  0
  -26.7209  -32.5409   23.1076 H   0  0  0  0  0  0
  -25.0068  -33.9690   25.0391 H   0  0  0  0  0  0
  -22.7273  -31.2977   21.3924 H   0  0  0  0  0  0
  -23.3753  -35.9614   23.3299 H   0  0  0  0  0  0
  -24.3579  -36.8912   22.2056 H   0  0  0  0  0  0
  -23.7242  -37.6482   23.6670 H   0  0  0  0  0  0
  -26.1152  -31.5285   20.6090 H   0  0  0  0  0  0
  -26.8537  -30.8189   22.0126 H   0  0  0  0  0  0
  -28.1285  -28.9227   21.2173 H   0  0  0  0  0  0
  -25.9935  -25.8951   19.0154 H   0  0  0  0  0  0
  -23.9823  -27.3016   19.0002 H   0  0  0  0  0  0
  -23.7750  -30.5833   19.4009 H   0  0  0  0  0  0
  -22.7706  -29.2396   19.8528 H   0  0  0  0  0  0
  -25.1299  -36.1914   25.0818 H   0  0  0  0  0  0
  -20.9992  -28.3282   24.1385 H   0  0  0  0  0  0
  -20.5680  -26.2313   23.3615 H   0  0  0  0  0  0
  -21.6649  -26.7438   22.1202 H   0  0  0  0  0  0
  -19.6918  -25.6292   21.1248 H   0  0  0  0  0  0
  -19.6693  -27.3189   20.6738 H   0  0  0  0  0  0
  -17.4206  -26.6675   21.4028 H   0  0  0  0  0  0
  -18.0338  -26.0074   22.9024 H   0  0  0  0  0  0
  -19.7944  -30.7281   24.2254 H   0  0  0  0  0  0
  -17.5020  -31.6268   24.5164 H   0  0  0  0  0  0
  -15.5358  -30.2984   23.7661 H   0  0  0  0  0  0
  -15.8680  -28.0818   22.7074 H   0  0  0  0  0  0
  -24.5902  -30.7077   25.7763 H   0  0  0  0  0  0
  -24.8908  -32.2902   26.4846 H   0  0  0  0  0  0
  -25.8034  -30.8920   27.0226 H   0  0  0  0  0  0
  -26.2948  -29.6737   24.1230 H   0  0  0  0  0  0
  -27.4023  -29.7266   25.4744 H   0  0  0  0  0  0
  -27.8831  -30.4268   23.9476 H   0  0  0  0  0  0
  -27.2654  -33.3633   26.2059 H   0  0  0  0  0  0
  -28.3873  -32.6880   25.0337 H   0  0  0  0  0  0
  -28.0709  -31.8465   26.5432 H   0  0  0  0  0  0
  -28.2594  -38.0096   24.7512 H   0  0  0  0  0  0
  -28.1077  -36.2627   24.6292 H   0  0  0  0  0  0
  -27.2296  -37.1446   25.8868 H   0  0  0  0  0  0
  -20.9407  -29.8764   21.6849 H   0  0  0  0  0  0
  -26.0168  -38.2841   24.1408 H   0  0  0  0  0  0
  -30.6408  -20.0851   19.0431 H   0  0  0  0  0  0
  -31.0057  -17.6604   19.1490 H   0  0  0  0  0  0
  -27.9928  -19.8429   22.3710 H   0  0  0  0  0  0
  -27.2547  -25.2280   21.5541 H   0  0  0  0  0  0
  -30.5051  -22.9916   19.9751 H   0  0  0  0  0  0
  -29.2068  -22.6747   18.7816 H   0  0  0  0  0  0
  -27.4546  -17.8939   23.4071 H   0  0  0  0  0  0
  -28.9276  -15.3958   21.3549 H   0  0  0  0  0  0
  1 25  1  0  0  0
  1 30  2  0  0  0
  1 83  1  0  0  0
  2  3  1  0  0  0
  2 25  1  0  0  0
  2 87  1  0  0  0
  2 88  1  0  0  0
  3  4  1  0  0  0
  3 89  1  0  0  0
  3 90  1  0  0  0
  4  5  1  0  0  0
  4 91  1  0  0  0
  4 92  1  0  0  0
  5  6  1  0  0  0
  5 26  1  0  0  0
  5 93  1  0  0  0
  6 25  1  0  0  0
  6 94  1  0  0  0
  6 95  1  0  0  0
  7  8  2  0  0  0
  7 26  1  0  0  0
  7 29  1  0  0  0
  8  9  1  0  0  0
  8 22  1  0  0  0
  9 10  1  0  0  0
  9 27  2  0  0  0
 10 11  2  0  0  0
 10 15  1  0  0  0
 11 12  1  0  0  0
 11 96  1  0  0  0
 12 13  2  0  0  0
 12 97  1  0  0  0
 13 14  1  0  0  0
 13 31  1  0  0  0
 14 15  2  0  0  0
 14 98  1  0  0  0
 15 99  1  0  0  0
 16 17  2  0  0  0
 16 21  1  0  0  0
 16 31  1  0  0  0
 17 18  1  0  0  0
 17100  1  0  0  0
 18 19  2  0  0  0
 18101  1  0  0  0
 19 20  1  0  0  0
 19 24  1  0  0  0
 20 21  2  0  0  0
 20102  1  0  0  0
 21 23  1  0  0  0
 22 28  1  0  0  0
 22 32  2  0  0  0
 26 27  1  0  0  0
 28103  1  0  0  0
 28104  1  0  0  0
 29105  1  0  0  0
 29106  1  0  0  0
 33 34  1  0  0  0
 33 66  1  0  0  0
 33 70  2  0  0  0
 34 36  1  0  0  0
 34 59  1  0  0  0
 34107  1  0  0  0
 35 44  2  0  0  0
 35 45  1  0  0  0
 35 68  1  0  0  0
 36 56  1  0  0  0
 36108  1  0  0  0
 37 39  1  0  0  0
 37 47  1  0  0  0
 37 66  1  0  0  0
 37109  1  0  0  0
 38 43  2  0  0  0
 38 46  1  0  0  0
 38 47  1  0  0  0
 39 64  1  0  0  0
 39 67  2  0  0  0
 40 52  1  0  0  0
 40 53  2  0  0  0
 40 58  1  0  0  0
 41110  1  0  0  0
 41111  1  0  0  0
 41112  1  0  0  0
 41 48  1  0  0  0
 42 43  1  0  0  0
 42 66  1  0  0  0
 42113  1  0  0  0
 42114  1  0  0  0
 43 44  1  0  0  0
 44115  1  0  0  0
 45 46  2  0  0  0
 45116  1  0  0  0
 46117  1  0  0  0
 47118  1  0  0  0
 47119  1  0  0  0
 48 56  1  0  0  0
 48 65  1  0  0  0
 48120  1  0  0  0
 49 50  1  0  0  0
 49 53  1  0  0  0
 49 64  1  0  0  0
 49121  1  0  0  0
 50 51  1  0  0  0
 50122  1  0  0  0
 50123  1  0  0  0
 51 52  1  0  0  0
 51124  1  0  0  0
 51125  1  0  0  0
 52126  1  0  0  0
 52127  1  0  0  0
 53 54  1  0  0  0
 54 55  2  0  0  0
 54128  1  0  0  0
 55 57  1  0  0  0
 55129  1  0  0  0
 56 69  2  0  0  0
 57 58  2  0  0  0
 57130  1  0  0  0
 58131  1  0  0  0
 59 60  1  0  0  0
 59 61  1  0  0  0
 59 62  1  0  0  0
 60132  1  0  0  0
 60133  1  0  0  0
 60134  1  0  0  0
 61135  1  0  0  0
 61136  1  0  0  0
 61137  1  0  0  0
 62138  1  0  0  0
 62139  1  0  0  0
 62140  1  0  0  0
 63 65  1  0  0  0
 63141  1  0  0  0
 63142  1  0  0  0
 63143  1  0  0  0
 64144  1  0  0  0
 65145  1  0  0  0
 68 79  1  0  0  0
 71 72  2  0  0  0
 71 75  1  0  0  0
 71146  1  0  0  0
 72 76  1  0  0  0
 72147  1  0  0  0
 73 74  1  0  0  0
 73 75  2  0  0  0
 73148  1  0  0  0
 74 76  2  0  0  0
 74 81  1  0  0  0
 75 82  1  0  0  0
 76 83  1  0  0  0
 77 78  1  0  0  0
 77 79  2  0  0  0
 77 80  1  0  0  0
 78 82  1  0  0  0
 78 84  2  0  0  0
 79149  1  0  0  0
 80 82  1  0  0  0
 80150  1  0  0  0
 80151  1  0  0  0
 81 85  1  0  0  0
 81 86  1  0  0  0
 81152  1  0  0  0
 83153  1  0  0  0
M  ISO  4   1 100  68 101  79 101  83 100
M  END
> <chiral flag>
0

> <version>
0

> <s_m_source_file>
/data/baiqing/PycharmProjects/Reinvent-master-3.2/result/LINK_invent/BTK/process_docking_weight1_custom_product_contain_oxygen_bond_distance_aromatic_linkinvent_7_9_3/rearranged_h_0070.sdf

> <i_m_source_file_index>
64

> <r_mmod_Potential_Energy-OPLS-2005>
233.345916748047

> <r_mmod_Stretch_Energy-OPLS-2005>
109.88395690918

> <r_mmod_Bend_Energy-OPLS-2005>
269.678283691406

> <r_mmod_Torsional_Energy-OPLS-2005>
225.160995483398

> <r_mmod_Improper_Torsional_Energy-OPLS-2005>
3.08584952354431

> <r_mmod_Van_der_Waal_Energy-OPLS-2005>
132.746063232422

> <r_mmod_Electrostatic_Energy-OPLS-2005>
-382.357971191406

> <r_mmod_Solvation_Energy-OPLS-2005>
-212.670989990234

> <b_mmod_Minimization_Converged-OPLS-2005>
1

> <r_mmod_RMS_Derivative-OPLS-2005>
0.0395048074424267

$$$$
64
                    3D
 Structure written by MMmdl.
164173  0  0  1  0            999 V2000
  -30.6264  -14.6634   20.4215 C   0  0  0  0  0  0
  -30.4245  -12.3874   19.4677 C   0  0  0  0  0  0
  -29.5091  -12.4836   18.2278 C   0  0  0  0  0  0
  -28.0271  -12.3473   18.6310 C   0  0  0  0  0  0
  -27.6469  -13.2279   19.8531 C   0  0  2  0  0  0
  -28.6903  -13.1216   20.9876 C   0  0  0  0  0  0
  -25.2529  -13.8195   20.5673 C   0  0  0  0  0  0
  -24.1813  -13.0440   20.9176 C   0  0  0  0  0  0
  -24.6395  -11.6916   20.8726 C   0  0  0  0  0  0
  -23.9066  -10.4291   21.0396 C   0  0  0  0  0  0
  -24.3618   -9.4204   21.9178 C   0  0  0  0  0  0
  -23.6291   -8.2241   22.0746 C   0  0  0  0  0  0
  -22.4276   -8.0276   21.3533 C   0  0  0  0  0  0
  -21.9906   -9.0252   20.4642 C   0  0  0  0  0  0
  -22.7231  -10.2133   20.3048 C   0  0  0  0  0  0
  -21.6854   -6.0731   22.5275 C   0  0  0  0  0  0
  -21.4016   -6.5630   23.8210 C   0  0  0  0  0  0
  -21.3660   -5.6781   24.9168 C   0  0  0  0  0  0
  -21.6045   -4.3045   24.7214 C   0  0  0  0  0  0
  -21.8816   -3.8134   23.4333 C   0  0  0  0  0  0
  -21.9197   -4.6960   22.3393 C   0  0  0  0  0  0
  -22.7831  -13.5231   21.1845 C   0  0  0  0  0  0
  -22.1663   -4.2146   21.0972 F   0  0  0  0  0  0
  -21.5630   -3.4527   25.7723 F   0  0  0  0  0  0
  -30.0019  -13.4431   20.4114 N   0  0  0  0  0  0
  -26.2963  -12.9397   20.3273 N   0  0  0  0  0  0
  -25.9329  -11.6545   20.5730 N   0  0  0  0  0  0
  -22.0468  -12.8228   22.0389 N   0  0  0  0  0  0
  -25.4198  -15.1917   20.4107 N   0  0  0  0  0  0
  -31.8123  -14.7621   20.0952 O   0  0  0  0  0  0
  -21.6629   -6.8874   21.4237 O   0  0  0  0  0  0
  -22.3504  -14.5531   20.6684 O   0  0  0  0  0  0
  -24.6216  -31.8611   23.2001 C   0  0  0  0  0  0
  -25.9073  -32.4785   23.8330 C   0  0  1  0  0  0
  -27.2205  -27.3246   20.1389 C   0  0  0  0  0  0
  -25.5926  -33.8579   24.2278 N   0  0  0  0  0  0
  -23.4165  -30.4805   21.5428 C   0  0  2  0  0  0
  -24.8626  -28.9253   20.1142 C   0  0  0  0  0  0
  -22.7466  -29.4619   22.4954 C   0  0  0  0  0  0
  -18.0303  -28.1390   22.8498 C   0  0  0  0  0  0
  -24.1493  -36.7285   23.2645 C   0  0  0  0  0  0
  -25.9517  -30.7926   21.3673 C   0  0  0  0  0  0
  -26.0261  -29.4166   20.7183 C   0  0  0  0  0  0
  -27.2098  -28.6275   20.7170 C   0  0  0  0  0  0
  -26.0449  -26.8731   19.5101 C   0  0  0  0  0  0
  -24.8718  -27.6584   19.5018 C   0  0  0  0  0  0
  -23.6313  -29.8081   20.1596 C   0  0  0  0  0  0
  -25.4122  -36.3084   24.0338 C   0  0  1  0  0  0
  -20.5902  -28.3683   23.1310 C   0  0  2  0  0  0
  -20.6789  -26.9408   22.5421 C   0  0  0  0  0  0
  -19.5750  -26.6394   21.5233 C   0  0  0  0  0  0
  -18.1932  -26.7936   22.1640 C   0  0  0  0  0  0
  -19.1552  -28.8855   23.2907 C   0  0  0  0  0  0
  -18.9466  -30.1464   23.8914 C   0  0  0  0  0  0
  -17.6459  -30.6588   24.0577 C   0  0  0  0  0  0
  -25.9048  -34.9458   23.5112 C   0  0  0  0  0  0
  -16.5356  -29.9087   23.6334 C   0  0  0  0  0  0
  -16.7290  -28.6512   23.0351 C   0  0  0  0  0  0
  -26.4458  -31.6590   25.0697 C   0  0  0  0  0  0
  -25.3684  -31.3732   26.1428 C   0  0  0  0  0  0
  -27.0318  -30.3036   24.6117 C   0  0  0  0  0  0
  -27.6035  -32.4299   25.7458 C   0  0  0  0  0  0
  -27.5590  -37.1812   24.8468 C   0  0  0  0  0  0
  -21.4186  -29.3044   22.3695 N   0  0  0  0  0  0
  -26.4299  -37.3785   23.9410 N   0  0  0  0  0  0
  -24.6814  -31.0625   22.0941 N   0  0  0  0  0  0
  -23.4202  -28.8174   23.3036 O   0  0  0  0  0  0
  -28.3675  -26.5322   20.1504 O   0  0  0  0  0  0
  -26.5613  -34.8915   22.4672 O   0  0  0  0  0  0
  -23.5385  -32.1390   23.7362 O   0  0  0  0  0  0
  -29.7126  -20.9494   19.5528 C   0  0  0  0  0  0
  -28.1927  -20.1498   21.2148 C   0  0  0  0  0  0
  -30.1528  -19.6107   19.3133 C   0  0  0  0  0  0
  -29.5954  -18.4806   20.0067 C   0  0  0  0  0  0
  -28.7280  -21.2770   20.5167 C   0  0  0  0  0  0
  -28.6002  -18.8016   20.9682 C   0  0  0  0  0  0
  -27.9265  -23.1761   21.9735 C   0  0  0  0  0  0
  -28.4041  -23.8281   19.8116 C   0  0  0  0  0  0
  -27.7395  -24.7081   21.9852 C   0  0  1  0  0  0
  -28.4165  -25.1402   20.6711 C   0  0  2  0  0  0
  -31.2444  -19.4432   18.2622 C   0  0  0  0  0  0
  -26.2506  -25.0577   22.1642 C   0  0  0  0  0  0
  -29.1662  -16.6706   18.3053 C   0  0  0  0  0  0
  -29.9692  -16.9939   19.5821 C   0  0  2  0  0  0
  -28.3288  -22.6822   20.7749 N   0  0  0  0  0  0
  -29.8291  -15.7847   20.4837 N   0  0  0  0  0  0
  -27.7205  -22.5147   22.9962 O   0  0  0  0  0  0
  -27.9956  -17.8002   21.6539 F   0  0  0  0  0  0
  -31.4700  -12.4850   19.1706 H   0  0  0  0  0  0
  -30.3390  -11.4044   19.9336 H   0  0  0  0  0  0
  -29.7720  -11.7083   17.5066 H   0  0  0  0  0  0
  -29.6681  -13.4337   17.7180 H   0  0  0  0  0  0
  -27.8482  -11.2967   18.8620 H   0  0  0  0  0  0
  -27.3847  -12.5848   17.7823 H   0  0  0  0  0  0
  -27.6523  -14.2573   19.4957 H   0  0  0  0  0  0
  -28.6994  -12.1167   21.4144 H   0  0  0  0  0  0
  -28.4452  -13.8001   21.8062 H   0  0  0  0  0  0
  -25.2780   -9.5687   22.4726 H   0  0  0  0  0  0
  -24.0009   -7.4641   22.7470 H   0  0  0  0  0  0
  -21.0837   -8.8779   19.8946 H   0  0  0  0  0  0
  -22.3714  -10.9667   19.6135 H   0  0  0  0  0  0
  -21.2004   -7.6140   23.9717 H   0  0  0  0  0  0
  -21.1488   -6.0502   25.9078 H   0  0  0  0  0  0
  -22.0601   -2.7602   23.2822 H   0  0  0  0  0  0
  -22.4102  -11.9913   22.4805 H   0  0  0  0  0  0
  -21.1077  -13.1252   22.2578 H   0  0  0  0  0  0
  -24.6520  -15.8415   20.5378 H   0  0  0  0  0  0
  -26.2695  -15.6439   20.1002 H   0  0  0  0  0  0
  -26.7154  -32.5471   23.1086 H   0  0  0  0  0  0
  -25.0068  -33.9708   25.0424 H   0  0  0  0  0  0
  -22.7081  -31.2989   21.3996 H   0  0  0  0  0  0
  -23.3757  -35.9616   23.3300 H   0  0  0  0  0  0
  -24.3573  -36.8894   22.2057 H   0  0  0  0  0  0
  -23.7213  -37.6481   23.6651 H   0  0  0  0  0  0
  -26.0789  -31.5480   20.5917 H   0  0  0  0  0  0
  -26.8347  -30.8469   21.9923 H   0  0  0  0  0  0
  -28.1066  -29.0006   21.1921 H   0  0  0  0  0  0
  -26.0270  -25.9015   19.0371 H   0  0  0  0  0  0
  -23.9799  -27.2794   19.0238 H   0  0  0  0  0  0
  -23.7505  -30.5800   19.3982 H   0  0  0  0  0  0
  -22.7500  -29.2374   19.8629 H   0  0  0  0  0  0
  -25.1295  -36.1947   25.0832 H   0  0  0  0  0  0
  -21.0027  -28.3265   24.1420 H   0  0  0  0  0  0
  -20.5724  -26.2281   23.3612 H   0  0  0  0  0  0
  -21.6660  -26.7451   22.1207 H   0  0  0  0  0  0
  -19.6902  -25.6313   21.1245 H   0  0  0  0  0  0
  -19.6708  -27.3224   20.6783 H   0  0  0  0  0  0
  -17.4224  -26.6734   21.4011 H   0  0  0  0  0  0
  -18.0314  -26.0059   22.9019 H   0  0  0  0  0  0
  -19.7931  -30.7304   24.2273 H   0  0  0  0  0  0
  -17.5004  -31.6262   24.5184 H   0  0  0  0  0  0
  -15.5352  -30.2996   23.7634 H   0  0  0  0  0  0
  -15.8698  -28.0840   22.7040 H   0  0  0  0  0  0
  -24.5854  -30.7088   25.7749 H   0  0  0  0  0  0
  -24.8866  -32.2903   26.4849 H   0  0  0  0  0  0
  -25.7993  -30.8900   27.0208 H   0  0  0  0  0  0
  -26.2903  -29.6789   24.1126 H   0  0  0  0  0  0
  -27.4044  -29.7274   25.4596 H   0  0  0  0  0  0
  -27.8743  -30.4368   23.9317 H   0  0  0  0  0  0
  -27.2703  -33.3607   26.2045 H   0  0  0  0  0  0
  -28.3850  -32.6842   25.0291 H   0  0  0  0  0  0
  -28.0706  -31.8408   26.5355 H   0  0  0  0  0  0
  -28.2624  -38.0105   24.7539 H   0  0  0  0  0  0
  -28.1072  -36.2635   24.6274 H   0  0  0  0  0  0
  -27.2306  -37.1447   25.8872 H   0  0  0  0  0  0
  -20.9345  -29.8738   21.6894 H   0  0  0  0  0  0
  -26.0176  -38.2862   24.1398 H   0  0  0  0  0  0
  -30.1629  -21.7493   18.9824 H   0  0  0  0  0  0
  -27.4225  -20.2956   21.9580 H   0  0  0  0  0  0
  -29.2872  -23.7778   19.1764 H   0  0  0  0  0  0
  -27.5273  -23.8053   19.1637 H   0  0  0  0  0  0
  -28.2943  -25.1183   22.8301 H   0  0  0  0  0  0
  -29.4665  -25.1712   20.9705 H   0  0  0  0  0  0
  -31.6742  -20.4061   17.9804 H   0  0  0  0  0  0
  -30.8514  -18.9947   17.3506 H   0  0  0  0  0  0
  -32.0710  -18.8350   18.6306 H   0  0  0  0  0  0
  -25.6428  -24.6968   21.3319 H   0  0  0  0  0  0
  -26.1064  -26.1325   22.2589 H   0  0  0  0  0  0
  -25.8529  -24.6196   23.0803 H   0  0  0  0  0  0
  -29.3260  -17.4057   17.5188 H   0  0  0  0  0  0
  -28.0959  -16.6572   18.5132 H   0  0  0  0  0  0
  -29.4383  -15.7046   17.8840 H   0  0  0  0  0  0
  -31.0219  -17.0249   19.3069 H   0  0  0  0  0  0
  -28.9064  -15.6402   20.8645 H   0  0  0  0  0  0
  1 25  1  0  0  0
  1 30  2  0  0  0
  1 86  1  0  0  0
  2  3  1  0  0  0
  2 25  1  0  0  0
  2 89  1  0  0  0
  2 90  1  0  0  0
  3  4  1  0  0  0
  3 91  1  0  0  0
  3 92  1  0  0  0
  4  5  1  0  0  0
  4 93  1  0  0  0
  4 94  1  0  0  0
  5  6  1  0  0  0
  5 26  1  0  0  0
  5 95  1  0  0  0
  6 25  1  0  0  0
  6 96  1  0  0  0
  6 97  1  0  0  0
  7  8  2  0  0  0
  7 26  1  0  0  0
  7 29  1  0  0  0
  8  9  1  0  0  0
  8 22  1  0  0  0
  9 10  1  0  0  0
  9 27  2  0  0  0
 10 11  2  0  0  0
 10 15  1  0  0  0
 11 12  1  0  0  0
 11 98  1  0  0  0
 12 13  2  0  0  0
 12 99  1  0  0  0
 13 14  1  0  0  0
 13 31  1  0  0  0
 14 15  2  0  0  0
 14100  1  0  0  0
 15101  1  0  0  0
 16 17  2  0  0  0
 16 21  1  0  0  0
 16 31  1  0  0  0
 17 18  1  0  0  0
 17102  1  0  0  0
 18 19  2  0  0  0
 18103  1  0  0  0
 19 20  1  0  0  0
 19 24  1  0  0  0
 20 21  2  0  0  0
 20104  1  0  0  0
 21 23  1  0  0  0
 22 28  1  0  0  0
 22 32  2  0  0  0
 26 27  1  0  0  0
 28105  1  0  0  0
 28106  1  0  0  0
 29107  1  0  0  0
 29108  1  0  0  0
 33 34  1  0  0  0
 33 66  1  0  0  0
 33 70  2  0  0  0
 34 36  1  0  0  0
 34 59  1  0  0  0
 34109  1  0  0  0
 35 44  2  0  0  0
 35 45  1  0  0  0
 35 68  1  0  0  0
 36 56  1  0  0  0
 36110  1  0  0  0
 37 39  1  0  0  0
 37 47  1  0  0  0
 37 66  1  0  0  0
 37111  1  0  0  0
 38 43  2  0  0  0
 38 46  1  0  0  0
 38 47  1  0  0  0
 39 64  1  0  0  0
 39 67  2  0  0  0
 40 52  1  0  0  0
 40 53  2  0  0  0
 40 58  1  0  0  0
 41112  1  0  0  0
 41113  1  0  0  0
 41114  1  0  0  0
 41 48  1  0  0  0
 42 43  1  0  0  0
 42 66  1  0  0  0
 42115  1  0  0  0
 42116  1  0  0  0
 43 44  1  0  0  0
 44117  1  0  0  0
 45 46  2  0  0  0
 45118  1  0  0  0
 46119  1  0  0  0
 47120  1  0  0  0
 47121  1  0  0  0
 48 56  1  0  0  0
 48 65  1  0  0  0
 48122  1  0  0  0
 49 50  1  0  0  0
 49 53  1  0  0  0
 49 64  1  0  0  0
 49123  1  0  0  0
 50 51  1  0  0  0
 50124  1  0  0  0
 50125  1  0  0  0
 51 52  1  0  0  0
 51126  1  0  0  0
 51127  1  0  0  0
 52128  1  0  0  0
 52129  1  0  0  0
 53 54  1  0  0  0
 54 55  2  0  0  0
 54130  1  0  0  0
 55 57  1  0  0  0
 55131  1  0  0  0
 56 69  2  0  0  0
 57 58  2  0  0  0
 57132  1  0  0  0
 58133  1  0  0  0
 59 60  1  0  0  0
 59 61  1  0  0  0
 59 62  1  0  0  0
 60134  1  0  0  0
 60135  1  0  0  0
 60136  1  0  0  0
 61137  1  0  0  0
 61138  1  0  0  0
 61139  1  0  0  0
 62140  1  0  0  0
 62141  1  0  0  0
 62142  1  0  0  0
 63 65  1  0  0  0
 63143  1  0  0  0
 63144  1  0  0  0
 63145  1  0  0  0
 64146  1  0  0  0
 65147  1  0  0  0
 68 80  1  0  0  0
 71 73  2  0  0  0
 71 75  1  0  0  0
 71148  1  0  0  0
 72 75  2  0  0  0
 72 76  1  0  0  0
 72149  1  0  0  0
 73 74  1  0  0  0
 73 81  1  0  0  0
 74 76  2  0  0  0
 74 84  1  0  0  0
 75 85  1  0  0  0
 76 88  1  0  0  0
 77 79  1  0  0  0
 77 85  1  0  0  0
 77 87  2  0  0  0
 78 80  1  0  0  0
 78 85  1  0  0  0
 78150  1  0  0  0
 78151  1  0  0  0
 79 80  1  0  0  0
 79 82  1  0  0  0
 79152  1  0  0  0
 80153  1  0  0  0
 81154  1  0  0  0
 81155  1  0  0  0
 81156  1  0  0  0
 82157  1  0  0  0
 82158  1  0  0  0
 82159  1  0  0  0
 83160  1  0  0  0
 83161  1  0  0  0
 83162  1  0  0  0
 83 84  1  0  0  0
 84 86  1  0  0  0
 84163  1  0  0  0
 86164  1  0  0  0
M  ISO  4   1 100  68 101  80 101  86 100
M  END
> <chiral flag>
0

> <version>
0

> <s_m_source_file>
/data/baiqing/PycharmProjects/Reinvent-master-3.2/result/LINK_invent/BTK/process_docking_weight1_custom_product_contain_oxygen_bond_distance_aromatic_linkinvent_7_9_3/rearranged_h_0070.sdf

> <i_m_source_file_index>
65

> <r_mmod_Potential_Energy-OPLS-2005>
224.864944458008

> <r_mmod_Stretch_Energy-OPLS-2005>
88.2675399780273

> <r_mmod_Bend_Energy-OPLS-2005>
218.446975708008

> <r_mmod_Torsional_Energy-OPLS-2005>
285.608154296875

> <r_mmod_Improper_Torsional_Energy-OPLS-2005>
10.366943359375

> <r_mmod_Van_der_Waal_Energy-OPLS-2005>
134.984481811523

> <r_mmod_Electrostatic_Energy-OPLS-2005>
-356.493560791016

> <r_mmod_Solvation_Energy-OPLS-2005>
-207.608963012695

> <b_mmod_Minimization_Converged-OPLS-2005>
0

> <r_mmod_RMS_Derivative-OPLS-2005>
2.61644768714905

$$$$
65
                    3D
 Structure written by MMmdl.
165174  0  0  1  0            999 V2000
  -30.7468  -14.4393   20.4936 C   0  0  0  0  0  0
  -30.4010  -12.2657   19.4325 C   0  0  0  0  0  0
  -29.4921  -12.4779   18.2070 C   0  0  0  0  0  0
  -28.0116  -12.3587   18.6174 C   0  0  0  0  0  0
  -27.6571  -13.2143   19.8650 C   0  0  2  0  0  0
  -28.7023  -13.0471   20.9927 C   0  0  0  0  0  0
  -25.2578  -13.8185   20.5674 C   0  0  0  0  0  0
  -24.1852  -13.0458   20.9206 C   0  0  0  0  0  0
  -24.6416  -11.6922   20.8755 C   0  0  0  0  0  0
  -23.9088  -10.4309   21.0437 C   0  0  0  0  0  0
  -24.3641   -9.4221   21.9208 C   0  0  0  0  0  0
  -23.6322   -8.2257   22.0760 C   0  0  0  0  0  0
  -22.4302   -8.0309   21.3560 C   0  0  0  0  0  0
  -21.9948   -9.0278   20.4650 C   0  0  0  0  0  0
  -22.7271  -10.2158   20.3075 C   0  0  0  0  0  0
  -21.6851   -6.0769   22.5296 C   0  0  0  0  0  0
  -21.4009   -6.5664   23.8233 C   0  0  0  0  0  0
  -21.3658   -5.6810   24.9192 C   0  0  0  0  0  0
  -21.6034   -4.3071   24.7235 C   0  0  0  0  0  0
  -21.8819   -3.8177   23.4352 C   0  0  0  0  0  0
  -21.9191   -4.6998   22.3411 C   0  0  0  0  0  0
  -22.7862  -13.5246   21.1863 C   0  0  0  0  0  0
  -22.1659   -4.2182   21.0989 F   0  0  0  0  0  0
  -21.5627   -3.4552   25.7746 F   0  0  0  0  0  0
  -30.0318  -13.2900   20.4195 N   0  0  0  0  0  0
  -26.3017  -12.9365   20.3346 N   0  0  0  0  0  0
  -25.9345  -11.6518   20.5784 N   0  0  0  0  0  0
  -22.0502  -12.8228   22.0397 N   0  0  0  0  0  0
  -25.4266  -15.1904   20.4037 N   0  0  0  0  0  0
  -31.9359  -14.4979   20.1810 O   0  0  0  0  0  0
  -21.6653   -6.8917   21.4262 O   0  0  0  0  0  0
  -22.3552  -14.5572   20.6734 O   0  0  0  0  0  0
  -24.6144  -31.8650   23.2082 C   0  0  0  0  0  0
  -25.9070  -32.4786   23.8342 C   0  0  1  0  0  0
  -27.2301  -27.4349   20.0879 C   0  0  0  0  0  0
  -25.5921  -33.8576   24.2274 N   0  0  0  0  0  0
  -23.3954  -30.4895   21.5523 C   0  0  2  0  0  0
  -24.8380  -28.9548   20.1170 C   0  0  0  0  0  0
  -22.7410  -29.4604   22.5022 C   0  0  0  0  0  0
  -18.0243  -28.1349   22.8451 C   0  0  0  0  0  0
  -24.1513  -36.7295   23.2640 C   0  0  0  0  0  0
  -25.9222  -30.8348   21.3555 C   0  0  0  0  0  0
  -25.9995  -29.4702   20.7038 C   0  0  0  0  0  0
  -27.1975  -28.7186   20.6835 C   0  0  0  0  0  0
  -26.0390  -26.9278   19.5157 C   0  0  0  0  0  0
  -24.8518  -27.6829   19.5224 C   0  0  0  0  0  0
  -23.5992  -29.8192   20.1673 C   0  0  0  0  0  0
  -25.4117  -36.3052   24.0315 C   0  0  1  0  0  0
  -20.5839  -28.3597   23.1327 C   0  0  2  0  0  0
  -20.6739  -26.9337   22.5407 C   0  0  0  0  0  0
  -19.5737  -26.6364   21.5182 C   0  0  0  0  0  0
  -18.1898  -26.7891   22.1574 C   0  0  0  0  0  0
  -19.1505  -28.8801   23.2870 C   0  0  0  0  0  0
  -18.9441  -30.1422   23.8844 C   0  0  0  0  0  0
  -17.6451  -30.6558   24.0529 C   0  0  0  0  0  0
  -25.9040  -34.9442   23.5079 C   0  0  0  0  0  0
  -16.5339  -29.9036   23.6341 C   0  0  0  0  0  0
  -16.7246  -28.6484   23.0308 C   0  0  0  0  0  0
  -26.4510  -31.6591   25.0682 C   0  0  0  0  0  0
  -25.3796  -31.3629   26.1452 C   0  0  0  0  0  0
  -27.0355  -30.3046   24.6015 C   0  0  0  0  0  0
  -27.6075  -32.4316   25.7445 C   0  0  0  0  0  0
  -27.5578  -37.1789   24.8457 C   0  0  0  0  0  0
  -21.4140  -29.2977   22.3793 N   0  0  0  0  0  0
  -26.4301  -37.3757   23.9396 N   0  0  0  0  0  0
  -24.6622  -31.0774   22.0980 N   0  0  0  0  0  0
  -23.4231  -28.8162   23.3028 O   0  0  0  0  0  0
  -28.4372  -26.7593   20.0801 O   0  0  0  0  0  0
  -26.5617  -34.8912   22.4641 O   0  0  0  0  0  0
  -23.5364  -32.1440   23.7509 O   0  0  0  0  0  0
  -28.7393  -18.6107   20.0053 C   0  0  0  0  0  0
  -28.2139  -19.8802   20.3062 C   0  0  0  0  0  0
  -29.8429  -20.1243   22.0972 C   0  0  0  0  0  0
  -29.8746  -18.1140   20.6877 C   0  0  0  0  0  0
  -30.4007  -18.8657   21.7736 C   0  0  0  0  0  0
  -28.7777  -20.6559   21.3394 C   0  0  0  0  0  0
  -27.5409  -22.3199   22.6017 C   0  0  0  0  0  0
  -27.0522  -23.7816   22.7184 C   0  0  0  0  0  0
  -28.5775  -22.9479   20.4598 C   0  0  0  0  0  0
  -28.4006  -24.4203   20.8777 C   0  0  1  0  0  0
  -31.5990  -18.3843   22.5742 C   0  0  0  0  0  0
  -30.7071  -16.9133   18.6049 C   0  0  0  0  0  0
  -28.5072  -25.3870   19.6752 C   0  0  0  0  0  0
  -30.5885  -16.8666   20.1490 C   0  0  2  0  0  0
  -28.3247  -21.9900   21.5464 N   0  0  0  0  0  0
  -30.0375  -15.5769   20.6015 N   0  0  0  0  0  0
  -27.2210  -21.5162   23.4849 O   0  0  0  0  0  0
  -27.1142  -24.4905   21.4745 O   0  0  0  0  0  0
  -31.4515  -12.3134   19.1393 H   0  0  0  0  0  0
  -30.2577  -11.2708   19.8549 H   0  0  0  0  0  0
  -29.7283  -11.7461   17.4332 H   0  0  0  0  0  0
  -29.6788  -13.4579   17.7674 H   0  0  0  0  0  0
  -27.8117  -11.3057   18.8151 H   0  0  0  0  0  0
  -27.3710  -12.6364   17.7791 H   0  0  0  0  0  0
  -27.6876  -14.2539   19.5405 H   0  0  0  0  0  0
  -28.6631  -12.0424   21.4164 H   0  0  0  0  0  0
  -28.4958  -13.7311   21.8176 H   0  0  0  0  0  0
  -25.2790   -9.5694   22.4776 H   0  0  0  0  0  0
  -24.0032   -7.4648   22.7473 H   0  0  0  0  0  0
  -21.0888   -8.8816   19.8939 H   0  0  0  0  0  0
  -22.3761  -10.9713   19.6184 H   0  0  0  0  0  0
  -21.2003   -7.6175   23.9751 H   0  0  0  0  0  0
  -21.1468   -6.0540   25.9096 H   0  0  0  0  0  0
  -22.0593   -2.7640   23.2850 H   0  0  0  0  0  0
  -22.4111  -11.9875   22.4760 H   0  0  0  0  0  0
  -21.1120  -13.1240   22.2599 H   0  0  0  0  0  0
  -24.6559  -15.8427   20.5062 H   0  0  0  0  0  0
  -26.2746  -15.6324   20.0708 H   0  0  0  0  0  0
  -26.7130  -32.5484   23.1114 H   0  0  0  0  0  0
  -25.0136  -33.9711   25.0468 H   0  0  0  0  0  0
  -22.6802  -31.3018   21.4163 H   0  0  0  0  0  0
  -23.3743  -35.9667   23.3292 H   0  0  0  0  0  0
  -24.3618  -36.8935   22.2054 H   0  0  0  0  0  0
  -23.7309  -37.6508   23.6694 H   0  0  0  0  0  0
  -26.0321  -31.6025   20.5885 H   0  0  0  0  0  0
  -26.8123  -30.8859   21.9706 H   0  0  0  0  0  0
  -28.0979  -29.1201   21.1296 H   0  0  0  0  0  0
  -25.9813  -25.9589   19.0485 H   0  0  0  0  0  0
  -23.9581  -27.2719   19.0715 H   0  0  0  0  0  0
  -23.6959  -30.5927   19.4040 H   0  0  0  0  0  0
  -22.7233  -29.2356   19.8794 H   0  0  0  0  0  0
  -25.1305  -36.1881   25.0804 H   0  0  0  0  0  0
  -20.9885  -28.3154   24.1445 H   0  0  0  0  0  0
  -20.5640  -26.2188   23.3584 H   0  0  0  0  0  0
  -21.6612  -26.7379   22.1191 H   0  0  0  0  0  0
  -19.6900  -25.6276   21.1191 H   0  0  0  0  0  0
  -19.6698  -27.3189   20.6740 H   0  0  0  0  0  0
  -17.4172  -26.6627   21.3978 H   0  0  0  0  0  0
  -18.0264  -26.0057   22.8987 H   0  0  0  0  0  0
  -19.7951  -30.7227   24.2191 H   0  0  0  0  0  0
  -17.5018  -31.6239   24.5130 H   0  0  0  0  0  0
  -15.5338  -30.2890   23.7748 H   0  0  0  0  0  0
  -15.8648  -28.0823   22.6979 H   0  0  0  0  0  0
  -24.5983  -30.6964   25.7794 H   0  0  0  0  0  0
  -24.8999  -32.2764   26.4962 H   0  0  0  0  0  0
  -25.8209  -30.8777   27.0171 H   0  0  0  0  0  0
  -26.2864  -29.6725   24.1258 H   0  0  0  0  0  0
  -27.4366  -29.7342   25.4401 H   0  0  0  0  0  0
  -27.8586  -30.4366   23.8987 H   0  0  0  0  0  0
  -27.2685  -33.3620   26.1995 H   0  0  0  0  0  0
  -28.3916  -32.6849   25.0298 H   0  0  0  0  0  0
  -28.0723  -31.8458   26.5401 H   0  0  0  0  0  0
  -28.2547  -38.0134   24.7515 H   0  0  0  0  0  0
  -28.1109  -36.2650   24.6256 H   0  0  0  0  0  0
  -27.2291  -37.1377   25.8865 H   0  0  0  0  0  0
  -20.9325  -29.8746   21.7051 H   0  0  0  0  0  0
  -26.0156  -38.2808   24.1467 H   0  0  0  0  0  0
  -28.3003  -18.0535   19.1914 H   0  0  0  0  0  0
  -27.3969  -20.2706   19.7148 H   0  0  0  0  0  0
  -30.2699  -20.7126   22.8982 H   0  0  0  0  0  0
  -27.6587  -24.2999   23.4628 H   0  0  0  0  0  0
  -26.0251  -23.7932   23.0782 H   0  0  0  0  0  0
  -29.5895  -22.8014   20.0784 H   0  0  0  0  0  0
  -27.8973  -22.7151   19.6406 H   0  0  0  0  0  0
  -29.1647  -24.6931   21.6111 H   0  0  0  0  0  0
  -31.7058  -18.9501   23.5009 H   0  0  0  0  0  0
  -32.5184  -18.5063   21.9982 H   0  0  0  0  0  0
  -31.4949  -17.3339   22.8440 H   0  0  0  0  0  0
  -31.1830  -17.8424   18.2869 H   0  0  0  0  0  0
  -29.7430  -16.8440   18.1044 H   0  0  0  0  0  0
  -31.3209  -16.0998   18.2136 H   0  0  0  0  0  0
  -27.8351  -25.1179   18.8662 H   0  0  0  0  0  0
  -29.4976  -25.2626   19.2349 H   0  0  0  0  0  0
  -31.6175  -16.9237   20.5048 H   0  0  0  0  0  0
  -29.0536  -15.5190   20.8163 H   0  0  0  0  0  0
  1 25  1  0  0  0
  1 30  2  0  0  0
  1 86  1  0  0  0
  2  3  1  0  0  0
  2 25  1  0  0  0
  2 89  1  0  0  0
  2 90  1  0  0  0
  3  4  1  0  0  0
  3 91  1  0  0  0
  3 92  1  0  0  0
  4  5  1  0  0  0
  4 93  1  0  0  0
  4 94  1  0  0  0
  5  6  1  0  0  0
  5 26  1  0  0  0
  5 95  1  0  0  0
  6 25  1  0  0  0
  6 96  1  0  0  0
  6 97  1  0  0  0
  7  8  2  0  0  0
  7 26  1  0  0  0
  7 29  1  0  0  0
  8  9  1  0  0  0
  8 22  1  0  0  0
  9 10  1  0  0  0
  9 27  2  0  0  0
 10 11  2  0  0  0
 10 15  1  0  0  0
 11 12  1  0  0  0
 11 98  1  0  0  0
 12 13  2  0  0  0
 12 99  1  0  0  0
 13 14  1  0  0  0
 13 31  1  0  0  0
 14 15  2  0  0  0
 14100  1  0  0  0
 15101  1  0  0  0
 16 17  2  0  0  0
 16 21  1  0  0  0
 16 31  1  0  0  0
 17 18  1  0  0  0
 17102  1  0  0  0
 18 19  2  0  0  0
 18103  1  0  0  0
 19 20  1  0  0  0
 19 24  1  0  0  0
 20 21  2  0  0  0
 20104  1  0  0  0
 21 23  1  0  0  0
 22 28  1  0  0  0
 22 32  2  0  0  0
 26 27  1  0  0  0
 28105  1  0  0  0
 28106  1  0  0  0
 29107  1  0  0  0
 29108  1  0  0  0
 33 34  1  0  0  0
 33 66  1  0  0  0
 33 70  2  0  0  0
 34 36  1  0  0  0
 34 59  1  0  0  0
 34109  1  0  0  0
 35 44  2  0  0  0
 35 45  1  0  0  0
 35 68  1  0  0  0
 36 56  1  0  0  0
 36110  1  0  0  0
 37 39  1  0  0  0
 37 47  1  0  0  0
 37 66  1  0  0  0
 37111  1  0  0  0
 38 43  2  0  0  0
 38 46  1  0  0  0
 38 47  1  0  0  0
 39 64  1  0  0  0
 39 67  2  0  0  0
 40 52  1  0  0  0
 40 53  2  0  0  0
 40 58  1  0  0  0
 41112  1  0  0  0
 41113  1  0  0  0
 41114  1  0  0  0
 41 48  1  0  0  0
 42 43  1  0  0  0
 42 66  1  0  0  0
 42115  1  0  0  0
 42116  1  0  0  0
 43 44  1  0  0  0
 44117  1  0  0  0
 45 46  2  0  0  0
 45118  1  0  0  0
 46119  1  0  0  0
 47120  1  0  0  0
 47121  1  0  0  0
 48 56  1  0  0  0
 48 65  1  0  0  0
 48122  1  0  0  0
 49 50  1  0  0  0
 49 53  1  0  0  0
 49 64  1  0  0  0
 49123  1  0  0  0
 50 51  1  0  0  0
 50124  1  0  0  0
 50125  1  0  0  0
 51 52  1  0  0  0
 51126  1  0  0  0
 51127  1  0  0  0
 52128  1  0  0  0
 52129  1  0  0  0
 53 54  1  0  0  0
 54 55  2  0  0  0
 54130  1  0  0  0
 55 57  1  0  0  0
 55131  1  0  0  0
 56 69  2  0  0  0
 57 58  2  0  0  0
 57132  1  0  0  0
 58133  1  0  0  0
 59 60  1  0  0  0
 59 61  1  0  0  0
 59 62  1  0  0  0
 60134  1  0  0  0
 60135  1  0  0  0
 60136  1  0  0  0
 61137  1  0  0  0
 61138  1  0  0  0
 61139  1  0  0  0
 62140  1  0  0  0
 62141  1  0  0  0
 62142  1  0  0  0
 63 65  1  0  0  0
 63143  1  0  0  0
 63144  1  0  0  0
 63145  1  0  0  0
 64146  1  0  0  0
 65147  1  0  0  0
 68 83  1  0  0  0
 71 72  2  0  0  0
 71 74  1  0  0  0
 71148  1  0  0  0
 72 76  1  0  0  0
 72149  1  0  0  0
 73 75  1  0  0  0
 73 76  2  0  0  0
 73150  1  0  0  0
 74 75  2  0  0  0
 74 84  1  0  0  0
 75 81  1  0  0  0
 76 85  1  0  0  0
 77 78  1  0  0  0
 77 85  1  0  0  0
 77 87  2  0  0  0
 78 88  1  0  0  0
 78151  1  0  0  0
 78152  1  0  0  0
 79 80  1  0  0  0
 79 85  1  0  0  0
 79153  1  0  0  0
 79154  1  0  0  0
 80 83  1  0  0  0
 80 88  1  0  0  0
 80155  1  0  0  0
 81156  1  0  0  0
 81157  1  0  0  0
 81158  1  0  0  0
 82159  1  0  0  0
 82160  1  0  0  0
 82161  1  0  0  0
 82 84  1  0  0  0
 83162  1  0  0  0
 83163  1  0  0  0
 84 86  1  0  0  0
 84164  1  0  0  0
 86165  1  0  0  0
M  ISO  4   1 100  68 101  83 101  86 100
M  END
> <chiral flag>
0

> <version>
0

> <s_m_source_file>
/data/baiqing/PycharmProjects/Reinvent-master-3.2/result/LINK_invent/BTK/process_docking_weight1_custom_product_contain_oxygen_bond_distance_aromatic_linkinvent_7_9_3/rearranged_h_0070.sdf

> <i_m_source_file_index>
66

> <r_mmod_Potential_Energy-OPLS-2005>
50.1865310668945

> <r_mmod_Stretch_Energy-OPLS-2005>
38.9297065734863

> <r_mmod_Bend_Energy-OPLS-2005>
108.703598022461

> <r_mmod_Torsional_Energy-OPLS-2005>
267.537322998047

> <r_mmod_Improper_Torsional_Energy-OPLS-2005>
9.66685199737549

> <r_mmod_Van_der_Waal_Energy-OPLS-2005>
171.114135742188

> <r_mmod_Electrostatic_Energy-OPLS-2005>
-345.212829589844

> <r_mmod_Solvation_Energy-OPLS-2005>
-221.364990234375

> <b_mmod_Minimization_Converged-OPLS-2005>
0

> <r_mmod_RMS_Derivative-OPLS-2005>
3.96375417709351

$$$$
66
                    3D
 Structure written by MMmdl.
162171  0  0  1  0            999 V2000
  -30.5070  -14.9195   20.4255 C   0  0  0  0  0  0
  -30.4472  -12.5562   19.5005 C   0  0  0  0  0  0
  -29.5321  -12.5356   18.2533 C   0  0  0  0  0  0
  -28.0536  -12.3379   18.6500 C   0  0  0  0  0  0
  -27.6327  -13.2393   19.8400 C   0  0  2  0  0  0
  -28.6744  -13.2314   20.9791 C   0  0  0  0  0  0
  -25.2449  -13.8141   20.5714 C   0  0  0  0  0  0
  -24.1765  -13.0393   20.9207 C   0  0  0  0  0  0
  -24.6387  -11.6874   20.8709 C   0  0  0  0  0  0
  -23.9071  -10.4261   21.0386 C   0  0  0  0  0  0
  -24.3619   -9.4186   21.9174 C   0  0  0  0  0  0
  -23.6285   -8.2227   22.0767 C   0  0  0  0  0  0
  -22.4273   -8.0263   21.3552 C   0  0  0  0  0  0
  -21.9887   -9.0248   20.4672 C   0  0  0  0  0  0
  -22.7223  -10.2117   20.3060 C   0  0  0  0  0  0
  -21.6850   -6.0724   22.5283 C   0  0  0  0  0  0
  -21.4034   -6.5635   23.8216 C   0  0  0  0  0  0
  -21.3673   -5.6785   24.9176 C   0  0  0  0  0  0
  -21.6047   -4.3049   24.7217 C   0  0  0  0  0  0
  -21.8814   -3.8140   23.4337 C   0  0  0  0  0  0
  -21.9184   -4.6954   22.3395 C   0  0  0  0  0  0
  -22.7788  -13.5195   21.1872 C   0  0  0  0  0  0
  -22.1638   -4.2141   21.0968 F   0  0  0  0  0  0
  -21.5638   -3.4538   25.7725 F   0  0  0  0  0  0
  -29.9587  -13.6405   20.3932 N   0  0  0  0  0  0
  -26.2888  -12.9391   20.3201 N   0  0  0  0  0  0
  -25.9309  -11.6531   20.5638 N   0  0  0  0  0  0
  -22.0408  -12.8248   22.0442 N   0  0  0  0  0  0
  -25.4065  -15.1878   20.4249 N   0  0  0  0  0  0
  -31.7092  -15.0433   20.1686 O   0  0  0  0  0  0
  -21.6636   -6.8865   21.4250 O   0  0  0  0  0  0
  -22.3496  -14.5508   20.6699 O   0  0  0  0  0  0
  -24.6421  -31.8487   23.1864 C   0  0  0  0  0  0
  -25.9200  -32.4723   23.8259 C   0  0  1  0  0  0
  -27.2218  -27.1532   20.1841 C   0  0  0  0  0  0
  -25.5966  -33.8521   24.2205 N   0  0  0  0  0  0
  -23.4443  -30.4611   21.5339 C   0  0  2  0  0  0
  -24.8953  -28.8820   20.1224 C   0  0  0  0  0  0
  -22.7588  -29.4563   22.4901 C   0  0  0  0  0  0
  -18.0343  -28.1359   22.8481 C   0  0  0  0  0  0
  -24.1489  -36.7274   23.2630 C   0  0  0  0  0  0
  -25.9927  -30.7327   21.3758 C   0  0  0  0  0  0
  -26.0673  -29.3345   20.7415 C   0  0  0  0  0  0
  -27.2339  -28.4856   20.7522 C   0  0  0  0  0  0
  -26.0373  -26.8052   19.5081 C   0  0  0  0  0  0
  -24.8905  -27.6284   19.4901 C   0  0  0  0  0  0
  -23.6682  -29.7786   20.1575 C   0  0  0  0  0  0
  -25.4124  -36.3066   24.0311 C   0  0  1  0  0  0
  -20.5955  -28.3702   23.1225 C   0  0  2  0  0  0
  -20.6870  -26.9447   22.5299 C   0  0  0  0  0  0
  -19.5782  -26.6429   21.5163 C   0  0  0  0  0  0
  -18.1997  -26.7876   22.1652 C   0  0  0  0  0  0
  -19.1594  -28.8851   23.2844 C   0  0  0  0  0  0
  -18.9506  -30.1441   23.8890 C   0  0  0  0  0  0
  -17.6503  -30.6560   24.0574 C   0  0  0  0  0  0
  -25.9076  -34.9435   23.5075 C   0  0  0  0  0  0
  -16.5398  -29.9042   23.6347 C   0  0  0  0  0  0
  -16.7326  -28.6459   23.0374 C   0  0  0  0  0  0
  -26.4530  -31.6552   25.0662 C   0  0  0  0  0  0
  -25.3716  -31.3724   26.1359 C   0  0  0  0  0  0
  -27.0382  -30.2961   24.6159 C   0  0  0  0  0  0
  -27.6092  -32.4284   25.7452 C   0  0  0  0  0  0
  -27.5586  -37.1800   24.8461 C   0  0  0  0  0  0
  -21.4286  -29.3068   22.3655 N   0  0  0  0  0  0
  -26.4299  -37.3765   23.9404 N   0  0  0  0  0  0
  -24.7130  -31.0370   22.0875 N   0  0  0  0  0  0
  -23.4256  -28.8133   23.3048 O   0  0  0  0  0  0
  -28.3224  -26.2401   20.1109 O   0  0  0  0  0  0
  -26.5650  -34.8928   22.4649 O   0  0  0  0  0  0
  -23.5554  -32.1345   23.7113 O   0  0  0  0  0  0
  -28.2964  -19.7092   19.9256 C   0  0  0  0  0  0
  -30.2704  -19.8814   21.1947 C   0  0  0  0  0  0
  -28.5042  -18.2725   19.8160 C   0  0  0  0  0  0
  -29.1417  -20.6040   20.6573 C   0  0  0  0  0  0
  -29.5921  -17.5431   20.4373 C   0  0  0  0  0  0
  -30.4871  -18.4431   21.1074 C   0  0  0  0  0  0
  -26.8348  -22.4316   22.1833 C   0  0  0  0  0  0
  -26.7082  -23.0950   21.0376 C   0  0  0  0  0  0
  -28.1945  -21.9736   22.3160 C   0  0  0  0  0  0
  -28.0606  -23.2792   20.3835 C   0  0  1  0  0  0
  -27.4583  -17.5258   19.0046 C   0  0  0  0  0  0
  -25.4120  -23.6699   20.5074 C   0  0  0  0  0  0
  -28.0420  -23.1018   18.8588 C   0  0  0  0  0  0
  -28.4808  -24.8628   20.8071 C   0  0  0  0  0  0
  -28.7699  -22.0390   21.0905 N   0  0  0  0  0  0
  -29.6072  -16.0101   20.4954 N   0  0  0  0  0  0
  -28.7189  -21.5174   23.3385 O   0  0  0  0  0  0
  -31.5554  -17.9207   21.7550 F   0  0  0  0  0  0
  -31.4879  -12.7118   19.2096 H   0  0  0  0  0  0
  -30.4203  -11.5932   20.0120 H   0  0  0  0  0  0
  -29.8455  -11.7518   17.5624 H   0  0  0  0  0  0
  -29.6398  -13.4790   17.7166 H   0  0  0  0  0  0
  -27.9108  -11.2889   18.9080 H   0  0  0  0  0  0
  -27.4099  -12.5304   17.7899 H   0  0  0  0  0  0
  -27.6001  -14.2480   19.4338 H   0  0  0  0  0  0
  -28.7413  -12.2452   21.4425 H   0  0  0  0  0  0
  -28.3788  -13.9218   21.7707 H   0  0  0  0  0  0
  -25.2754   -9.5673   22.4770 H   0  0  0  0  0  0
  -23.9980   -7.4625   22.7509 H   0  0  0  0  0  0
  -21.0796   -8.8785   19.9001 H   0  0  0  0  0  0
  -22.3660  -10.9675   19.6196 H   0  0  0  0  0  0
  -21.2048   -7.6148   23.9719 H   0  0  0  0  0  0
  -21.1503   -6.0519   25.9083 H   0  0  0  0  0  0
  -22.0579   -2.7606   23.2830 H   0  0  0  0  0  0
  -22.3912  -11.9823   22.4758 H   0  0  0  0  0  0
  -21.1103  -13.1441   22.2727 H   0  0  0  0  0  0
  -24.6329  -15.8301   20.5584 H   0  0  0  0  0  0
  -26.2372  -15.6406   20.0768 H   0  0  0  0  0  0
  -26.7265  -32.5357   23.1011 H   0  0  0  0  0  0
  -25.0112  -33.9605   25.0351 H   0  0  0  0  0  0
  -22.7451  -31.2849   21.3739 H   0  0  0  0  0  0
  -23.3767  -35.9590   23.3294 H   0  0  0  0  0  0
  -24.3569  -36.8901   22.2042 H   0  0  0  0  0  0
  -23.7216  -37.6459   23.6662 H   0  0  0  0  0  0
  -26.1215  -31.4746   20.5869 H   0  0  0  0  0  0
  -26.8741  -30.8094   21.9997 H   0  0  0  0  0  0
  -28.1411  -28.8366   21.2245 H   0  0  0  0  0  0
  -25.9997  -25.8637   18.9834 H   0  0  0  0  0  0
  -24.0027  -27.2839   18.9788 H   0  0  0  0  0  0
  -23.7929  -30.5443   19.3891 H   0  0  0  0  0  0
  -22.7877  -29.2069   19.8585 H   0  0  0  0  0  0
  -25.1307  -36.1913   25.0794 H   0  0  0  0  0  0
  -21.0062  -28.3236   24.1342 H   0  0  0  0  0  0
  -21.6701  -26.7592   22.0949 H   0  0  0  0  0  0
  -20.5936  -26.2274   23.3461 H   0  0  0  0  0  0
  -19.6995  -25.6388   21.1084 H   0  0  0  0  0  0
  -19.6604  -27.3336   20.6755 H   0  0  0  0  0  0
  -17.4220  -26.6590   21.4106 H   0  0  0  0  0  0
  -18.0494  -26.0006   22.9083 H   0  0  0  0  0  0
  -19.7977  -30.7270   24.2250 H   0  0  0  0  0  0
  -17.5038  -31.6231   24.5172 H   0  0  0  0  0  0
  -15.5387  -30.2932   23.7670 H   0  0  0  0  0  0
  -15.8727  -28.0756   22.7114 H   0  0  0  0  0  0
  -24.5942  -30.7022   25.7681 H   0  0  0  0  0  0
  -24.8840  -32.2889   26.4683 H   0  0  0  0  0  0
  -25.7992  -30.8975   27.0197 H   0  0  0  0  0  0
  -26.2964  -29.6690   24.1199 H   0  0  0  0  0  0
  -27.4098  -29.7242   25.4676 H   0  0  0  0  0  0
  -27.8828  -30.4248   23.9385 H   0  0  0  0  0  0
  -27.2735  -33.3635   26.1958 H   0  0  0  0  0  0
  -28.3945  -32.6746   25.0288 H   0  0  0  0  0  0
  -28.0713  -31.8420   26.5413 H   0  0  0  0  0  0
  -28.2600  -38.0101   24.7527 H   0  0  0  0  0  0
  -28.1090  -36.2637   24.6287 H   0  0  0  0  0  0
  -27.2302  -37.1443   25.8859 H   0  0  0  0  0  0
  -20.9493  -29.8779   21.6841 H   0  0  0  0  0  0
  -26.0191  -38.2842   24.1401 H   0  0  0  0  0  0
  -27.3952  -20.1157   19.4889 H   0  0  0  0  0  0
  -30.9793  -20.4442   21.7838 H   0  0  0  0  0  0
  -26.0338  -22.1981   22.8686 H   0  0  0  0  0  0
  -27.3204  -18.0101   18.0373 H   0  0  0  0  0  0
  -26.4984  -17.5500   19.5186 H   0  0  0  0  0  0
  -27.7278  -16.4915   18.7995 H   0  0  0  0  0  0
  -24.5692  -23.0543   20.8234 H   0  0  0  0  0  0
  -25.3961  -23.7036   19.4194 H   0  0  0  0  0  0
  -25.2510  -24.6683   20.9117 H   0  0  0  0  0  0
  -27.5459  -23.9462   18.3802 H   0  0  0  0  0  0
  -27.5100  -22.2011   18.5576 H   0  0  0  0  0  0
  -29.0532  -23.0429   18.4591 H   0  0  0  0  0  0
  -29.5647  -24.8121   20.9124 H   0  0  0  0  0  0
  -28.1513  -25.0286   21.8343 H   0  0  0  0  0  0
  -28.6735  -15.6399   20.5376 H   0  0  0  0  0  0
  1 25  1  0  0  0
  1 30  2  0  0  0
  1 86  1  0  0  0
  2  3  1  0  0  0
  2 25  1  0  0  0
  2 89  1  0  0  0
  2 90  1  0  0  0
  3  4  1  0  0  0
  3 91  1  0  0  0
  3 92  1  0  0  0
  4  5  1  0  0  0
  4 93  1  0  0  0
  4 94  1  0  0  0
  5  6  1  0  0  0
  5 26  1  0  0  0
  5 95  1  0  0  0
  6 25  1  0  0  0
  6 96  1  0  0  0
  6 97  1  0  0  0
  7  8  2  0  0  0
  7 26  1  0  0  0
  7 29  1  0  0  0
  8  9  1  0  0  0
  8 22  1  0  0  0
  9 10  1  0  0  0
  9 27  2  0  0  0
 10 11  2  0  0  0
 10 15  1  0  0  0
 11 12  1  0  0  0
 11 98  1  0  0  0
 12 13  2  0  0  0
 12 99  1  0  0  0
 13 14  1  0  0  0
 13 31  1  0  0  0
 14 15  2  0  0  0
 14100  1  0  0  0
 15101  1  0  0  0
 16 17  2  0  0  0
 16 21  1  0  0  0
 16 31  1  0  0  0
 17 18  1  0  0  0
 17102  1  0  0  0
 18 19  2  0  0  0
 18103  1  0  0  0
 19 20  1  0  0  0
 19 24  1  0  0  0
 20 21  2  0  0  0
 20104  1  0  0  0
 21 23  1  0  0  0
 22 28  1  0  0  0
 22 32  2  0  0  0
 26 27  1  0  0  0
 28105  1  0  0  0
 28106  1  0  0  0
 29107  1  0  0  0
 29108  1  0  0  0
 33 34  1  0  0  0
 33 66  1  0  0  0
 33 70  2  0  0  0
 34 36  1  0  0  0
 34 59  1  0  0  0
 34109  1  0  0  0
 35 44  2  0  0  0
 35 45  1  0  0  0
 35 68  1  0  0  0
 36 56  1  0  0  0
 36110  1  0  0  0
 37 39  1  0  0  0
 37 47  1  0  0  0
 37 66  1  0  0  0
 37111  1  0  0  0
 38 43  2  0  0  0
 38 46  1  0  0  0
 38 47  1  0  0  0
 39 64  1  0  0  0
 39 67  2  0  0  0
 40 52  1  0  0  0
 40 53  2  0  0  0
 40 58  1  0  0  0
 41112  1  0  0  0
 41113  1  0  0  0
 41114  1  0  0  0
 41 48  1  0  0  0
 42 43  1  0  0  0
 42 66  1  0  0  0
 42115  1  0  0  0
 42116  1  0  0  0
 43 44  1  0  0  0
 44117  1  0  0  0
 45 46  2  0  0  0
 45118  1  0  0  0
 46119  1  0  0  0
 47120  1  0  0  0
 47121  1  0  0  0
 48 56  1  0  0  0
 48 65  1  0  0  0
 48122  1  0  0  0
 49 50  1  0  0  0
 49 53  1  0  0  0
 49 64  1  0  0  0
 49123  1  0  0  0
 50 51  1  0  0  0
 50124  1  0  0  0
 50125  1  0  0  0
 51 52  1  0  0  0
 51126  1  0  0  0
 51127  1  0  0  0
 52128  1  0  0  0
 52129  1  0  0  0
 53 54  1  0  0  0
 54 55  2  0  0  0
 54130  1  0  0  0
 55 57  1  0  0  0
 55131  1  0  0  0
 56 69  2  0  0  0
 57 58  2  0  0  0
 57132  1  0  0  0
 58133  1  0  0  0
 59 60  1  0  0  0
 59 61  1  0  0  0
 59 62  1  0  0  0
 60134  1  0  0  0
 60135  1  0  0  0
 60136  1  0  0  0
 61137  1  0  0  0
 61138  1  0  0  0
 61139  1  0  0  0
 62140  1  0  0  0
 62141  1  0  0  0
 62142  1  0  0  0
 63 65  1  0  0  0
 63143  1  0  0  0
 63144  1  0  0  0
 63145  1  0  0  0
 64146  1  0  0  0
 65147  1  0  0  0
 68 84  1  0  0  0
 71 73  2  0  0  0
 71 74  1  0  0  0
 71148  1  0  0  0
 72 74  2  0  0  0
 72 76  1  0  0  0
 72149  1  0  0  0
 73 75  1  0  0  0
 73 81  1  0  0  0
 74 85  1  0  0  0
 75 76  2  0  0  0
 75 86  1  0  0  0
 76 88  1  0  0  0
 77 78  2  0  0  0
 77 79  1  0  0  0
 77150  1  0  0  0
 78 80  1  0  0  0
 78 82  1  0  0  0
 79 85  1  0  0  0
 79 87  2  0  0  0
 80 83  1  0  0  0
 80 84  1  0  0  0
 80 85  1  0  0  0
 81151  1  0  0  0
 81152  1  0  0  0
 81153  1  0  0  0
 82154  1  0  0  0
 82155  1  0  0  0
 82156  1  0  0  0
 83157  1  0  0  0
 83158  1  0  0  0
 83159  1  0  0  0
 84160  1  0  0  0
 84161  1  0  0  0
 86162  1  0  0  0
M  ISO  4   1 100  68 101  84 101  86 100
M  END
> <chiral flag>
0

> <version>
0

> <s_m_source_file>
/data/baiqing/PycharmProjects/Reinvent-master-3.2/result/LINK_invent/BTK/process_docking_weight1_custom_product_contain_oxygen_bond_distance_aromatic_linkinvent_7_9_3/rearranged_h_0070.sdf

> <i_m_source_file_index>
67

> <r_mmod_Potential_Energy-OPLS-2005>
686.85400390625

> <r_mmod_Stretch_Energy-OPLS-2005>
237.331207275391

> <r_mmod_Bend_Energy-OPLS-2005>
370.124298095703

> <r_mmod_Torsional_Energy-OPLS-2005>
366.598236083984

> <r_mmod_Improper_Torsional_Energy-OPLS-2005>
12.7621593475342

> <r_mmod_Van_der_Waal_Energy-OPLS-2005>
116.914505004883

> <r_mmod_Electrostatic_Energy-OPLS-2005>
-360.828979492188

> <r_mmod_Solvation_Energy-OPLS-2005>
-221.919158935547

> <b_mmod_Minimization_Converged-OPLS-2005>
0

> <r_mmod_RMS_Derivative-OPLS-2005>
2.98614072799683

$$$$
67
                    3D
 Structure written by MMmdl.
164173  0  0  1  0            999 V2000
  -30.6128  -14.7517   20.5303 C   0  0  0  0  0  0
  -30.4450  -12.4718   19.4878 C   0  0  0  0  0  0
  -29.5196  -12.5386   18.2507 C   0  0  0  0  0  0
  -28.0454  -12.3533   18.6562 C   0  0  0  0  0  0
  -27.6515  -13.2347   19.8702 C   0  0  2  0  0  0
  -28.6950  -13.1323   21.0092 C   0  0  0  0  0  0
  -25.2388  -13.8102   20.5492 C   0  0  0  0  0  0
  -24.1756  -13.0361   20.9187 C   0  0  0  0  0  0
  -24.6408  -11.6872   20.8784 C   0  0  0  0  0  0
  -23.9084  -10.4255   21.0427 C   0  0  0  0  0  0
  -24.3621   -9.4170   21.9203 C   0  0  0  0  0  0
  -23.6284   -8.2215   22.0764 C   0  0  0  0  0  0
  -22.4267   -8.0264   21.3549 C   0  0  0  0  0  0
  -21.9913   -9.0241   20.4650 C   0  0  0  0  0  0
  -22.7256  -10.2112   20.3067 C   0  0  0  0  0  0
  -21.6846   -6.0724   22.5278 C   0  0  0  0  0  0
  -21.4009   -6.5630   23.8210 C   0  0  0  0  0  0
  -21.3660   -5.6785   24.9173 C   0  0  0  0  0  0
  -21.6045   -4.3048   24.7227 C   0  0  0  0  0  0
  -21.8819   -3.8139   23.4347 C   0  0  0  0  0  0
  -21.9192   -4.6954   22.3402 C   0  0  0  0  0  0
  -22.7777  -13.5157   21.1852 C   0  0  0  0  0  0
  -22.1662   -4.2142   21.0980 F   0  0  0  0  0  0
  -21.5632   -3.4533   25.7740 F   0  0  0  0  0  0
  -30.0109  -13.5070   20.4613 N   0  0  0  0  0  0
  -26.2958  -12.9399   20.3332 N   0  0  0  0  0  0
  -25.9365  -11.6538   20.5845 N   0  0  0  0  0  0
  -22.0432  -12.8181   22.0439 N   0  0  0  0  0  0
  -25.3733  -15.1762   20.3481 N   0  0  0  0  0  0
  -31.7062  -14.9350   19.9872 O   0  0  0  0  0  0
  -21.6627   -6.8866   21.4240 O   0  0  0  0  0  0
  -22.3460  -14.5465   20.6700 O   0  0  0  0  0  0
  -24.6339  -31.8535   23.1974 C   0  0  0  0  0  0
  -25.9156  -32.4744   23.8326 C   0  0  1  0  0  0
  -27.2239  -27.2422   20.1331 C   0  0  0  0  0  0
  -25.5941  -33.8546   24.2247 N   0  0  0  0  0  0
  -23.4317  -30.4764   21.5411 C   0  0  2  0  0  0
  -24.8807  -28.9233   20.1085 C   0  0  0  0  0  0
  -22.7517  -29.4597   22.4904 C   0  0  0  0  0  0
  -18.0296  -28.1391   22.8481 C   0  0  0  0  0  0
  -24.1490  -36.7280   23.2639 C   0  0  0  0  0  0
  -25.9799  -30.7600   21.3821 C   0  0  0  0  0  0
  -26.0531  -29.3816   20.7229 C   0  0  0  0  0  0
  -27.2254  -28.5539   20.7250 C   0  0  0  0  0  0
  -26.0291  -26.8671   19.4739 C   0  0  0  0  0  0
  -24.8756  -27.6744   19.4720 C   0  0  0  0  0  0
  -23.6515  -29.8114   20.1573 C   0  0  0  0  0  0
  -25.4116  -36.3062   24.0325 C   0  0  1  0  0  0
  -20.5902  -28.3708   23.1259 C   0  0  2  0  0  0
  -20.6787  -26.9424   22.5405 C   0  0  0  0  0  0
  -19.5761  -26.6386   21.5212 C   0  0  0  0  0  0
  -18.1940  -26.7932   22.1622 C   0  0  0  0  0  0
  -19.1550  -28.8867   23.2863 C   0  0  0  0  0  0
  -18.9470  -30.1466   23.8885 C   0  0  0  0  0  0
  -17.6469  -30.6591   24.0562 C   0  0  0  0  0  0
  -25.9058  -34.9434   23.5089 C   0  0  0  0  0  0
  -16.5360  -29.9088   23.6334 C   0  0  0  0  0  0
  -16.7281  -28.6505   23.0356 C   0  0  0  0  0  0
  -26.4511  -31.6576   25.0726 C   0  0  0  0  0  0
  -25.3724  -31.3739   26.1441 C   0  0  0  0  0  0
  -27.0366  -30.2986   24.6238 C   0  0  0  0  0  0
  -27.6055  -32.4326   25.7504 C   0  0  0  0  0  0
  -27.5578  -37.1795   24.8464 C   0  0  0  0  0  0
  -21.4222  -29.3048   22.3644 N   0  0  0  0  0  0
  -26.4288  -37.3764   23.9409 N   0  0  0  0  0  0
  -24.7008  -31.0484   22.0963 N   0  0  0  0  0  0
  -23.4203  -28.8142   23.3017 O   0  0  0  0  0  0
  -28.3051  -26.3200   20.2156 O   0  0  0  0  0  0
  -26.5632  -34.8914   22.4659 O   0  0  0  0  0  0
  -23.5484  -32.1368   23.7256 O   0  0  0  0  0  0
  -27.0537  -17.9968   21.0741 C   0  0  0  0  0  0
  -27.5300  -19.2916   20.8301 C   0  0  0  0  0  0
  -27.9300  -16.9068   21.1579 C   0  0  0  0  0  0
  -29.8024  -18.3989   20.7217 C   0  0  0  0  0  0
  -28.9068  -19.5723   20.6672 C   0  0  0  0  0  0
  -29.3149  -17.0315   20.9573 C   0  0  0  0  0  0
  -30.3526  -21.6143   20.0405 C   0  0  0  0  0  0
  -28.2178  -22.1580   20.6218 C   0  0  0  0  0  0
  -30.2095  -23.1635   19.8278 C   0  0  1  0  0  0
  -28.9152  -23.5862   20.5703 C   0  0  1  0  0  0
  -32.0191  -23.8044   21.5962 C   0  0  0  0  0  0
  -32.5659  -23.9468   19.1295 C   0  0  0  0  0  0
  -28.0312  -24.8441   20.0130 C   0  0  0  0  0  0
  -31.4472  -24.0409   20.1832 C   0  0  0  0  0  0
  -29.2196  -21.0350   20.4905 N   0  0  0  0  0  0
  -30.0081  -15.7503   21.2737 N   0  0  0  0  0  0
  -31.3996  -21.0074   19.7967 O   0  0  0  0  0  0
  -31.4847  -12.6058   19.1842 H   0  0  0  0  0  0
  -30.4001  -11.4831   19.9467 H   0  0  0  0  0  0
  -29.8058  -11.7777   17.5234 H   0  0  0  0  0  0
  -29.6440  -13.5008   17.7514 H   0  0  0  0  0  0
  -27.8987  -11.3009   18.9022 H   0  0  0  0  0  0
  -27.3914  -12.5607   17.8087 H   0  0  0  0  0  0
  -27.6567  -14.2654   19.5154 H   0  0  0  0  0  0
  -28.7274  -12.1163   21.4056 H   0  0  0  0  0  0
  -28.4099  -13.7659   21.8489 H   0  0  0  0  0  0
  -25.2761   -9.5642   22.4788 H   0  0  0  0  0  0
  -23.9985   -7.4603   22.7484 H   0  0  0  0  0  0
  -21.0847   -8.8768   19.8950 H   0  0  0  0  0  0
  -22.3721  -10.9655   19.6178 H   0  0  0  0  0  0
  -21.1996   -7.6136   23.9711 H   0  0  0  0  0  0
  -21.1486   -6.0515   25.9076 H   0  0  0  0  0  0
  -22.0599   -2.7602   23.2850 H   0  0  0  0  0  0
  -22.4039  -11.9847   22.4842 H   0  0  0  0  0  0
  -21.1055  -13.1224   22.2647 H   0  0  0  0  0  0
  -24.5716  -15.7946   20.3984 H   0  0  0  0  0  0
  -26.1856  -15.6142   19.9338 H   0  0  0  0  0  0
  -26.7223  -32.5387   23.1066 H   0  0  0  0  0  0
  -25.0085  -33.9674   25.0392 H   0  0  0  0  0  0
  -22.7291  -31.2994   21.3945 H   0  0  0  0  0  0
  -23.3752  -35.9612   23.3297 H   0  0  0  0  0  0
  -24.3580  -36.8908   22.2054 H   0  0  0  0  0  0
  -23.7245  -37.6480   23.6668 H   0  0  0  0  0  0
  -26.1226  -31.5204   20.6131 H   0  0  0  0  0  0
  -26.8560  -30.8077   22.0173 H   0  0  0  0  0  0
  -28.1176  -28.8971   21.2297 H   0  0  0  0  0  0
  -25.9499  -25.9179   18.9660 H   0  0  0  0  0  0
  -23.9811  -27.3194   18.9785 H   0  0  0  0  0  0
  -23.7769  -30.5884   19.4023 H   0  0  0  0  0  0
  -22.7694  -29.2461   19.8511 H   0  0  0  0  0  0
  -25.1298  -36.1903   25.0818 H   0  0  0  0  0  0
  -20.9990  -28.3293   24.1382 H   0  0  0  0  0  0
  -20.5694  -26.2320   23.3613 H   0  0  0  0  0  0
  -21.6655  -26.7452   22.1197 H   0  0  0  0  0  0
  -19.6926  -25.6294   21.1250 H   0  0  0  0  0  0
  -19.6698  -27.3190   20.6736 H   0  0  0  0  0  0
  -17.4210  -26.6676   21.4025 H   0  0  0  0  0  0
  -18.0342  -26.0077   22.9022 H   0  0  0  0  0  0
  -19.7947  -30.7284   24.2249 H   0  0  0  0  0  0
  -17.5025  -31.6270   24.5167 H   0  0  0  0  0  0
  -15.5361  -30.2987   23.7665 H   0  0  0  0  0  0
  -15.8680  -28.0819   22.7081 H   0  0  0  0  0  0
  -24.5901  -30.7084   25.7775 H   0  0  0  0  0  0
  -24.8915  -32.2915   26.4841 H   0  0  0  0  0  0
  -25.8035  -30.8936   27.0233 H   0  0  0  0  0  0
  -26.2964  -29.6723   24.1245 H   0  0  0  0  0  0
  -27.4017  -29.7260   25.4774 H   0  0  0  0  0  0
  -27.8854  -30.4249   23.9513 H   0  0  0  0  0  0
  -27.2653  -33.3634   26.2055 H   0  0  0  0  0  0
  -28.3881  -32.6872   25.0345 H   0  0  0  0  0  0
  -28.0705  -31.8468   26.5444 H   0  0  0  0  0  0
  -28.2590  -38.0097   24.7512 H   0  0  0  0  0  0
  -28.1079  -36.2627   24.6286 H   0  0  0  0  0  0
  -27.2297  -37.1441   25.8867 H   0  0  0  0  0  0
  -20.9416  -29.8756   21.6830 H   0  0  0  0  0  0
  -26.0164  -38.2837   24.1407 H   0  0  0  0  0  0
  -25.9954  -17.8412   21.2307 H   0  0  0  0  0  0
  -26.7874  -20.0745   20.7933 H   0  0  0  0  0  0
  -27.5164  -15.9475   21.4273 H   0  0  0  0  0  0
  -30.8682  -18.5554   20.6372 H   0  0  0  0  0  0
  -27.5077  -22.0757   19.7973 H   0  0  0  0  0  0
  -27.6494  -22.0581   21.5473 H   0  0  0  0  0  0
  -30.0099  -23.2822   18.7619 H   0  0  0  0  0  0
  -29.1698  -23.8290   21.6012 H   0  0  0  0  0  0
  -31.2654  -23.9294   22.3728 H   0  0  0  0  0  0
  -32.8170  -24.5152   21.8146 H   0  0  0  0  0  0
  -32.4418  -22.8046   21.7017 H   0  0  0  0  0  0
  -32.1890  -24.1672   18.1302 H   0  0  0  0  0  0
  -33.0190  -22.9558   19.1017 H   0  0  0  0  0  0
  -33.3624  -24.6618   19.3386 H   0  0  0  0  0  0
  -27.0533  -24.6684   20.4630 H   0  0  0  0  0  0
  -27.8898  -24.6904   18.9427 H   0  0  0  0  0  0
  -31.1019  -25.0760   20.1598 H   0  0  0  0  0  0
  -29.4541  -15.2534   21.9549 H   0  0  0  0  0  0
  1 25  1  0  0  0
  1 30  2  0  0  0
  1 86  1  0  0  0
  2  3  1  0  0  0
  2 25  1  0  0  0
  2 88  1  0  0  0
  2 89  1  0  0  0
  3  4  1  0  0  0
  3 90  1  0  0  0
  3 91  1  0  0  0
  4  5  1  0  0  0
  4 92  1  0  0  0
  4 93  1  0  0  0
  5  6  1  0  0  0
  5 26  1  0  0  0
  5 94  1  0  0  0
  6 25  1  0  0  0
  6 95  1  0  0  0
  6 96  1  0  0  0
  7  8  2  0  0  0
  7 26  1  0  0  0
  7 29  1  0  0  0
  8  9  1  0  0  0
  8 22  1  0  0  0
  9 10  1  0  0  0
  9 27  2  0  0  0
 10 11  2  0  0  0
 10 15  1  0  0  0
 11 12  1  0  0  0
 11 97  1  0  0  0
 12 13  2  0  0  0
 12 98  1  0  0  0
 13 14  1  0  0  0
 13 31  1  0  0  0
 14 15  2  0  0  0
 14 99  1  0  0  0
 15100  1  0  0  0
 16 17  2  0  0  0
 16 21  1  0  0  0
 16 31  1  0  0  0
 17 18  1  0  0  0
 17101  1  0  0  0
 18 19  2  0  0  0
 18102  1  0  0  0
 19 20  1  0  0  0
 19 24  1  0  0  0
 20 21  2  0  0  0
 20103  1  0  0  0
 21 23  1  0  0  0
 22 28  1  0  0  0
 22 32  2  0  0  0
 26 27  1  0  0  0
 28104  1  0  0  0
 28105  1  0  0  0
 29106  1  0  0  0
 29107  1  0  0  0
 33 34  1  0  0  0
 33 66  1  0  0  0
 33 70  2  0  0  0
 34 36  1  0  0  0
 34 59  1  0  0  0
 34108  1  0  0  0
 35 44  2  0  0  0
 35 45  1  0  0  0
 35 68  1  0  0  0
 36 56  1  0  0  0
 36109  1  0  0  0
 37 39  1  0  0  0
 37 47  1  0  0  0
 37 66  1  0  0  0
 37110  1  0  0  0
 38 43  2  0  0  0
 38 46  1  0  0  0
 38 47  1  0  0  0
 39 64  1  0  0  0
 39 67  2  0  0  0
 40 52  1  0  0  0
 40 53  2  0  0  0
 40 58  1  0  0  0
 41111  1  0  0  0
 41112  1  0  0  0
 41113  1  0  0  0
 41 48  1  0  0  0
 42 43  1  0  0  0
 42 66  1  0  0  0
 42114  1  0  0  0
 42115  1  0  0  0
 43 44  1  0  0  0
 44116  1  0  0  0
 45 46  2  0  0  0
 45117  1  0  0  0
 46118  1  0  0  0
 47119  1  0  0  0
 47120  1  0  0  0
 48 56  1  0  0  0
 48 65  1  0  0  0
 48121  1  0  0  0
 49 50  1  0  0  0
 49 53  1  0  0  0
 49 64  1  0  0  0
 49122  1  0  0  0
 50 51  1  0  0  0
 50123  1  0  0  0
 50124  1  0  0  0
 51 52  1  0  0  0
 51125  1  0  0  0
 51126  1  0  0  0
 52127  1  0  0  0
 52128  1  0  0  0
 53 54  1  0  0  0
 54 55  2  0  0  0
 54129  1  0  0  0
 55 57  1  0  0  0
 55130  1  0  0  0
 56 69  2  0  0  0
 57 58  2  0  0  0
 57131  1  0  0  0
 58132  1  0  0  0
 59 60  1  0  0  0
 59 61  1  0  0  0
 59 62  1  0  0  0
 60133  1  0  0  0
 60134  1  0  0  0
 60135  1  0  0  0
 61136  1  0  0  0
 61137  1  0  0  0
 61138  1  0  0  0
 62139  1  0  0  0
 62140  1  0  0  0
 62141  1  0  0  0
 63 65  1  0  0  0
 63142  1  0  0  0
 63143  1  0  0  0
 63144  1  0  0  0
 64145  1  0  0  0
 65146  1  0  0  0
 68 83  1  0  0  0
 71 72  2  0  0  0
 71 73  1  0  0  0
 71147  1  0  0  0
 72 75  1  0  0  0
 72148  1  0  0  0
 73 76  2  0  0  0
 73149  1  0  0  0
 74 75  2  0  0  0
 74 76  1  0  0  0
 74150  1  0  0  0
 75 85  1  0  0  0
 76 86  1  0  0  0
 77 85  1  0  0  0
 77 87  2  0  0  0
 77 79  1  0  0  0
 78 80  1  0  0  0
 78 85  1  0  0  0
 78151  1  0  0  0
 78152  1  0  0  0
 79 80  1  0  0  0
 79 84  1  0  0  0
 79153  1  0  0  0
 80 83  1  0  0  0
 80154  1  0  0  0
 81155  1  0  0  0
 81156  1  0  0  0
 81157  1  0  0  0
 81 84  1  0  0  0
 82 84  1  0  0  0
 82158  1  0  0  0
 82159  1  0  0  0
 82160  1  0  0  0
 83161  1  0  0  0
 83162  1  0  0  0
 84163  1  0  0  0
 86164  1  0  0  0
M  ISO  4   1 100  68 101  83 101  86 100
M  END
> <chiral flag>
0

> <version>
0

> <s_m_source_file>
/data/baiqing/PycharmProjects/Reinvent-master-3.2/result/LINK_invent/BTK/process_docking_weight1_custom_product_contain_oxygen_bond_distance_aromatic_linkinvent_7_9_3/rearranged_h_0070.sdf

> <i_m_source_file_index>
68

> <r_mmod_Potential_Energy-OPLS-2005>
391.104431152344

> <r_mmod_Stretch_Energy-OPLS-2005>
144.158706665039

> <r_mmod_Bend_Energy-OPLS-2005>
254.027954101562

> <r_mmod_Torsional_Energy-OPLS-2005>
285.671051025391

> <r_mmod_Improper_Torsional_Energy-OPLS-2005>
8.94250869750977

> <r_mmod_Van_der_Waal_Energy-OPLS-2005>
136.875122070312

> <r_mmod_Electrostatic_Energy-OPLS-2005>
-312.147918701172

> <r_mmod_Solvation_Energy-OPLS-2005>
-221.130065917969

> <b_mmod_Minimization_Converged-OPLS-2005>
0

> <r_mmod_RMS_Derivative-OPLS-2005>
0.513571560382843

$$$$
68
                    3D
 Structure written by MMmdl.
169179  0  0  1  0            999 V2000
  -30.6467  -14.5623   20.5379 C   0  0  0  0  0  0
  -30.4393  -12.3531   19.4349 C   0  0  0  0  0  0
  -29.5043  -12.5079   18.2148 C   0  0  0  0  0  0
  -28.0256  -12.3538   18.6266 C   0  0  0  0  0  0
  -27.6581  -13.2061   19.8703 C   0  0  2  0  0  0
  -28.7037  -13.0135   20.9935 C   0  0  0  0  0  0
  -25.2544  -13.8109   20.5688 C   0  0  0  0  0  0
  -24.1806  -13.0386   20.9165 C   0  0  0  0  0  0
  -24.6384  -11.6867   20.8722 C   0  0  0  0  0  0
  -23.9050  -10.4266   21.0398 C   0  0  0  0  0  0
  -24.3605   -9.4191   21.9182 C   0  0  0  0  0  0
  -23.6278   -8.2232   22.0754 C   0  0  0  0  0  0
  -22.4262   -8.0270   21.3542 C   0  0  0  0  0  0
  -21.9892   -9.0244   20.4646 C   0  0  0  0  0  0
  -22.7221  -10.2121   20.3052 C   0  0  0  0  0  0
  -21.6851   -6.0729   22.5279 C   0  0  0  0  0  0
  -21.4016   -6.5636   23.8214 C   0  0  0  0  0  0
  -21.3655   -5.6787   24.9172 C   0  0  0  0  0  0
  -21.6040   -4.3051   24.7224 C   0  0  0  0  0  0
  -21.8822   -3.8142   23.4348 C   0  0  0  0  0  0
  -21.9193   -4.6957   22.3404 C   0  0  0  0  0  0
  -22.7836  -13.5203   21.1833 C   0  0  0  0  0  0
  -22.1660   -4.2141   21.0984 F   0  0  0  0  0  0
  -21.5626   -3.4538   25.7740 F   0  0  0  0  0  0
  -30.0287  -13.3477   20.4407 N   0  0  0  0  0  0
  -26.3004  -12.9305   20.3353 N   0  0  0  0  0  0
  -25.9317  -11.6461   20.5761 N   0  0  0  0  0  0
  -22.0473  -12.8221   22.0405 N   0  0  0  0  0  0
  -25.4143  -15.1823   20.4181 N   0  0  0  0  0  0
  -31.7888  -14.7617   20.1142 O   0  0  0  0  0  0
  -21.6628   -6.8869   21.4240 O   0  0  0  0  0  0
  -22.3522  -14.5512   20.6680 O   0  0  0  0  0  0
  -24.6186  -31.8640   23.2070 C   0  0  0  0  0  0
  -25.9062  -32.4800   23.8376 C   0  0  1  0  0  0
  -27.2402  -27.3862   20.0872 C   0  0  0  0  0  0
  -25.5908  -33.8601   24.2301 N   0  0  0  0  0  0
  -23.4100  -30.4866   21.5480 C   0  0  2  0  0  0
  -24.8572  -28.9475   20.1112 C   0  0  0  0  0  0
  -22.7435  -29.4632   22.4963 C   0  0  0  0  0  0
  -18.0280  -28.1372   22.8486 C   0  0  0  0  0  0
  -24.1488  -36.7307   23.2638 C   0  0  0  0  0  0
  -25.9443  -30.8102   21.3713 C   0  0  0  0  0  0
  -26.0187  -29.4411   20.7162 C   0  0  0  0  0  0
  -27.2060  -28.6640   20.7095 C   0  0  0  0  0  0
  -26.0507  -26.9190   19.4797 C   0  0  0  0  0  0
  -24.8702  -27.6865   19.4930 C   0  0  0  0  0  0
  -23.6216  -29.8205   20.1623 C   0  0  0  0  0  0
  -25.4112  -36.3098   24.0330 C   0  0  1  0  0  0
  -20.5872  -28.3666   23.1304 C   0  0  2  0  0  0
  -20.6765  -26.9396   22.5419 C   0  0  0  0  0  0
  -19.5749  -26.6376   21.5212 C   0  0  0  0  0  0
  -18.1925  -26.7918   22.1619 C   0  0  0  0  0  0
  -19.1530  -28.8836   23.2891 C   0  0  0  0  0  0
  -18.9455  -30.1440   23.8903 C   0  0  0  0  0  0
  -17.6457  -30.6577   24.0565 C   0  0  0  0  0  0
  -25.9043  -34.9464   23.5115 C   0  0  0  0  0  0
  -16.5349  -29.9080   23.6324 C   0  0  0  0  0  0
  -16.7269  -28.6498   23.0343 C   0  0  0  0  0  0
  -26.4472  -31.6596   25.0724 C   0  0  0  0  0  0
  -25.3731  -31.3738   26.1474 C   0  0  0  0  0  0
  -27.0297  -30.3025   24.6140 C   0  0  0  0  0  0
  -27.6047  -32.4321   25.7480 C   0  0  0  0  0  0
  -27.5581  -37.1808   24.8461 C   0  0  0  0  0  0
  -21.4158  -29.3026   22.3703 N   0  0  0  0  0  0
  -26.4295  -37.3787   23.9404 N   0  0  0  0  0  0
  -24.6758  -31.0692   22.0997 N   0  0  0  0  0  0
  -23.4188  -28.8176   23.3023 O   0  0  0  0  0  0
  -28.4039  -26.6209   20.1392 O   0  0  0  0  0  0
  -26.5609  -34.8920   22.4679 O   0  0  0  0  0  0
  -23.5365  -32.1416   23.7431 O   0  0  0  0  0  0
  -30.8092  -19.2477   20.7125 C   0  0  0  0  0  0
  -30.9442  -17.8481   20.9422 C   0  0  0  0  0  0
  -28.5303  -18.9168   19.9924 C   0  0  0  0  0  0
  -29.5993  -19.8173   20.2248 C   0  0  0  0  0  0
  -29.8624  -16.9651   20.7027 C   0  0  0  0  0  0
  -28.6582  -17.5286   20.2304 C   0  0  0  0  0  0
  -29.1010  -23.5668   17.0670 C   0  0  0  0  0  0
  -28.8828  -23.1078   18.3254 C   0  0  0  0  0  0
  -29.8899  -23.6823   20.4874 C   0  0  0  0  0  0
  -29.3474  -22.7073   15.8401 C   0  0  0  0  0  0
  -30.3142  -22.1901   20.6176 C   0  0  0  0  0  0
  -29.0994  -21.2201   16.0970 C   0  0  0  0  0  0
  -29.6338  -20.8128   17.4698 C   0  0  0  0  0  0
  -28.9084  -21.5787   18.6054 C   0  0  1  0  0  0
  -28.7133  -24.0523   19.5495 C   0  0  1  0  0  0
  -28.6844  -25.5946   19.1453 C   0  0  0  0  0  0
  -29.4458  -21.2131   19.9326 N   0  0  0  0  0  0
  -29.8612  -15.5576   21.0135 N   0  0  0  0  0  0
  -27.4706  -23.6957   20.2691 N   0  3  0  0  0  0
  -30.4588  -24.5399   21.1655 O   0  0  0  0  0  0
  -27.6019  -16.7172   19.9969 F   0  0  0  0  0  0
  -31.4801  -12.4787   19.1321 H   0  0  0  0  0  0
  -30.3688  -11.3466   19.8508 H   0  0  0  0  0  0
  -29.7577  -11.7709   17.4516 H   0  0  0  0  0  0
  -29.6565  -13.4863   17.7560 H   0  0  0  0  0  0
  -27.8512  -11.2983   18.8386 H   0  0  0  0  0  0
  -27.3728  -12.6060   17.7899 H   0  0  0  0  0  0
  -27.6878  -14.2471   19.5517 H   0  0  0  0  0  0
  -28.7005  -11.9789   21.3399 H   0  0  0  0  0  0
  -28.4536  -13.6128   21.8701 H   0  0  0  0  0  0
  -25.2756   -9.5669   22.4750 H   0  0  0  0  0  0
  -23.9984   -7.4629   22.7481 H   0  0  0  0  0  0
  -21.0817   -8.8764   19.8963 H   0  0  0  0  0  0
  -22.3678  -10.9660   19.6160 H   0  0  0  0  0  0
  -21.2013   -7.6144   23.9715 H   0  0  0  0  0  0
  -21.1469   -6.0519   25.9074 H   0  0  0  0  0  0
  -22.0606   -2.7601   23.2855 H   0  0  0  0  0  0
  -22.4076  -11.9886   22.4807 H   0  0  0  0  0  0
  -21.1101  -13.1277   22.2612 H   0  0  0  0  0  0
  -24.6445  -15.8287   20.5448 H   0  0  0  0  0  0
  -26.2800  -15.6519   20.1625 H   0  0  0  0  0  0
  -26.7129  -32.5491   23.1131 H   0  0  0  0  0  0
  -25.0058  -33.9759   25.0445 H   0  0  0  0  0  0
  -22.7005  -31.3047   21.4078 H   0  0  0  0  0  0
  -23.3739  -35.9650   23.3314 H   0  0  0  0  0  0
  -24.3576  -36.8909   22.2049 H   0  0  0  0  0  0
  -23.7249  -37.6519   23.6644 H   0  0  0  0  0  0
  -26.0677  -31.5753   20.6035 H   0  0  0  0  0  0
  -26.8278  -30.8599   21.9960 H   0  0  0  0  0  0
  -28.0987  -29.0403   21.1891 H   0  0  0  0  0  0
  -25.9977  -25.9529   19.0034 H   0  0  0  0  0  0
  -23.9752  -27.2987   19.0258 H   0  0  0  0  0  0
  -23.7342  -30.5974   19.4051 H   0  0  0  0  0  0
  -22.7436  -29.2452   19.8634 H   0  0  0  0  0  0
  -25.1288  -36.1963   25.0824 H   0  0  0  0  0  0
  -20.9962  -28.3238   24.1425 H   0  0  0  0  0  0
  -20.5654  -26.2278   23.3613 H   0  0  0  0  0  0
  -21.6639  -26.7422   22.1225 H   0  0  0  0  0  0
  -19.6911  -25.6290   21.1231 H   0  0  0  0  0  0
  -19.6691  -27.3198   20.6751 H   0  0  0  0  0  0
  -17.4197  -26.6665   21.4019 H   0  0  0  0  0  0
  -18.0325  -26.0057   22.9014 H   0  0  0  0  0  0
  -19.7932  -30.7253   24.2276 H   0  0  0  0  0  0
  -17.5012  -31.6254   24.5171 H   0  0  0  0  0  0
  -15.5349  -30.2984   23.7642 H   0  0  0  0  0  0
  -15.8671  -28.0825   22.7044 H   0  0  0  0  0  0
  -24.5896  -30.7084   25.7827 H   0  0  0  0  0  0
  -24.8934  -32.2910   26.4903 H   0  0  0  0  0  0
  -25.8077  -30.8925   27.0243 H   0  0  0  0  0  0
  -26.2852  -29.6793   24.1169 H   0  0  0  0  0  0
  -27.4016  -29.7260   25.4619 H   0  0  0  0  0  0
  -27.8715  -30.4319   23.9333 H   0  0  0  0  0  0
  -27.2663  -33.3611   26.2081 H   0  0  0  0  0  0
  -28.3841  -32.6898   25.0296 H   0  0  0  0  0  0
  -28.0731  -31.8433   26.5375 H   0  0  0  0  0  0
  -28.2611  -38.0094   24.7493 H   0  0  0  0  0  0
  -28.1063  -36.2624   24.6298 H   0  0  0  0  0  0
  -27.2298  -37.1475   25.8865 H   0  0  0  0  0  0
  -20.9320  -29.8757   21.6933 H   0  0  0  0  0  0
  -26.0179  -38.2863   24.1403 H   0  0  0  0  0  0
  -31.6672  -19.8759   20.9029 H   0  0  0  0  0  0
  -31.8783  -17.4622   21.3238 H   0  0  0  0  0  0
  -27.5820  -19.2784   19.6269 H   0  0  0  0  0  0
  -29.1537  -24.6201   16.8438 H   0  0  0  0  0  0
  -30.3820  -22.8616   15.5298 H   0  0  0  0  0  0
  -28.7203  -23.0559   15.0184 H   0  0  0  0  0  0
  -30.3653  -21.9467   21.6796 H   0  0  0  0  0  0
  -31.3279  -22.1010   20.2253 H   0  0  0  0  0  0
  -29.5672  -20.6236   15.3127 H   0  0  0  0  0  0
  -28.0303  -21.0086   16.0469 H   0  0  0  0  0  0
  -30.7076  -21.0024   17.5155 H   0  0  0  0  0  0
  -29.5086  -19.7351   17.5720 H   0  0  0  0  0  0
  -27.8595  -21.2780   18.5913 H   0  0  0  0  0  0
  -28.0268  -25.7416   18.2903 H   0  0  0  0  0  0
  -29.6715  -25.8522   18.7591 H   0  0  0  0  0  0
  -28.9530  -15.2118   21.2839 H   0  0  0  0  0  0
  -27.5378  -22.7462   20.5977 H   0  0  0  0  0  0
  -26.6581  -23.7736   19.6832 H   0  0  0  0  0  0
  -27.3566  -24.2927   21.0717 H   0  0  0  0  0  0
  1 25  1  0  0  0
  1 30  2  0  0  0
  1 88  1  0  0  0
  2  3  1  0  0  0
  2 25  1  0  0  0
  2 92  1  0  0  0
  2 93  1  0  0  0
  3  4  1  0  0  0
  3 94  1  0  0  0
  3 95  1  0  0  0
  4  5  1  0  0  0
  4 96  1  0  0  0
  4 97  1  0  0  0
  5  6  1  0  0  0
  5 26  1  0  0  0
  5 98  1  0  0  0
  6 25  1  0  0  0
  6 99  1  0  0  0
  6100  1  0  0  0
  7  8  2  0  0  0
  7 26  1  0  0  0
  7 29  1  0  0  0
  8  9  1  0  0  0
  8 22  1  0  0  0
  9 10  1  0  0  0
  9 27  2  0  0  0
 10 11  2  0  0  0
 10 15  1  0  0  0
 11 12  1  0  0  0
 11101  1  0  0  0
 12 13  2  0  0  0
 12102  1  0  0  0
 13 14  1  0  0  0
 13 31  1  0  0  0
 14 15  2  0  0  0
 14103  1  0  0  0
 15104  1  0  0  0
 16 17  2  0  0  0
 16 21  1  0  0  0
 16 31  1  0  0  0
 17 18  1  0  0  0
 17105  1  0  0  0
 18 19  2  0  0  0
 18106  1  0  0  0
 19 20  1  0  0  0
 19 24  1  0  0  0
 20 21  2  0  0  0
 20107  1  0  0  0
 21 23  1  0  0  0
 22 28  1  0  0  0
 22 32  2  0  0  0
 26 27  1  0  0  0
 28108  1  0  0  0
 28109  1  0  0  0
 29110  1  0  0  0
 29111  1  0  0  0
 33 34  1  0  0  0
 33 66  1  0  0  0
 33 70  2  0  0  0
 34 36  1  0  0  0
 34 59  1  0  0  0
 34112  1  0  0  0
 35 44  2  0  0  0
 35 45  1  0  0  0
 35 68  1  0  0  0
 36 56  1  0  0  0
 36113  1  0  0  0
 37 39  1  0  0  0
 37 47  1  0  0  0
 37 66  1  0  0  0
 37114  1  0  0  0
 38 43  2  0  0  0
 38 46  1  0  0  0
 38 47  1  0  0  0
 39 64  1  0  0  0
 39 67  2  0  0  0
 40 52  1  0  0  0
 40 53  2  0  0  0
 40 58  1  0  0  0
 41115  1  0  0  0
 41116  1  0  0  0
 41117  1  0  0  0
 41 48  1  0  0  0
 42 43  1  0  0  0
 42 66  1  0  0  0
 42118  1  0  0  0
 42119  1  0  0  0
 43 44  1  0  0  0
 44120  1  0  0  0
 45 46  2  0  0  0
 45121  1  0  0  0
 46122  1  0  0  0
 47123  1  0  0  0
 47124  1  0  0  0
 48 56  1  0  0  0
 48 65  1  0  0  0
 48125  1  0  0  0
 49 50  1  0  0  0
 49 53  1  0  0  0
 49 64  1  0  0  0
 49126  1  0  0  0
 50 51  1  0  0  0
 50127  1  0  0  0
 50128  1  0  0  0
 51 52  1  0  0  0
 51129  1  0  0  0
 51130  1  0  0  0
 52131  1  0  0  0
 52132  1  0  0  0
 53 54  1  0  0  0
 54 55  2  0  0  0
 54133  1  0  0  0
 55 57  1  0  0  0
 55134  1  0  0  0
 56 69  2  0  0  0
 57 58  2  0  0  0
 57135  1  0  0  0
 58136  1  0  0  0
 59 60  1  0  0  0
 59 61  1  0  0  0
 59 62  1  0  0  0
 60137  1  0  0  0
 60138  1  0  0  0
 60139  1  0  0  0
 61140  1  0  0  0
 61141  1  0  0  0
 61142  1  0  0  0
 62143  1  0  0  0
 62144  1  0  0  0
 62145  1  0  0  0
 63 65  1  0  0  0
 63146  1  0  0  0
 63147  1  0  0  0
 63148  1  0  0  0
 64149  1  0  0  0
 65150  1  0  0  0
 68 86  1  0  0  0
 71 72  2  0  0  0
 71 74  1  0  0  0
 71151  1  0  0  0
 72 75  1  0  0  0
 72152  1  0  0  0
 73 74  2  0  0  0
 73 76  1  0  0  0
 73153  1  0  0  0
 74 87  1  0  0  0
 75 76  2  0  0  0
 75 88  1  0  0  0
 76 91  1  0  0  0
 77 78  2  0  0  0
 77 80  1  0  0  0
 77154  1  0  0  0
 78 84  1  0  0  0
 78 85  1  0  0  0
 79 81  1  0  0  0
 79 85  1  0  0  0
 79 90  2  0  0  0
 80 82  1  0  0  0
 80155  1  0  0  0
 80156  1  0  0  0
 81 87  1  0  0  0
 81157  1  0  0  0
 81158  1  0  0  0
 82 83  1  0  0  0
 82159  1  0  0  0
 82160  1  0  0  0
 83161  1  0  0  0
 83162  1  0  0  0
 83 84  1  0  0  0
 84 87  1  0  0  0
 84163  1  0  0  0
 85 86  1  0  0  0
 85 89  1  0  0  0
 86164  1  0  0  0
 86165  1  0  0  0
 88166  1  0  0  0
 89167  1  0  0  0
 89168  1  0  0  0
 89169  1  0  0  0
M  CHG  1  89   1
M  ISO  4   1 100  68 101  86 101  88 100
M  END
> <chiral flag>
0

> <version>
0

> <s_m_source_file>
/data/baiqing/PycharmProjects/Reinvent-master-3.2/result/LINK_invent/BTK/process_docking_weight1_custom_product_contain_oxygen_bond_distance_aromatic_linkinvent_7_9_3/rearranged_h_0070.sdf

> <i_m_source_file_index>
69

> <r_mmod_Potential_Energy-OPLS-2005>
-259.883605957031

> <r_mmod_Stretch_Energy-OPLS-2005>
63.2995986938477

> <r_mmod_Bend_Energy-OPLS-2005>
138.25700378418

> <r_mmod_Torsional_Energy-OPLS-2005>
244.115707397461

> <r_mmod_Improper_Torsional_Energy-OPLS-2005>
7.25214385986328

> <r_mmod_Van_der_Waal_Energy-OPLS-2005>
171.783096313477

> <r_mmod_Electrostatic_Energy-OPLS-2005>
-441.276580810547

> <r_mmod_Solvation_Energy-OPLS-2005>
-468.760986328125

> <b_mmod_Minimization_Converged-OPLS-2005>
0

> <r_mmod_RMS_Derivative-OPLS-2005>
0.826244175434113

$$$$
69
                    3D
 Structure written by MMmdl.
161170  0  0  1  0            999 V2000
  -30.6053  -14.6574   20.4816 C   0  0  0  0  0  0
  -30.4449  -12.3958   19.4555 C   0  0  0  0  0  0
  -29.5119  -12.4923   18.2291 C   0  0  0  0  0  0
  -28.0327  -12.3381   18.6368 C   0  0  0  0  0  0
  -27.6539  -13.2128   19.8614 C   0  0  2  0  0  0
  -28.6995  -13.0726   20.9896 C   0  0  0  0  0  0
  -25.2577  -13.8161   20.5694 C   0  0  0  0  0  0
  -24.1828  -13.0431   20.9158 C   0  0  0  0  0  0
  -24.6391  -11.6900   20.8714 C   0  0  0  0  0  0
  -23.9056  -10.4288   21.0393 C   0  0  0  0  0  0
  -24.3608   -9.4210   21.9175 C   0  0  0  0  0  0
  -23.6285   -8.2246   22.0749 C   0  0  0  0  0  0
  -22.4269   -8.0278   21.3538 C   0  0  0  0  0  0
  -21.9893   -9.0253   20.4643 C   0  0  0  0  0  0
  -22.7223  -10.2133   20.3051 C   0  0  0  0  0  0
  -21.6853   -6.0727   22.5279 C   0  0  0  0  0  0
  -21.4015   -6.5634   23.8210 C   0  0  0  0  0  0
  -21.3658   -5.6787   24.9172 C   0  0  0  0  0  0
  -21.6046   -4.3049   24.7227 C   0  0  0  0  0  0
  -21.8821   -3.8139   23.4349 C   0  0  0  0  0  0
  -21.9193   -4.6954   22.3401 C   0  0  0  0  0  0
  -22.7858  -13.5232   21.1832 C   0  0  0  0  0  0
  -22.1666   -4.2133   21.0977 F   0  0  0  0  0  0
  -21.5620   -3.4536   25.7746 F   0  0  0  0  0  0
  -30.0127  -13.4221   20.4251 N   0  0  0  0  0  0
  -26.2997  -12.9332   20.3316 N   0  0  0  0  0  0
  -25.9323  -11.6490   20.5744 N   0  0  0  0  0  0
  -22.0500  -12.8239   22.0400 N   0  0  0  0  0  0
  -25.4330  -15.1889   20.4211 N   0  0  0  0  0  0
  -31.7692  -14.8291   20.1074 O   0  0  0  0  0  0
  -21.6638   -6.8875   21.4239 O   0  0  0  0  0  0
  -22.3549  -14.5545   20.6686 O   0  0  0  0  0  0
  -24.6261  -31.8590   23.2027 C   0  0  0  0  0  0
  -25.9104  -32.4776   23.8357 C   0  0  1  0  0  0
  -27.2255  -27.3166   20.1201 C   0  0  0  0  0  0
  -25.5920  -33.8576   24.2287 N   0  0  0  0  0  0
  -23.4207  -30.4818   21.5446 C   0  0  2  0  0  0
  -24.8687  -28.9349   20.1133 C   0  0  0  0  0  0
  -22.7479  -29.4615   22.4935 C   0  0  0  0  0  0
  -18.0289  -28.1379   22.8481 C   0  0  0  0  0  0
  -24.1488  -36.7294   23.2638 C   0  0  0  0  0  0
  -25.9617  -30.7887   21.3751 C   0  0  0  0  0  0
  -26.0371  -29.4146   20.7193 C   0  0  0  0  0  0
  -27.2208  -28.6174   20.7122 C   0  0  0  0  0  0
  -26.0390  -26.8937   19.4823 C   0  0  0  0  0  0
  -24.8712  -27.6796   19.4857 C   0  0  0  0  0  0
  -23.6368  -29.8156   20.1604 C   0  0  0  0  0  0
  -25.4109  -36.3081   24.0335 C   0  0  1  0  0  0
  -20.5886  -28.3682   23.1279 C   0  0  2  0  0  0
  -20.6775  -26.9405   22.5407 C   0  0  0  0  0  0
  -19.5752  -26.6378   21.5206 C   0  0  0  0  0  0
  -18.1932  -26.7922   22.1621 C   0  0  0  0  0  0
  -19.1538  -28.8848   23.2877 C   0  0  0  0  0  0
  -18.9464  -30.1448   23.8898 C   0  0  0  0  0  0
  -17.6464  -30.6580   24.0562 C   0  0  0  0  0  0
  -25.9046  -34.9449   23.5112 C   0  0  0  0  0  0
  -16.5358  -29.9080   23.6325 C   0  0  0  0  0  0
  -16.7276  -28.6497   23.0351 C   0  0  0  0  0  0
  -26.4487  -31.6584   25.0726 C   0  0  0  0  0  0
  -25.3724  -31.3732   26.1460 C   0  0  0  0  0  0
  -27.0329  -30.3008   24.6178 C   0  0  0  0  0  0
  -27.6059  -32.4311   25.7486 C   0  0  0  0  0  0
  -27.5583  -37.1797   24.8459 C   0  0  0  0  0  0
  -21.4191  -29.3039   22.3678 N   0  0  0  0  0  0
  -26.4287  -37.3776   23.9414 N   0  0  0  0  0  0
  -24.6880  -31.0599   22.0979 N   0  0  0  0  0  0
  -23.4199  -28.8152   23.3015 O   0  0  0  0  0  0
  -28.3387  -26.4634   20.1332 O   0  0  0  0  0  0
  -26.5615  -34.8915   22.4680 O   0  0  0  0  0  0
  -23.5421  -32.1393   23.7349 O   0  0  0  0  0  0
  -30.0182  -19.5079   21.2208 C   0  0  0  0  0  0
  -30.2143  -18.1076   21.4476 C   0  0  0  0  0  0
  -29.0152  -19.0063   19.1048 C   0  0  0  0  0  0
  -29.4068  -20.0132   20.0386 C   0  0  0  0  0  0
  -29.8143  -17.1174   20.5091 C   0  0  0  0  0  0
  -29.2039  -17.6059   19.3231 C   0  0  0  0  0  0
  -28.9466  -22.0687   18.5702 C   0  0  0  0  0  0
  -29.1128  -22.5206   20.8363 C   0  0  0  0  0  0
  -29.0995  -23.8936   20.0636 C   0  0  2  0  0  0
  -31.0724  -16.2043   16.9803 C   0  0  0  0  0  0
  -28.1192  -25.0545   20.5536 C   0  0  0  0  0  0
  -29.1778  -21.4615   19.8080 N   0  0  0  0  0  0
  -29.7899  -15.6935   20.8478 N   0  0  0  0  0  0
  -28.7159  -16.7000   18.3770 N   0  0  0  0  0  0
  -28.8792  -21.5496   17.4555 O   0  0  0  0  0  0
  -28.6442  -15.2936   16.2547 O   0  0  0  0  0  0
  -29.0931  -17.8017   16.1034 O   0  0  0  0  0  0
  -28.7912  -23.4052   18.7639 O   0  0  0  0  0  0
  -29.2944  -16.5071   16.7709 S   0  0  0  0  0  0
  -31.4843  -12.5314   19.1495 H   0  0  0  0  0  0
  -30.3926  -11.4030   19.9044 H   0  0  0  0  0  0
  -29.7761  -11.7327   17.4921 H   0  0  0  0  0  0
  -29.6584  -13.4544   17.7406 H   0  0  0  0  0  0
  -27.8665  -11.2855   18.8692 H   0  0  0  0  0  0
  -27.3834  -12.5691   17.7919 H   0  0  0  0  0  0
  -27.6693  -14.2456   19.5144 H   0  0  0  0  0  0
  -28.7168  -12.0502   21.3705 H   0  0  0  0  0  0
  -28.4430  -13.7020   21.8430 H   0  0  0  0  0  0
  -25.2758   -9.5680   22.4744 H   0  0  0  0  0  0
  -23.9989   -7.4637   22.7472 H   0  0  0  0  0  0
  -21.0815   -8.8775   19.8958 H   0  0  0  0  0  0
  -22.3680  -10.9668   19.6158 H   0  0  0  0  0  0
  -21.2016   -7.6149   23.9711 H   0  0  0  0  0  0
  -21.1474   -6.0520   25.9072 H   0  0  0  0  0  0
  -22.0601   -2.7601   23.2861 H   0  0  0  0  0  0
  -22.4107  -11.9896   22.4786 H   0  0  0  0  0  0
  -21.1125  -13.1283   22.2611 H   0  0  0  0  0  0
  -24.6726  -15.8480   20.5523 H   0  0  0  0  0  0
  -26.3075  -15.6361   20.1836 H   0  0  0  0  0  0
  -26.7171  -32.5448   23.1106 H   0  0  0  0  0  0
  -25.0059  -33.9717   25.0427 H   0  0  0  0  0  0
  -22.7142  -31.3019   21.4011 H   0  0  0  0  0  0
  -23.3744  -35.9632   23.3298 H   0  0  0  0  0  0
  -24.3587  -36.8914   22.2056 H   0  0  0  0  0  0
  -23.7247  -37.6499   23.6660 H   0  0  0  0  0  0
  -26.0932  -31.5510   20.6057 H   0  0  0  0  0  0
  -26.8424  -30.8391   22.0038 H   0  0  0  0  0  0
  -28.1186  -28.9811   21.1928 H   0  0  0  0  0  0
  -26.0024  -25.9419   18.9721 H   0  0  0  0  0  0
  -23.9790  -27.3101   18.9989 H   0  0  0  0  0  0
  -23.7577  -30.5920   19.4044 H   0  0  0  0  0  0
  -22.7563  -29.2465   19.8573 H   0  0  0  0  0  0
  -25.1284  -36.1937   25.0826 H   0  0  0  0  0  0
  -20.9977  -28.3260   24.1401 H   0  0  0  0  0  0
  -20.5664  -26.2294   23.3605 H   0  0  0  0  0  0
  -21.6650  -26.7427   22.1215 H   0  0  0  0  0  0
  -19.6916  -25.6289   21.1234 H   0  0  0  0  0  0
  -19.6686  -27.3185   20.6736 H   0  0  0  0  0  0
  -17.4199  -26.6663   21.4029 H   0  0  0  0  0  0
  -18.0338  -26.0065   22.9017 H   0  0  0  0  0  0
  -19.7942  -30.7264   24.2273 H   0  0  0  0  0  0
  -17.5019  -31.6260   24.5165 H   0  0  0  0  0  0
  -15.5358  -30.2988   23.7642 H   0  0  0  0  0  0
  -15.8677  -28.0815   22.7069 H   0  0  0  0  0  0
  -24.5888  -30.7086   25.7801 H   0  0  0  0  0  0
  -24.8920  -32.2900   26.4890 H   0  0  0  0  0  0
  -25.8047  -30.8910   27.0238 H   0  0  0  0  0  0
  -26.2905  -29.6756   24.1201 H   0  0  0  0  0  0
  -27.4031  -29.7266   25.4683 H   0  0  0  0  0  0
  -27.8772  -30.4301   23.9402 H   0  0  0  0  0  0
  -27.2684  -33.3611   26.2077 H   0  0  0  0  0  0
  -28.3860  -32.6871   25.0303 H   0  0  0  0  0  0
  -28.0737  -31.8423   26.5390 H   0  0  0  0  0  0
  -28.2589  -38.0105   24.7521 H   0  0  0  0  0  0
  -28.1090  -36.2640   24.6257 H   0  0  0  0  0  0
  -27.2306  -37.1413   25.8861 H   0  0  0  0  0  0
  -20.9369  -29.8770   21.6895 H   0  0  0  0  0  0
  -26.0167  -38.2848   24.1423 H   0  0  0  0  0  0
  -30.3403  -20.1964   21.9882 H   0  0  0  0  0  0
  -30.6471  -17.7954   22.3870 H   0  0  0  0  0  0
  -28.5126  -19.2927   18.1950 H   0  0  0  0  0  0
  -28.1961  -22.3932   21.4135 H   0  0  0  0  0  0
  -29.9555  -22.4717   21.5265 H   0  0  0  0  0  0
  -30.1183  -24.2814   20.0382 H   0  0  0  0  0  0
  -31.2271  -15.3019   17.5646 H   0  0  0  0  0  0
  -31.5322  -17.0521   17.4827 H   0  0  0  0  0  0
  -31.5268  -16.0778   15.9999 H   0  0  0  0  0  0
  -28.1970  -25.0856   21.6405 H   0  0  0  0  0  0
  -27.1005  -24.7187   20.3703 H   0  0  0  0  0  0
  -28.8864  -15.3674   21.1507 H   0  0  0  0  0  0
  -27.7052  -16.6927   18.3520 H   0  0  0  0  0  0
  1 25  1  0  0  0
  1 30  2  0  0  0
  1 83  1  0  0  0
  2  3  1  0  0  0
  2 25  1  0  0  0
  2 90  1  0  0  0
  2 91  1  0  0  0
  3  4  1  0  0  0
  3 92  1  0  0  0
  3 93  1  0  0  0
  4  5  1  0  0  0
  4 94  1  0  0  0
  4 95  1  0  0  0
  5  6  1  0  0  0
  5 26  1  0  0  0
  5 96  1  0  0  0
  6 25  1  0  0  0
  6 97  1  0  0  0
  6 98  1  0  0  0
  7  8  2  0  0  0
  7 26  1  0  0  0
  7 29  1  0  0  0
  8  9  1  0  0  0
  8 22  1  0  0  0
  9 10  1  0  0  0
  9 27  2  0  0  0
 10 11  2  0  0  0
 10 15  1  0  0  0
 11 12  1  0  0  0
 11 99  1  0  0  0
 12 13  2  0  0  0
 12100  1  0  0  0
 13 14  1  0  0  0
 13 31  1  0  0  0
 14 15  2  0  0  0
 14101  1  0  0  0
 15102  1  0  0  0
 16 17  2  0  0  0
 16 21  1  0  0  0
 16 31  1  0  0  0
 17 18  1  0  0  0
 17103  1  0  0  0
 18 19  2  0  0  0
 18104  1  0  0  0
 19 20  1  0  0  0
 19 24  1  0  0  0
 20 21  2  0  0  0
 20105  1  0  0  0
 21 23  1  0  0  0
 22 28  1  0  0  0
 22 32  2  0  0  0
 26 27  1  0  0  0
 28106  1  0  0  0
 28107  1  0  0  0
 29108  1  0  0  0
 29109  1  0  0  0
 33 34  1  0  0  0
 33 66  1  0  0  0
 33 70  2  0  0  0
 34 36  1  0  0  0
 34 59  1  0  0  0
 34110  1  0  0  0
 35 44  2  0  0  0
 35 45  1  0  0  0
 35 68  1  0  0  0
 36 56  1  0  0  0
 36111  1  0  0  0
 37 39  1  0  0  0
 37 47  1  0  0  0
 37 66  1  0  0  0
 37112  1  0  0  0
 38 43  2  0  0  0
 38 46  1  0  0  0
 38 47  1  0  0  0
 39 64  1  0  0  0
 39 67  2  0  0  0
 40 52  1  0  0  0
 40 53  2  0  0  0
 40 58  1  0  0  0
 41113  1  0  0  0
 41114  1  0  0  0
 41115  1  0  0  0
 41 48  1  0  0  0
 42 43  1  0  0  0
 42 66  1  0  0  0
 42116  1  0  0  0
 42117  1  0  0  0
 43 44  1  0  0  0
 44118  1  0  0  0
 45 46  2  0  0  0
 45119  1  0  0  0
 46120  1  0  0  0
 47121  1  0  0  0
 47122  1  0  0  0
 48 56  1  0  0  0
 48 65  1  0  0  0
 48123  1  0  0  0
 49 50  1  0  0  0
 49 53  1  0  0  0
 49 64  1  0  0  0
 49124  1  0  0  0
 50 51  1  0  0  0
 50125  1  0  0  0
 50126  1  0  0  0
 51 52  1  0  0  0
 51127  1  0  0  0
 51128  1  0  0  0
 52129  1  0  0  0
 52130  1  0  0  0
 53 54  1  0  0  0
 54 55  2  0  0  0
 54131  1  0  0  0
 55 57  1  0  0  0
 55132  1  0  0  0
 56 69  2  0  0  0
 57 58  2  0  0  0
 57133  1  0  0  0
 58134  1  0  0  0
 59 60  1  0  0  0
 59 61  1  0  0  0
 59 62  1  0  0  0
 60135  1  0  0  0
 60136  1  0  0  0
 60137  1  0  0  0
 61138  1  0  0  0
 61139  1  0  0  0
 61140  1  0  0  0
 62141  1  0  0  0
 62142  1  0  0  0
 62143  1  0  0  0
 63 65  1  0  0  0
 63144  1  0  0  0
 63145  1  0  0  0
 63146  1  0  0  0
 64147  1  0  0  0
 65148  1  0  0  0
 68 81  1  0  0  0
 71 72  2  0  0  0
 71 74  1  0  0  0
 71149  1  0  0  0
 72 75  1  0  0  0
 72150  1  0  0  0
 73 74  2  0  0  0
 73 76  1  0  0  0
 73151  1  0  0  0
 74 82  1  0  0  0
 75 76  2  0  0  0
 75 83  1  0  0  0
 76 84  1  0  0  0
 77 82  1  0  0  0
 77 85  2  0  0  0
 77 88  1  0  0  0
 78 79  1  0  0  0
 78 82  1  0  0  0
 78152  1  0  0  0
 78153  1  0  0  0
 79 81  1  0  0  0
 79 88  1  0  0  0
 79154  1  0  0  0
 80155  1  0  0  0
 80156  1  0  0  0
 80157  1  0  0  0
 80 89  1  0  0  0
 81158  1  0  0  0
 81159  1  0  0  0
 83160  1  0  0  0
 84 89  1  0  0  0
 84161  1  0  0  0
 86 89  2  0  0  0
 87 89  2  0  0  0
M  ISO  4   1 100  68 101  81 101  83 100
M  END
> <chiral flag>
0

> <version>
0

> <s_m_source_file>
/data/baiqing/PycharmProjects/Reinvent-master-3.2/result/LINK_invent/BTK/process_docking_weight1_custom_product_contain_oxygen_bond_distance_aromatic_linkinvent_7_9_3/rearranged_h_0070.sdf

> <i_m_source_file_index>
70

> <r_mmod_Potential_Energy-OPLS-2005>
-245.655349731445

> <r_mmod_Stretch_Energy-OPLS-2005>
81.6516647338867

> <r_mmod_Bend_Energy-OPLS-2005>
157.98876953125

> <r_mmod_Torsional_Energy-OPLS-2005>
306.671752929688

> <r_mmod_Improper_Torsional_Energy-OPLS-2005>
9.71068668365479

> <r_mmod_Van_der_Waal_Energy-OPLS-2005>
119.21826171875

> <r_mmod_Electrostatic_Energy-OPLS-2005>
-706.7939453125

> <r_mmod_Solvation_Energy-OPLS-2005>
-266.293334960938

> <b_mmod_Minimization_Converged-OPLS-2005>
0

> <r_mmod_RMS_Derivative-OPLS-2005>
1.22325503826141

$$$$
70
                    3D
 Structure written by MMmdl.
152160  0  0  1  0            999 V2000
  -30.5855  -14.6780   20.5168 C   0  0  0  0  0  0
  -30.4513  -12.4195   19.4568 C   0  0  0  0  0  0
  -29.5146  -12.5159   18.2298 C   0  0  0  0  0  0
  -28.0376  -12.3421   18.6401 C   0  0  0  0  0  0
  -27.6560  -13.2121   19.8663 C   0  0  2  0  0  0
  -28.6992  -13.0568   20.9958 C   0  0  0  0  0  0
  -25.2576  -13.8155   20.5674 C   0  0  0  0  0  0
  -24.1838  -13.0433   20.9194 C   0  0  0  0  0  0
  -24.6398  -11.6902   20.8743 C   0  0  0  0  0  0
  -23.9065  -10.4288   21.0411 C   0  0  0  0  0  0
  -24.3617   -9.4201   21.9188 C   0  0  0  0  0  0
  -23.6290   -8.2238   22.0755 C   0  0  0  0  0  0
  -22.4273   -8.0280   21.3544 C   0  0  0  0  0  0
  -21.9910   -9.0256   20.4646 C   0  0  0  0  0  0
  -22.7239  -10.2133   20.3056 C   0  0  0  0  0  0
  -21.6851   -6.0736   22.5281 C   0  0  0  0  0  0
  -21.4014   -6.5641   23.8215 C   0  0  0  0  0  0
  -21.3657   -5.6792   24.9176 C   0  0  0  0  0  0
  -21.6043   -4.3056   24.7226 C   0  0  0  0  0  0
  -21.8819   -3.8149   23.4347 C   0  0  0  0  0  0
  -21.9192   -4.6964   22.3402 C   0  0  0  0  0  0
  -22.7860  -13.5233   21.1853 C   0  0  0  0  0  0
  -22.1659   -4.2153   21.0980 F   0  0  0  0  0  0
  -21.5628   -3.4536   25.7738 F   0  0  0  0  0  0
  -30.0129  -13.4304   20.4422 N   0  0  0  0  0  0
  -26.3002  -12.9327   20.3316 N   0  0  0  0  0  0
  -25.9326  -11.6491   20.5762 N   0  0  0  0  0  0
  -22.0492  -12.8227   22.0405 N   0  0  0  0  0  0
  -25.4303  -15.1871   20.4058 N   0  0  0  0  0  0
  -31.7328  -14.8734   20.1063 O   0  0  0  0  0  0
  -21.6637   -6.8877   21.4244 O   0  0  0  0  0  0
  -22.3547  -14.5537   20.6695 O   0  0  0  0  0  0
  -24.6266  -31.8586   23.2023 C   0  0  0  0  0  0
  -25.9108  -32.4774   23.8357 C   0  0  1  0  0  0
  -27.2243  -27.3006   20.1350 C   0  0  0  0  0  0
  -25.5922  -33.8577   24.2282 N   0  0  0  0  0  0
  -23.4223  -30.4808   21.5441 C   0  0  2  0  0  0
  -24.8714  -28.9279   20.1195 C   0  0  0  0  0  0
  -22.7479  -29.4616   22.4930 C   0  0  0  0  0  0
  -18.0286  -28.1386   22.8484 C   0  0  0  0  0  0
  -24.1488  -36.7295   23.2639 C   0  0  0  0  0  0
  -25.9643  -30.7804   21.3811 C   0  0  0  0  0  0
  -26.0377  -29.4015   20.7353 C   0  0  0  0  0  0
  -27.2179  -28.5966   20.7401 C   0  0  0  0  0  0
  -26.0507  -26.8985   19.4688 C   0  0  0  0  0  0
  -24.8793  -27.6797   19.4782 C   0  0  0  0  0  0
  -23.6411  -29.8123   20.1613 C   0  0  0  0  0  0
  -25.4112  -36.3084   24.0328 C   0  0  1  0  0  0
  -20.5887  -28.3691   23.1276 C   0  0  2  0  0  0
  -20.6774  -26.9410   22.5409 C   0  0  0  0  0  0
  -19.5751  -26.6386   21.5210 C   0  0  0  0  0  0
  -18.1931  -26.7930   22.1621 C   0  0  0  0  0  0
  -19.1539  -28.8854   23.2877 C   0  0  0  0  0  0
  -18.9463  -30.1454   23.8896 C   0  0  0  0  0  0
  -17.6463  -30.6587   24.0560 C   0  0  0  0  0  0
  -25.9048  -34.9449   23.5106 C   0  0  0  0  0  0
  -16.5353  -29.9086   23.6328 C   0  0  0  0  0  0
  -16.7274  -28.6503   23.0349 C   0  0  0  0  0  0
  -26.4493  -31.6588   25.0730 C   0  0  0  0  0  0
  -25.3727  -31.3731   26.1457 C   0  0  0  0  0  0
  -27.0339  -30.3008   24.6199 C   0  0  0  0  0  0
  -27.6050  -32.4328   25.7502 C   0  0  0  0  0  0
  -27.5577  -37.1802   24.8465 C   0  0  0  0  0  0
  -21.4190  -29.3043   22.3668 N   0  0  0  0  0  0
  -26.4291  -37.3777   23.9409 N   0  0  0  0  0  0
  -24.6893  -31.0583   22.0988 N   0  0  0  0  0  0
  -23.4191  -28.8159   23.3022 O   0  0  0  0  0  0
  -28.3412  -26.4546   20.0766 O   0  0  0  0  0  0
  -26.5620  -34.8913   22.4674 O   0  0  0  0  0  0
  -23.5426  -32.1395   23.7335 O   0  0  0  0  0  0
  -30.2427  -19.4847   20.2383 C   0  0  0  0  0  0
  -28.4010  -17.6912   21.3203 C   0  0  0  0  0  0
  -29.0072  -20.0245   20.7090 C   0  0  0  0  0  0
  -29.6165  -17.1303   20.8471 C   0  0  0  0  0  0
  -28.1037  -19.0791   21.2489 C   0  0  0  0  0  0
  -30.5429  -18.0755   20.3018 C   0  0  0  0  0  0
  -26.8460  -23.5241   19.9798 C   0  0  0  0  0  0
  -28.0977  -23.8002   20.4032 C   0  0  0  0  0  0
  -29.0782  -22.6519   20.4133 C   0  0  0  0  0  0
  -28.4313  -25.2512   20.9475 C   0  0  0  0  0  0
  -28.5274  -21.4160   20.6591 N   0  0  0  0  0  0
  -29.7468  -15.6655   20.9768 N   0  0  0  0  0  0
  -30.2911  -22.7851   20.2431 O   0  0  0  0  0  0
  -26.9055  -19.5171   21.7077 F   0  0  0  0  0  0
  -31.7348  -17.6505   19.8239 F   0  0  0  0  0  0
  -31.4882  -12.5699   19.1517 H   0  0  0  0  0  0
  -30.4116  -11.4222   19.8974 H   0  0  0  0  0  0
  -29.7878  -11.7637   17.4885 H   0  0  0  0  0  0
  -29.6460  -13.4840   17.7440 H   0  0  0  0  0  0
  -27.8831  -11.2886   18.8763 H   0  0  0  0  0  0
  -27.3809  -12.5640   17.7981 H   0  0  0  0  0  0
  -27.6760  -14.2482   19.5283 H   0  0  0  0  0  0
  -28.7224  -12.0258   21.3523 H   0  0  0  0  0  0
  -28.4292  -13.6578   21.8653 H   0  0  0  0  0  0
  -25.2763   -9.5676   22.4763 H   0  0  0  0  0  0
  -23.9999   -7.4629   22.7472 H   0  0  0  0  0  0
  -21.0841   -8.8776   19.8952 H   0  0  0  0  0  0
  -22.3703  -10.9674   19.6165 H   0  0  0  0  0  0
  -21.2009   -7.6151   23.9720 H   0  0  0  0  0  0
  -21.1478   -6.0521   25.9079 H   0  0  0  0  0  0
  -22.0601   -2.7612   23.2845 H   0  0  0  0  0  0
  -22.4102  -11.9891   22.4804 H   0  0  0  0  0  0
  -21.1112  -13.1265   22.2605 H   0  0  0  0  0  0
  -24.6566  -15.8363   20.4958 H   0  0  0  0  0  0
  -26.2614  -15.6154   20.0198 H   0  0  0  0  0  0
  -26.7172  -32.5442   23.1101 H   0  0  0  0  0  0
  -25.0066  -33.9728   25.0423 H   0  0  0  0  0  0
  -22.7176  -31.3020   21.3970 H   0  0  0  0  0  0
  -23.3747  -35.9630   23.3306 H   0  0  0  0  0  0
  -24.3583  -36.8914   22.2054 H   0  0  0  0  0  0
  -23.7244  -37.6499   23.6658 H   0  0  0  0  0  0
  -26.0975  -31.5370   20.6066 H   0  0  0  0  0  0
  -26.8449  -30.8346   22.0093 H   0  0  0  0  0  0
  -28.1162  -28.9598   21.2196 H   0  0  0  0  0  0
  -26.0426  -25.9788   18.9068 H   0  0  0  0  0  0
  -23.9951  -27.3218   18.9687 H   0  0  0  0  0  0
  -23.7657  -30.5871   19.4040 H   0  0  0  0  0  0
  -22.7609  -29.2438   19.8556 H   0  0  0  0  0  0
  -25.1291  -36.1937   25.0821 H   0  0  0  0  0  0
  -20.9980  -28.3268   24.1397 H   0  0  0  0  0  0
  -20.5675  -26.2297   23.3608 H   0  0  0  0  0  0
  -21.6641  -26.7437   22.1199 H   0  0  0  0  0  0
  -19.6910  -25.6298   21.1236 H   0  0  0  0  0  0
  -19.6690  -27.3196   20.6741 H   0  0  0  0  0  0
  -17.4198  -26.6675   21.4027 H   0  0  0  0  0  0
  -18.0331  -26.0075   22.9021 H   0  0  0  0  0  0
  -19.7939  -30.7269   24.2266 H   0  0  0  0  0  0
  -17.5018  -31.6266   24.5166 H   0  0  0  0  0  0
  -15.5355  -30.2987   23.7655 H   0  0  0  0  0  0
  -15.8674  -28.0825   22.7063 H   0  0  0  0  0  0
  -24.5905  -30.7070   25.7797 H   0  0  0  0  0  0
  -24.8907  -32.2894   26.4876 H   0  0  0  0  0  0
  -25.8053  -30.8923   27.0239 H   0  0  0  0  0  0
  -26.2916  -29.6756   24.1219 H   0  0  0  0  0  0
  -27.4029  -29.7270   25.4712 H   0  0  0  0  0  0
  -27.8790  -30.4293   23.9430 H   0  0  0  0  0  0
  -27.2658  -33.3631   26.2070 H   0  0  0  0  0  0
  -28.3863  -32.6887   25.0333 H   0  0  0  0  0  0
  -28.0707  -31.8457   26.5428 H   0  0  0  0  0  0
  -28.2596  -38.0097   24.7508 H   0  0  0  0  0  0
  -28.1071  -36.2628   24.6296 H   0  0  0  0  0  0
  -27.2295  -37.1458   25.8869 H   0  0  0  0  0  0
  -20.9366  -29.8779   21.6889 H   0  0  0  0  0  0
  -26.0173  -38.2852   24.1411 H   0  0  0  0  0  0
  -30.9747  -20.1469   19.8014 H   0  0  0  0  0  0
  -27.6487  -17.0458   21.7490 H   0  0  0  0  0  0
  -26.5506  -22.5598   19.5910 H   0  0  0  0  0  0
  -26.0685  -24.2654   20.0227 H   0  0  0  0  0  0
  -29.4528  -25.2276   21.3280 H   0  0  0  0  0  0
  -27.8110  -25.4177   21.8294 H   0  0  0  0  0  0
  -27.5433  -21.4870   20.8815 H   0  0  0  0  0  0
  -28.9202  -15.2419   21.3669 H   0  0  0  0  0  0
  1 25  1  0  0  0
  1 30  2  0  0  0
  1 82  1  0  0  0
  2  3  1  0  0  0
  2 25  1  0  0  0
  2 86  1  0  0  0
  2 87  1  0  0  0
  3  4  1  0  0  0
  3 88  1  0  0  0
  3 89  1  0  0  0
  4  5  1  0  0  0
  4 90  1  0  0  0
  4 91  1  0  0  0
  5  6  1  0  0  0
  5 26  1  0  0  0
  5 92  1  0  0  0
  6 25  1  0  0  0
  6 93  1  0  0  0
  6 94  1  0  0  0
  7  8  2  0  0  0
  7 26  1  0  0  0
  7 29  1  0  0  0
  8  9  1  0  0  0
  8 22  1  0  0  0
  9 10  1  0  0  0
  9 27  2  0  0  0
 10 11  2  0  0  0
 10 15  1  0  0  0
 11 12  1  0  0  0
 11 95  1  0  0  0
 12 13  2  0  0  0
 12 96  1  0  0  0
 13 14  1  0  0  0
 13 31  1  0  0  0
 14 15  2  0  0  0
 14 97  1  0  0  0
 15 98  1  0  0  0
 16 17  2  0  0  0
 16 21  1  0  0  0
 16 31  1  0  0  0
 17 18  1  0  0  0
 17 99  1  0  0  0
 18 19  2  0  0  0
 18100  1  0  0  0
 19 20  1  0  0  0
 19 24  1  0  0  0
 20 21  2  0  0  0
 20101  1  0  0  0
 21 23  1  0  0  0
 22 28  1  0  0  0
 22 32  2  0  0  0
 26 27  1  0  0  0
 28102  1  0  0  0
 28103  1  0  0  0
 29104  1  0  0  0
 29105  1  0  0  0
 33 34  1  0  0  0
 33 66  1  0  0  0
 33 70  2  0  0  0
 34 36  1  0  0  0
 34 59  1  0  0  0
 34106  1  0  0  0
 35 44  2  0  0  0
 35 45  1  0  0  0
 35 68  1  0  0  0
 36 56  1  0  0  0
 36107  1  0  0  0
 37 39  1  0  0  0
 37 47  1  0  0  0
 37 66  1  0  0  0
 37108  1  0  0  0
 38 43  2  0  0  0
 38 46  1  0  0  0
 38 47  1  0  0  0
 39 64  1  0  0  0
 39 67  2  0  0  0
 40 52  1  0  0  0
 40 53  2  0  0  0
 40 58  1  0  0  0
 41109  1  0  0  0
 41110  1  0  0  0
 41111  1  0  0  0
 41 48  1  0  0  0
 42 43  1  0  0  0
 42 66  1  0  0  0
 42112  1  0  0  0
 42113  1  0  0  0
 43 44  1  0  0  0
 44114  1  0  0  0
 45 46  2  0  0  0
 45115  1  0  0  0
 46116  1  0  0  0
 47117  1  0  0  0
 47118  1  0  0  0
 48 56  1  0  0  0
 48 65  1  0  0  0
 48119  1  0  0  0
 49 50  1  0  0  0
 49 53  1  0  0  0
 49 64  1  0  0  0
 49120  1  0  0  0
 50 51  1  0  0  0
 50121  1  0  0  0
 50122  1  0  0  0
 51 52  1  0  0  0
 51123  1  0  0  0
 51124  1  0  0  0
 52125  1  0  0  0
 52126  1  0  0  0
 53 54  1  0  0  0
 54 55  2  0  0  0
 54127  1  0  0  0
 55 57  1  0  0  0
 55128  1  0  0  0
 56 69  2  0  0  0
 57 58  2  0  0  0
 57129  1  0  0  0
 58130  1  0  0  0
 59 60  1  0  0  0
 59 61  1  0  0  0
 59 62  1  0  0  0
 60131  1  0  0  0
 60132  1  0  0  0
 60133  1  0  0  0
 61134  1  0  0  0
 61135  1  0  0  0
 61136  1  0  0  0
 62137  1  0  0  0
 62138  1  0  0  0
 62139  1  0  0  0
 63 65  1  0  0  0
 63140  1  0  0  0
 63141  1  0  0  0
 63142  1  0  0  0
 64143  1  0  0  0
 65144  1  0  0  0
 68 80  1  0  0  0
 71 73  2  0  0  0
 71 76  1  0  0  0
 71145  1  0  0  0
 72 74  1  0  0  0
 72 75  2  0  0  0
 72146  1  0  0  0
 73 75  1  0  0  0
 73 81  1  0  0  0
 74 76  2  0  0  0
 74 82  1  0  0  0
 75 84  1  0  0  0
 76 85  1  0  0  0
 77 78  2  0  0  0
 77147  1  0  0  0
 77148  1  0  0  0
 78 79  1  0  0  0
 78 80  1  0  0  0
 79 81  1  0  0  0
 79 83  2  0  0  0
 80149  1  0  0  0
 80150  1  0  0  0
 81151  1  0  0  0
 82152  1  0  0  0
M  ISO  4   1 100  68 101  80 101  82 100
M  END
> <chiral flag>
0

> <version>
0

> <s_m_source_file>
/data/baiqing/PycharmProjects/Reinvent-master-3.2/result/LINK_invent/BTK/process_docking_weight1_custom_product_contain_oxygen_bond_distance_aromatic_linkinvent_7_9_3/rearranged_h_0070.sdf

> <i_m_source_file_index>
71

> <r_mmod_Potential_Energy-OPLS-2005>
44.1772155761719

> <r_mmod_Stretch_Energy-OPLS-2005>
92.2450866699219

> <r_mmod_Bend_Energy-OPLS-2005>
185.874053955078

> <r_mmod_Torsional_Energy-OPLS-2005>
248.913604736328

> <r_mmod_Improper_Torsional_Energy-OPLS-2005>
4.63658380508423

> <r_mmod_Van_der_Waal_Energy-OPLS-2005>
142.761978149414

> <r_mmod_Electrostatic_Energy-OPLS-2005>
-451.392303466797

> <r_mmod_Solvation_Energy-OPLS-2005>
-235.374603271484

> <b_mmod_Minimization_Converged-OPLS-2005>
0

> <r_mmod_RMS_Derivative-OPLS-2005>
0.642091929912567

$$$$
71
                    3D
 Structure written by MMmdl.
161170  0  0  1  0            999 V2000
  -30.5300  -14.8082   20.4570 C   0  0  0  0  0  0
  -30.4395  -12.5016   19.4694 C   0  0  0  0  0  0
  -29.5070  -12.5187   18.2351 C   0  0  0  0  0  0
  -28.0451  -12.2876   18.6662 C   0  0  0  0  0  0
  -27.6294  -13.2168   19.8345 C   0  0  2  0  0  0
  -28.6688  -13.1878   20.9735 C   0  0  0  0  0  0
  -25.2513  -13.8165   20.5658 C   0  0  0  0  0  0
  -24.1800  -13.0413   20.9228 C   0  0  0  0  0  0
  -24.6380  -11.6887   20.8779 C   0  0  0  0  0  0
  -23.9066  -10.4278   21.0465 C   0  0  0  0  0  0
  -24.3620   -9.4189   21.9240 C   0  0  0  0  0  0
  -23.6281   -8.2225   22.0771 C   0  0  0  0  0  0
  -22.4255   -8.0298   21.3562 C   0  0  0  0  0  0
  -21.9914   -9.0274   20.4655 C   0  0  0  0  0  0
  -22.7255  -10.2157   20.3079 C   0  0  0  0  0  0
  -21.6848   -6.0753   22.5280 C   0  0  0  0  0  0
  -21.3995   -6.5648   23.8221 C   0  0  0  0  0  0
  -21.3664   -5.6819   24.9193 C   0  0  0  0  0  0
  -21.6032   -4.3070   24.7269 C   0  0  0  0  0  0
  -21.8806   -3.8158   23.4383 C   0  0  0  0  0  0
  -21.9180   -4.6968   22.3436 C   0  0  0  0  0  0
  -22.7845  -13.5199   21.1895 C   0  0  0  0  0  0
  -22.1660   -4.2144   21.1025 F   0  0  0  0  0  0
  -21.5647   -3.4559   25.7793 F   0  0  0  0  0  0
  -29.9619  -13.5590   20.3861 N   0  0  0  0  0  0
  -26.2861  -12.9310   20.3169 N   0  0  0  0  0  0
  -25.9283  -11.6478   20.5723 N   0  0  0  0  0  0
  -22.0480  -12.8173   22.0455 N   0  0  0  0  0  0
  -25.4232  -15.1887   20.4061 N   0  0  0  0  0  0
  -31.7440  -14.9416   20.2464 O   0  0  0  0  0  0
  -21.6610   -6.8886   21.4252 O   0  0  0  0  0  0
  -22.3540  -14.5540   20.6784 O   0  0  0  0  0  0
  -24.6431  -31.8528   23.1873 C   0  0  0  0  0  0
  -25.9259  -32.4735   23.8263 C   0  0  1  0  0  0
  -27.2032  -27.2326   20.1231 C   0  0  0  0  0  0
  -25.6008  -33.8535   24.2188 N   0  0  0  0  0  0
  -23.4323  -30.4741   21.5378 C   0  0  2  0  0  0
  -24.8585  -28.8972   20.1179 C   0  0  0  0  0  0
  -22.7594  -29.4669   22.4996 C   0  0  0  0  0  0
  -18.0394  -28.1357   22.8493 C   0  0  0  0  0  0
  -24.1497  -36.7236   23.2634 C   0  0  0  0  0  0
  -25.9790  -30.7488   21.3684 C   0  0  0  0  0  0
  -26.0359  -29.3717   20.7083 C   0  0  0  0  0  0
  -27.2077  -28.5529   20.6930 C   0  0  0  0  0  0
  -25.9955  -26.8165   19.5281 C   0  0  0  0  0  0
  -24.8398  -27.6241   19.5246 C   0  0  0  0  0  0
  -23.6385  -29.7929   20.1606 C   0  0  0  0  0  0
  -25.4133  -36.3006   24.0287 C   0  0  1  0  0  0
  -20.5977  -28.3715   23.1384 C   0  0  2  0  0  0
  -20.6881  -26.9439   22.5539 C   0  0  0  0  0  0
  -19.5865  -26.6411   21.5311 C   0  0  0  0  0  0
  -18.2009  -26.7937   22.1622 C   0  0  0  0  0  0
  -19.1624  -28.8878   23.2887 C   0  0  0  0  0  0
  -18.9449  -30.1546   23.8840 C   0  0  0  0  0  0
  -17.6425  -30.6609   24.0533 C   0  0  0  0  0  0
  -25.9091  -34.9430   23.5037 C   0  0  0  0  0  0
  -16.5388  -29.8993   23.6285 C   0  0  0  0  0  0
  -16.7376  -28.6465   23.0283 C   0  0  0  0  0  0
  -26.4510  -31.6634   25.0761 C   0  0  0  0  0  0
  -25.3708  -31.3858   26.1475 C   0  0  0  0  0  0
  -27.0375  -30.3037   24.6392 C   0  0  0  0  0  0
  -27.6054  -32.4398   25.7550 C   0  0  0  0  0  0
  -27.5583  -37.1778   24.8489 C   0  0  0  0  0  0
  -21.4288  -29.3061   22.3760 N   0  0  0  0  0  0
  -26.4284  -37.3729   23.9413 N   0  0  0  0  0  0
  -24.7025  -31.0499   22.0822 N   0  0  0  0  0  0
  -23.4344  -28.8286   23.3127 O   0  0  0  0  0  0
  -28.3070  -26.3520   20.1958 O   0  0  0  0  0  0
  -26.5711  -34.8921   22.4639 O   0  0  0  0  0  0
  -23.5588  -32.1343   23.7189 O   0  0  0  0  0  0
  -29.4928  -19.9026   22.1272 C   0  0  0  0  0  0
  -30.0988  -17.5165   22.2358 C   0  0  0  0  0  0
  -29.1689  -18.4739   20.1910 C   0  0  0  0  0  0
  -29.9339  -18.7757   22.8582 C   0  0  0  0  0  0
  -29.1018  -19.8179   20.7754 C   0  0  0  0  0  0
  -29.7007  -17.3016   20.8943 C   0  0  0  0  0  0
  -27.3384  -21.3237   19.7395 C   0  0  0  0  0  0
  -26.9964  -22.6314   19.7438 C   0  0  0  0  0  0
  -24.5520  -22.6902   19.9806 C   0  0  0  0  0  0
  -25.6738  -23.0731   19.3497 C   0  0  0  0  0  0
  -29.2379  -22.4120   20.3551 C   0  0  0  0  0  0
  -28.0900  -23.5397   20.3150 C   0  0  1  0  0  0
  -30.1512  -18.9114   24.3539 C   0  0  0  0  0  0
  -28.3459  -24.9788   19.5659 C   0  0  0  0  0  0
  -28.6340  -21.0450   20.1426 N   0  0  0  0  0  0
  -29.6491  -15.8911   20.4186 N   0  0  0  0  0  0
  -31.4762  -12.6529   19.1674 H   0  0  0  0  0  0
  -30.4129  -11.5336   19.9718 H   0  0  0  0  0  0
  -29.8128  -11.7633   17.5130 H   0  0  0  0  0  0
  -29.5827  -13.4840   17.7298 H   0  0  0  0  0  0
  -27.9654  -11.2443   18.9808 H   0  0  0  0  0  0
  -27.3648  -12.4029   17.8221 H   0  0  0  0  0  0
  -27.6077  -14.2202   19.4156 H   0  0  0  0  0  0
  -28.7252  -12.1962   21.4224 H   0  0  0  0  0  0
  -28.3894  -13.8821   21.7679 H   0  0  0  0  0  0
  -25.2764   -9.5666   22.4820 H   0  0  0  0  0  0
  -24.0009   -7.4599   22.7462 H   0  0  0  0  0  0
  -21.0850   -8.8782   19.8941 H   0  0  0  0  0  0
  -22.3715  -10.9714   19.6182 H   0  0  0  0  0  0
  -21.1947   -7.6149   23.9727 H   0  0  0  0  0  0
  -21.1511   -6.0554   25.9103 H   0  0  0  0  0  0
  -22.0574   -2.7608   23.2897 H   0  0  0  0  0  0
  -22.4017  -11.9776   22.4809 H   0  0  0  0  0  0
  -21.1137  -13.1251   22.2752 H   0  0  0  0  0  0
  -24.6499  -15.8428   20.4665 H   0  0  0  0  0  0
  -26.2758  -15.6263   20.0827 H   0  0  0  0  0  0
  -26.7387  -32.5277   23.1037 H   0  0  0  0  0  0
  -24.9979  -33.9629   25.0202 H   0  0  0  0  0  0
  -22.7321  -31.2951   21.3906 H   0  0  0  0  0  0
  -23.3735  -35.9590   23.3300 H   0  0  0  0  0  0
  -24.3546  -36.8875   22.2046 H   0  0  0  0  0  0
  -23.7272  -37.6437   23.6672 H   0  0  0  0  0  0
  -26.1652  -31.5016   20.6012 H   0  0  0  0  0  0
  -26.8368  -30.7651   22.0277 H   0  0  0  0  0  0
  -28.1059  -28.9164   21.1675 H   0  0  0  0  0  0
  -25.9068  -25.8273   19.1138 H   0  0  0  0  0  0
  -23.9239  -27.2386   19.0945 H   0  0  0  0  0  0
  -23.7662  -30.5560   19.3950 H   0  0  0  0  0  0
  -22.7509  -29.2336   19.8618 H   0  0  0  0  0  0
  -25.1329  -36.1758   25.0760 H   0  0  0  0  0  0
  -21.0011  -28.3253   24.1537 H   0  0  0  0  0  0
  -20.5848  -26.2235   23.3677 H   0  0  0  0  0  0
  -21.6776  -26.7565   22.1306 H   0  0  0  0  0  0
  -19.7137  -25.6377   21.1294 H   0  0  0  0  0  0
  -19.6826  -27.3271   20.6912 H   0  0  0  0  0  0
  -17.4350  -26.6715   21.3948 H   0  0  0  0  0  0
  -18.0327  -26.0104   22.9013 H   0  0  0  0  0  0
  -19.7902  -30.7442   24.2138 H   0  0  0  0  0  0
  -17.4861  -31.6294   24.5081 H   0  0  0  0  0  0
  -15.5319  -30.2736   23.7534 H   0  0  0  0  0  0
  -15.8855  -28.0733   22.6877 H   0  0  0  0  0  0
  -24.5847  -30.7236   25.7826 H   0  0  0  0  0  0
  -24.8929  -32.3051   26.4901 H   0  0  0  0  0  0
  -25.7982  -30.9050   27.0290 H   0  0  0  0  0  0
  -26.3011  -29.6802   24.1304 H   0  0  0  0  0  0
  -27.3855  -29.7344   25.5031 H   0  0  0  0  0  0
  -27.8980  -30.4320   23.9815 H   0  0  0  0  0  0
  -27.2652  -33.3692   26.2143 H   0  0  0  0  0  0
  -28.3836  -32.6990   25.0359 H   0  0  0  0  0  0
  -28.0744  -31.8527   26.5461 H   0  0  0  0  0  0
  -28.2615  -38.0064   24.7470 H   0  0  0  0  0  0
  -28.1061  -36.2590   24.6344 H   0  0  0  0  0  0
  -27.2335  -37.1468   25.8910 H   0  0  0  0  0  0
  -20.9483  -29.8532   21.6783 H   0  0  0  0  0  0
  -26.0138  -38.2801   24.1327 H   0  0  0  0  0  0
  -29.3887  -20.8412   22.6511 H   0  0  0  0  0  0
  -30.4532  -16.6892   22.8344 H   0  0  0  0  0  0
  -28.7894  -18.3459   19.1866 H   0  0  0  0  0  0
  -26.7147  -20.4890   19.4338 H   0  0  0  0  0  0
  -23.5891  -23.0443   19.6469 H   0  0  0  0  0  0
  -24.5758  -22.0235   20.8322 H   0  0  0  0  0  0
  -25.5850  -23.7150   18.4826 H   0  0  0  0  0  0
  -29.8363  -22.4818   21.2648 H   0  0  0  0  0  0
  -29.9128  -22.5792   19.5120 H   0  0  0  0  0  0
  -27.8082  -23.7407   21.3520 H   0  0  0  0  0  0
  -30.9222  -19.6418   24.5947 H   0  0  0  0  0  0
  -29.2188  -19.2360   24.8243 H   0  0  0  0  0  0
  -30.4324  -17.9587   24.8018 H   0  0  0  0  0  0
  -27.7987  -25.0132   18.6246 H   0  0  0  0  0  0
  -29.3770  -24.9237   19.2175 H   0  0  0  0  0  0
  -28.7034  -15.5919   20.2374 H   0  0  0  0  0  0
  1 25  1  0  0  0
  1 30  2  0  0  0
  1 86  1  0  0  0
  2  3  1  0  0  0
  2 25  1  0  0  0
  2 87  1  0  0  0
  2 88  1  0  0  0
  3  4  1  0  0  0
  3 89  1  0  0  0
  3 90  1  0  0  0
  4  5  1  0  0  0
  4 91  1  0  0  0
  4 92  1  0  0  0
  5  6  1  0  0  0
  5 26  1  0  0  0
  5 93  1  0  0  0
  6 25  1  0  0  0
  6 94  1  0  0  0
  6 95  1  0  0  0
  7  8  2  0  0  0
  7 26  1  0  0  0
  7 29  1  0  0  0
  8  9  1  0  0  0
  8 22  1  0  0  0
  9 10  1  0  0  0
  9 27  2  0  0  0
 10 11  2  0  0  0
 10 15  1  0  0  0
 11 12  1  0  0  0
 11 96  1  0  0  0
 12 13  2  0  0  0
 12 97  1  0  0  0
 13 14  1  0  0  0
 13 31  1  0  0  0
 14 15  2  0  0  0
 14 98  1  0  0  0
 15 99  1  0  0  0
 16 17  2  0  0  0
 16 21  1  0  0  0
 16 31  1  0  0  0
 17 18  1  0  0  0
 17100  1  0  0  0
 18 19  2  0  0  0
 18101  1  0  0  0
 19 20  1  0  0  0
 19 24  1  0  0  0
 20 21  2  0  0  0
 20102  1  0  0  0
 21 23  1  0  0  0
 22 28  1  0  0  0
 22 32  2  0  0  0
 26 27  1  0  0  0
 28103  1  0  0  0
 28104  1  0  0  0
 29105  1  0  0  0
 29106  1  0  0  0
 33 34  1  0  0  0
 33 66  1  0  0  0
 33 70  2  0  0  0
 34 36  1  0  0  0
 34 59  1  0  0  0
 34107  1  0  0  0
 35 44  2  0  0  0
 35 45  1  0  0  0
 35 68  1  0  0  0
 36 56  1  0  0  0
 36108  1  0  0  0
 37 39  1  0  0  0
 37 47  1  0  0  0
 37 66  1  0  0  0
 37109  1  0  0  0
 38 43  2  0  0  0
 38 46  1  0  0  0
 38 47  1  0  0  0
 39 64  1  0  0  0
 39 67  2  0  0  0
 40 52  1  0  0  0
 40 53  2  0  0  0
 40 58  1  0  0  0
 41110  1  0  0  0
 41111  1  0  0  0
 41112  1  0  0  0
 41 48  1  0  0  0
 42 43  1  0  0  0
 42 66  1  0  0  0
 42113  1  0  0  0
 42114  1  0  0  0
 43 44  1  0  0  0
 44115  1  0  0  0
 45 46  2  0  0  0
 45116  1  0  0  0
 46117  1  0  0  0
 47118  1  0  0  0
 47119  1  0  0  0
 48 56  1  0  0  0
 48 65  1  0  0  0
 48120  1  0  0  0
 49 50  1  0  0  0
 49 53  1  0  0  0
 49 64  1  0  0  0
 49121  1  0  0  0
 50 51  1  0  0  0
 50122  1  0  0  0
 50123  1  0  0  0
 51 52  1  0  0  0
 51124  1  0  0  0
 51125  1  0  0  0
 52126  1  0  0  0
 52127  1  0  0  0
 53 54  1  0  0  0
 54 55  2  0  0  0
 54128  1  0  0  0
 55 57  1  0  0  0
 55129  1  0  0  0
 56 69  2  0  0  0
 57 58  2  0  0  0
 57130  1  0  0  0
 58131  1  0  0  0
 59 60  1  0  0  0
 59 61  1  0  0  0
 59 62  1  0  0  0
 60132  1  0  0  0
 60133  1  0  0  0
 60134  1  0  0  0
 61135  1  0  0  0
 61136  1  0  0  0
 61137  1  0  0  0
 62138  1  0  0  0
 62139  1  0  0  0
 62140  1  0  0  0
 63 65  1  0  0  0
 63141  1  0  0  0
 63142  1  0  0  0
 63143  1  0  0  0
 64144  1  0  0  0
 65145  1  0  0  0
 68 84  1  0  0  0
 71 74  2  0  0  0
 71 75  1  0  0  0
 71146  1  0  0  0
 72 74  1  0  0  0
 72 76  2  0  0  0
 72147  1  0  0  0
 73 75  2  0  0  0
 73 76  1  0  0  0
 73148  1  0  0  0
 74 83  1  0  0  0
 75 85  1  0  0  0
 76 86  1  0  0  0
 77 78  2  0  0  0
 77 85  1  0  0  0
 77149  1  0  0  0
 78 80  1  0  0  0
 78 82  1  0  0  0
 79 80  2  0  0  0
 79150  1  0  0  0
 79151  1  0  0  0
 80152  1  0  0  0
 81 82  1  0  0  0
 81 85  1  0  0  0
 81153  1  0  0  0
 81154  1  0  0  0
 82 84  1  0  0  0
 82155  1  0  0  0
 83156  1  0  0  0
 83157  1  0  0  0
 83158  1  0  0  0
 84159  1  0  0  0
 84160  1  0  0  0
 86161  1  0  0  0
M  ISO  4   1 100  68 101  84 101  86 100
M  END
> <chiral flag>
0

> <version>
0

> <s_m_source_file>
/data/baiqing/PycharmProjects/Reinvent-master-3.2/result/LINK_invent/BTK/process_docking_weight1_custom_product_contain_oxygen_bond_distance_aromatic_linkinvent_7_9_3/rearranged_h_0070.sdf

> <i_m_source_file_index>
72

> <r_mmod_Potential_Energy-OPLS-2005>
400.765106201172

> <r_mmod_Stretch_Energy-OPLS-2005>
130.915435791016

> <r_mmod_Bend_Energy-OPLS-2005>
253.911361694336

> <r_mmod_Torsional_Energy-OPLS-2005>
299.885162353516

> <r_mmod_Improper_Torsional_Energy-OPLS-2005>
13.410457611084

> <r_mmod_Van_der_Waal_Energy-OPLS-2005>
126.833084106445

> <r_mmod_Electrostatic_Energy-OPLS-2005>
-331.311676025391

> <r_mmod_Solvation_Energy-OPLS-2005>
-210.800399780273

> <b_mmod_Minimization_Converged-OPLS-2005>
0

> <r_mmod_RMS_Derivative-OPLS-2005>
7.85878992080688

$$$$
72
                    3D
 Structure written by MMmdl.
164173  0  0  1  0            999 V2000
  -30.5728  -14.7543   20.4455 C   0  0  0  0  0  0
  -30.4465  -12.4612   19.4486 C   0  0  0  0  0  0
  -29.5073  -12.4993   18.2215 C   0  0  0  0  0  0
  -28.0344  -12.3202   18.6450 C   0  0  0  0  0  0
  -27.6406  -13.2204   19.8453 C   0  0  2  0  0  0
  -28.6942  -13.1518   20.9714 C   0  0  0  0  0  0
  -25.2524  -13.8165   20.5696 C   0  0  0  0  0  0
  -24.1809  -13.0424   20.9221 C   0  0  0  0  0  0
  -24.6392  -11.6901   20.8775 C   0  0  0  0  0  0
  -23.9062  -10.4289   21.0427 C   0  0  0  0  0  0
  -24.3612   -9.4201   21.9196 C   0  0  0  0  0  0
  -23.6290   -8.2235   22.0761 C   0  0  0  0  0  0
  -22.4275   -8.0274   21.3543 C   0  0  0  0  0  0
  -21.9904   -9.0255   20.4650 C   0  0  0  0  0  0
  -22.7237  -10.2135   20.3070 C   0  0  0  0  0  0
  -21.6850   -6.0731   22.5280 C   0  0  0  0  0  0
  -21.4013   -6.5640   23.8212 C   0  0  0  0  0  0
  -21.3658   -5.6797   24.9175 C   0  0  0  0  0  0
  -21.6040   -4.3060   24.7232 C   0  0  0  0  0  0
  -21.8817   -3.8147   23.4357 C   0  0  0  0  0  0
  -21.9192   -4.6957   22.3408 C   0  0  0  0  0  0
  -22.7829  -13.5217   21.1868 C   0  0  0  0  0  0
  -22.1660   -4.2145   21.0984 F   0  0  0  0  0  0
  -21.5628   -3.4541   25.7743 F   0  0  0  0  0  0
  -29.9855  -13.5146   20.3744 N   0  0  0  0  0  0
  -26.2942  -12.9345   20.3288 N   0  0  0  0  0  0
  -25.9318  -11.6505   20.5774 N   0  0  0  0  0  0
  -22.0478  -12.8220   22.0432 N   0  0  0  0  0  0
  -25.4190  -15.1890   20.4083 N   0  0  0  0  0  0
  -31.7861  -14.8852   20.2584 O   0  0  0  0  0  0
  -21.6637   -6.8874   21.4241 O   0  0  0  0  0  0
  -22.3524  -14.5522   20.6707 O   0  0  0  0  0  0
  -24.6331  -31.8543   23.1999 C   0  0  0  0  0  0
  -25.9149  -32.4747   23.8348 C   0  0  1  0  0  0
  -27.2204  -27.2537   20.1306 C   0  0  0  0  0  0
  -25.5937  -33.8550   24.2267 N   0  0  0  0  0  0
  -23.4304  -30.4766   21.5442 C   0  0  2  0  0  0
  -24.8777  -28.9225   20.1143 C   0  0  0  0  0  0
  -22.7506  -29.4598   22.4930 C   0  0  0  0  0  0
  -18.0286  -28.1393   22.8487 C   0  0  0  0  0  0
  -24.1494  -36.7275   23.2644 C   0  0  0  0  0  0
  -25.9771  -30.7659   21.3799 C   0  0  0  0  0  0
  -26.0509  -29.3869   20.7230 C   0  0  0  0  0  0
  -27.2264  -28.5654   20.7187 C   0  0  0  0  0  0
  -26.0270  -26.8676   19.4799 C   0  0  0  0  0  0
  -24.8710  -27.6711   19.4814 C   0  0  0  0  0  0
  -23.6490  -29.8100   20.1616 C   0  0  0  0  0  0
  -25.4120  -36.3069   24.0332 C   0  0  1  0  0  0
  -20.5888  -28.3699   23.1271 C   0  0  2  0  0  0
  -20.6769  -26.9414   22.5411 C   0  0  0  0  0  0
  -19.5747  -26.6393   21.5210 C   0  0  0  0  0  0
  -18.1928  -26.7936   22.1627 C   0  0  0  0  0  0
  -19.1539  -28.8862   23.2874 C   0  0  0  0  0  0
  -18.9455  -30.1458   23.8900 C   0  0  0  0  0  0
  -17.6454  -30.6590   24.0564 C   0  0  0  0  0  0
  -25.9056  -34.9436   23.5103 C   0  0  0  0  0  0
  -16.5347  -29.9086   23.6334 C   0  0  0  0  0  0
  -16.7272  -28.6503   23.0360 C   0  0  0  0  0  0
  -26.4510  -31.6566   25.0732 C   0  0  0  0  0  0
  -25.3730  -31.3709   26.1450 C   0  0  0  0  0  0
  -27.0356  -30.2989   24.6205 C   0  0  0  0  0  0
  -27.6074  -32.4299   25.7501 C   0  0  0  0  0  0
  -27.5578  -37.1798   24.8471 C   0  0  0  0  0  0
  -21.4212  -29.3045   22.3665 N   0  0  0  0  0  0
  -26.4298  -37.3762   23.9402 N   0  0  0  0  0  0
  -24.6999  -31.0493   22.0985 N   0  0  0  0  0  0
  -23.4193  -28.8149   23.3044 O   0  0  0  0  0  0
  -28.3098  -26.3465   20.1672 O   0  0  0  0  0  0
  -26.5630  -34.8911   22.4673 O   0  0  0  0  0  0
  -23.5474  -32.1379   23.7278 O   0  0  0  0  0  0
  -28.9448  -19.7156   22.1033 C   0  0  0  0  0  0
  -29.7177  -18.4546   20.1668 C   0  0  0  0  0  0
  -29.1998  -17.2697   22.2234 C   0  0  0  0  0  0
  -27.8711  -18.0759   26.2864 C   0  0  0  0  0  0
  -27.1036  -19.1579   24.4651 C   0  0  0  0  0  0
  -29.3746  -19.7475   20.7581 C   0  0  0  0  0  0
  -28.8405  -18.5005   22.8186 C   0  0  0  0  0  0
  -29.6469  -17.1905   20.8883 C   0  0  0  0  0  0
  -26.8265  -18.8994   25.7790 C   0  0  0  0  0  0
  -28.7379  -17.8572   25.2540 C   0  0  0  0  0  0
  -29.4827  -21.1220   20.0219 C   0  0  0  0  0  0
  -27.8044  -24.8138   22.0020 C   0  0  0  0  0  0
  -29.1181  -23.7362   20.0533 C   0  0  0  0  0  0
  -28.0583  -24.8868   20.4866 C   0  0  1  0  0  0
  -28.2778  -18.5067   24.1182 N   0  0  0  0  0  0
  -29.7083  -15.8304   20.3070 N   0  0  0  0  0  0
  -28.9383  -22.2896   20.5387 N   0  0  0  0  0  0
  -30.0859  -21.1557   18.9488 O   0  0  0  0  0  0
  -25.7381  -19.3451   26.4685 O   0  0  0  0  0  0
  -29.8903  -17.1301   25.2418 O   0  0  0  0  0  0
  -31.4811  -12.6198   19.1388 H   0  0  0  0  0  0
  -30.4168  -11.4843   19.9335 H   0  0  0  0  0  0
  -29.7858  -11.7236   17.5077 H   0  0  0  0  0  0
  -29.6244  -13.4514   17.7007 H   0  0  0  0  0  0
  -27.8947  -11.2718   18.9108 H   0  0  0  0  0  0
  -27.3719  -12.5103   17.7999 H   0  0  0  0  0  0
  -27.6271  -14.2383   19.4577 H   0  0  0  0  0  0
  -28.7406  -12.1526   21.4075 H   0  0  0  0  0  0
  -28.4389  -13.8334   21.7851 H   0  0  0  0  0  0
  -25.2756   -9.5672   22.4777 H   0  0  0  0  0  0
  -23.9990   -7.4626   22.7485 H   0  0  0  0  0  0
  -21.0835   -8.8781   19.8966 H   0  0  0  0  0  0
  -22.3696  -10.9675   19.6189 H   0  0  0  0  0  0
  -21.2006   -7.6148   23.9712 H   0  0  0  0  0  0
  -21.1480   -6.0530   25.9075 H   0  0  0  0  0  0
  -22.0598   -2.7609   23.2862 H   0  0  0  0  0  0
  -22.4084  -11.9869   22.4807 H   0  0  0  0  0  0
  -21.1102  -13.1252   22.2650 H   0  0  0  0  0  0
  -24.6450  -15.8344   20.5198 H   0  0  0  0  0  0
  -26.2543  -15.6379   20.0576 H   0  0  0  0  0  0
  -26.7210  -32.5397   23.1081 H   0  0  0  0  0  0
  -25.0052  -33.9677   25.0389 H   0  0  0  0  0  0
  -22.7279  -31.3000   21.3967 H   0  0  0  0  0  0
  -23.3758  -35.9601   23.3314 H   0  0  0  0  0  0
  -24.3591  -36.8891   22.2056 H   0  0  0  0  0  0
  -23.7240  -37.6479   23.6661 H   0  0  0  0  0  0
  -26.1113  -31.5273   20.6100 H   0  0  0  0  0  0
  -26.8566  -30.8180   22.0104 H   0  0  0  0  0  0
  -28.1260  -28.9145   21.2060 H   0  0  0  0  0  0
  -25.9644  -25.9256   18.9568 H   0  0  0  0  0  0
  -23.9761  -27.3140   18.9906 H   0  0  0  0  0  0
  -23.7730  -30.5870   19.4069 H   0  0  0  0  0  0
  -22.7675  -29.2431   19.8576 H   0  0  0  0  0  0
  -25.1296  -36.1925   25.0823 H   0  0  0  0  0  0
  -20.9969  -28.3280   24.1397 H   0  0  0  0  0  0
  -20.5655  -26.2307   23.3614 H   0  0  0  0  0  0
  -21.6636  -26.7433   22.1207 H   0  0  0  0  0  0
  -19.6912  -25.6304   21.1239 H   0  0  0  0  0  0
  -19.6692  -27.3204   20.6735 H   0  0  0  0  0  0
  -17.4190  -26.6681   21.4036 H   0  0  0  0  0  0
  -18.0340  -26.0076   22.9021 H   0  0  0  0  0  0
  -19.7925  -30.7272   24.2287 H   0  0  0  0  0  0
  -17.5003  -31.6273   24.5157 H   0  0  0  0  0  0
  -15.5345  -30.2987   23.7653 H   0  0  0  0  0  0
  -15.8674  -28.0816   22.7087 H   0  0  0  0  0  0
  -24.5926  -30.7038   25.7769 H   0  0  0  0  0  0
  -24.8901  -32.2869   26.4861 H   0  0  0  0  0  0
  -25.8050  -30.8905   27.0238 H   0  0  0  0  0  0
  -26.2947  -29.6748   24.1198 H   0  0  0  0  0  0
  -27.4006  -29.7238   25.4723 H   0  0  0  0  0  0
  -27.8831  -30.4263   23.9473 H   0  0  0  0  0  0
  -27.2697  -33.3604   26.2072 H   0  0  0  0  0  0
  -28.3885  -32.6843   25.0324 H   0  0  0  0  0  0
  -28.0734  -31.8427   26.5423 H   0  0  0  0  0  0
  -28.2603  -38.0086   24.7488 H   0  0  0  0  0  0
  -28.1075  -36.2617   24.6337 H   0  0  0  0  0  0
  -27.2298  -37.1474   25.8878 H   0  0  0  0  0  0
  -20.9410  -29.8757   21.6850 H   0  0  0  0  0  0
  -26.0191  -38.2844   24.1395 H   0  0  0  0  0  0
  -28.6692  -20.6332   22.6029 H   0  0  0  0  0  0
  -30.0117  -18.4389   19.1265 H   0  0  0  0  0  0
  -29.0557  -16.3616   22.7914 H   0  0  0  0  0  0
  -27.9712  -17.6853   27.2892 H   0  0  0  0  0  0
  -26.5550  -19.7311   23.7304 H   0  0  0  0  0  0
  -27.0449  -25.5291   22.3181 H   0  0  0  0  0  0
  -28.7141  -25.0274   22.5632 H   0  0  0  0  0  0
  -27.4518  -23.8268   22.3014 H   0  0  0  0  0  0
  -29.1821  -23.7266   18.9643 H   0  0  0  0  0  0
  -30.1039  -24.0528   20.3952 H   0  0  0  0  0  0
  -27.1339  -24.5732   20.0093 H   0  0  0  0  0  0
  -28.7902  -15.4825   20.0804 H   0  0  0  0  0  0
  -28.4324  -22.1865   21.4056 H   0  0  0  0  0  0
  -25.6844  -19.0002   27.3561 H   0  0  0  0  0  0
  -30.0011  -16.7489   26.1069 H   0  0  0  0  0  0
  1 25  1  0  0  0
  1 30  2  0  0  0
  1 86  1  0  0  0
  2  3  1  0  0  0
  2 25  1  0  0  0
  2 91  1  0  0  0
  2 92  1  0  0  0
  3  4  1  0  0  0
  3 93  1  0  0  0
  3 94  1  0  0  0
  4  5  1  0  0  0
  4 95  1  0  0  0
  4 96  1  0  0  0
  5  6  1  0  0  0
  5 26  1  0  0  0
  5 97  1  0  0  0
  6 25  1  0  0  0
  6 98  1  0  0  0
  6 99  1  0  0  0
  7  8  2  0  0  0
  7 26  1  0  0  0
  7 29  1  0  0  0
  8  9  1  0  0  0
  8 22  1  0  0  0
  9 10  1  0  0  0
  9 27  2  0  0  0
 10 11  2  0  0  0
 10 15  1  0  0  0
 11 12  1  0  0  0
 11100  1  0  0  0
 12 13  2  0  0  0
 12101  1  0  0  0
 13 14  1  0  0  0
 13 31  1  0  0  0
 14 15  2  0  0  0
 14102  1  0  0  0
 15103  1  0  0  0
 16 17  2  0  0  0
 16 21  1  0  0  0
 16 31  1  0  0  0
 17 18  1  0  0  0
 17104  1  0  0  0
 18 19  2  0  0  0
 18105  1  0  0  0
 19 20  1  0  0  0
 19 24  1  0  0  0
 20 21  2  0  0  0
 20106  1  0  0  0
 21 23  1  0  0  0
 22 28  1  0  0  0
 22 32  2  0  0  0
 26 27  1  0  0  0
 28107  1  0  0  0
 28108  1  0  0  0
 29109  1  0  0  0
 29110  1  0  0  0
 33 34  1  0  0  0
 33 66  1  0  0  0
 33 70  2  0  0  0
 34 36  1  0  0  0
 34 59  1  0  0  0
 34111  1  0  0  0
 35 44  2  0  0  0
 35 45  1  0  0  0
 35 68  1  0  0  0
 36 56  1  0  0  0
 36112  1  0  0  0
 37 39  1  0  0  0
 37 47  1  0  0  0
 37 66  1  0  0  0
 37113  1  0  0  0
 38 43  2  0  0  0
 38 46  1  0  0  0
 38 47  1  0  0  0
 39 64  1  0  0  0
 39 67  2  0  0  0
 40 52  1  0  0  0
 40 53  2  0  0  0
 40 58  1  0  0  0
 41114  1  0  0  0
 41115  1  0  0  0
 41116  1  0  0  0
 41 48  1  0  0  0
 42 43  1  0  0  0
 42 66  1  0  0  0
 42117  1  0  0  0
 42118  1  0  0  0
 43 44  1  0  0  0
 44119  1  0  0  0
 45 46  2  0  0  0
 45120  1  0  0  0
 46121  1  0  0  0
 47122  1  0  0  0
 47123  1  0  0  0
 48 56  1  0  0  0
 48 65  1  0  0  0
 48124  1  0  0  0
 49 50  1  0  0  0
 49 53  1  0  0  0
 49 64  1  0  0  0
 49125  1  0  0  0
 50 51  1  0  0  0
 50126  1  0  0  0
 50127  1  0  0  0
 51 52  1  0  0  0
 51128  1  0  0  0
 51129  1  0  0  0
 52130  1  0  0  0
 52131  1  0  0  0
 53 54  1  0  0  0
 54 55  2  0  0  0
 54132  1  0  0  0
 55 57  1  0  0  0
 55133  1  0  0  0
 56 69  2  0  0  0
 57 58  2  0  0  0
 57134  1  0  0  0
 58135  1  0  0  0
 59 60  1  0  0  0
 59 61  1  0  0  0
 59 62  1  0  0  0
 60136  1  0  0  0
 60137  1  0  0  0
 60138  1  0  0  0
 61139  1  0  0  0
 61140  1  0  0  0
 61141  1  0  0  0
 62142  1  0  0  0
 62143  1  0  0  0
 62144  1  0  0  0
 63 65  1  0  0  0
 63145  1  0  0  0
 63146  1  0  0  0
 63147  1  0  0  0
 64148  1  0  0  0
 65149  1  0  0  0
 68 84  1  0  0  0
 71 76  2  0  0  0
 71 77  1  0  0  0
 71150  1  0  0  0
 72 76  1  0  0  0
 72 78  2  0  0  0
 72151  1  0  0  0
 73 77  2  0  0  0
 73 78  1  0  0  0
 73152  1  0  0  0
 74 79  1  0  0  0
 74 80  2  0  0  0
 74153  1  0  0  0
 75 79  2  0  0  0
 75 85  1  0  0  0
 75154  1  0  0  0
 76 81  1  0  0  0
 77 85  1  0  0  0
 78 86  1  0  0  0
 79 89  1  0  0  0
 80 85  1  0  0  0
 80 90  1  0  0  0
 81 87  1  0  0  0
 81 88  2  0  0  0
 82155  1  0  0  0
 82156  1  0  0  0
 82157  1  0  0  0
 82 84  1  0  0  0
 83 84  1  0  0  0
 83 87  1  0  0  0
 83158  1  0  0  0
 83159  1  0  0  0
 84160  1  0  0  0
 86161  1  0  0  0
 87162  1  0  0  0
 89163  1  0  0  0
 90164  1  0  0  0
M  ISO  4   1 100  68 101  84 101  86 100
M  END
> <chiral flag>
0

> <version>
0

> <s_m_source_file>
/data/baiqing/PycharmProjects/Reinvent-master-3.2/result/LINK_invent/BTK/process_docking_weight1_custom_product_contain_oxygen_bond_distance_aromatic_linkinvent_7_9_3/rearranged_h_0070.sdf

> <i_m_source_file_index>
73

> <r_mmod_Potential_Energy-OPLS-2005>
49.4383201599121

> <r_mmod_Stretch_Energy-OPLS-2005>
123.60897064209

> <r_mmod_Bend_Energy-OPLS-2005>
165.295867919922

> <r_mmod_Torsional_Energy-OPLS-2005>
289.617614746094

> <r_mmod_Improper_Torsional_Energy-OPLS-2005>
16.2472438812256

> <r_mmod_Van_der_Waal_Energy-OPLS-2005>
129.367904663086

> <r_mmod_Electrostatic_Energy-OPLS-2005>
-488.314880371094

> <r_mmod_Solvation_Energy-OPLS-2005>
-281.130767822266

> <b_mmod_Minimization_Converged-OPLS-2005>
0

> <r_mmod_RMS_Derivative-OPLS-2005>
1.67750751972198

$$$$
73
                    3D
 Structure written by MMmdl.
159168  0  0  1  0            999 V2000
  -30.6968  -14.6507   20.5852 C   0  0  0  0  0  0
  -30.4217  -12.4205   19.4798 C   0  0  0  0  0  0
  -29.5110  -12.5293   18.2392 C   0  0  0  0  0  0
  -28.0333  -12.3646   18.6390 C   0  0  0  0  0  0
  -27.6496  -13.2362   19.8634 C   0  0  2  0  0  0
  -28.6855  -13.1161   21.0006 C   0  0  0  0  0  0
  -25.2484  -13.8189   20.5608 C   0  0  0  0  0  0
  -24.1808  -13.0433   20.9193 C   0  0  0  0  0  0
  -24.6421  -11.6921   20.8762 C   0  0  0  0  0  0
  -23.9095  -10.4292   21.0424 C   0  0  0  0  0  0
  -24.3643   -9.4201   21.9194 C   0  0  0  0  0  0
  -23.6312   -8.2239   22.0754 C   0  0  0  0  0  0
  -22.4293   -8.0283   21.3545 C   0  0  0  0  0  0
  -21.9927   -9.0264   20.4656 C   0  0  0  0  0  0
  -22.7264  -10.2140   20.3070 C   0  0  0  0  0  0
  -21.6864   -6.0729   22.5269 C   0  0  0  0  0  0
  -21.4017   -6.5631   23.8200 C   0  0  0  0  0  0
  -21.3666   -5.6789   24.9163 C   0  0  0  0  0  0
  -21.6053   -4.3053   24.7216 C   0  0  0  0  0  0
  -21.8822   -3.8139   23.4336 C   0  0  0  0  0  0
  -21.9198   -4.6956   22.3390 C   0  0  0  0  0  0
  -22.7826  -13.5210   21.1850 C   0  0  0  0  0  0
  -22.1669   -4.2140   21.0969 F   0  0  0  0  0  0
  -21.5636   -3.4535   25.7728 F   0  0  0  0  0  0
  -30.0105  -13.4598   20.4559 N   0  0  0  0  0  0
  -26.2967  -12.9436   20.3296 N   0  0  0  0  0  0
  -25.9362  -11.6572   20.5782 N   0  0  0  0  0  0
  -22.0491  -12.8205   22.0428 N   0  0  0  0  0  0
  -25.4046  -15.1884   20.3825 N   0  0  0  0  0  0
  -31.7913  -14.7702   20.0321 O   0  0  0  0  0  0
  -21.6657   -6.8882   21.4237 O   0  0  0  0  0  0
  -22.3498  -14.5509   20.6687 O   0  0  0  0  0  0
  -24.6296  -31.8605   23.2046 C   0  0  0  0  0  0
  -25.9140  -32.4780   23.8373 C   0  0  1  0  0  0
  -27.2108  -27.3047   20.1082 C   0  0  0  0  0  0
  -25.5948  -33.8583   24.2284 N   0  0  0  0  0  0
  -23.4224  -30.4897   21.5482 C   0  0  2  0  0  0
  -24.8644  -28.9544   20.1085 C   0  0  0  0  0  0
  -22.7494  -29.4634   22.4923 C   0  0  0  0  0  0
  -18.0291  -28.1375   22.8486 C   0  0  0  0  0  0
  -24.1488  -36.7292   23.2641 C   0  0  0  0  0  0
  -25.9692  -30.7869   21.3795 C   0  0  0  0  0  0
  -26.0391  -29.4167   20.7153 C   0  0  0  0  0  0
  -27.2167  -28.6055   20.7052 C   0  0  0  0  0  0
  -26.0066  -26.9116   19.4703 C   0  0  0  0  0  0
  -24.8510  -27.7064   19.4776 C   0  0  0  0  0  0
  -23.6356  -29.8359   20.1608 C   0  0  0  0  0  0
  -25.4118  -36.3090   24.0327 C   0  0  1  0  0  0
  -20.5895  -28.3685   23.1262 C   0  0  2  0  0  0
  -20.6774  -26.9403   22.5400 C   0  0  0  0  0  0
  -19.5743  -26.6372   21.5212 C   0  0  0  0  0  0
  -18.1926  -26.7916   22.1631 C   0  0  0  0  0  0
  -19.1545  -28.8848   23.2871 C   0  0  0  0  0  0
  -18.9472  -30.1447   23.8884 C   0  0  0  0  0  0
  -17.6474  -30.6579   24.0563 C   0  0  0  0  0  0
  -25.9059  -34.9455   23.5106 C   0  0  0  0  0  0
  -16.5363  -29.9078   23.6332 C   0  0  0  0  0  0
  -16.7280  -28.6499   23.0352 C   0  0  0  0  0  0
  -26.4509  -31.6581   25.0743 C   0  0  0  0  0  0
  -25.3741  -31.3734   26.1473 C   0  0  0  0  0  0
  -27.0344  -30.2993   24.6210 C   0  0  0  0  0  0
  -27.6059  -32.4320   25.7517 C   0  0  0  0  0  0
  -27.5576  -37.1810   24.8469 C   0  0  0  0  0  0
  -21.4206  -29.3051   22.3663 N   0  0  0  0  0  0
  -26.4293  -37.3787   23.9407 N   0  0  0  0  0  0
  -24.6930  -31.0616   22.1005 N   0  0  0  0  0  0
  -23.4221  -28.8154   23.2989 O   0  0  0  0  0  0
  -28.2998  -26.4069   20.1699 O   0  0  0  0  0  0
  -26.5625  -34.8925   22.4670 O   0  0  0  0  0  0
  -23.5451  -32.1403   23.7361 O   0  0  0  0  0  0
  -28.7717  -19.2993   21.1326 C   0  0  0  0  0  0
  -30.9842  -19.3125   20.2430 C   0  0  0  0  0  0
  -28.8547  -17.8805   21.3227 C   0  0  0  0  0  0
  -29.8390  -20.0767   20.6111 C   0  0  0  0  0  0
  -30.0234  -17.1192   20.9777 C   0  0  0  0  0  0
  -31.0838  -17.8982   20.4208 C   0  0  0  0  0  0
  -30.2840  -23.8094   20.3152 C   0  0  0  0  0  0
  -28.9528  -23.8006   20.2990 C   0  0  0  0  0  0
  -30.7971  -22.4448   20.4554 C   0  0  0  0  0  0
  -28.4959  -22.3431   20.4479 C   0  0  0  0  0  0
  -27.6425  -17.2127   21.9476 C   0  0  0  0  0  0
  -30.1848  -15.4388   22.7963 C   0  0  0  0  0  0
  -27.9386  -24.9678   20.0511 C   0  0  0  0  0  0
  -29.7574  -21.5560   20.4843 N   0  0  0  0  0  0
  -30.1593  -15.6816   21.3435 N   0  0  0  0  0  0
  -31.9936  -22.1547   20.5412 O   0  0  0  0  0  0
  -32.2656  -17.3240   20.1031 F   0  0  0  0  0  0
  -31.4690  -12.5069   19.1876 H   0  0  0  0  0  0
  -30.3311  -11.4321   19.9322 H   0  0  0  0  0  0
  -29.7841  -11.7722   17.5031 H   0  0  0  0  0  0
  -29.6578  -13.4974   17.7577 H   0  0  0  0  0  0
  -27.8689  -11.3104   18.8668 H   0  0  0  0  0  0
  -27.3853  -12.5990   17.7933 H   0  0  0  0  0  0
  -27.6623  -14.2717   19.5214 H   0  0  0  0  0  0
  -28.6938  -12.1063   21.4116 H   0  0  0  0  0  0
  -28.3931  -13.7623   21.8246 H   0  0  0  0  0  0
  -25.2791   -9.5675   22.4761 H   0  0  0  0  0  0
  -24.0022   -7.4631   22.7471 H   0  0  0  0  0  0
  -21.0854   -8.8800   19.8968 H   0  0  0  0  0  0
  -22.3737  -10.9682   19.6181 H   0  0  0  0  0  0
  -21.2006   -7.6141   23.9701 H   0  0  0  0  0  0
  -21.1496   -6.0513   25.9067 H   0  0  0  0  0  0
  -22.0597   -2.7599   23.2832 H   0  0  0  0  0  0
  -22.4119  -11.9866   22.4813 H   0  0  0  0  0  0
  -21.1113  -13.1228   22.2657 H   0  0  0  0  0  0
  -24.6202  -15.8253   20.4583 H   0  0  0  0  0  0
  -26.2337  -15.6233   19.9986 H   0  0  0  0  0  0
  -26.7213  -32.5439   23.1122 H   0  0  0  0  0  0
  -25.0121  -33.9720   25.0449 H   0  0  0  0  0  0
  -22.7177  -31.3127   21.4098 H   0  0  0  0  0  0
  -23.3752  -35.9624   23.3317 H   0  0  0  0  0  0
  -24.3590  -36.8899   22.2058 H   0  0  0  0  0  0
  -23.7234  -37.6496   23.6654 H   0  0  0  0  0  0
  -26.1096  -31.5531   20.6154 H   0  0  0  0  0  0
  -26.8474  -30.8271   22.0124 H   0  0  0  0  0  0
  -28.1150  -28.9553   21.1939 H   0  0  0  0  0  0
  -25.9019  -25.9674   18.9612 H   0  0  0  0  0  0
  -23.9520  -27.3476   18.9953 H   0  0  0  0  0  0
  -23.7592  -30.6172   19.4098 H   0  0  0  0  0  0
  -22.7531  -29.2705   19.8540 H   0  0  0  0  0  0
  -25.1296  -36.1956   25.0819 H   0  0  0  0  0  0
  -20.9996  -28.3267   24.1381 H   0  0  0  0  0  0
  -20.5669  -26.2309   23.3614 H   0  0  0  0  0  0
  -21.6641  -26.7420   22.1198 H   0  0  0  0  0  0
  -19.6906  -25.6287   21.1233 H   0  0  0  0  0  0
  -19.6664  -27.3191   20.6748 H   0  0  0  0  0  0
  -17.4194  -26.6665   21.4035 H   0  0  0  0  0  0
  -18.0322  -26.0052   22.9022 H   0  0  0  0  0  0
  -19.7951  -30.7260   24.2241 H   0  0  0  0  0  0
  -17.5034  -31.6254   24.5168 H   0  0  0  0  0  0
  -15.5361  -30.2984   23.7645 H   0  0  0  0  0  0
  -15.8684  -28.0816   22.7062 H   0  0  0  0  0  0
  -24.5903  -30.7090   25.7818 H   0  0  0  0  0  0
  -24.8951  -32.2904   26.4910 H   0  0  0  0  0  0
  -25.8067  -30.8910   27.0246 H   0  0  0  0  0  0
  -26.2922  -29.6757   24.1211 H   0  0  0  0  0  0
  -27.4004  -29.7242   25.4727 H   0  0  0  0  0  0
  -27.8815  -30.4269   23.9466 H   0  0  0  0  0  0
  -27.2652  -33.3617   26.2088 H   0  0  0  0  0  0
  -28.3869  -32.6887   25.0348 H   0  0  0  0  0  0
  -28.0727  -31.8458   26.5441 H   0  0  0  0  0  0
  -28.2604  -38.0096   24.7506 H   0  0  0  0  0  0
  -28.1046  -36.2626   24.6296 H   0  0  0  0  0  0
  -27.2288  -37.1470   25.8869 H   0  0  0  0  0  0
  -20.9379  -29.8819   21.6910 H   0  0  0  0  0  0
  -26.0171  -38.2858   24.1410 H   0  0  0  0  0  0
  -27.8669  -19.8076   21.4367 H   0  0  0  0  0  0
  -31.8477  -19.8062   19.8265 H   0  0  0  0  0  0
  -30.8979  -24.6884   20.1886 H   0  0  0  0  0  0
  -27.8785  -22.0447   19.6003 H   0  0  0  0  0  0
  -27.9237  -22.2169   21.3676 H   0  0  0  0  0  0
  -27.5676  -16.1671   21.6560 H   0  0  0  0  0  0
  -26.7192  -17.7054   21.6387 H   0  0  0  0  0  0
  -27.7004  -17.2638   23.0352 H   0  0  0  0  0  0
  -29.1822  -15.3472   23.2096 H   0  0  0  0  0  0
  -30.6754  -16.2648   23.3136 H   0  0  0  0  0  0
  -30.7283  -14.5326   23.0760 H   0  0  0  0  0  0
  -27.1010  -24.7743   20.7236 H   0  0  0  0  0  0
  -27.5907  -24.7787   19.0362 H   0  0  0  0  0  0
  1 25  1  0  0  0
  1 30  2  0  0  0
  1 85  1  0  0  0
  2  3  1  0  0  0
  2 25  1  0  0  0
  2 88  1  0  0  0
  2 89  1  0  0  0
  3  4  1  0  0  0
  3 90  1  0  0  0
  3 91  1  0  0  0
  4  5  1  0  0  0
  4 92  1  0  0  0
  4 93  1  0  0  0
  5  6  1  0  0  0
  5 26  1  0  0  0
  5 94  1  0  0  0
  6 25  1  0  0  0
  6 95  1  0  0  0
  6 96  1  0  0  0
  7  8  2  0  0  0
  7 26  1  0  0  0
  7 29  1  0  0  0
  8  9  1  0  0  0
  8 22  1  0  0  0
  9 10  1  0  0  0
  9 27  2  0  0  0
 10 11  2  0  0  0
 10 15  1  0  0  0
 11 12  1  0  0  0
 11 97  1  0  0  0
 12 13  2  0  0  0
 12 98  1  0  0  0
 13 14  1  0  0  0
 13 31  1  0  0  0
 14 15  2  0  0  0
 14 99  1  0  0  0
 15100  1  0  0  0
 16 17  2  0  0  0
 16 21  1  0  0  0
 16 31  1  0  0  0
 17 18  1  0  0  0
 17101  1  0  0  0
 18 19  2  0  0  0
 18102  1  0  0  0
 19 20  1  0  0  0
 19 24  1  0  0  0
 20 21  2  0  0  0
 20103  1  0  0  0
 21 23  1  0  0  0
 22 28  1  0  0  0
 22 32  2  0  0  0
 26 27  1  0  0  0
 28104  1  0  0  0
 28105  1  0  0  0
 29106  1  0  0  0
 29107  1  0  0  0
 33 34  1  0  0  0
 33 66  1  0  0  0
 33 70  2  0  0  0
 34 36  1  0  0  0
 34 59  1  0  0  0
 34108  1  0  0  0
 35 44  2  0  0  0
 35 45  1  0  0  0
 35 68  1  0  0  0
 36 56  1  0  0  0
 36109  1  0  0  0
 37 39  1  0  0  0
 37 47  1  0  0  0
 37 66  1  0  0  0
 37110  1  0  0  0
 38 43  2  0  0  0
 38 46  1  0  0  0
 38 47  1  0  0  0
 39 64  1  0  0  0
 39 67  2  0  0  0
 40 52  1  0  0  0
 40 53  2  0  0  0
 40 58  1  0  0  0
 41111  1  0  0  0
 41112  1  0  0  0
 41113  1  0  0  0
 41 48  1  0  0  0
 42 43  1  0  0  0
 42 66  1  0  0  0
 42114  1  0  0  0
 42115  1  0  0  0
 43 44  1  0  0  0
 44116  1  0  0  0
 45 46  2  0  0  0
 45117  1  0  0  0
 46118  1  0  0  0
 47119  1  0  0  0
 47120  1  0  0  0
 48 56  1  0  0  0
 48 65  1  0  0  0
 48121  1  0  0  0
 49 50  1  0  0  0
 49 53  1  0  0  0
 49 64  1  0  0  0
 49122  1  0  0  0
 50 51  1  0  0  0
 50123  1  0  0  0
 50124  1  0  0  0
 51 52  1  0  0  0
 51125  1  0  0  0
 51126  1  0  0  0
 52127  1  0  0  0
 52128  1  0  0  0
 53 54  1  0  0  0
 54 55  2  0  0  0
 54129  1  0  0  0
 55 57  1  0  0  0
 55130  1  0  0  0
 56 69  2  0  0  0
 57 58  2  0  0  0
 57131  1  0  0  0
 58132  1  0  0  0
 59 60  1  0  0  0
 59 61  1  0  0  0
 59 62  1  0  0  0
 60133  1  0  0  0
 60134  1  0  0  0
 60135  1  0  0  0
 61136  1  0  0  0
 61137  1  0  0  0
 61138  1  0  0  0
 62139  1  0  0  0
 62140  1  0  0  0
 62141  1  0  0  0
 63 65  1  0  0  0
 63142  1  0  0  0
 63143  1  0  0  0
 63144  1  0  0  0
 64145  1  0  0  0
 65146  1  0  0  0
 68 83  1  0  0  0
 71 73  2  0  0  0
 71 74  1  0  0  0
 71147  1  0  0  0
 72 74  2  0  0  0
 72 76  1  0  0  0
 72148  1  0  0  0
 73 75  1  0  0  0
 73 81  1  0  0  0
 74 84  1  0  0  0
 75 76  2  0  0  0
 75 85  1  0  0  0
 76 87  1  0  0  0
 77 78  2  0  0  0
 77 79  1  0  0  0
 77149  1  0  0  0
 78 80  1  0  0  0
 78 83  1  0  0  0
 79 84  1  0  0  0
 79 86  2  0  0  0
 80 84  1  0  0  0
 80150  1  0  0  0
 80151  1  0  0  0
 81152  1  0  0  0
 81153  1  0  0  0
 81154  1  0  0  0
 82 85  1  0  0  0
 82155  1  0  0  0
 82156  1  0  0  0
 82157  1  0  0  0
 83158  1  0  0  0
 83159  1  0  0  0
M  ISO  4   1 100  68 101  83 101  85 100
M  END
> <chiral flag>
0

> <version>
0

> <s_m_source_file>
/data/baiqing/PycharmProjects/Reinvent-master-3.2/result/LINK_invent/BTK/process_docking_weight1_custom_product_contain_oxygen_bond_distance_aromatic_linkinvent_7_9_3/rearranged_h_0070.sdf

> <i_m_source_file_index>
74

> <r_mmod_Potential_Energy-OPLS-2005>
341.341857910156

> <r_mmod_Stretch_Energy-OPLS-2005>
98.6278762817383

> <r_mmod_Bend_Energy-OPLS-2005>
202.099029541016

> <r_mmod_Torsional_Energy-OPLS-2005>
333.657440185547

> <r_mmod_Improper_Torsional_Energy-OPLS-2005>
4.45654201507568

> <r_mmod_Van_der_Waal_Energy-OPLS-2005>
155.99462890625

> <r_mmod_Electrostatic_Energy-OPLS-2005>
-300.463226318359

> <r_mmod_Solvation_Energy-OPLS-2005>
-208.899765014648

> <b_mmod_Minimization_Converged-OPLS-2005>
0

> <r_mmod_RMS_Derivative-OPLS-2005>
1.66181373596191

$$$$
74
                    3D
 Structure written by MMmdl.
152160  0  0  1  0            999 V2000
  -30.6522  -14.6383   20.4977 C   0  0  0  0  0  0
  -30.4275  -12.3949   19.4512 C   0  0  0  0  0  0
  -29.5008  -12.4978   18.2212 C   0  0  0  0  0  0
  -28.0260  -12.3363   18.6382 C   0  0  0  0  0  0
  -27.6467  -13.2215   19.8557 C   0  0  2  0  0  0
  -28.6929  -13.1096   20.9867 C   0  0  0  0  0  0
  -25.2532  -13.8183   20.5687 C   0  0  0  0  0  0
  -24.1811  -13.0438   20.9199 C   0  0  0  0  0  0
  -24.6388  -11.6912   20.8748 C   0  0  0  0  0  0
  -23.9062  -10.4291   21.0408 C   0  0  0  0  0  0
  -24.3615   -9.4207   21.9185 C   0  0  0  0  0  0
  -23.6292   -8.2241   22.0754 C   0  0  0  0  0  0
  -22.4274   -8.0279   21.3545 C   0  0  0  0  0  0
  -21.9908   -9.0251   20.4647 C   0  0  0  0  0  0
  -22.7234  -10.2131   20.3057 C   0  0  0  0  0  0
  -21.6854   -6.0733   22.5277 C   0  0  0  0  0  0
  -21.4014   -6.5638   23.8210 C   0  0  0  0  0  0
  -21.3659   -5.6792   24.9173 C   0  0  0  0  0  0
  -21.6044   -4.3054   24.7225 C   0  0  0  0  0  0
  -21.8820   -3.8145   23.4347 C   0  0  0  0  0  0
  -21.9192   -4.6961   22.3402 C   0  0  0  0  0  0
  -22.7833  -13.5226   21.1861 C   0  0  0  0  0  0
  -22.1662   -4.2145   21.0980 F   0  0  0  0  0  0
  -21.5629   -3.4539   25.7738 F   0  0  0  0  0  0
  -30.0027  -13.4360   20.4083 N   0  0  0  0  0  0
  -26.2958  -12.9374   20.3303 N   0  0  0  0  0  0
  -25.9317  -11.6524   20.5763 N   0  0  0  0  0  0
  -22.0482  -12.8214   22.0418 N   0  0  0  0  0  0
  -25.4222  -15.1908   20.4095 N   0  0  0  0  0  0
  -31.8334  -14.7411   20.1565 O   0  0  0  0  0  0
  -21.6642   -6.8875   21.4238 O   0  0  0  0  0  0
  -22.3517  -14.5532   20.6710 O   0  0  0  0  0  0
  -24.6249  -31.8601   23.2020 C   0  0  0  0  0  0
  -25.9100  -32.4780   23.8349 C   0  0  1  0  0  0
  -27.2214  -27.3288   20.1267 C   0  0  0  0  0  0
  -25.5920  -33.8581   24.2281 N   0  0  0  0  0  0
  -23.4183  -30.4826   21.5446 C   0  0  2  0  0  0
  -24.8653  -28.9355   20.1122 C   0  0  0  0  0  0
  -22.7468  -29.4626   22.4943 C   0  0  0  0  0  0
  -18.0286  -28.1384   22.8492 C   0  0  0  0  0  0
  -24.1488  -36.7298   23.2638 C   0  0  0  0  0  0
  -25.9570  -30.7955   21.3695 C   0  0  0  0  0  0
  -26.0328  -29.4220   20.7155 C   0  0  0  0  0  0
  -27.2181  -28.6308   20.7102 C   0  0  0  0  0  0
  -26.0374  -26.8885   19.5002 C   0  0  0  0  0  0
  -24.8685  -27.6739   19.4943 C   0  0  0  0  0  0
  -23.6323  -29.8146   20.1604 C   0  0  0  0  0  0
  -25.4111  -36.3086   24.0331 C   0  0  1  0  0  0
  -20.5884  -28.3686   23.1292 C   0  0  2  0  0  0
  -20.6776  -26.9412   22.5413 C   0  0  0  0  0  0
  -19.5753  -26.6387   21.5216 C   0  0  0  0  0  0
  -18.1933  -26.7929   22.1626 C   0  0  0  0  0  0
  -19.1538  -28.8852   23.2888 C   0  0  0  0  0  0
  -18.9460  -30.1457   23.8900 C   0  0  0  0  0  0
  -17.6459  -30.6588   24.0568 C   0  0  0  0  0  0
  -25.9048  -34.9454   23.5107 C   0  0  0  0  0  0
  -16.5351  -29.9086   23.6331 C   0  0  0  0  0  0
  -16.7273  -28.6504   23.0351 C   0  0  0  0  0  0
  -26.4489  -31.6584   25.0712 C   0  0  0  0  0  0
  -25.3728  -31.3715   26.1443 C   0  0  0  0  0  0
  -27.0328  -30.3012   24.6151 C   0  0  0  0  0  0
  -27.6056  -32.4309   25.7479 C   0  0  0  0  0  0
  -27.5581  -37.1799   24.8462 C   0  0  0  0  0  0
  -21.4183  -29.3040   22.3684 N   0  0  0  0  0  0
  -26.4289  -37.3781   23.9413 N   0  0  0  0  0  0
  -24.6857  -31.0623   22.0962 N   0  0  0  0  0  0
  -23.4194  -28.8172   23.3026 O   0  0  0  0  0  0
  -28.3307  -26.4784   20.1406 O   0  0  0  0  0  0
  -26.5622  -34.8924   22.4675 O   0  0  0  0  0  0
  -23.5417  -32.1392   23.7359 O   0  0  0  0  0  0
  -31.5555  -17.4783   21.4315 C   0  0  0  0  0  0
  -31.1132  -19.8813   21.2411 C   0  0  0  0  0  0
  -30.2947  -17.1574   20.8755 C   0  0  0  0  0  0
  -29.8350  -19.6455   20.6925 C   0  0  0  0  0  0
  -31.9576  -18.8163   21.6086 C   0  0  0  0  0  0
  -29.4396  -18.2660   20.5187 C   0  0  0  0  0  0
  -28.1463  -25.1461   20.7603 C   0  0  0  0  0  0
  -28.7368  -23.8328   20.0802 C   0  0  0  0  0  0
  -29.8864  -15.7531   20.7391 N   0  0  0  0  0  0
  -29.0285  -20.7630   20.2925 N   0  0  0  0  0  0
  -27.2006  -22.0908   21.5451 O   0  0  0  0  0  0
  -29.6102  -22.3877   22.2493 O   0  0  0  0  0  0
  -33.1752  -19.0816   22.1398 F   0  0  0  0  0  0
  -28.2195  -18.0015   19.9914 F   0  0  0  0  0  0
  -28.6129  -22.2733   21.1732 S   0  0  0  0  0  0
  -31.4696  -12.5069   19.1467 H   0  0  0  0  0  0
  -30.3550  -11.4071   19.9087 H   0  0  0  0  0  0
  -29.7658  -11.7383   17.4844 H   0  0  0  0  0  0
  -29.6411  -13.4627   17.7310 H   0  0  0  0  0  0
  -27.8690  -11.2853   18.8841 H   0  0  0  0  0  0
  -27.3683  -12.5509   17.7952 H   0  0  0  0  0  0
  -27.6551  -14.2508   19.4969 H   0  0  0  0  0  0
  -28.7059  -12.1019   21.4043 H   0  0  0  0  0  0
  -28.4453  -13.7770   21.8138 H   0  0  0  0  0  0
  -25.2759   -9.5684   22.4759 H   0  0  0  0  0  0
  -24.0002   -7.4633   22.7472 H   0  0  0  0  0  0
  -21.0840   -8.8765   19.8954 H   0  0  0  0  0  0
  -22.3689  -10.9668   19.6166 H   0  0  0  0  0  0
  -21.2007   -7.6147   23.9711 H   0  0  0  0  0  0
  -21.1482   -6.0524   25.9075 H   0  0  0  0  0  0
  -22.0600   -2.7607   23.2848 H   0  0  0  0  0  0
  -22.4103  -11.9874   22.4798 H   0  0  0  0  0  0
  -21.1099  -13.1233   22.2630 H   0  0  0  0  0  0
  -24.6511  -15.8403   20.5201 H   0  0  0  0  0  0
  -26.2644  -15.6367   20.0691 H   0  0  0  0  0  0
  -26.7169  -32.5459   23.1102 H   0  0  0  0  0  0
  -25.0058  -33.9721   25.0419 H   0  0  0  0  0  0
  -22.7125  -31.3032   21.4008 H   0  0  0  0  0  0
  -23.3751  -35.9629   23.3297 H   0  0  0  0  0  0
  -24.3585  -36.8919   22.2054 H   0  0  0  0  0  0
  -23.7239  -37.6498   23.6661 H   0  0  0  0  0  0
  -26.0838  -31.5574   20.5991 H   0  0  0  0  0  0
  -26.8389  -30.8475   21.9959 H   0  0  0  0  0  0
  -28.1167  -28.9996   21.1846 H   0  0  0  0  0  0
  -26.0122  -25.9188   19.0235 H   0  0  0  0  0  0
  -23.9743  -27.2964   19.0176 H   0  0  0  0  0  0
  -23.7500  -30.5897   19.4024 H   0  0  0  0  0  0
  -22.7530  -29.2422   19.8595 H   0  0  0  0  0  0
  -25.1289  -36.1938   25.0824 H   0  0  0  0  0  0
  -20.9979  -28.3256   24.1412 H   0  0  0  0  0  0
  -20.5688  -26.2293   23.3608 H   0  0  0  0  0  0
  -21.6644  -26.7452   22.1198 H   0  0  0  0  0  0
  -19.6916  -25.6301   21.1239 H   0  0  0  0  0  0
  -19.6689  -27.3207   20.6755 H   0  0  0  0  0  0
  -17.4204  -26.6685   21.4027 H   0  0  0  0  0  0
  -18.0330  -26.0068   22.9018 H   0  0  0  0  0  0
  -19.7937  -30.7277   24.2264 H   0  0  0  0  0  0
  -17.5014  -31.6268   24.5171 H   0  0  0  0  0  0
  -15.5352  -30.2990   23.7653 H   0  0  0  0  0  0
  -15.8674  -28.0827   22.7058 H   0  0  0  0  0  0
  -24.5901  -30.7068   25.7770 H   0  0  0  0  0  0
  -24.8921  -32.2881   26.4876 H   0  0  0  0  0  0
  -25.8051  -30.8885   27.0215 H   0  0  0  0  0  0
  -26.2894  -29.6763   24.1190 H   0  0  0  0  0  0
  -27.4053  -29.7264   25.4641 H   0  0  0  0  0  0
  -27.8752  -30.4308   23.9351 H   0  0  0  0  0  0
  -27.2678  -33.3613   26.2057 H   0  0  0  0  0  0
  -28.3864  -32.6859   25.0300 H   0  0  0  0  0  0
  -28.0730  -31.8433   26.5392 H   0  0  0  0  0  0
  -28.2586  -38.0107   24.7525 H   0  0  0  0  0  0
  -28.1083  -36.2639   24.6260 H   0  0  0  0  0  0
  -27.2304  -37.1416   25.8865 H   0  0  0  0  0  0
  -20.9359  -29.8753   21.6888 H   0  0  0  0  0  0
  -26.0170  -38.2854   24.1420 H   0  0  0  0  0  0
  -32.2362  -16.7007   21.7429 H   0  0  0  0  0  0
  -31.4706  -20.8906   21.3778 H   0  0  0  0  0  0
  -28.6008  -25.2259   21.7482 H   0  0  0  0  0  0
  -27.0912  -24.9623   20.9684 H   0  0  0  0  0  0
  -29.7879  -23.9650   19.8350 H   0  0  0  0  0  0
  -28.2143  -23.6236   19.1501 H   0  0  0  0  0  0
  -28.8935  -15.5861   20.7881 H   0  0  0  0  0  0
  -28.2473  -20.4605   19.7243 H   0  0  0  0  0  0
  1 25  1  0  0  0
  1 30  2  0  0  0
  1 79  1  0  0  0
  2  3  1  0  0  0
  2 25  1  0  0  0
  2 86  1  0  0  0
  2 87  1  0  0  0
  3  4  1  0  0  0
  3 88  1  0  0  0
  3 89  1  0  0  0
  4  5  1  0  0  0
  4 90  1  0  0  0
  4 91  1  0  0  0
  5  6  1  0  0  0
  5 26  1  0  0  0
  5 92  1  0  0  0
  6 25  1  0  0  0
  6 93  1  0  0  0
  6 94  1  0  0  0
  7  8  2  0  0  0
  7 26  1  0  0  0
  7 29  1  0  0  0
  8  9  1  0  0  0
  8 22  1  0  0  0
  9 10  1  0  0  0
  9 27  2  0  0  0
 10 11  2  0  0  0
 10 15  1  0  0  0
 11 12  1  0  0  0
 11 95  1  0  0  0
 12 13  2  0  0  0
 12 96  1  0  0  0
 13 14  1  0  0  0
 13 31  1  0  0  0
 14 15  2  0  0  0
 14 97  1  0  0  0
 15 98  1  0  0  0
 16 17  2  0  0  0
 16 21  1  0  0  0
 16 31  1  0  0  0
 17 18  1  0  0  0
 17 99  1  0  0  0
 18 19  2  0  0  0
 18100  1  0  0  0
 19 20  1  0  0  0
 19 24  1  0  0  0
 20 21  2  0  0  0
 20101  1  0  0  0
 21 23  1  0  0  0
 22 28  1  0  0  0
 22 32  2  0  0  0
 26 27  1  0  0  0
 28102  1  0  0  0
 28103  1  0  0  0
 29104  1  0  0  0
 29105  1  0  0  0
 33 34  1  0  0  0
 33 66  1  0  0  0
 33 70  2  0  0  0
 34 36  1  0  0  0
 34 59  1  0  0  0
 34106  1  0  0  0
 35 44  2  0  0  0
 35 45  1  0  0  0
 35 68  1  0  0  0
 36 56  1  0  0  0
 36107  1  0  0  0
 37 39  1  0  0  0
 37 47  1  0  0  0
 37 66  1  0  0  0
 37108  1  0  0  0
 38 43  2  0  0  0
 38 46  1  0  0  0
 38 47  1  0  0  0
 39 64  1  0  0  0
 39 67  2  0  0  0
 40 52  1  0  0  0
 40 53  2  0  0  0
 40 58  1  0  0  0
 41109  1  0  0  0
 41110  1  0  0  0
 41111  1  0  0  0
 41 48  1  0  0  0
 42 43  1  0  0  0
 42 66  1  0  0  0
 42112  1  0  0  0
 42113  1  0  0  0
 43 44  1  0  0  0
 44114  1  0  0  0
 45 46  2  0  0  0
 45115  1  0  0  0
 46116  1  0  0  0
 47117  1  0  0  0
 47118  1  0  0  0
 48 56  1  0  0  0
 48 65  1  0  0  0
 48119  1  0  0  0
 49 50  1  0  0  0
 49 53  1  0  0  0
 49 64  1  0  0  0
 49120  1  0  0  0
 50 51  1  0  0  0
 50121  1  0  0  0
 50122  1  0  0  0
 51 52  1  0  0  0
 51123  1  0  0  0
 51124  1  0  0  0
 52125  1  0  0  0
 52126  1  0  0  0
 53 54  1  0  0  0
 54 55  2  0  0  0
 54127  1  0  0  0
 55 57  1  0  0  0
 55128  1  0  0  0
 56 69  2  0  0  0
 57 58  2  0  0  0
 57129  1  0  0  0
 58130  1  0  0  0
 59 60  1  0  0  0
 59 61  1  0  0  0
 59 62  1  0  0  0
 60131  1  0  0  0
 60132  1  0  0  0
 60133  1  0  0  0
 61134  1  0  0  0
 61135  1  0  0  0
 61136  1  0  0  0
 62137  1  0  0  0
 62138  1  0  0  0
 62139  1  0  0  0
 63 65  1  0  0  0
 63140  1  0  0  0
 63141  1  0  0  0
 63142  1  0  0  0
 64143  1  0  0  0
 65144  1  0  0  0
 68 77  1  0  0  0
 71 73  2  0  0  0
 71 75  1  0  0  0
 71145  1  0  0  0
 72 74  1  0  0  0
 72 75  2  0  0  0
 72146  1  0  0  0
 73 76  1  0  0  0
 73 79  1  0  0  0
 74 76  2  0  0  0
 74 80  1  0  0  0
 75 83  1  0  0  0
 76 84  1  0  0  0
 77 78  1  0  0  0
 77147  1  0  0  0
 77148  1  0  0  0
 78149  1  0  0  0
 78150  1  0  0  0
 78 85  1  0  0  0
 79151  1  0  0  0
 80 85  1  0  0  0
 80152  1  0  0  0
 81 85  2  0  0  0
 82 85  2  0  0  0
M  ISO  4   1 100  68 101  77 101  79 100
M  END
> <chiral flag>
0

> <version>
0

> <s_m_source_file>
/data/baiqing/PycharmProjects/Reinvent-master-3.2/result/LINK_invent/BTK/process_docking_weight1_custom_product_contain_oxygen_bond_distance_aromatic_linkinvent_7_9_3/rearranged_h_0070.sdf

> <i_m_source_file_index>
75

> <r_mmod_Potential_Energy-OPLS-2005>
-171.517196655273

> <r_mmod_Stretch_Energy-OPLS-2005>
76.7818069458008

> <r_mmod_Bend_Energy-OPLS-2005>
129.559173583984

> <r_mmod_Torsional_Energy-OPLS-2005>
241.526397705078

> <r_mmod_Improper_Torsional_Energy-OPLS-2005>
8.34000778198242

> <r_mmod_Van_der_Waal_Energy-OPLS-2005>
136.644866943359

> <r_mmod_Electrostatic_Energy-OPLS-2005>
-571.037292480469

> <r_mmod_Solvation_Energy-OPLS-2005>
-241.267822265625

> <b_mmod_Minimization_Converged-OPLS-2005>
0

> <r_mmod_RMS_Derivative-OPLS-2005>
0.493507713079453

$$$$
75
                    3D
 Structure written by MMmdl.
155163  0  0  1  0            999 V2000
  -30.5795  -14.7929   20.4561 C   0  0  0  0  0  0
  -30.4350  -12.4850   19.4937 C   0  0  0  0  0  0
  -29.5166  -12.5327   18.2506 C   0  0  0  0  0  0
  -28.0398  -12.3539   18.6518 C   0  0  0  0  0  0
  -27.6422  -13.2388   19.8632 C   0  0  2  0  0  0
  -28.6829  -13.1728   21.0027 C   0  0  0  0  0  0
  -25.2477  -13.8198   20.5701 C   0  0  0  0  0  0
  -24.1783  -13.0425   20.9197 C   0  0  0  0  0  0
  -24.6380  -11.6904   20.8722 C   0  0  0  0  0  0
  -23.9046  -10.4289   21.0368 C   0  0  0  0  0  0
  -24.3595   -9.4215   21.9159 C   0  0  0  0  0  0
  -23.6271   -8.2253   22.0735 C   0  0  0  0  0  0
  -22.4254   -8.0285   21.3532 C   0  0  0  0  0  0
  -21.9885   -9.0251   20.4627 C   0  0  0  0  0  0
  -22.7207  -10.2133   20.3026 C   0  0  0  0  0  0
  -21.6857   -6.0731   22.5270 C   0  0  0  0  0  0
  -21.4013   -6.5631   23.8205 C   0  0  0  0  0  0
  -21.3667   -5.6782   24.9167 C   0  0  0  0  0  0
  -21.6053   -4.3047   24.7216 C   0  0  0  0  0  0
  -21.8817   -3.8141   23.4332 C   0  0  0  0  0  0
  -21.9190   -4.6959   22.3386 C   0  0  0  0  0  0
  -22.7805  -13.5214   21.1852 C   0  0  0  0  0  0
  -22.1640   -4.2142   21.0957 F   0  0  0  0  0  0
  -21.5642   -3.4530   25.7724 F   0  0  0  0  0  0
  -29.9871  -13.5437   20.4346 N   0  0  0  0  0  0
  -26.2928  -12.9425   20.3335 N   0  0  0  0  0  0
  -25.9325  -11.6553   20.5777 N   0  0  0  0  0  0
  -22.0467  -12.8193   22.0405 N   0  0  0  0  0  0
  -25.4130  -15.1928   20.4115 N   0  0  0  0  0  0
  -31.7347  -14.9172   20.0354 O   0  0  0  0  0  0
  -21.6631   -6.8872   21.4230 O   0  0  0  0  0  0
  -22.3481  -14.5528   20.6711 O   0  0  0  0  0  0
  -24.6394  -31.8500   23.1978 C   0  0  0  0  0  0
  -25.9199  -32.4731   23.8337 C   0  0  1  0  0  0
  -27.2115  -27.2065   20.1383 C   0  0  0  0  0  0
  -25.5975  -33.8533   24.2259 N   0  0  0  0  0  0
  -23.4384  -30.4748   21.5407 C   0  0  2  0  0  0
  -24.8851  -28.9165   20.1096 C   0  0  0  0  0  0
  -22.7543  -29.4602   22.4894 C   0  0  0  0  0  0
  -18.0307  -28.1403   22.8499 C   0  0  0  0  0  0
  -24.1487  -36.7256   23.2647 C   0  0  0  0  0  0
  -25.9908  -30.7427   21.3915 C   0  0  0  0  0  0
  -26.0585  -29.3617   20.7326 C   0  0  0  0  0  0
  -27.2231  -28.5182   20.7410 C   0  0  0  0  0  0
  -26.0235  -26.8619   19.4540 C   0  0  0  0  0  0
  -24.8755  -27.6761   19.4584 C   0  0  0  0  0  0
  -23.6594  -29.8101   20.1571 C   0  0  0  0  0  0
  -25.4119  -36.3055   24.0333 C   0  0  1  0  0  0
  -20.5922  -28.3734   23.1244 C   0  0  2  0  0  0
  -20.6803  -26.9437   22.5407 C   0  0  0  0  0  0
  -19.5756  -26.6390   21.5231 C   0  0  0  0  0  0
  -18.1942  -26.7955   22.1636 C   0  0  0  0  0  0
  -19.1565  -28.8885   23.2868 C   0  0  0  0  0  0
  -18.9476  -30.1488   23.8882 C   0  0  0  0  0  0
  -17.6467  -30.6600   24.0573 C   0  0  0  0  0  0
  -25.9062  -34.9425   23.5095 C   0  0  0  0  0  0
  -16.5358  -29.9091   23.6351 C   0  0  0  0  0  0
  -16.7290  -28.6512   23.0372 C   0  0  0  0  0  0
  -26.4537  -31.6600   25.0765 C   0  0  0  0  0  0
  -25.3735  -31.3749   26.1466 C   0  0  0  0  0  0
  -27.0430  -30.3012   24.6332 C   0  0  0  0  0  0
  -27.6071  -32.4382   25.7530 C   0  0  0  0  0  0
  -27.5578  -37.1783   24.8472 C   0  0  0  0  0  0
  -21.4254  -29.3058   22.3616 N   0  0  0  0  0  0
  -26.4288  -37.3765   23.9424 N   0  0  0  0  0  0
  -24.7087  -31.0426   22.0981 N   0  0  0  0  0  0
  -23.4205  -28.8147   23.3025 O   0  0  0  0  0  0
  -28.2697  -26.2496   20.1976 O   0  0  0  0  0  0
  -26.5621  -34.8912   22.4653 O   0  0  0  0  0  0
  -23.5535  -32.1347   23.7237 O   0  0  0  0  0  0
  -28.4292  -19.4650   18.7484 C   0  0  0  0  0  0
  -28.8692  -17.0451   18.9176 C   0  0  0  0  0  0
  -29.6256  -18.5652   20.6662 C   0  0  0  0  0  0
  -28.3146  -18.1508   18.2368 C   0  0  0  0  0  0
  -29.0894  -19.7465   19.9698 C   0  0  0  0  0  0
  -29.5251  -17.1872   20.1578 C   0  0  0  0  0  0
  -28.8389  -23.7163   20.2313 C   0  0  0  0  0  0
  -27.9894  -24.8293   20.2310 C   0  0  0  0  0  0
  -27.5845  -17.9228   16.9907 C   0  0  0  0  0  0
  -28.3543  -22.2734   20.1459 C   0  0  0  0  0  0
  -26.4014  -18.4961   16.7864 N   0  0  0  0  0  0
  -29.2286  -21.1981   20.3604 N   0  0  0  0  0  0
  -29.8445  -15.9058   20.8668 N   0  0  0  0  0  0
  -28.0868  -17.1265   16.0496 N   0  3  0  0  0  0
  -27.1743  -22.0271   19.8864 O   0  0  0  0  0  0
  -31.4750  -12.6165   19.1917 H   0  0  0  0  0  0
  -30.3873  -11.5054   19.9721 H   0  0  0  0  0  0
  -29.8060  -11.7572   17.5399 H   0  0  0  0  0  0
  -29.6475  -13.4839   17.7327 H   0  0  0  0  0  0
  -27.8907  -11.3022   18.8978 H   0  0  0  0  0  0
  -27.3888  -12.5642   17.8022 H   0  0  0  0  0  0
  -27.6326  -14.2637   19.4961 H   0  0  0  0  0  0
  -28.7250  -12.1720   21.4354 H   0  0  0  0  0  0
  -28.4043  -13.8441   21.8158 H   0  0  0  0  0  0
  -25.2739   -9.5704   22.4740 H   0  0  0  0  0  0
  -23.9986   -7.4642   22.7436 H   0  0  0  0  0  0
  -21.0828   -8.8752   19.8920 H   0  0  0  0  0  0
  -22.3646  -10.9666   19.6133 H   0  0  0  0  0  0
  -21.1996   -7.6127   23.9718 H   0  0  0  0  0  0
  -21.1493   -6.0493   25.9075 H   0  0  0  0  0  0
  -22.0595   -2.7598   23.2824 H   0  0  0  0  0  0
  -22.4089  -11.9841   22.4758 H   0  0  0  0  0  0
  -21.1100  -13.1223   22.2656 H   0  0  0  0  0  0
  -24.6388  -15.8401   20.5131 H   0  0  0  0  0  0
  -26.2622  -15.6374   20.0920 H   0  0  0  0  0  0
  -26.7274  -32.5346   23.1080 H   0  0  0  0  0  0
  -25.0204  -33.9664   25.0461 H   0  0  0  0  0  0
  -22.7405  -31.3013   21.3929 H   0  0  0  0  0  0
  -23.3773  -35.9563   23.3299 H   0  0  0  0  0  0
  -24.3577  -36.8883   22.2061 H   0  0  0  0  0  0
  -23.7205  -37.6439   23.6675 H   0  0  0  0  0  0
  -26.1509  -31.4997   20.6224 H   0  0  0  0  0  0
  -26.8611  -30.7810   22.0357 H   0  0  0  0  0  0
  -28.1173  -28.8497   21.2511 H   0  0  0  0  0  0
  -25.9517  -25.9252   18.9211 H   0  0  0  0  0  0
  -23.9838  -27.3357   18.9517 H   0  0  0  0  0  0
  -23.7882  -30.5851   19.4002 H   0  0  0  0  0  0
  -22.7758  -29.2461   19.8533 H   0  0  0  0  0  0
  -25.1306  -36.1897   25.0826 H   0  0  0  0  0  0
  -21.0024  -28.3316   24.1361 H   0  0  0  0  0  0
  -20.5735  -26.2337   23.3629 H   0  0  0  0  0  0
  -21.6659  -26.7474   22.1161 H   0  0  0  0  0  0
  -19.6911  -25.6296   21.1271 H   0  0  0  0  0  0
  -19.6686  -27.3198   20.6758 H   0  0  0  0  0  0
  -17.4222  -26.6750   21.4025 H   0  0  0  0  0  0
  -18.0299  -26.0082   22.9008 H   0  0  0  0  0  0
  -19.7940  -30.7334   24.2226 H   0  0  0  0  0  0
  -17.5006  -31.6275   24.5180 H   0  0  0  0  0  0
  -15.5357  -30.2979   23.7679 H   0  0  0  0  0  0
  -15.8700  -28.0817   22.7098 H   0  0  0  0  0  0
  -24.5925  -30.7089   25.7784 H   0  0  0  0  0  0
  -24.8911  -32.2912   26.4876 H   0  0  0  0  0  0
  -25.8023  -30.8934   27.0260 H   0  0  0  0  0  0
  -26.3060  -29.6714   24.1329 H   0  0  0  0  0  0
  -27.4065  -29.7333   25.4911 H   0  0  0  0  0  0
  -27.8958  -30.4303   23.9658 H   0  0  0  0  0  0
  -27.2671  -33.3712   26.2038 H   0  0  0  0  0  0
  -28.3889  -32.6893   25.0350 H   0  0  0  0  0  0
  -28.0735  -31.8560   26.5485 H   0  0  0  0  0  0
  -28.2584  -38.0092   24.7549 H   0  0  0  0  0  0
  -28.1082  -36.2624   24.6271 H   0  0  0  0  0  0
  -27.2294  -37.1396   25.8871 H   0  0  0  0  0  0
  -20.9464  -29.8729   21.6762 H   0  0  0  0  0  0
  -26.0160  -38.2835   24.1431 H   0  0  0  0  0  0
  -28.0120  -20.2749   18.1662 H   0  0  0  0  0  0
  -28.7288  -16.0586   18.4999 H   0  0  0  0  0  0
  -30.1051  -18.7165   21.6213 H   0  0  0  0  0  0
  -29.9052  -23.8869   20.2492 H   0  0  0  0  0  0
  -26.9277  -24.6397   20.2557 H   0  0  0  0  0  0
  -25.9800  -19.0375   17.5272 H   0  0  0  0  0  0
  -25.8746  -18.3812   15.9352 H   0  0  0  0  0  0
  -30.1179  -21.4487   20.7687 H   0  0  0  0  0  0
  -29.0979  -15.6263   21.4861 H   0  0  0  0  0  0
  -29.0157  -16.7505   16.1706 H   0  0  0  0  0  0
  -27.6015  -16.9284   15.1888 H   0  0  0  0  0  0
  1 25  1  0  0  0
  1 30  2  0  0  0
  1 83  1  0  0  0
  2  3  1  0  0  0
  2 25  1  0  0  0
  2 86  1  0  0  0
  2 87  1  0  0  0
  3  4  1  0  0  0
  3 88  1  0  0  0
  3 89  1  0  0  0
  4  5  1  0  0  0
  4 90  1  0  0  0
  4 91  1  0  0  0
  5  6  1  0  0  0
  5 26  1  0  0  0
  5 92  1  0  0  0
  6 25  1  0  0  0
  6 93  1  0  0  0
  6 94  1  0  0  0
  7  8  2  0  0  0
  7 26  1  0  0  0
  7 29  1  0  0  0
  8  9  1  0  0  0
  8 22  1  0  0  0
  9 10  1  0  0  0
  9 27  2  0  0  0
 10 11  2  0  0  0
 10 15  1  0  0  0
 11 12  1  0  0  0
 11 95  1  0  0  0
 12 13  2  0  0  0
 12 96  1  0  0  0
 13 14  1  0  0  0
 13 31  1  0  0  0
 14 15  2  0  0  0
 14 97  1  0  0  0
 15 98  1  0  0  0
 16 17  2  0  0  0
 16 21  1  0  0  0
 16 31  1  0  0  0
 17 18  1  0  0  0
 17 99  1  0  0  0
 18 19  2  0  0  0
 18100  1  0  0  0
 19 20  1  0  0  0
 19 24  1  0  0  0
 20 21  2  0  0  0
 20101  1  0  0  0
 21 23  1  0  0  0
 22 28  1  0  0  0
 22 32  2  0  0  0
 26 27  1  0  0  0
 28102  1  0  0  0
 28103  1  0  0  0
 29104  1  0  0  0
 29105  1  0  0  0
 33 34  1  0  0  0
 33 66  1  0  0  0
 33 70  2  0  0  0
 34 36  1  0  0  0
 34 59  1  0  0  0
 34106  1  0  0  0
 35 44  2  0  0  0
 35 45  1  0  0  0
 35 68  1  0  0  0
 36 56  1  0  0  0
 36107  1  0  0  0
 37 39  1  0  0  0
 37 47  1  0  0  0
 37 66  1  0  0  0
 37108  1  0  0  0
 38 43  2  0  0  0
 38 46  1  0  0  0
 38 47  1  0  0  0
 39 64  1  0  0  0
 39 67  2  0  0  0
 40 52  1  0  0  0
 40 53  2  0  0  0
 40 58  1  0  0  0
 41109  1  0  0  0
 41110  1  0  0  0
 41111  1  0  0  0
 41 48  1  0  0  0
 42 43  1  0  0  0
 42 66  1  0  0  0
 42112  1  0  0  0
 42113  1  0  0  0
 43 44  1  0  0  0
 44114  1  0  0  0
 45 46  2  0  0  0
 45115  1  0  0  0
 46116  1  0  0  0
 47117  1  0  0  0
 47118  1  0  0  0
 48 56  1  0  0  0
 48 65  1  0  0  0
 48119  1  0  0  0
 49 50  1  0  0  0
 49 53  1  0  0  0
 49 64  1  0  0  0
 49120  1  0  0  0
 50 51  1  0  0  0
 50121  1  0  0  0
 50122  1  0  0  0
 51 52  1  0  0  0
 51123  1  0  0  0
 51124  1  0  0  0
 52125  1  0  0  0
 52126  1  0  0  0
 53 54  1  0  0  0
 54 55  2  0  0  0
 54127  1  0  0  0
 55 57  1  0  0  0
 55128  1  0  0  0
 56 69  2  0  0  0
 57 58  2  0  0  0
 57129  1  0  0  0
 58130  1  0  0  0
 59 60  1  0  0  0
 59 61  1  0  0  0
 59 62  1  0  0  0
 60131  1  0  0  0
 60132  1  0  0  0
 60133  1  0  0  0
 61134  1  0  0  0
 61135  1  0  0  0
 61136  1  0  0  0
 62137  1  0  0  0
 62138  1  0  0  0
 62139  1  0  0  0
 63 65  1  0  0  0
 63140  1  0  0  0
 63141  1  0  0  0
 63142  1  0  0  0
 64143  1  0  0  0
 65144  1  0  0  0
 68 78  1  0  0  0
 71 74  2  0  0  0
 71 75  1  0  0  0
 71145  1  0  0  0
 72 74  1  0  0  0
 72 76  2  0  0  0
 72146  1  0  0  0
 73 75  2  0  0  0
 73 76  1  0  0  0
 73147  1  0  0  0
 74 79  1  0  0  0
 75 82  1  0  0  0
 76 83  1  0  0  0
 77 78  2  0  0  0
 77 80  1  0  0  0
 77148  1  0  0  0
 78149  1  0  0  0
 79 81  1  0  0  0
 79 84  2  0  0  0
 80 82  1  0  0  0
 80 85  2  0  0  0
 81150  1  0  0  0
 81151  1  0  0  0
 82152  1  0  0  0
 83153  1  0  0  0
 84154  1  0  0  0
 84155  1  0  0  0
M  CHG  1  84   1
M  ISO  4   1 100  68 101  78 101  83 100
M  END
> <chiral flag>
0

> <version>
0

> <s_m_source_file>
/data/baiqing/PycharmProjects/Reinvent-master-3.2/result/LINK_invent/BTK/process_docking_weight1_custom_product_contain_oxygen_bond_distance_aromatic_linkinvent_7_9_3/rearranged_h_0070.sdf

> <i_m_source_file_index>
76

> <r_mmod_Potential_Energy-OPLS-2005>
-93.3492202758789

> <r_mmod_Stretch_Energy-OPLS-2005>
153.157730102539

> <r_mmod_Bend_Energy-OPLS-2005>
173.677810668945

> <r_mmod_Torsional_Energy-OPLS-2005>
276.308380126953

> <r_mmod_Improper_Torsional_Energy-OPLS-2005>
6.50043106079102

> <r_mmod_Van_der_Waal_Energy-OPLS-2005>
139.578491210938

> <r_mmod_Electrostatic_Energy-OPLS-2005>
-492.774353027344

> <r_mmod_Solvation_Energy-OPLS-2005>
-466.680969238281

> <b_mmod_Minimization_Converged-OPLS-2005>
0

> <r_mmod_RMS_Derivative-OPLS-2005>
2.32938003540039

$$$$
76
                    3D
 Structure written by MMmdl.
166175  0  0  1  0            999 V2000
  -30.6005  -14.7043   20.4487 C   0  0  0  0  0  0
  -30.4475  -12.4219   19.4661 C   0  0  0  0  0  0
  -29.5194  -12.4987   18.2331 C   0  0  0  0  0  0
  -28.0430  -12.3341   18.6454 C   0  0  0  0  0  0
  -27.6536  -13.2231   19.8574 C   0  0  2  0  0  0
  -28.6997  -13.1185   20.9897 C   0  0  0  0  0  0
  -25.2562  -13.8193   20.5655 C   0  0  0  0  0  0
  -24.1848  -13.0434   20.9180 C   0  0  0  0  0  0
  -24.6426  -11.6909   20.8714 C   0  0  0  0  0  0
  -23.9091  -10.4299   21.0379 C   0  0  0  0  0  0
  -24.3633   -9.4206   21.9165 C   0  0  0  0  0  0
  -23.6292   -8.2262   22.0760 C   0  0  0  0  0  0
  -22.4264   -8.0312   21.3554 C   0  0  0  0  0  0
  -21.9890   -9.0283   20.4658 C   0  0  0  0  0  0
  -22.7241  -10.2152   20.3045 C   0  0  0  0  0  0
  -21.6867   -6.0732   22.5273 C   0  0  0  0  0  0
  -21.4035   -6.5636   23.8206 C   0  0  0  0  0  0
  -21.3640   -5.6780   24.9165 C   0  0  0  0  0  0
  -21.6038   -4.3045   24.7221 C   0  0  0  0  0  0
  -21.8830   -3.8140   23.4342 C   0  0  0  0  0  0
  -21.9202   -4.6953   22.3388 C   0  0  0  0  0  0
  -22.7869  -13.5223   21.1826 C   0  0  0  0  0  0
  -22.1669   -4.2145   21.0962 F   0  0  0  0  0  0
  -21.5595   -3.4521   25.7727 F   0  0  0  0  0  0
  -30.0125  -13.4643   20.4196 N   0  0  0  0  0  0
  -26.3006  -12.9387   20.3276 N   0  0  0  0  0  0
  -25.9374  -11.6537   20.5756 N   0  0  0  0  0  0
  -22.0490  -12.8256   22.0398 N   0  0  0  0  0  0
  -25.4206  -15.1939   20.4089 N   0  0  0  0  0  0
  -31.7609  -14.8655   20.0563 O   0  0  0  0  0  0
  -21.6641   -6.8894   21.4248 O   0  0  0  0  0  0
  -22.3550  -14.5510   20.6648 O   0  0  0  0  0  0
  -24.6278  -31.8581   23.2010 C   0  0  0  0  0  0
  -25.9129  -32.4769   23.8335 C   0  0  1  0  0  0
  -27.2264  -27.3068   20.0896 C   0  0  0  0  0  0
  -25.5949  -33.8572   24.2284 N   0  0  0  0  0  0
  -23.4203  -30.4828   21.5445 C   0  0  2  0  0  0
  -24.8649  -28.9308   20.1097 C   0  0  0  0  0  0
  -22.7467  -29.4620   22.4923 C   0  0  0  0  0  0
  -18.0298  -28.1371   22.8466 C   0  0  0  0  0  0
  -24.1481  -36.7277   23.2631 C   0  0  0  0  0  0
  -25.9642  -30.7789   21.3769 C   0  0  0  0  0  0
  -26.0351  -29.4058   20.7147 C   0  0  0  0  0  0
  -27.2146  -28.6005   20.7040 C   0  0  0  0  0  0
  -26.0252  -26.8765   19.4858 C   0  0  0  0  0  0
  -24.8600  -27.6684   19.4956 C   0  0  0  0  0  0
  -23.6359  -29.8183   20.1597 C   0  0  0  0  0  0
  -25.4108  -36.3084   24.0332 C   0  0  1  0  0  0
  -20.5894  -28.3679   23.1260 C   0  0  2  0  0  0
  -20.6782  -26.9395   22.5410 C   0  0  0  0  0  0
  -19.5773  -26.6376   21.5188 C   0  0  0  0  0  0
  -18.1949  -26.7919   22.1587 C   0  0  0  0  0  0
  -19.1549  -28.8840   23.2865 C   0  0  0  0  0  0
  -18.9479  -30.1436   23.8896 C   0  0  0  0  0  0
  -17.6479  -30.6563   24.0573 C   0  0  0  0  0  0
  -25.9049  -34.9443   23.5111 C   0  0  0  0  0  0
  -16.5369  -29.9068   23.6325 C   0  0  0  0  0  0
  -16.7286  -28.6487   23.0339 C   0  0  0  0  0  0
  -26.4503  -31.6574   25.0709 C   0  0  0  0  0  0
  -25.3741  -31.3776   26.1457 C   0  0  0  0  0  0
  -27.0316  -30.2976   24.6189 C   0  0  0  0  0  0
  -27.6081  -32.4291   25.7462 C   0  0  0  0  0  0
  -27.5588  -37.1797   24.8455 C   0  0  0  0  0  0
  -21.4187  -29.3032   22.3643 N   0  0  0  0  0  0
  -26.4288  -37.3776   23.9413 N   0  0  0  0  0  0
  -24.6895  -31.0569   22.0978 N   0  0  0  0  0  0
  -23.4176  -28.8171   23.3016 O   0  0  0  0  0  0
  -28.3498  -26.4621   20.1396 O   0  0  0  0  0  0
  -26.5614  -34.8911   22.4671 O   0  0  0  0  0  0
  -23.5441  -32.1398   23.7331 O   0  0  0  0  0  0
  -30.3650  -19.3045   19.3170 C   0  0  0  0  0  0
  -30.5982  -17.9213   19.6241 C   0  0  0  0  0  0
  -28.4492  -19.3179   20.7807 C   0  0  0  0  0  0
  -29.2681  -20.0289   19.8704 C   0  0  0  0  0  0
  -29.7410  -17.1924   20.5000 C   0  0  0  0  0  0
  -28.6788  -17.9419   21.0763 C   0  0  0  0  0  0
  -28.1221  -21.6031   18.2536 C   0  0  0  0  0  0
  -29.1445  -22.7092   20.0254 C   0  0  0  0  0  0
  -28.1613  -23.7836   19.3816 C   0  0  2  0  0  0
  -27.8210  -23.0704   18.0243 C   0  0  0  0  0  0
  -28.7338  -23.4995   16.8529 C   0  0  0  0  0  0
  -26.3319  -23.2204   17.6502 C   0  0  0  0  0  0
  -27.9044  -19.2402   17.2398 C   0  0  0  0  0  0
  -28.5534  -25.3466   19.1841 C   0  0  0  0  0  0
  -28.8524  -21.3841   19.3703 N   0  0  0  0  0  0
  -29.7872  -15.7531   20.8076 N   0  0  0  0  0  0
  -27.6949  -20.6906   17.3399 N   0  3  0  0  0  0
  -27.8199  -17.3024   21.9057 F   0  0  0  0  0  0
  -31.4872  -12.5555   19.1604 H   0  0  0  0  0  0
  -30.3985  -11.4370   19.9339 H   0  0  0  0  0  0
  -29.7900  -11.7311   17.5074 H   0  0  0  0  0  0
  -29.6613  -13.4585   17.7301 H   0  0  0  0  0  0
  -27.8878  -11.2819   18.8944 H   0  0  0  0  0  0
  -27.3917  -12.5431   17.7968 H   0  0  0  0  0  0
  -27.6580  -14.2519   19.4944 H   0  0  0  0  0  0
  -28.7249  -12.1082   21.3995 H   0  0  0  0  0  0
  -28.4394  -13.7732   21.8224 H   0  0  0  0  0  0
  -25.2783   -9.5660   22.4733 H   0  0  0  0  0  0
  -23.9969   -7.4654   22.7483 H   0  0  0  0  0  0
  -21.0805   -8.8834   19.8984 H   0  0  0  0  0  0
  -22.3708  -10.9698   19.6167 H   0  0  0  0  0  0
  -21.2068   -7.6149   23.9720 H   0  0  0  0  0  0
  -21.1419   -6.0498   25.9061 H   0  0  0  0  0  0
  -22.0625   -2.7600   23.2851 H   0  0  0  0  0  0
  -22.4079  -11.9933   22.4827 H   0  0  0  0  0  0
  -21.1120  -13.1357   22.2570 H   0  0  0  0  0  0
  -24.6525  -15.8392   20.5583 H   0  0  0  0  0  0
  -26.2706  -15.6500   20.1092 H   0  0  0  0  0  0
  -26.7183  -32.5430   23.1063 H   0  0  0  0  0  0
  -25.0130  -33.9690   25.0460 H   0  0  0  0  0  0
  -22.7159  -31.3053   21.4025 H   0  0  0  0  0  0
  -23.3751  -35.9605   23.3305 H   0  0  0  0  0  0
  -24.3584  -36.8878   22.2047 H   0  0  0  0  0  0
  -23.7202  -37.6468   23.6643 H   0  0  0  0  0  0
  -26.1044  -31.5448   20.6123 H   0  0  0  0  0  0
  -26.8405  -30.8212   22.0123 H   0  0  0  0  0  0
  -28.1136  -28.9571   21.1876 H   0  0  0  0  0  0
  -25.9582  -25.8998   19.0346 H   0  0  0  0  0  0
  -23.9557  -27.2892   19.0382 H   0  0  0  0  0  0
  -23.7619  -30.5980   19.4080 H   0  0  0  0  0  0
  -22.7517  -29.2587   19.8510 H   0  0  0  0  0  0
  -25.1273  -36.1949   25.0821 H   0  0  0  0  0  0
  -20.9992  -28.3288   24.1377 H   0  0  0  0  0  0
  -20.5632  -26.2300   23.3616 H   0  0  0  0  0  0
  -21.6663  -26.7394   22.1250 H   0  0  0  0  0  0
  -19.6942  -25.6292   21.1200 H   0  0  0  0  0  0
  -19.6719  -27.3188   20.6725 H   0  0  0  0  0  0
  -17.4222  -26.6678   21.3990 H   0  0  0  0  0  0
  -18.0348  -26.0043   22.8954 H   0  0  0  0  0  0
  -19.7957  -30.7257   24.2263 H   0  0  0  0  0  0
  -17.5031  -31.6235   24.5196 H   0  0  0  0  0  0
  -15.5373  -30.2975   23.7641 H   0  0  0  0  0  0
  -15.8685  -28.0804   22.7049 H   0  0  0  0  0  0
  -24.5905  -30.7109   25.7844 H   0  0  0  0  0  0
  -24.8946  -32.2970   26.4830 H   0  0  0  0  0  0
  -25.8072  -30.9019   27.0266 H   0  0  0  0  0  0
  -26.2882  -29.6735   24.1217 H   0  0  0  0  0  0
  -27.3981  -29.7232   25.4708 H   0  0  0  0  0  0
  -27.8775  -30.4224   23.9427 H   0  0  0  0  0  0
  -27.2716  -33.3595   26.2047 H   0  0  0  0  0  0
  -28.3889  -32.6837   25.0284 H   0  0  0  0  0  0
  -28.0747  -31.8403   26.5369 H   0  0  0  0  0  0
  -28.2615  -38.0083   24.7496 H   0  0  0  0  0  0
  -28.1063  -36.2622   24.6264 H   0  0  0  0  0  0
  -27.2325  -37.1429   25.8859 H   0  0  0  0  0  0
  -20.9356  -29.8761   21.6863 H   0  0  0  0  0  0
  -26.0178  -38.2855   24.1414 H   0  0  0  0  0  0
  -31.0013  -19.7940   18.5917 H   0  0  0  0  0  0
  -31.4172  -17.4113   19.1366 H   0  0  0  0  0  0
  -27.5881  -19.8119   21.2069 H   0  0  0  0  0  0
  -29.0327  -22.6476   21.1091 H   0  0  0  0  0  0
  -30.1797  -22.9716   19.8099 H   0  0  0  0  0  0
  -27.2611  -23.7707   19.9960 H   0  0  0  0  0  0
  -29.7829  -23.4914   17.1497 H   0  0  0  0  0  0
  -28.5000  -24.4971   16.4819 H   0  0  0  0  0  0
  -28.6377  -22.8264   16.0011 H   0  0  0  0  0  0
  -25.6911  -22.8456   18.4504 H   0  0  0  0  0  0
  -26.0741  -22.6729   16.7429 H   0  0  0  0  0  0
  -26.0692  -24.2619   17.4728 H   0  0  0  0  0  0
  -27.3554  -18.8463   16.3830 H   0  0  0  0  0  0
  -27.5519  -18.7183   18.1281 H   0  0  0  0  0  0
  -28.9578  -19.0076   17.0805 H   0  0  0  0  0  0
  -28.0687  -25.6913   18.2718 H   0  0  0  0  0  0
  -29.6127  -25.3761   18.9256 H   0  0  0  0  0  0
  -28.9441  -15.4374   21.2646 H   0  0  0  0  0  0
  -27.1507  -21.0642   16.5722 H   0  0  0  0  0  0
  1 25  1  0  0  0
  1 30  2  0  0  0
  1 86  1  0  0  0
  2  3  1  0  0  0
  2 25  1  0  0  0
  2 89  1  0  0  0
  2 90  1  0  0  0
  3  4  1  0  0  0
  3 91  1  0  0  0
  3 92  1  0  0  0
  4  5  1  0  0  0
  4 93  1  0  0  0
  4 94  1  0  0  0
  5  6  1  0  0  0
  5 26  1  0  0  0
  5 95  1  0  0  0
  6 25  1  0  0  0
  6 96  1  0  0  0
  6 97  1  0  0  0
  7  8  2  0  0  0
  7 26  1  0  0  0
  7 29  1  0  0  0
  8  9  1  0  0  0
  8 22  1  0  0  0
  9 10  1  0  0  0
  9 27  2  0  0  0
 10 11  2  0  0  0
 10 15  1  0  0  0
 11 12  1  0  0  0
 11 98  1  0  0  0
 12 13  2  0  0  0
 12 99  1  0  0  0
 13 14  1  0  0  0
 13 31  1  0  0  0
 14 15  2  0  0  0
 14100  1  0  0  0
 15101  1  0  0  0
 16 17  2  0  0  0
 16 21  1  0  0  0
 16 31  1  0  0  0
 17 18  1  0  0  0
 17102  1  0  0  0
 18 19  2  0  0  0
 18103  1  0  0  0
 19 20  1  0  0  0
 19 24  1  0  0  0
 20 21  2  0  0  0
 20104  1  0  0  0
 21 23  1  0  0  0
 22 28  1  0  0  0
 22 32  2  0  0  0
 26 27  1  0  0  0
 28105  1  0  0  0
 28106  1  0  0  0
 29107  1  0  0  0
 29108  1  0  0  0
 33 34  1  0  0  0
 33 66  1  0  0  0
 33 70  2  0  0  0
 34 36  1  0  0  0
 34 59  1  0  0  0
 34109  1  0  0  0
 35 44  2  0  0  0
 35 45  1  0  0  0
 35 68  1  0  0  0
 36 56  1  0  0  0
 36110  1  0  0  0
 37 39  1  0  0  0
 37 47  1  0  0  0
 37 66  1  0  0  0
 37111  1  0  0  0
 38 43  2  0  0  0
 38 46  1  0  0  0
 38 47  1  0  0  0
 39 64  1  0  0  0
 39 67  2  0  0  0
 40 52  1  0  0  0
 40 53  2  0  0  0
 40 58  1  0  0  0
 41112  1  0  0  0
 41113  1  0  0  0
 41114  1  0  0  0
 41 48  1  0  0  0
 42 43  1  0  0  0
 42 66  1  0  0  0
 42115  1  0  0  0
 42116  1  0  0  0
 43 44  1  0  0  0
 44117  1  0  0  0
 45 46  2  0  0  0
 45118  1  0  0  0
 46119  1  0  0  0
 47120  1  0  0  0
 47121  1  0  0  0
 48 56  1  0  0  0
 48 65  1  0  0  0
 48122  1  0  0  0
 49 50  1  0  0  0
 49 53  1  0  0  0
 49 64  1  0  0  0
 49123  1  0  0  0
 50 51  1  0  0  0
 50124  1  0  0  0
 50125  1  0  0  0
 51 52  1  0  0  0
 51126  1  0  0  0
 51127  1  0  0  0
 52128  1  0  0  0
 52129  1  0  0  0
 53 54  1  0  0  0
 54 55  2  0  0  0
 54130  1  0  0  0
 55 57  1  0  0  0
 55131  1  0  0  0
 56 69  2  0  0  0
 57 58  2  0  0  0
 57132  1  0  0  0
 58133  1  0  0  0
 59 60  1  0  0  0
 59 61  1  0  0  0
 59 62  1  0  0  0
 60134  1  0  0  0
 60135  1  0  0  0
 60136  1  0  0  0
 61137  1  0  0  0
 61138  1  0  0  0
 61139  1  0  0  0
 62140  1  0  0  0
 62141  1  0  0  0
 62142  1  0  0  0
 63 65  1  0  0  0
 63143  1  0  0  0
 63144  1  0  0  0
 63145  1  0  0  0
 64146  1  0  0  0
 65147  1  0  0  0
 68 84  1  0  0  0
 71 72  2  0  0  0
 71 74  1  0  0  0
 71148  1  0  0  0
 72 75  1  0  0  0
 72149  1  0  0  0
 73 74  2  0  0  0
 73 76  1  0  0  0
 73150  1  0  0  0
 74 85  1  0  0  0
 75 76  2  0  0  0
 75 86  1  0  0  0
 76 88  1  0  0  0
 77 80  1  0  0  0
 77 85  1  0  0  0
 77 87  2  0  0  0
 78 79  1  0  0  0
 78 85  1  0  0  0
 78151  1  0  0  0
 78152  1  0  0  0
 79 80  1  0  0  0
 79 84  1  0  0  0
 79153  1  0  0  0
 80 81  1  0  0  0
 80 82  1  0  0  0
 81154  1  0  0  0
 81155  1  0  0  0
 81156  1  0  0  0
 82157  1  0  0  0
 82158  1  0  0  0
 82159  1  0  0  0
 83 87  1  0  0  0
 83160  1  0  0  0
 83161  1  0  0  0
 83162  1  0  0  0
 84163  1  0  0  0
 84164  1  0  0  0
 86165  1  0  0  0
 87166  1  0  0  0
M  CHG  1  87   1
M  ISO  4   1 100  68 101  84 101  86 100
M  END
> <chiral flag>
0

> <version>
0

> <s_m_source_file>
/data/baiqing/PycharmProjects/Reinvent-master-3.2/result/LINK_invent/BTK/process_docking_weight1_custom_product_contain_oxygen_bond_distance_aromatic_linkinvent_7_9_3/rearranged_h_0070.sdf

> <i_m_source_file_index>
77

> <r_mmod_Potential_Energy-OPLS-2005>
110.140914916992

> <r_mmod_Stretch_Energy-OPLS-2005>
94.1076507568359

> <r_mmod_Bend_Energy-OPLS-2005>
232.229827880859

> <r_mmod_Torsional_Energy-OPLS-2005>
258.07177734375

> <r_mmod_Improper_Torsional_Energy-OPLS-2005>
5.0442008972168

> <r_mmod_Van_der_Waal_Energy-OPLS-2005>
137.419006347656

> <r_mmod_Electrostatic_Energy-OPLS-2005>
-275.789337158203

> <r_mmod_Solvation_Energy-OPLS-2005>
-405.514434814453

> <b_mmod_Minimization_Converged-OPLS-2005>
0

> <r_mmod_RMS_Derivative-OPLS-2005>
3.71044421195984

$$$$
77
                    3D
 Structure written by MMmdl.
157166  0  0  1  0            999 V2000
  -30.5763  -14.8119   20.4431 C   0  0  0  0  0  0
  -30.4338  -12.4912   19.5028 C   0  0  0  0  0  0
  -29.5179  -12.5146   18.2576 C   0  0  0  0  0  0
  -28.0426  -12.3356   18.6611 C   0  0  0  0  0  0
  -27.6405  -13.2389   19.8572 C   0  0  2  0  0  0
  -28.6795  -13.1927   21.0006 C   0  0  0  0  0  0
  -25.2505  -13.8208   20.5732 C   0  0  0  0  0  0
  -24.1802  -13.0439   20.9225 C   0  0  0  0  0  0
  -24.6398  -11.6922   20.8743 C   0  0  0  0  0  0
  -23.9080  -10.4296   21.0397 C   0  0  0  0  0  0
  -24.3627   -9.4216   21.9179 C   0  0  0  0  0  0
  -23.6303   -8.2248   22.0742 C   0  0  0  0  0  0
  -22.4286   -8.0281   21.3529 C   0  0  0  0  0  0
  -21.9921   -9.0258   20.4637 C   0  0  0  0  0  0
  -22.7244  -10.2140   20.3054 C   0  0  0  0  0  0
  -21.6856   -6.0747   22.5285 C   0  0  0  0  0  0
  -21.4011   -6.5649   23.8219 C   0  0  0  0  0  0
  -21.3660   -5.6801   24.9180 C   0  0  0  0  0  0
  -21.6043   -4.3065   24.7225 C   0  0  0  0  0  0
  -21.8819   -3.8159   23.4345 C   0  0  0  0  0  0
  -21.9188   -4.6976   22.3403 C   0  0  0  0  0  0
  -22.7833  -13.5226   21.1876 C   0  0  0  0  0  0
  -22.1667   -4.2159   21.0980 F   0  0  0  0  0  0
  -21.5624   -3.4542   25.7736 F   0  0  0  0  0  0
  -29.9798  -13.5637   20.4285 N   0  0  0  0  0  0
  -26.2935  -12.9427   20.3316 N   0  0  0  0  0  0
  -25.9337  -11.6563   20.5775 N   0  0  0  0  0  0
  -22.0486  -12.8213   22.0428 N   0  0  0  0  0  0
  -25.4188  -15.1939   20.4187 N   0  0  0  0  0  0
  -31.7445  -14.9150   20.0568 O   0  0  0  0  0  0
  -21.6643   -6.8884   21.4242 O   0  0  0  0  0  0
  -22.3515  -14.5534   20.6731 O   0  0  0  0  0  0
  -24.6364  -31.8509   23.1945 C   0  0  0  0  0  0
  -25.9170  -32.4732   23.8315 C   0  0  1  0  0  0
  -27.2151  -27.2051   20.1365 C   0  0  0  0  0  0
  -25.5939  -33.8536   24.2227 N   0  0  0  0  0  0
  -23.4365  -30.4736   21.5386 C   0  0  2  0  0  0
  -24.8846  -28.9142   20.1096 C   0  0  0  0  0  0
  -22.7536  -29.4585   22.4881 C   0  0  0  0  0  0
  -18.0298  -28.1392   22.8478 C   0  0  0  0  0  0
  -24.1489  -36.7274   23.2642 C   0  0  0  0  0  0
  -25.9879  -30.7457   21.3849 C   0  0  0  0  0  0
  -26.0597  -29.3638   20.7246 C   0  0  0  0  0  0
  -27.2272  -28.5242   20.7245 C   0  0  0  0  0  0
  -26.0166  -26.8450   19.4793 C   0  0  0  0  0  0
  -24.8719  -27.6655   19.4734 C   0  0  0  0  0  0
  -23.6596  -29.8095   20.1554 C   0  0  0  0  0  0
  -25.4116  -36.3055   24.0323 C   0  0  1  0  0  0
  -20.5911  -28.3715   23.1242 C   0  0  2  0  0  0
  -20.6787  -26.9424   22.5402 C   0  0  0  0  0  0
  -19.5765  -26.6382   21.5213 C   0  0  0  0  0  0
  -18.1944  -26.7931   22.1625 C   0  0  0  0  0  0
  -19.1556  -28.8872   23.2857 C   0  0  0  0  0  0
  -18.9477  -30.1467   23.8886 C   0  0  0  0  0  0
  -17.6472  -30.6592   24.0559 C   0  0  0  0  0  0
  -25.9062  -34.9428   23.5079 C   0  0  0  0  0  0
  -16.5364  -29.9086   23.6329 C   0  0  0  0  0  0
  -16.7282  -28.6504   23.0353 C   0  0  0  0  0  0
  -26.4513  -31.6579   25.0727 C   0  0  0  0  0  0
  -25.3713  -31.3760   26.1438 C   0  0  0  0  0  0
  -27.0370  -30.2978   24.6264 C   0  0  0  0  0  0
  -27.6047  -32.4341   25.7509 C   0  0  0  0  0  0
  -27.5575  -37.1792   24.8465 C   0  0  0  0  0  0
  -21.4235  -29.3059   22.3632 N   0  0  0  0  0  0
  -26.4285  -37.3760   23.9410 N   0  0  0  0  0  0
  -24.7064  -31.0439   22.0945 N   0  0  0  0  0  0
  -23.4215  -28.8122   23.3002 O   0  0  0  0  0  0
  -28.2791  -26.2539   20.2126 O   0  0  0  0  0  0
  -26.5641  -34.8910   22.4651 O   0  0  0  0  0  0
  -23.5499  -32.1348   23.7209 O   0  0  0  0  0  0
  -29.1158  -19.5693   18.4249 C   0  0  0  0  0  0
  -29.5119  -17.1525   18.6419 C   0  0  0  0  0  0
  -29.5279  -18.6240   20.5864 C   0  0  0  0  0  0
  -29.2058  -18.2789   17.8571 C   0  0  0  0  0  0
  -29.2836  -19.8598   19.8061 C   0  0  0  0  0  0
  -29.6763  -17.2589   20.0364 C   0  0  0  0  0  0
  -29.5377  -22.5168   19.4342 C   0  0  0  0  0  0
  -28.2966  -22.1179   20.9618 C   0  0  0  0  0  0
  -28.9406  -18.1005   16.4307 C   0  0  0  0  0  0
  -28.9475  -23.5014   20.5110 C   0  0  0  0  0  0
  -27.9850  -24.7564   20.0463 C   0  0  0  0  0  0
  -29.1883  -21.3326   20.1693 N   0  0  0  0  0  0
  -27.8771  -18.6708   15.8678 N   0  0  0  0  0  0
  -29.8292  -15.9532   20.7696 N   0  0  0  0  0  0
  -29.7471  -17.3559   15.6785 N   0  3  0  0  0  0
  -30.0776  -22.6439   18.3516 O   0  0  0  0  0  0
  -27.3674  -21.7804   21.6693 O   0  0  0  0  0  0
  -31.4742  -12.6192   19.2002 H   0  0  0  0  0  0
  -30.3872  -11.5198   19.9975 H   0  0  0  0  0  0
  -29.8105  -11.7310   17.5565 H   0  0  0  0  0  0
  -29.6415  -13.4609   17.7302 H   0  0  0  0  0  0
  -27.9019  -11.2888   18.9296 H   0  0  0  0  0  0
  -27.3893  -12.5206   17.8060 H   0  0  0  0  0  0
  -27.6265  -14.2575   19.4696 H   0  0  0  0  0  0
  -28.7284  -12.1993   21.4482 H   0  0  0  0  0  0
  -28.3944  -13.8726   21.8054 H   0  0  0  0  0  0
  -25.2759   -9.5711   22.4763 H   0  0  0  0  0  0
  -24.0014   -7.4649   22.7471 H   0  0  0  0  0  0
  -21.0849   -8.8789   19.8958 H   0  0  0  0  0  0
  -22.3684  -10.9695   19.6186 H   0  0  0  0  0  0
  -21.2011   -7.6153   23.9725 H   0  0  0  0  0  0
  -21.1481   -6.0527   25.9080 H   0  0  0  0  0  0
  -22.0591   -2.7618   23.2840 H   0  0  0  0  0  0
  -22.4100  -11.9873   22.4827 H   0  0  0  0  0  0
  -21.1102  -13.1252   22.2616 H   0  0  0  0  0  0
  -24.6525  -15.8471   20.5412 H   0  0  0  0  0  0
  -26.2681  -15.6395   20.0957 H   0  0  0  0  0  0
  -26.7231  -32.5360   23.1055 H   0  0  0  0  0  0
  -25.0074  -33.9674   25.0365 H   0  0  0  0  0  0
  -22.7347  -31.2971   21.3908 H   0  0  0  0  0  0
  -23.3753  -35.9605   23.3294 H   0  0  0  0  0  0
  -24.3579  -36.8907   22.2059 H   0  0  0  0  0  0
  -23.7245  -37.6469   23.6675 H   0  0  0  0  0  0
  -26.1372  -31.5046   20.6167 H   0  0  0  0  0  0
  -26.8615  -30.7922   22.0239 H   0  0  0  0  0  0
  -28.1229  -28.8621   21.2279 H   0  0  0  0  0  0
  -25.9260  -25.8939   18.9782 H   0  0  0  0  0  0
  -23.9757  -27.3168   18.9797 H   0  0  0  0  0  0
  -23.7937  -30.5884   19.4036 H   0  0  0  0  0  0
  -22.7747  -29.2525   19.8430 H   0  0  0  0  0  0
  -25.1305  -36.1889   25.0816 H   0  0  0  0  0  0
  -21.0004  -28.3302   24.1365 H   0  0  0  0  0  0
  -20.5684  -26.2336   23.3619 H   0  0  0  0  0  0
  -21.6647  -26.7441   22.1199 H   0  0  0  0  0  0
  -19.6926  -25.6290   21.1256 H   0  0  0  0  0  0
  -19.6694  -27.3177   20.6728 H   0  0  0  0  0  0
  -17.4208  -26.6665   21.4031 H   0  0  0  0  0  0
  -18.0353  -26.0076   22.9028 H   0  0  0  0  0  0
  -19.7959  -30.7282   24.2250 H   0  0  0  0  0  0
  -17.5034  -31.6272   24.5164 H   0  0  0  0  0  0
  -15.5366  -30.2989   23.7663 H   0  0  0  0  0  0
  -15.8683  -28.0821   22.7078 H   0  0  0  0  0  0
  -24.5880  -30.7121   25.7766 H   0  0  0  0  0  0
  -24.8925  -32.2945   26.4835 H   0  0  0  0  0  0
  -25.8015  -30.8949   27.0231 H   0  0  0  0  0  0
  -26.2975  -29.6717   24.1254 H   0  0  0  0  0  0
  -27.3983  -29.7260   25.4824 H   0  0  0  0  0  0
  -27.8887  -30.4231   23.9573 H   0  0  0  0  0  0
  -27.2630  -33.3644   26.2060 H   0  0  0  0  0  0
  -28.3871  -32.6896   25.0350 H   0  0  0  0  0  0
  -28.0694  -31.8483   26.5451 H   0  0  0  0  0  0
  -28.2582  -38.0094   24.7503 H   0  0  0  0  0  0
  -28.1076  -36.2623   24.6294 H   0  0  0  0  0  0
  -27.2294  -37.1447   25.8867 H   0  0  0  0  0  0
  -20.9430  -29.8787   21.6832 H   0  0  0  0  0  0
  -26.0154  -38.2828   24.1411 H   0  0  0  0  0  0
  -28.8945  -20.3802   17.7459 H   0  0  0  0  0  0
  -29.5518  -16.1822   18.1650 H   0  0  0  0  0  0
  -29.6254  -18.7346   21.6570 H   0  0  0  0  0  0
  -29.7005  -23.8340   21.2232 H   0  0  0  0  0  0
  -27.0238  -24.5907   20.5358 H   0  0  0  0  0  0
  -27.7774  -24.6260   18.9831 H   0  0  0  0  0  0
  -27.2171  -19.1638   16.4522 H   0  0  0  0  0  0
  -27.6540  -18.5723   14.8897 H   0  0  0  0  0  0
  -29.0608  -15.7493   21.3920 H   0  0  0  0  0  0
  -30.5901  -16.9787   16.0862 H   0  0  0  0  0  0
  -29.5822  -17.1998   14.6965 H   0  0  0  0  0  0
  1 25  1  0  0  0
  1 30  2  0  0  0
  1 84  1  0  0  0
  2  3  1  0  0  0
  2 25  1  0  0  0
  2 88  1  0  0  0
  2 89  1  0  0  0
  3  4  1  0  0  0
  3 90  1  0  0  0
  3 91  1  0  0  0
  4  5  1  0  0  0
  4 92  1  0  0  0
  4 93  1  0  0  0
  5  6  1  0  0  0
  5 26  1  0  0  0
  5 94  1  0  0  0
  6 25  1  0  0  0
  6 95  1  0  0  0
  6 96  1  0  0  0
  7  8  2  0  0  0
  7 26  1  0  0  0
  7 29  1  0  0  0
  8  9  1  0  0  0
  8 22  1  0  0  0
  9 10  1  0  0  0
  9 27  2  0  0  0
 10 11  2  0  0  0
 10 15  1  0  0  0
 11 12  1  0  0  0
 11 97  1  0  0  0
 12 13  2  0  0  0
 12 98  1  0  0  0
 13 14  1  0  0  0
 13 31  1  0  0  0
 14 15  2  0  0  0
 14 99  1  0  0  0
 15100  1  0  0  0
 16 17  2  0  0  0
 16 21  1  0  0  0
 16 31  1  0  0  0
 17 18  1  0  0  0
 17101  1  0  0  0
 18 19  2  0  0  0
 18102  1  0  0  0
 19 20  1  0  0  0
 19 24  1  0  0  0
 20 21  2  0  0  0
 20103  1  0  0  0
 21 23  1  0  0  0
 22 28  1  0  0  0
 22 32  2  0  0  0
 26 27  1  0  0  0
 28104  1  0  0  0
 28105  1  0  0  0
 29106  1  0  0  0
 29107  1  0  0  0
 33 34  1  0  0  0
 33 66  1  0  0  0
 33 70  2  0  0  0
 34 36  1  0  0  0
 34 59  1  0  0  0
 34108  1  0  0  0
 35 44  2  0  0  0
 35 45  1  0  0  0
 35 68  1  0  0  0
 36 56  1  0  0  0
 36109  1  0  0  0
 37 39  1  0  0  0
 37 47  1  0  0  0
 37 66  1  0  0  0
 37110  1  0  0  0
 38 43  2  0  0  0
 38 46  1  0  0  0
 38 47  1  0  0  0
 39 64  1  0  0  0
 39 67  2  0  0  0
 40 52  1  0  0  0
 40 53  2  0  0  0
 40 58  1  0  0  0
 41111  1  0  0  0
 41112  1  0  0  0
 41113  1  0  0  0
 41 48  1  0  0  0
 42 43  1  0  0  0
 42 66  1  0  0  0
 42114  1  0  0  0
 42115  1  0  0  0
 43 44  1  0  0  0
 44116  1  0  0  0
 45 46  2  0  0  0
 45117  1  0  0  0
 46118  1  0  0  0
 47119  1  0  0  0
 47120  1  0  0  0
 48 56  1  0  0  0
 48 65  1  0  0  0
 48121  1  0  0  0
 49 50  1  0  0  0
 49 53  1  0  0  0
 49 64  1  0  0  0
 49122  1  0  0  0
 50 51  1  0  0  0
 50123  1  0  0  0
 50124  1  0  0  0
 51 52  1  0  0  0
 51125  1  0  0  0
 51126  1  0  0  0
 52127  1  0  0  0
 52128  1  0  0  0
 53 54  1  0  0  0
 54 55  2  0  0  0
 54129  1  0  0  0
 55 57  1  0  0  0
 55130  1  0  0  0
 56 69  2  0  0  0
 57 58  2  0  0  0
 57131  1  0  0  0
 58132  1  0  0  0
 59 60  1  0  0  0
 59 61  1  0  0  0
 59 62  1  0  0  0
 60133  1  0  0  0
 60134  1  0  0  0
 60135  1  0  0  0
 61136  1  0  0  0
 61137  1  0  0  0
 61138  1  0  0  0
 62139  1  0  0  0
 62140  1  0  0  0
 62141  1  0  0  0
 63 65  1  0  0  0
 63142  1  0  0  0
 63143  1  0  0  0
 63144  1  0  0  0
 64145  1  0  0  0
 65146  1  0  0  0
 68 81  1  0  0  0
 71 74  2  0  0  0
 71 75  1  0  0  0
 71147  1  0  0  0
 72 74  1  0  0  0
 72 76  2  0  0  0
 72148  1  0  0  0
 73 75  2  0  0  0
 73 76  1  0  0  0
 73149  1  0  0  0
 74 79  1  0  0  0
 75 82  1  0  0  0
 76 84  1  0  0  0
 77 80  1  0  0  0
 77 82  1  0  0  0
 77 86  2  0  0  0
 78 80  1  0  0  0
 78 82  1  0  0  0
 78 87  2  0  0  0
 79 83  1  0  0  0
 79 85  2  0  0  0
 80 81  1  0  0  0
 80150  1  0  0  0
 81151  1  0  0  0
 81152  1  0  0  0
 83153  1  0  0  0
 83154  1  0  0  0
 84155  1  0  0  0
 85156  1  0  0  0
 85157  1  0  0  0
M  CHG  1  85   1
M  ISO  4   1 100  68 101  81 101  84 100
M  END
> <chiral flag>
0

> <version>
0

> <s_m_source_file>
/data/baiqing/PycharmProjects/Reinvent-master-3.2/result/LINK_invent/BTK/process_docking_weight1_custom_product_contain_oxygen_bond_distance_aromatic_linkinvent_7_9_3/rearranged_h_0070.sdf

> <i_m_source_file_index>
78

> <r_mmod_Potential_Energy-OPLS-2005>
-113.337127685547

> <r_mmod_Stretch_Energy-OPLS-2005>
173.496032714844

> <r_mmod_Bend_Energy-OPLS-2005>
212.706314086914

> <r_mmod_Torsional_Energy-OPLS-2005>
254.81477355957

> <r_mmod_Improper_Torsional_Energy-OPLS-2005>
6.35467481613159

> <r_mmod_Van_der_Waal_Energy-OPLS-2005>
133.897994995117

> <r_mmod_Electrostatic_Energy-OPLS-2005>
-535.178771972656

> <r_mmod_Solvation_Energy-OPLS-2005>
-481.346527099609

> <b_mmod_Minimization_Converged-OPLS-2005>
0

> <r_mmod_RMS_Derivative-OPLS-2005>
2.14215636253357

$$$$
78
                    3D
 Structure written by MMmdl.
153161  0  0  1  0            999 V2000
  -30.5095  -14.9220   20.4314 C   0  0  0  0  0  0
  -30.4522  -12.5682   19.4907 C   0  0  0  0  0  0
  -29.5236  -12.5315   18.2524 C   0  0  0  0  0  0
  -28.0543  -12.3182   18.6698 C   0  0  0  0  0  0
  -27.6341  -13.2401   19.8446 C   0  0  2  0  0  0
  -28.6799  -13.2221   20.9808 C   0  0  0  0  0  0
  -25.2435  -13.8151   20.5694 C   0  0  0  0  0  0
  -24.1757  -13.0376   20.9195 C   0  0  0  0  0  0
  -24.6390  -11.6877   20.8738 C   0  0  0  0  0  0
  -23.9073  -10.4258   21.0401 C   0  0  0  0  0  0
  -24.3620   -9.4179   21.9186 C   0  0  0  0  0  0
  -23.6287   -8.2222   22.0757 C   0  0  0  0  0  0
  -22.4267   -8.0268   21.3548 C   0  0  0  0  0  0
  -21.9909   -9.0238   20.4645 C   0  0  0  0  0  0
  -22.7245  -10.2109   20.3049 C   0  0  0  0  0  0
  -21.6845   -6.0734   22.5286 C   0  0  0  0  0  0
  -21.4009   -6.5639   23.8217 C   0  0  0  0  0  0
  -21.3658   -5.6790   24.9178 C   0  0  0  0  0  0
  -21.6039   -4.3055   24.7228 C   0  0  0  0  0  0
  -21.8817   -3.8147   23.4350 C   0  0  0  0  0  0
  -21.9186   -4.6963   22.3407 C   0  0  0  0  0  0
  -22.7780  -13.5162   21.1872 C   0  0  0  0  0  0
  -22.1655   -4.2151   21.0984 F   0  0  0  0  0  0
  -21.5629   -3.4537   25.7738 F   0  0  0  0  0  0
  -29.9627  -13.6423   20.3966 N   0  0  0  0  0  0
  -26.2898  -12.9403   20.3270 N   0  0  0  0  0  0
  -25.9329  -11.6532   20.5743 N   0  0  0  0  0  0
  -22.0433  -12.8162   22.0444 N   0  0  0  0  0  0
  -25.3960  -15.1876   20.4184 N   0  0  0  0  0  0
  -31.7030  -15.0553   20.1380 O   0  0  0  0  0  0
  -21.6626   -6.8873   21.4247 O   0  0  0  0  0  0
  -22.3455  -14.5476   20.6730 O   0  0  0  0  0  0
  -24.6437  -31.8464   23.1895 C   0  0  0  0  0  0
  -25.9207  -32.4703   23.8293 C   0  0  1  0  0  0
  -27.2138  -27.1437   20.1472 C   0  0  0  0  0  0
  -25.5963  -33.8511   24.2215 N   0  0  0  0  0  0
  -23.4472  -30.4663   21.5350 C   0  0  2  0  0  0
  -24.8965  -28.8970   20.1128 C   0  0  0  0  0  0
  -22.7580  -29.4555   22.4856 C   0  0  0  0  0  0
  -18.0305  -28.1399   22.8468 C   0  0  0  0  0  0
  -24.1491  -36.7253   23.2642 C   0  0  0  0  0  0
  -26.0043  -30.7206   21.3902 C   0  0  0  0  0  0
  -26.0747  -29.3326   20.7325 C   0  0  0  0  0  0
  -27.2365  -28.4720   20.7333 C   0  0  0  0  0  0
  -26.0139  -26.8193   19.4754 C   0  0  0  0  0  0
  -24.8780  -27.6532   19.4692 C   0  0  0  0  0  0
  -23.6748  -29.7988   20.1543 C   0  0  0  0  0  0
  -25.4117  -36.3033   24.0325 C   0  0  1  0  0  0
  -20.5924  -28.3726   23.1225 C   0  0  2  0  0  0
  -20.6791  -26.9427   22.5390 C   0  0  0  0  0  0
  -19.5758  -26.6376   21.5208 C   0  0  0  0  0  0
  -18.1942  -26.7937   22.1620 C   0  0  0  0  0  0
  -19.1564  -28.8878   23.2846 C   0  0  0  0  0  0
  -18.9486  -30.1475   23.8872 C   0  0  0  0  0  0
  -17.6480  -30.6595   24.0557 C   0  0  0  0  0  0
  -25.9067  -34.9412   23.5073 C   0  0  0  0  0  0
  -16.5370  -29.9087   23.6338 C   0  0  0  0  0  0
  -16.7291  -28.6507   23.0355 C   0  0  0  0  0  0
  -26.4531  -31.6569   25.0730 C   0  0  0  0  0  0
  -25.3725  -31.3774   26.1436 C   0  0  0  0  0  0
  -27.0384  -30.2960   24.6304 C   0  0  0  0  0  0
  -27.6079  -32.4324   25.7500 C   0  0  0  0  0  0
  -27.5579  -37.1776   24.8470 C   0  0  0  0  0  0
  -21.4270  -29.3061   22.3614 N   0  0  0  0  0  0
  -26.4283  -37.3747   23.9415 N   0  0  0  0  0  0
  -24.7182  -31.0324   22.0930 N   0  0  0  0  0  0
  -23.4231  -28.8088   23.2990 O   0  0  0  0  0  0
  -28.2554  -26.1482   20.1904 O   0  0  0  0  0  0
  -26.5641  -34.8909   22.4643 O   0  0  0  0  0  0
  -23.5550  -32.1335   23.7100 O   0  0  0  0  0  0
  -30.5723  -18.5543   20.4775 C   0  0  0  0  0  0
  -27.9927  -19.5495   20.4667 C   0  0  0  0  0  0
  -30.3126  -20.0049   20.4672 C   0  0  0  0  0  0
  -29.5530  -17.5361   20.5057 C   0  0  0  0  0  0
  -28.9799  -20.5883   20.4543 C   0  0  0  0  0  0
  -28.2546  -18.1305   20.4944 C   0  0  0  0  0  0
  -31.5005  -20.8826   20.6044 C   0  0  0  0  0  0
  -28.8828  -23.3682   20.1936 C   0  0  0  0  0  0
  -32.6205  -20.6725   19.5965 C   0  0  0  0  0  0
  -27.8817  -24.6598   20.4515 C   0  0  0  0  0  0
  -28.4795  -22.0463   20.5164 N   0  0  0  0  0  0
  -29.6261  -16.0094   20.6165 N   0  0  0  0  0  0
  -31.6221  -21.7383   21.4850 O   0  0  0  0  0  0
  -29.9807  -23.5807   19.6725 O   0  0  0  0  0  0
  -27.1943  -17.2905   20.5237 F   0  0  0  0  0  0
  -31.4843  -12.7408   19.1815 H   0  0  0  0  0  0
  -30.4517  -11.6048   20.0035 H   0  0  0  0  0  0
  -29.8370  -11.7415   17.5685 H   0  0  0  0  0  0
  -29.6134  -13.4681   17.6999 H   0  0  0  0  0  0
  -27.9491  -11.2748   18.9696 H   0  0  0  0  0  0
  -27.3895  -12.4570   17.8167 H   0  0  0  0  0  0
  -27.6046  -14.2504   19.4352 H   0  0  0  0  0  0
  -28.7585  -12.2245   21.4168 H   0  0  0  0  0  0
  -28.3826  -13.8869   21.7934 H   0  0  0  0  0  0
  -25.2762   -9.5654   22.4766 H   0  0  0  0  0  0
  -23.9986   -7.4612   22.7478 H   0  0  0  0  0  0
  -21.0839   -8.8758   19.8952 H   0  0  0  0  0  0
  -22.3708  -10.9648   19.6157 H   0  0  0  0  0  0
  -21.2001   -7.6146   23.9726 H   0  0  0  0  0  0
  -21.1481   -6.0519   25.9083 H   0  0  0  0  0  0
  -22.0597   -2.7607   23.2847 H   0  0  0  0  0  0
  -22.4040  -11.9814   22.4829 H   0  0  0  0  0  0
  -21.1055  -13.1202   22.2667 H   0  0  0  0  0  0
  -24.6206  -15.8210   20.5704 H   0  0  0  0  0  0
  -26.2524  -15.6834   20.1966 H   0  0  0  0  0  0
  -26.7274  -32.5320   23.1029 H   0  0  0  0  0  0
  -25.0137  -33.9637   25.0377 H   0  0  0  0  0  0
  -22.7493  -31.2924   21.3793 H   0  0  0  0  0  0
  -23.3777  -35.9567   23.3272 H   0  0  0  0  0  0
  -24.3585  -36.8903   22.2066 H   0  0  0  0  0  0
  -23.7224  -37.6430   23.6689 H   0  0  0  0  0  0
  -26.1618  -31.4750   20.6182 H   0  0  0  0  0  0
  -26.8749  -30.7694   22.0325 H   0  0  0  0  0  0
  -28.1342  -28.7991   21.2391 H   0  0  0  0  0  0
  -25.9200  -25.8865   18.9412 H   0  0  0  0  0  0
  -23.9828  -27.3195   18.9634 H   0  0  0  0  0  0
  -23.8151  -30.5736   19.3999 H   0  0  0  0  0  0
  -22.7912  -29.2411   19.8392 H   0  0  0  0  0  0
  -25.1301  -36.1867   25.0819 H   0  0  0  0  0  0
  -21.0007  -28.3300   24.1352 H   0  0  0  0  0  0
  -20.5677  -26.2343   23.3612 H   0  0  0  0  0  0
  -21.6653  -26.7424   22.1185 H   0  0  0  0  0  0
  -19.6920  -25.6280   21.1249 H   0  0  0  0  0  0
  -19.6689  -27.3179   20.6731 H   0  0  0  0  0  0
  -17.4205  -26.6680   21.4031 H   0  0  0  0  0  0
  -18.0340  -26.0093   22.9030 H   0  0  0  0  0  0
  -19.7970  -30.7291   24.2227 H   0  0  0  0  0  0
  -17.5045  -31.6274   24.5162 H   0  0  0  0  0  0
  -15.5375  -30.2984   23.7682 H   0  0  0  0  0  0
  -15.8693  -28.0818   22.7086 H   0  0  0  0  0  0
  -24.5859  -30.7177   25.7746 H   0  0  0  0  0  0
  -24.8983  -32.2977   26.4860 H   0  0  0  0  0  0
  -25.8001  -30.8916   27.0220 H   0  0  0  0  0  0
  -26.2993  -29.6681   24.1306 H   0  0  0  0  0  0
  -27.3999  -29.7245   25.4867 H   0  0  0  0  0  0
  -27.8909  -30.4192   23.9620 H   0  0  0  0  0  0
  -27.2701  -33.3670   26.1989 H   0  0  0  0  0  0
  -28.3934  -32.6797   25.0345 H   0  0  0  0  0  0
  -28.0699  -31.8503   26.5482 H   0  0  0  0  0  0
  -28.2570  -38.0094   24.7516 H   0  0  0  0  0  0
  -28.1092  -36.2618   24.6284 H   0  0  0  0  0  0
  -27.2298  -37.1409   25.8872 H   0  0  0  0  0  0
  -20.9482  -29.8805   21.6820 H   0  0  0  0  0  0
  -26.0152  -38.2814   24.1424 H   0  0  0  0  0  0
  -31.5987  -18.2169   20.5175 H   0  0  0  0  0  0
  -26.9524  -19.8406   20.4748 H   0  0  0  0  0  0
  -33.3589  -19.9788   19.9956 H   0  0  0  0  0  0
  -33.1116  -21.6206   19.3789 H   0  0  0  0  0  0
  -32.2233  -20.2700   18.6651 H   0  0  0  0  0  0
  -27.5924  -24.6080   21.5015 H   0  0  0  0  0  0
  -26.9810  -24.3970   19.9041 H   0  0  0  0  0  0
  -27.5240  -22.0855   20.8476 H   0  0  0  0  0  0
  -28.7055  -15.6406   20.8021 H   0  0  0  0  0  0
  1 25  1  0  0  0
  1 30  2  0  0  0
  1 82  1  0  0  0
  2  3  1  0  0  0
  2 25  1  0  0  0
  2 86  1  0  0  0
  2 87  1  0  0  0
  3  4  1  0  0  0
  3 88  1  0  0  0
  3 89  1  0  0  0
  4  5  1  0  0  0
  4 90  1  0  0  0
  4 91  1  0  0  0
  5  6  1  0  0  0
  5 26  1  0  0  0
  5 92  1  0  0  0
  6 25  1  0  0  0
  6 93  1  0  0  0
  6 94  1  0  0  0
  7  8  2  0  0  0
  7 26  1  0  0  0
  7 29  1  0  0  0
  8  9  1  0  0  0
  8 22  1  0  0  0
  9 10  1  0  0  0
  9 27  2  0  0  0
 10 11  2  0  0  0
 10 15  1  0  0  0
 11 12  1  0  0  0
 11 95  1  0  0  0
 12 13  2  0  0  0
 12 96  1  0  0  0
 13 14  1  0  0  0
 13 31  1  0  0  0
 14 15  2  0  0  0
 14 97  1  0  0  0
 15 98  1  0  0  0
 16 17  2  0  0  0
 16 21  1  0  0  0
 16 31  1  0  0  0
 17 18  1  0  0  0
 17 99  1  0  0  0
 18 19  2  0  0  0
 18100  1  0  0  0
 19 20  1  0  0  0
 19 24  1  0  0  0
 20 21  2  0  0  0
 20101  1  0  0  0
 21 23  1  0  0  0
 22 28  1  0  0  0
 22 32  2  0  0  0
 26 27  1  0  0  0
 28102  1  0  0  0
 28103  1  0  0  0
 29104  1  0  0  0
 29105  1  0  0  0
 33 34  1  0  0  0
 33 66  1  0  0  0
 33 70  2  0  0  0
 34 36  1  0  0  0
 34 59  1  0  0  0
 34106  1  0  0  0
 35 44  2  0  0  0
 35 45  1  0  0  0
 35 68  1  0  0  0
 36 56  1  0  0  0
 36107  1  0  0  0
 37 39  1  0  0  0
 37 47  1  0  0  0
 37 66  1  0  0  0
 37108  1  0  0  0
 38 43  2  0  0  0
 38 46  1  0  0  0
 38 47  1  0  0  0
 39 64  1  0  0  0
 39 67  2  0  0  0
 40 52  1  0  0  0
 40 53  2  0  0  0
 40 58  1  0  0  0
 41109  1  0  0  0
 41110  1  0  0  0
 41111  1  0  0  0
 41 48  1  0  0  0
 42 43  1  0  0  0
 42 66  1  0  0  0
 42112  1  0  0  0
 42113  1  0  0  0
 43 44  1  0  0  0
 44114  1  0  0  0
 45 46  2  0  0  0
 45115  1  0  0  0
 46116  1  0  0  0
 47117  1  0  0  0
 47118  1  0  0  0
 48 56  1  0  0  0
 48 65  1  0  0  0
 48119  1  0  0  0
 49 50  1  0  0  0
 49 53  1  0  0  0
 49 64  1  0  0  0
 49120  1  0  0  0
 50 51  1  0  0  0
 50121  1  0  0  0
 50122  1  0  0  0
 51 52  1  0  0  0
 51123  1  0  0  0
 51124  1  0  0  0
 52125  1  0  0  0
 52126  1  0  0  0
 53 54  1  0  0  0
 54 55  2  0  0  0
 54127  1  0  0  0
 55 57  1  0  0  0
 55128  1  0  0  0
 56 69  2  0  0  0
 57 58  2  0  0  0
 57129  1  0  0  0
 58130  1  0  0  0
 59 60  1  0  0  0
 59 61  1  0  0  0
 59 62  1  0  0  0
 60131  1  0  0  0
 60132  1  0  0  0
 60133  1  0  0  0
 61134  1  0  0  0
 61135  1  0  0  0
 61136  1  0  0  0
 62137  1  0  0  0
 62138  1  0  0  0
 62139  1  0  0  0
 63 65  1  0  0  0
 63140  1  0  0  0
 63141  1  0  0  0
 63142  1  0  0  0
 64143  1  0  0  0
 65144  1  0  0  0
 68 80  1  0  0  0
 71 73  2  0  0  0
 71 74  1  0  0  0
 71145  1  0  0  0
 72 75  2  0  0  0
 72 76  1  0  0  0
 72146  1  0  0  0
 73 75  1  0  0  0
 73 77  1  0  0  0
 74 76  2  0  0  0
 74 82  1  0  0  0
 75 81  1  0  0  0
 76 85  1  0  0  0
 77 79  1  0  0  0
 77 83  2  0  0  0
 78 80  1  0  0  0
 78 81  1  0  0  0
 78 84  2  0  0  0
 79147  1  0  0  0
 79148  1  0  0  0
 79149  1  0  0  0
 80150  1  0  0  0
 80151  1  0  0  0
 81152  1  0  0  0
 82153  1  0  0  0
M  ISO  4   1 100  68 101  80 101  82 100
M  END
> <chiral flag>
0

> <version>
0

> <s_m_source_file>
/data/baiqing/PycharmProjects/Reinvent-master-3.2/result/LINK_invent/BTK/process_docking_weight1_custom_product_contain_oxygen_bond_distance_aromatic_linkinvent_7_9_3/rearranged_h_0070.sdf

> <i_m_source_file_index>
79

> <r_mmod_Potential_Energy-OPLS-2005>
440.703125

> <r_mmod_Stretch_Energy-OPLS-2005>
220.421966552734

> <r_mmod_Bend_Energy-OPLS-2005>
283.79052734375

> <r_mmod_Torsional_Energy-OPLS-2005>
273.601257324219

> <r_mmod_Improper_Torsional_Energy-OPLS-2005>
4.94554758071899

> <r_mmod_Van_der_Waal_Energy-OPLS-2005>
130.716598510742

> <r_mmod_Electrostatic_Energy-OPLS-2005>
-401.287414550781

> <r_mmod_Solvation_Energy-OPLS-2005>
-253.816207885742

> <b_mmod_Minimization_Converged-OPLS-2005>
0

> <r_mmod_RMS_Derivative-OPLS-2005>
1.39112138748169

$$$$
79
                    3D
 Structure written by MMmdl.
161170  0  0  1  0            999 V2000
  -30.6431  -14.6637   20.5019 C   0  0  0  0  0  0
  -30.4408  -12.4106   19.4555 C   0  0  0  0  0  0
  -29.5095  -12.5167   18.2272 C   0  0  0  0  0  0
  -28.0341  -12.3444   18.6412 C   0  0  0  0  0  0
  -27.6501  -13.2213   19.8633 C   0  0  2  0  0  0
  -28.7013  -13.0998   20.9927 C   0  0  0  0  0  0
  -25.2398  -13.7996   20.5578 C   0  0  0  0  0  0
  -24.1751  -13.0285   20.9220 C   0  0  0  0  0  0
  -24.6403  -11.6805   20.8786 C   0  0  0  0  0  0
  -23.9083  -10.4209   21.0422 C   0  0  0  0  0  0
  -24.3624   -9.4138   21.9208 C   0  0  0  0  0  0
  -23.6281   -8.2192   22.0772 C   0  0  0  0  0  0
  -22.4270   -8.0248   21.3549 C   0  0  0  0  0  0
  -21.9913   -9.0219   20.4650 C   0  0  0  0  0  0
  -22.7257  -10.2082   20.3059 C   0  0  0  0  0  0
  -21.6837   -6.0725   22.5286 C   0  0  0  0  0  0
  -21.3993   -6.5630   23.8218 C   0  0  0  0  0  0
  -21.3654   -5.6789   24.9182 C   0  0  0  0  0  0
  -21.6045   -4.3052   24.7232 C   0  0  0  0  0  0
  -21.8821   -3.8144   23.4352 C   0  0  0  0  0  0
  -21.9188   -4.6957   22.3409 C   0  0  0  0  0  0
  -22.7779  -13.5111   21.1869 C   0  0  0  0  0  0
  -22.1663   -4.2151   21.0986 F   0  0  0  0  0  0
  -21.5634   -3.4534   25.7743 F   0  0  0  0  0  0
  -30.0184  -13.4414   20.4267 N   0  0  0  0  0  0
  -26.2958  -12.9306   20.3325 N   0  0  0  0  0  0
  -25.9354  -11.6456   20.5823 N   0  0  0  0  0  0
  -22.0422  -12.8145   22.0451 N   0  0  0  0  0  0
  -25.3721  -15.1639   20.3696 N   0  0  0  0  0  0
  -31.8060  -14.8108   20.1180 O   0  0  0  0  0  0
  -21.6616   -6.8863   21.4247 O   0  0  0  0  0  0
  -22.3481  -14.5427   20.6710 O   0  0  0  0  0  0
  -24.6257  -31.8599   23.2033 C   0  0  0  0  0  0
  -25.9113  -32.4774   23.8361 C   0  0  1  0  0  0
  -27.2383  -27.3314   20.1241 C   0  0  0  0  0  0
  -25.5933  -33.8574   24.2288 N   0  0  0  0  0  0
  -23.4200  -30.4826   21.5444 C   0  0  2  0  0  0
  -24.8707  -28.9358   20.1150 C   0  0  0  0  0  0
  -22.7470  -29.4631   22.4936 C   0  0  0  0  0  0
  -18.0284  -28.1393   22.8486 C   0  0  0  0  0  0
  -24.1486  -36.7289   23.2641 C   0  0  0  0  0  0
  -25.9596  -30.7940   21.3747 C   0  0  0  0  0  0
  -26.0373  -29.4211   20.7198 C   0  0  0  0  0  0
  -27.2241  -28.6319   20.7132 C   0  0  0  0  0  0
  -26.0526  -26.8998   19.4867 C   0  0  0  0  0  0
  -24.8795  -27.6793   19.4894 C   0  0  0  0  0  0
  -23.6369  -29.8142   20.1609 C   0  0  0  0  0  0
  -25.4111  -36.3079   24.0331 C   0  0  1  0  0  0
  -20.5885  -28.3699   23.1273 C   0  0  2  0  0  0
  -20.6777  -26.9420   22.5406 C   0  0  0  0  0  0
  -19.5749  -26.6390   21.5214 C   0  0  0  0  0  0
  -18.1928  -26.7940   22.1621 C   0  0  0  0  0  0
  -19.1537  -28.8863   23.2879 C   0  0  0  0  0  0
  -18.9461  -30.1466   23.8895 C   0  0  0  0  0  0
  -17.6460  -30.6591   24.0574 C   0  0  0  0  0  0
  -25.9048  -34.9447   23.5106 C   0  0  0  0  0  0
  -16.5350  -29.9090   23.6341 C   0  0  0  0  0  0
  -16.7270  -28.6511   23.0354 C   0  0  0  0  0  0
  -26.4507  -31.6579   25.0726 C   0  0  0  0  0  0
  -25.3749  -31.3698   26.1454 C   0  0  0  0  0  0
  -27.0360  -30.3003   24.6186 C   0  0  0  0  0  0
  -27.6054  -32.4321   25.7508 C   0  0  0  0  0  0
  -27.5577  -37.1797   24.8467 C   0  0  0  0  0  0
  -21.4188  -29.3048   22.3665 N   0  0  0  0  0  0
  -26.4287  -37.3774   23.9413 N   0  0  0  0  0  0
  -24.6868  -31.0620   22.0979 N   0  0  0  0  0  0
  -23.4188  -28.8178   23.3027 O   0  0  0  0  0  0
  -28.3681  -26.4996   20.1384 O   0  0  0  0  0  0
  -26.5612  -34.8916   22.4669 O   0  0  0  0  0  0
  -23.5423  -32.1387   23.7365 O   0  0  0  0  0  0
  -28.7905  -19.3995   20.6294 C   0  0  0  0  0  0
  -31.1696  -17.9290   20.5907 C   0  0  0  0  0  0
  -28.7785  -17.9811   20.7551 C   0  0  0  0  0  0
  -29.9827  -20.1452   20.4934 C   0  0  0  0  0  0
  -29.9631  -17.1886   20.7234 C   0  0  0  0  0  0
  -31.1819  -19.3589   20.4863 C   0  0  0  0  0  0
  -30.5379  -23.8780   20.7332 C   0  0  0  0  0  0
  -31.0582  -22.4319   20.7952 C   0  0  0  0  0  0
  -28.7298  -22.4408   20.2886 C   0  0  0  0  0  0
  -29.1699  -23.9472   20.0553 C   0  0  1  0  0  0
  -27.4313  -17.3184   20.8782 C   0  0  0  0  0  0
  -28.1867  -25.0937   20.5823 C   0  0  0  0  0  0
  -29.9471  -21.5857   20.3568 N   0  0  0  0  0  0
  -29.8485  -15.7248   20.8583 N   0  0  0  0  0  0
  -29.4481  -24.1488   18.6195 N   0  3  0  0  0  0
  -31.1786  -24.8612   21.1111 O   0  0  0  0  0  0
  -32.3838  -19.9724   20.3572 F   0  0  0  0  0  0
  -31.4816  -12.5340   19.1515 H   0  0  0  0  0  0
  -30.3773  -11.4178   19.9041 H   0  0  0  0  0  0
  -29.7803  -11.7667   17.4825 H   0  0  0  0  0  0
  -29.6447  -13.4866   17.7465 H   0  0  0  0  0  0
  -27.8815  -11.2913   18.8810 H   0  0  0  0  0  0
  -27.3771  -12.5598   17.7978 H   0  0  0  0  0  0
  -27.6574  -14.2544   19.5149 H   0  0  0  0  0  0
  -28.7181  -12.0851   21.3926 H   0  0  0  0  0  0
  -28.4437  -13.7441   21.8347 H   0  0  0  0  0  0
  -25.2761   -9.5610   22.4795 H   0  0  0  0  0  0
  -23.9969   -7.4583   22.7494 H   0  0  0  0  0  0
  -21.0847   -8.8740   19.8956 H   0  0  0  0  0  0
  -22.3728  -10.9624   19.6167 H   0  0  0  0  0  0
  -21.1969   -7.6136   23.9721 H   0  0  0  0  0  0
  -21.1475   -6.0517   25.9085 H   0  0  0  0  0  0
  -22.0608   -2.7607   23.2852 H   0  0  0  0  0  0
  -22.4010  -11.9800   22.4854 H   0  0  0  0  0  0
  -21.1052  -13.1207   22.2654 H   0  0  0  0  0  0
  -24.5693  -15.7804   20.4288 H   0  0  0  0  0  0
  -26.1699  -15.5924   19.9234 H   0  0  0  0  0  0
  -26.7185  -32.5452   23.1116 H   0  0  0  0  0  0
  -25.0121  -33.9725   25.0459 H   0  0  0  0  0  0
  -22.7143  -31.3033   21.3989 H   0  0  0  0  0  0
  -23.3753  -35.9617   23.3299 H   0  0  0  0  0  0
  -24.3578  -36.8915   22.2056 H   0  0  0  0  0  0
  -23.7231  -37.6485   23.6668 H   0  0  0  0  0  0
  -26.0907  -31.5575   20.6065 H   0  0  0  0  0  0
  -26.8388  -30.8423   22.0054 H   0  0  0  0  0  0
  -28.1205  -29.0031   21.1900 H   0  0  0  0  0  0
  -26.0178  -25.9495   18.9743 H   0  0  0  0  0  0
  -23.9888  -27.3054   19.0029 H   0  0  0  0  0  0
  -23.7575  -30.5890   19.4029 H   0  0  0  0  0  0
  -22.7578  -29.2424   19.8583 H   0  0  0  0  0  0
  -25.1293  -36.1927   25.0824 H   0  0  0  0  0  0
  -20.9980  -28.3282   24.1395 H   0  0  0  0  0  0
  -20.5688  -26.2312   23.3611 H   0  0  0  0  0  0
  -21.6642  -26.7463   22.1185 H   0  0  0  0  0  0
  -19.6908  -25.6301   21.1243 H   0  0  0  0  0  0
  -19.6685  -27.3204   20.6747 H   0  0  0  0  0  0
  -17.4202  -26.6703   21.4019 H   0  0  0  0  0  0
  -18.0317  -26.0076   22.9006 H   0  0  0  0  0  0
  -19.7937  -30.7291   24.2251 H   0  0  0  0  0  0
  -17.5012  -31.6269   24.5177 H   0  0  0  0  0  0
  -15.5350  -30.2988   23.7671 H   0  0  0  0  0  0
  -15.8672  -28.0830   22.7068 H   0  0  0  0  0  0
  -24.5936  -30.7038   25.7781 H   0  0  0  0  0  0
  -24.8939  -32.2856   26.4898 H   0  0  0  0  0  0
  -25.8086  -30.8866   27.0219 H   0  0  0  0  0  0
  -26.2931  -29.6727   24.1251 H   0  0  0  0  0  0
  -27.4099  -29.7285   25.4691 H   0  0  0  0  0  0
  -27.8783  -30.4290   23.9383 H   0  0  0  0  0  0
  -27.2653  -33.3620   26.2082 H   0  0  0  0  0  0
  -28.3875  -32.6882   25.0346 H   0  0  0  0  0  0
  -28.0717  -31.8454   26.5436 H   0  0  0  0  0  0
  -28.2582  -38.0107   24.7529 H   0  0  0  0  0  0
  -28.1085  -36.2636   24.6274 H   0  0  0  0  0  0
  -27.2298  -37.1417   25.8871 H   0  0  0  0  0  0
  -20.9366  -29.8751   21.6857 H   0  0  0  0  0  0
  -26.0167  -38.2844   24.1428 H   0  0  0  0  0  0
  -27.8463  -19.9232   20.6392 H   0  0  0  0  0  0
  -32.1152  -17.4081   20.5727 H   0  0  0  0  0  0
  -31.3636  -22.1862   21.8128 H   0  0  0  0  0  0
  -31.9215  -22.3268   20.1376 H   0  0  0  0  0  0
  -28.0567  -22.0940   19.5024 H   0  0  0  0  0  0
  -28.1817  -22.3525   21.2295 H   0  0  0  0  0  0
  -26.6460  -18.0303   21.1347 H   0  0  0  0  0  0
  -27.4323  -16.5414   21.6430 H   0  0  0  0  0  0
  -27.1930  -16.8866   19.9081 H   0  0  0  0  0  0
  -28.2290  -25.1074   21.6722 H   0  0  0  0  0  0
  -27.1759  -24.7513   20.3675 H   0  0  0  0  0  0
  -28.9306  -15.4153   21.1344 H   0  0  0  0  0  0
  -30.0525  -23.4155   18.2918 H   0  0  0  0  0  0
  -29.9149  -25.0302   18.4875 H   0  0  0  0  0  0
  -28.6071  -24.1427   18.0703 H   0  0  0  0  0  0
  1 25  1  0  0  0
  1 30  2  0  0  0
  1 84  1  0  0  0
  2  3  1  0  0  0
  2 25  1  0  0  0
  2 88  1  0  0  0
  2 89  1  0  0  0
  3  4  1  0  0  0
  3 90  1  0  0  0
  3 91  1  0  0  0
  4  5  1  0  0  0
  4 92  1  0  0  0
  4 93  1  0  0  0
  5  6  1  0  0  0
  5 26  1  0  0  0
  5 94  1  0  0  0
  6 25  1  0  0  0
  6 95  1  0  0  0
  6 96  1  0  0  0
  7  8  2  0  0  0
  7 26  1  0  0  0
  7 29  1  0  0  0
  8  9  1  0  0  0
  8 22  1  0  0  0
  9 10  1  0  0  0
  9 27  2  0  0  0
 10 11  2  0  0  0
 10 15  1  0  0  0
 11 12  1  0  0  0
 11 97  1  0  0  0
 12 13  2  0  0  0
 12 98  1  0  0  0
 13 14  1  0  0  0
 13 31  1  0  0  0
 14 15  2  0  0  0
 14 99  1  0  0  0
 15100  1  0  0  0
 16 17  2  0  0  0
 16 21  1  0  0  0
 16 31  1  0  0  0
 17 18  1  0  0  0
 17101  1  0  0  0
 18 19  2  0  0  0
 18102  1  0  0  0
 19 20  1  0  0  0
 19 24  1  0  0  0
 20 21  2  0  0  0
 20103  1  0  0  0
 21 23  1  0  0  0
 22 28  1  0  0  0
 22 32  2  0  0  0
 26 27  1  0  0  0
 28104  1  0  0  0
 28105  1  0  0  0
 29106  1  0  0  0
 29107  1  0  0  0
 33 34  1  0  0  0
 33 66  1  0  0  0
 33 70  2  0  0  0
 34 36  1  0  0  0
 34 59  1  0  0  0
 34108  1  0  0  0
 35 44  2  0  0  0
 35 45  1  0  0  0
 35 68  1  0  0  0
 36 56  1  0  0  0
 36109  1  0  0  0
 37 39  1  0  0  0
 37 47  1  0  0  0
 37 66  1  0  0  0
 37110  1  0  0  0
 38 43  2  0  0  0
 38 46  1  0  0  0
 38 47  1  0  0  0
 39 64  1  0  0  0
 39 67  2  0  0  0
 40 52  1  0  0  0
 40 53  2  0  0  0
 40 58  1  0  0  0
 41111  1  0  0  0
 41112  1  0  0  0
 41113  1  0  0  0
 41 48  1  0  0  0
 42 43  1  0  0  0
 42 66  1  0  0  0
 42114  1  0  0  0
 42115  1  0  0  0
 43 44  1  0  0  0
 44116  1  0  0  0
 45 46  2  0  0  0
 45117  1  0  0  0
 46118  1  0  0  0
 47119  1  0  0  0
 47120  1  0  0  0
 48 56  1  0  0  0
 48 65  1  0  0  0
 48121  1  0  0  0
 49 50  1  0  0  0
 49 53  1  0  0  0
 49 64  1  0  0  0
 49122  1  0  0  0
 50 51  1  0  0  0
 50123  1  0  0  0
 50124  1  0  0  0
 51 52  1  0  0  0
 51125  1  0  0  0
 51126  1  0  0  0
 52127  1  0  0  0
 52128  1  0  0  0
 53 54  1  0  0  0
 54 55  2  0  0  0
 54129  1  0  0  0
 55 57  1  0  0  0
 55130  1  0  0  0
 56 69  2  0  0  0
 57 58  2  0  0  0
 57131  1  0  0  0
 58132  1  0  0  0
 59 60  1  0  0  0
 59 61  1  0  0  0
 59 62  1  0  0  0
 60133  1  0  0  0
 60134  1  0  0  0
 60135  1  0  0  0
 61136  1  0  0  0
 61137  1  0  0  0
 61138  1  0  0  0
 62139  1  0  0  0
 62140  1  0  0  0
 62141  1  0  0  0
 63 65  1  0  0  0
 63142  1  0  0  0
 63143  1  0  0  0
 63144  1  0  0  0
 64145  1  0  0  0
 65146  1  0  0  0
 68 82  1  0  0  0
 71 73  2  0  0  0
 71 74  1  0  0  0
 71147  1  0  0  0
 72 75  2  0  0  0
 72 76  1  0  0  0
 72148  1  0  0  0
 73 75  1  0  0  0
 73 81  1  0  0  0
 74 76  2  0  0  0
 74 83  1  0  0  0
 75 84  1  0  0  0
 76 87  1  0  0  0
 77 78  1  0  0  0
 77 80  1  0  0  0
 77 86  2  0  0  0
 78 83  1  0  0  0
 78149  1  0  0  0
 78150  1  0  0  0
 79 80  1  0  0  0
 79 83  1  0  0  0
 79151  1  0  0  0
 79152  1  0  0  0
 80 82  1  0  0  0
 80 85  1  0  0  0
 81153  1  0  0  0
 81154  1  0  0  0
 81155  1  0  0  0
 82156  1  0  0  0
 82157  1  0  0  0
 84158  1  0  0  0
 85159  1  0  0  0
 85160  1  0  0  0
 85161  1  0  0  0
M  CHG  1  85   1
M  ISO  4   1 100  68 101  82 101  84 100
M  END
> <chiral flag>
0

> <version>
0

> <s_m_source_file>
/data/baiqing/PycharmProjects/Reinvent-master-3.2/result/LINK_invent/BTK/process_docking_weight1_custom_product_contain_oxygen_bond_distance_aromatic_linkinvent_7_9_3/rearranged_h_0070.sdf

> <i_m_source_file_index>
80

> <r_mmod_Potential_Energy-OPLS-2005>
-156.106094360352

> <r_mmod_Stretch_Energy-OPLS-2005>
82.8437347412109

> <r_mmod_Bend_Energy-OPLS-2005>
184.167938232422

> <r_mmod_Torsional_Energy-OPLS-2005>
256.975952148438

> <r_mmod_Improper_Torsional_Energy-OPLS-2005>
6.88422298431396

> <r_mmod_Van_der_Waal_Energy-OPLS-2005>
144.179641723633

> <r_mmod_Electrostatic_Energy-OPLS-2005>
-389.792297363281

> <r_mmod_Solvation_Energy-OPLS-2005>
-490.544372558594

> <b_mmod_Minimization_Converged-OPLS-2005>
0

> <r_mmod_RMS_Derivative-OPLS-2005>
0.909371733665466

$$$$
80
                    3D
 Structure written by MMmdl.
152160  0  0  1  0            999 V2000
  -30.6155  -14.6567   20.4910 C   0  0  0  0  0  0
  -30.4405  -12.4016   19.4537 C   0  0  0  0  0  0
  -29.5084  -12.5066   18.2255 C   0  0  0  0  0  0
  -28.0313  -12.3429   18.6383 C   0  0  0  0  0  0
  -27.6516  -13.2180   19.8625 C   0  0  2  0  0  0
  -28.6981  -13.0809   20.9919 C   0  0  0  0  0  0
  -25.2542  -13.8163   20.5691 C   0  0  0  0  0  0
  -24.1811  -13.0420   20.9167 C   0  0  0  0  0  0
  -24.6392  -11.6898   20.8726 C   0  0  0  0  0  0
  -23.9065  -10.4283   21.0397 C   0  0  0  0  0  0
  -24.3616   -9.4203   21.9179 C   0  0  0  0  0  0
  -23.6290   -8.2240   22.0754 C   0  0  0  0  0  0
  -22.4272   -8.0278   21.3544 C   0  0  0  0  0  0
  -21.9905   -9.0251   20.4646 C   0  0  0  0  0  0
  -22.7235  -10.2127   20.3050 C   0  0  0  0  0  0
  -21.6852   -6.0733   22.5279 C   0  0  0  0  0  0
  -21.4014   -6.5637   23.8213 C   0  0  0  0  0  0
  -21.3659   -5.6791   24.9175 C   0  0  0  0  0  0
  -21.6044   -4.3053   24.7225 C   0  0  0  0  0  0
  -21.8820   -3.8145   23.4347 C   0  0  0  0  0  0
  -21.9193   -4.6961   22.3402 C   0  0  0  0  0  0
  -22.7836  -13.5216   21.1843 C   0  0  0  0  0  0
  -22.1662   -4.2147   21.0980 F   0  0  0  0  0  0
  -21.5628   -3.4537   25.7738 F   0  0  0  0  0  0
  -30.0124  -13.4264   20.4267 N   0  0  0  0  0  0
  -26.2984  -12.9356   20.3331 N   0  0  0  0  0  0
  -25.9326  -11.6506   20.5759 N   0  0  0  0  0  0
  -22.0486  -12.8211   22.0408 N   0  0  0  0  0  0
  -25.4197  -15.1892   20.4185 N   0  0  0  0  0  0
  -31.7839  -14.8154   20.1246 O   0  0  0  0  0  0
  -21.6637   -6.8876   21.4242 O   0  0  0  0  0  0
  -22.3517  -14.5526   20.6703 O   0  0  0  0  0  0
  -24.6259  -31.8596   23.2019 C   0  0  0  0  0  0
  -25.9106  -32.4778   23.8351 C   0  0  1  0  0  0
  -27.2257  -27.3166   20.1247 C   0  0  0  0  0  0
  -25.5921  -33.8579   24.2279 N   0  0  0  0  0  0
  -23.4201  -30.4820   21.5445 C   0  0  2  0  0  0
  -24.8677  -28.9336   20.1141 C   0  0  0  0  0  0
  -22.7473  -29.4622   22.4938 C   0  0  0  0  0  0
  -18.0286  -28.1385   22.8487 C   0  0  0  0  0  0
  -24.1489  -36.7295   23.2639 C   0  0  0  0  0  0
  -25.9608  -30.7896   21.3733 C   0  0  0  0  0  0
  -26.0361  -29.4153   20.7186 C   0  0  0  0  0  0
  -27.2197  -28.6192   20.7121 C   0  0  0  0  0  0
  -26.0389  -26.8898   19.4895 C   0  0  0  0  0  0
  -24.8709  -27.6761   19.4902 C   0  0  0  0  0  0
  -23.6357  -29.8143   20.1608 C   0  0  0  0  0  0
  -25.4114  -36.3085   24.0329 C   0  0  1  0  0  0
  -20.5885  -28.3689   23.1284 C   0  0  2  0  0  0
  -20.6775  -26.9413   22.5409 C   0  0  0  0  0  0
  -19.5750  -26.6385   21.5212 C   0  0  0  0  0  0
  -18.1931  -26.7927   22.1627 C   0  0  0  0  0  0
  -19.1538  -28.8854   23.2881 C   0  0  0  0  0  0
  -18.9461  -30.1457   23.8897 C   0  0  0  0  0  0
  -17.6461  -30.6587   24.0563 C   0  0  0  0  0  0
  -25.9050  -34.9452   23.5105 C   0  0  0  0  0  0
  -16.5352  -29.9086   23.6329 C   0  0  0  0  0  0
  -16.7273  -28.6503   23.0351 C   0  0  0  0  0  0
  -26.4492  -31.6588   25.0721 C   0  0  0  0  0  0
  -25.3727  -31.3725   26.1450 C   0  0  0  0  0  0
  -27.0336  -30.3013   24.6173 C   0  0  0  0  0  0
  -27.6053  -32.4322   25.7491 C   0  0  0  0  0  0
  -27.5578  -37.1805   24.8467 C   0  0  0  0  0  0
  -21.4187  -29.3043   22.3680 N   0  0  0  0  0  0
  -26.4294  -37.3777   23.9405 N   0  0  0  0  0  0
  -24.6877  -31.0605   22.0970 N   0  0  0  0  0  0
  -23.4196  -28.8162   23.3019 O   0  0  0  0  0  0
  -28.3457  -26.4730   20.1391 O   0  0  0  0  0  0
  -26.5620  -34.8919   22.4673 O   0  0  0  0  0  0
  -23.5422  -32.1394   23.7346 O   0  0  0  0  0  0
  -31.0547  -19.3145   20.2511 C   0  0  0  0  0  0
  -31.0803  -17.8996   20.4544 C   0  0  0  0  0  0
  -28.6531  -19.3216   20.3500 C   0  0  0  0  0  0
  -29.8447  -20.0703   20.1682 C   0  0  0  0  0  0
  -29.8835  -17.1516   20.5981 C   0  0  0  0  0  0
  -28.6778  -17.9072   20.5594 C   0  0  0  0  0  0
  -29.8777  -21.5398   19.7662 C   0  0  0  0  0  0
  -29.1464  -24.0218   19.8643 C   0  0  0  0  0  0
  -28.1516  -25.0493   20.5329 C   0  0  0  0  0  0
  -29.7921  -15.7042   20.8071 N   0  0  0  0  0  0
  -29.1077  -22.5813   20.2580 N   0  0  0  0  0  0
  -30.7690  -21.8112   18.8069 N   0  3  0  0  0  0
  -29.9485  -24.4192   19.0077 O   0  0  0  0  0  0
  -27.5037  -17.2455   20.6988 F   0  0  0  0  0  0
  -31.4809  -12.5313   19.1501 H   0  0  0  0  0  0
  -30.3810  -11.4079   19.9004 H   0  0  0  0  0  0
  -29.7745  -11.7509   17.4851 H   0  0  0  0  0  0
  -29.6478  -13.4731   17.7385 H   0  0  0  0  0  0
  -27.8713  -11.2903   18.8747 H   0  0  0  0  0  0
  -27.3761  -12.5669   17.7957 H   0  0  0  0  0  0
  -27.6635  -14.2512   19.5153 H   0  0  0  0  0  0
  -28.7129  -12.0608   21.3787 H   0  0  0  0  0  0
  -28.4426  -13.7163   21.8414 H   0  0  0  0  0  0
  -25.2763   -9.5680   22.4750 H   0  0  0  0  0  0
  -23.9999   -7.4633   22.7475 H   0  0  0  0  0  0
  -21.0835   -8.8770   19.8953 H   0  0  0  0  0  0
  -22.3696  -10.9666   19.6158 H   0  0  0  0  0  0
  -21.2007   -7.6146   23.9716 H   0  0  0  0  0  0
  -21.1479   -6.0520   25.9078 H   0  0  0  0  0  0
  -22.0599   -2.7607   23.2848 H   0  0  0  0  0  0
  -22.4104  -11.9871   22.4791 H   0  0  0  0  0  0
  -21.1109  -13.1244   22.2625 H   0  0  0  0  0  0
  -24.6526  -15.8351   20.5652 H   0  0  0  0  0  0
  -26.2866  -15.6648   20.1971 H   0  0  0  0  0  0
  -26.7174  -32.5450   23.1100 H   0  0  0  0  0  0
  -25.0066  -33.9724   25.0422 H   0  0  0  0  0  0
  -22.7140  -31.3024   21.4000 H   0  0  0  0  0  0
  -23.3747  -35.9633   23.3311 H   0  0  0  0  0  0
  -24.3579  -36.8906   22.2052 H   0  0  0  0  0  0
  -23.7249  -37.6503   23.6655 H   0  0  0  0  0  0
  -26.0910  -31.5514   20.6034 H   0  0  0  0  0  0
  -26.8416  -30.8406   22.0017 H   0  0  0  0  0  0
  -28.1180  -28.9859   21.1890 H   0  0  0  0  0  0
  -26.0016  -25.9364   18.9832 H   0  0  0  0  0  0
  -23.9781  -27.3047   19.0062 H   0  0  0  0  0  0
  -23.7552  -30.5895   19.4030 H   0  0  0  0  0  0
  -22.7557  -29.2433   19.8591 H   0  0  0  0  0  0
  -25.1295  -36.1939   25.0822 H   0  0  0  0  0  0
  -20.9978  -28.3263   24.1405 H   0  0  0  0  0  0
  -20.5678  -26.2298   23.3608 H   0  0  0  0  0  0
  -21.6644  -26.7445   22.1200 H   0  0  0  0  0  0
  -19.6911  -25.6296   21.1240 H   0  0  0  0  0  0
  -19.6684  -27.3196   20.6742 H   0  0  0  0  0  0
  -17.4198  -26.6670   21.4033 H   0  0  0  0  0  0
  -18.0336  -26.0071   22.9026 H   0  0  0  0  0  0
  -19.7937  -30.7273   24.2265 H   0  0  0  0  0  0
  -17.5015  -31.6268   24.5165 H   0  0  0  0  0  0
  -15.5353  -30.2987   23.7653 H   0  0  0  0  0  0
  -15.8674  -28.0822   22.7065 H   0  0  0  0  0  0
  -24.5899  -30.7078   25.7779 H   0  0  0  0  0  0
  -24.8923  -32.2891   26.4882 H   0  0  0  0  0  0
  -25.8054  -30.8897   27.0221 H   0  0  0  0  0  0
  -26.2909  -29.6762   24.1202 H   0  0  0  0  0  0
  -27.4042  -29.7272   25.4675 H   0  0  0  0  0  0
  -27.8774  -30.4303   23.9391 H   0  0  0  0  0  0
  -27.2667  -33.3625   26.2063 H   0  0  0  0  0  0
  -28.3865  -32.6876   25.0319 H   0  0  0  0  0  0
  -28.0717  -31.8449   26.5410 H   0  0  0  0  0  0
  -28.2604  -38.0094   24.7504 H   0  0  0  0  0  0
  -28.1067  -36.2625   24.6308 H   0  0  0  0  0  0
  -27.2294  -37.1472   25.8870 H   0  0  0  0  0  0
  -20.9364  -29.8767   21.6891 H   0  0  0  0  0  0
  -26.0177  -38.2855   24.1394 H   0  0  0  0  0  0
  -32.0028  -19.8209   20.1293 H   0  0  0  0  0  0
  -32.0355  -17.3961   20.4915 H   0  0  0  0  0  0
  -27.6950  -19.8156   20.2845 H   0  0  0  0  0  0
  -28.2880  -24.9873   21.6125 H   0  0  0  0  0  0
  -27.1421  -24.6907   20.3421 H   0  0  0  0  0  0
  -28.8648  -15.4061   21.0663 H   0  0  0  0  0  0
  -28.4674  -22.2678   20.9716 H   0  0  0  0  0  0
  -31.2946  -21.0728   18.3666 H   0  0  0  0  0  0
  -30.8580  -22.7668   18.4813 H   0  0  0  0  0  0
  1 25  1  0  0  0
  1 30  2  0  0  0
  1 80  1  0  0  0
  2  3  1  0  0  0
  2 25  1  0  0  0
  2 85  1  0  0  0
  2 86  1  0  0  0
  3  4  1  0  0  0
  3 87  1  0  0  0
  3 88  1  0  0  0
  4  5  1  0  0  0
  4 89  1  0  0  0
  4 90  1  0  0  0
  5  6  1  0  0  0
  5 26  1  0  0  0
  5 91  1  0  0  0
  6 25  1  0  0  0
  6 92  1  0  0  0
  6 93  1  0  0  0
  7  8  2  0  0  0
  7 26  1  0  0  0
  7 29  1  0  0  0
  8  9  1  0  0  0
  8 22  1  0  0  0
  9 10  1  0  0  0
  9 27  2  0  0  0
 10 11  2  0  0  0
 10 15  1  0  0  0
 11 12  1  0  0  0
 11 94  1  0  0  0
 12 13  2  0  0  0
 12 95  1  0  0  0
 13 14  1  0  0  0
 13 31  1  0  0  0
 14 15  2  0  0  0
 14 96  1  0  0  0
 15 97  1  0  0  0
 16 17  2  0  0  0
 16 21  1  0  0  0
 16 31  1  0  0  0
 17 18  1  0  0  0
 17 98  1  0  0  0
 18 19  2  0  0  0
 18 99  1  0  0  0
 19 20  1  0  0  0
 19 24  1  0  0  0
 20 21  2  0  0  0
 20100  1  0  0  0
 21 23  1  0  0  0
 22 28  1  0  0  0
 22 32  2  0  0  0
 26 27  1  0  0  0
 28101  1  0  0  0
 28102  1  0  0  0
 29103  1  0  0  0
 29104  1  0  0  0
 33 34  1  0  0  0
 33 66  1  0  0  0
 33 70  2  0  0  0
 34 36  1  0  0  0
 34 59  1  0  0  0
 34105  1  0  0  0
 35 44  2  0  0  0
 35 45  1  0  0  0
 35 68  1  0  0  0
 36 56  1  0  0  0
 36106  1  0  0  0
 37 39  1  0  0  0
 37 47  1  0  0  0
 37 66  1  0  0  0
 37107  1  0  0  0
 38 43  2  0  0  0
 38 46  1  0  0  0
 38 47  1  0  0  0
 39 64  1  0  0  0
 39 67  2  0  0  0
 40 52  1  0  0  0
 40 53  2  0  0  0
 40 58  1  0  0  0
 41108  1  0  0  0
 41109  1  0  0  0
 41110  1  0  0  0
 41 48  1  0  0  0
 42 43  1  0  0  0
 42 66  1  0  0  0
 42111  1  0  0  0
 42112  1  0  0  0
 43 44  1  0  0  0
 44113  1  0  0  0
 45 46  2  0  0  0
 45114  1  0  0  0
 46115  1  0  0  0
 47116  1  0  0  0
 47117  1  0  0  0
 48 56  1  0  0  0
 48 65  1  0  0  0
 48118  1  0  0  0
 49 50  1  0  0  0
 49 53  1  0  0  0
 49 64  1  0  0  0
 49119  1  0  0  0
 50 51  1  0  0  0
 50120  1  0  0  0
 50121  1  0  0  0
 51 52  1  0  0  0
 51122  1  0  0  0
 51123  1  0  0  0
 52124  1  0  0  0
 52125  1  0  0  0
 53 54  1  0  0  0
 54 55  2  0  0  0
 54126  1  0  0  0
 55 57  1  0  0  0
 55127  1  0  0  0
 56 69  2  0  0  0
 57 58  2  0  0  0
 57128  1  0  0  0
 58129  1  0  0  0
 59 60  1  0  0  0
 59 61  1  0  0  0
 59 62  1  0  0  0
 60130  1  0  0  0
 60131  1  0  0  0
 60132  1  0  0  0
 61133  1  0  0  0
 61134  1  0  0  0
 61135  1  0  0  0
 62136  1  0  0  0
 62137  1  0  0  0
 62138  1  0  0  0
 63 65  1  0  0  0
 63139  1  0  0  0
 63140  1  0  0  0
 63141  1  0  0  0
 64142  1  0  0  0
 65143  1  0  0  0
 68 79  1  0  0  0
 71 72  2  0  0  0
 71 74  1  0  0  0
 71144  1  0  0  0
 72 75  1  0  0  0
 72145  1  0  0  0
 73 74  2  0  0  0
 73 76  1  0  0  0
 73146  1  0  0  0
 74 77  1  0  0  0
 75 76  2  0  0  0
 75 80  1  0  0  0
 76 84  1  0  0  0
 77 81  1  0  0  0
 77 82  2  0  0  0
 78 79  1  0  0  0
 78 81  1  0  0  0
 78 83  2  0  0  0
 79147  1  0  0  0
 79148  1  0  0  0
 80149  1  0  0  0
 81150  1  0  0  0
 82151  1  0  0  0
 82152  1  0  0  0
M  CHG  1  82   1
M  ISO  4   1 100  68 101  79 101  80 100
M  END
> <chiral flag>
0

> <version>
0

> <s_m_source_file>
/data/baiqing/PycharmProjects/Reinvent-master-3.2/result/LINK_invent/BTK/process_docking_weight1_custom_product_contain_oxygen_bond_distance_aromatic_linkinvent_7_9_3/rearranged_h_0070.sdf

> <i_m_source_file_index>
81

> <r_mmod_Potential_Energy-OPLS-2005>
-295.271911621094

> <r_mmod_Stretch_Energy-OPLS-2005>
84.8024520874023

> <r_mmod_Bend_Energy-OPLS-2005>
146.015975952148

> <r_mmod_Torsional_Energy-OPLS-2005>
224.659088134766

> <r_mmod_Improper_Torsional_Energy-OPLS-2005>
4.950608253479

> <r_mmod_Van_der_Waal_Energy-OPLS-2005>
155.929885864258

> <r_mmod_Electrostatic_Energy-OPLS-2005>
-497.979583740234

> <r_mmod_Solvation_Energy-OPLS-2005>
-464.569702148438

> <b_mmod_Minimization_Converged-OPLS-2005>
0

> <r_mmod_RMS_Derivative-OPLS-2005>
0.166535586118698

$$$$
81
                    3D
 Structure written by MMmdl.
155163  0  0  1  0            999 V2000
  -30.4195  -15.2661   20.3790 C   0  0  0  0  0  0
  -30.4480  -12.8071   19.5354 C   0  0  0  0  0  0
  -29.5413  -12.5877   18.2965 C   0  0  0  0  0  0
  -28.0909  -12.3006   18.7209 C   0  0  0  0  0  0
  -27.6166  -13.2714   19.8291 C   0  0  2  0  0  0
  -28.6491  -13.4313   20.9672 C   0  0  0  0  0  0
  -25.2408  -13.8232   20.5748 C   0  0  0  0  0  0
  -24.1751  -13.0425   20.9233 C   0  0  0  0  0  0
  -24.6399  -11.6920   20.8738 C   0  0  0  0  0  0
  -23.9093  -10.4287   21.0386 C   0  0  0  0  0  0
  -24.3629   -9.4206   21.9174 C   0  0  0  0  0  0
  -23.6298   -8.2241   22.0754 C   0  0  0  0  0  0
  -22.4283   -8.0270   21.3540 C   0  0  0  0  0  0
  -21.9911   -9.0246   20.4641 C   0  0  0  0  0  0
  -22.7251  -10.2123   20.3044 C   0  0  0  0  0  0
  -21.6865   -6.0726   22.5282 C   0  0  0  0  0  0
  -21.4017   -6.5636   23.8210 C   0  0  0  0  0  0
  -21.3662   -5.6790   24.9177 C   0  0  0  0  0  0
  -21.6043   -4.3048   24.7232 C   0  0  0  0  0  0
  -21.8816   -3.8140   23.4355 C   0  0  0  0  0  0
  -21.9189   -4.6950   22.3407 C   0  0  0  0  0  0
  -22.7768  -13.5186   21.1871 C   0  0  0  0  0  0
  -22.1661   -4.2130   21.0986 F   0  0  0  0  0  0
  -21.5618   -3.4540   25.7750 F   0  0  0  0  0  0
  -29.8891  -13.9426   20.3568 N   0  0  0  0  0  0
  -26.2834  -12.9504   20.3219 N   0  0  0  0  0  0
  -25.9340  -11.6611   20.5705 N   0  0  0  0  0  0
  -22.0433  -12.8173   22.0433 N   0  0  0  0  0  0
  -25.4045  -15.1979   20.4244 N   0  0  0  0  0  0
  -31.6293  -15.3070   20.1107 O   0  0  0  0  0  0
  -21.6644   -6.8868   21.4242 O   0  0  0  0  0  0
  -22.3446  -14.5491   20.6716 O   0  0  0  0  0  0
  -24.6633  -31.8229   23.1686 C   0  0  0  0  0  0
  -25.9317  -32.4584   23.8145 C   0  0  1  0  0  0
  -27.2282  -26.9234   20.1793 C   0  0  0  0  0  0
  -25.5997  -33.8397   24.2043 N   0  0  0  0  0  0
  -23.4821  -30.4355   21.5160 C   0  0  2  0  0  0
  -24.9382  -28.8235   20.1119 C   0  0  0  0  0  0
  -22.7687  -29.4430   22.4726 C   0  0  0  0  0  0
  -18.0341  -28.1440   22.8456 C   0  0  0  0  0  0
  -24.1495  -36.7214   23.2647 C   0  0  0  0  0  0
  -26.0528  -30.6254   21.4053 C   0  0  0  0  0  0
  -26.1203  -29.2137   20.7535 C   0  0  0  0  0  0
  -27.2571  -28.2832   20.7690 C   0  0  0  0  0  0
  -26.0178  -26.6962   19.4830 C   0  0  0  0  0  0
  -24.9105  -27.5828   19.4583 C   0  0  0  0  0  0
  -23.7272  -29.7543   20.1414 C   0  0  0  0  0  0
  -25.4130  -36.2960   24.0295 C   0  0  1  0  0  0
  -20.5961  -28.3783   23.1170 C   0  0  2  0  0  0
  -20.6839  -26.9463   22.5381 C   0  0  0  0  0  0
  -19.5802  -26.6384   21.5221 C   0  0  0  0  0  0
  -18.1970  -26.7971   22.1614 C   0  0  0  0  0  0
  -19.1603  -28.8928   23.2810 C   0  0  0  0  0  0
  -18.9525  -30.1521   23.8844 C   0  0  0  0  0  0
  -17.6519  -30.6624   24.0576 C   0  0  0  0  0  0
  -25.9102  -34.9352   23.4978 C   0  0  0  0  0  0
  -16.5404  -29.9121   23.6365 C   0  0  0  0  0  0
  -16.7319  -28.6555   23.0342 C   0  0  0  0  0  0
  -26.4566  -31.6540   25.0677 C   0  0  0  0  0  0
  -25.3669  -31.3830   26.1318 C   0  0  0  0  0  0
  -27.0444  -30.2898   24.6425 C   0  0  0  0  0  0
  -27.6071  -32.4338   25.7462 C   0  0  0  0  0  0
  -27.5573  -37.1749   24.8458 C   0  0  0  0  0  0
  -21.4344  -29.3086   22.3514 N   0  0  0  0  0  0
  -26.4267  -37.3705   23.9428 N   0  0  0  0  0  0
  -24.7546  -30.9877   22.0844 N   0  0  0  0  0  0
  -23.4231  -28.7977   23.2954 O   0  0  0  0  0  0
  -28.2191  -25.8008   20.2334 O   0  0  0  0  0  0
  -26.5700  -34.8898   22.4567 O   0  0  0  0  0  0
  -23.5688  -32.1211   23.6751 O   0  0  0  0  0  0
  -30.3911  -19.0950   19.8255 C   0  0  0  0  0  0
  -30.1841  -20.5753   19.7712 C   0  0  0  0  0  0
  -28.4688  -18.9288   21.0411 C   0  0  0  0  0  0
  -28.2599  -20.4118   21.0143 C   0  0  0  0  0  0
  -29.5391  -18.1049   20.4685 C   0  0  0  0  0  0
  -29.1035  -21.4045   20.3360 C   0  0  0  0  0  0
  -25.8721  -20.4803   21.5784 C   0  0  0  0  0  0
  -27.1297  -20.8785   21.8358 C   0  0  0  0  0  0
  -27.9312  -24.1285   20.3011 C   0  0  0  0  0  0
  -27.4625  -21.7397   23.0405 C   0  0  0  0  0  0
  -30.3641  -23.6232   20.0249 C   0  0  0  0  0  0
  -29.5863  -16.4793   20.5564 N   0  0  0  0  0  0
  -29.0356  -23.0457   20.2577 N   0  0  0  0  0  0
  -26.7544  -23.7754   20.3834 O   0  0  0  0  0  0
  -31.4653  -13.0230   19.2064 H   0  0  0  0  0  0
  -30.5228  -11.8959   20.1326 H   0  0  0  0  0  0
  -29.9248  -11.7716   17.6830 H   0  0  0  0  0  0
  -29.5635  -13.4801   17.6691 H   0  0  0  0  0  0
  -28.0545  -11.2755   19.0916 H   0  0  0  0  0  0
  -27.4228  -12.3388   17.8596 H   0  0  0  0  0  0
  -27.5348  -14.2397   19.3351 H   0  0  0  0  0  0
  -28.8097  -12.4910   21.4965 H   0  0  0  0  0  0
  -28.2853  -14.1435   21.7097 H   0  0  0  0  0  0
  -25.2772   -9.5672   22.4747 H   0  0  0  0  0  0
  -23.9993   -7.4637   22.7482 H   0  0  0  0  0  0
  -21.0836   -8.8771   19.8961 H   0  0  0  0  0  0
  -22.3711  -10.9655   19.6144 H   0  0  0  0  0  0
  -21.2030   -7.6147   23.9709 H   0  0  0  0  0  0
  -21.1478   -6.0528   25.9073 H   0  0  0  0  0  0
  -22.0593   -2.7597   23.2873 H   0  0  0  0  0  0
  -22.4081  -11.9872   22.4860 H   0  0  0  0  0  0
  -21.1044  -13.1184   22.2623 H   0  0  0  0  0  0
  -24.6309  -15.8438   20.5375 H   0  0  0  0  0  0
  -26.2488  -15.6472   20.0957 H   0  0  0  0  0  0
  -26.7375  -32.5106   23.0842 H   0  0  0  0  0  0
  -25.0153  -33.9478   25.0198 H   0  0  0  0  0  0
  -22.7979  -31.2678   21.3406 H   0  0  0  0  0  0
  -23.3786  -35.9515   23.3225 H   0  0  0  0  0  0
  -24.3599  -36.8938   22.2083 H   0  0  0  0  0  0
  -23.7208  -37.6365   23.6753 H   0  0  0  0  0  0
  -26.2324  -31.3609   20.6202 H   0  0  0  0  0  0
  -26.9158  -30.6849   22.0576 H   0  0  0  0  0  0
  -28.1509  -28.5790   21.3005 H   0  0  0  0  0  0
  -25.8938  -25.7562   18.9651 H   0  0  0  0  0  0
  -24.0173  -27.2771   18.9318 H   0  0  0  0  0  0
  -23.8903  -30.5258   19.3871 H   0  0  0  0  0  0
  -22.8382  -29.2132   19.8158 H   0  0  0  0  0  0
  -25.1317  -36.1746   25.0783 H   0  0  0  0  0  0
  -21.0059  -28.3400   24.1289 H   0  0  0  0  0  0
  -20.5767  -26.2394   23.3627 H   0  0  0  0  0  0
  -21.6696  -26.7444   22.1169 H   0  0  0  0  0  0
  -19.6972  -25.6276   21.1301 H   0  0  0  0  0  0
  -19.6771  -27.3168   20.6730 H   0  0  0  0  0  0
  -17.4250  -26.6716   21.4020 H   0  0  0  0  0  0
  -18.0363  -26.0131   22.9028 H   0  0  0  0  0  0
  -19.8008  -30.7358   24.2176 H   0  0  0  0  0  0
  -17.5081  -31.6298   24.5190 H   0  0  0  0  0  0
  -15.5419  -30.3023   23.7725 H   0  0  0  0  0  0
  -15.8709  -28.0887   22.7049 H   0  0  0  0  0  0
  -24.5830  -30.7226   25.7594 H   0  0  0  0  0  0
  -24.8904  -32.3059   26.4632 H   0  0  0  0  0  0
  -25.7840  -30.9025   27.0167 H   0  0  0  0  0  0
  -26.3097  -29.6573   24.1437 H   0  0  0  0  0  0
  -27.3988  -29.7273   25.5074 H   0  0  0  0  0  0
  -27.9029  -30.4090   23.9812 H   0  0  0  0  0  0
  -27.2698  -33.3751   26.1802 H   0  0  0  0  0  0
  -28.3994  -32.6686   25.0345 H   0  0  0  0  0  0
  -28.0598  -31.8600   26.5565 H   0  0  0  0  0  0
  -28.2498  -38.0130   24.7559 H   0  0  0  0  0  0
  -28.1140  -36.2647   24.6178 H   0  0  0  0  0  0
  -27.2302  -37.1250   25.8860 H   0  0  0  0  0  0
  -20.9579  -29.8795   21.6669 H   0  0  0  0  0  0
  -26.0103  -38.2736   24.1518 H   0  0  0  0  0  0
  -31.2672  -18.7147   19.3199 H   0  0  0  0  0  0
  -30.9551  -21.1085   19.2346 H   0  0  0  0  0  0
  -27.7260  -18.3718   21.5967 H   0  0  0  0  0  0
  -25.6500  -19.8381   20.7384 H   0  0  0  0  0  0
  -25.0436  -20.7824   22.2027 H   0  0  0  0  0  0
  -28.1311  -21.1945   23.7074 H   0  0  0  0  0  0
  -26.5659  -22.0064   23.6028 H   0  0  0  0  0  0
  -27.9623  -22.6633   22.7551 H   0  0  0  0  0  0
  -31.0916  -23.1847   20.7099 H   0  0  0  0  0  0
  -30.4230  -24.7020   20.1689 H   0  0  0  0  0  0
  -30.6926  -23.4223   19.0039 H   0  0  0  0  0  0
  -28.6794  -16.1390   20.8363 H   0  0  0  0  0  0
  1 25  1  0  0  0
  1 30  2  0  0  0
  1 82  1  0  0  0
  2  3  1  0  0  0
  2 25  1  0  0  0
  2 85  1  0  0  0
  2 86  1  0  0  0
  3  4  1  0  0  0
  3 87  1  0  0  0
  3 88  1  0  0  0
  4  5  1  0  0  0
  4 89  1  0  0  0
  4 90  1  0  0  0
  5  6  1  0  0  0
  5 26  1  0  0  0
  5 91  1  0  0  0
  6 25  1  0  0  0
  6 92  1  0  0  0
  6 93  1  0  0  0
  7  8  2  0  0  0
  7 26  1  0  0  0
  7 29  1  0  0  0
  8  9  1  0  0  0
  8 22  1  0  0  0
  9 10  1  0  0  0
  9 27  2  0  0  0
 10 11  2  0  0  0
 10 15  1  0  0  0
 11 12  1  0  0  0
 11 94  1  0  0  0
 12 13  2  0  0  0
 12 95  1  0  0  0
 13 14  1  0  0  0
 13 31  1  0  0  0
 14 15  2  0  0  0
 14 96  1  0  0  0
 15 97  1  0  0  0
 16 17  2  0  0  0
 16 21  1  0  0  0
 16 31  1  0  0  0
 17 18  1  0  0  0
 17 98  1  0  0  0
 18 19  2  0  0  0
 18 99  1  0  0  0
 19 20  1  0  0  0
 19 24  1  0  0  0
 20 21  2  0  0  0
 20100  1  0  0  0
 21 23  1  0  0  0
 22 28  1  0  0  0
 22 32  2  0  0  0
 26 27  1  0  0  0
 28101  1  0  0  0
 28102  1  0  0  0
 29103  1  0  0  0
 29104  1  0  0  0
 33 34  1  0  0  0
 33 66  1  0  0  0
 33 70  2  0  0  0
 34 36  1  0  0  0
 34 59  1  0  0  0
 34105  1  0  0  0
 35 44  2  0  0  0
 35 45  1  0  0  0
 35 68  1  0  0  0
 36 56  1  0  0  0
 36106  1  0  0  0
 37 39  1  0  0  0
 37 47  1  0  0  0
 37 66  1  0  0  0
 37107  1  0  0  0
 38 43  2  0  0  0
 38 46  1  0  0  0
 38 47  1  0  0  0
 39 64  1  0  0  0
 39 67  2  0  0  0
 40 52  1  0  0  0
 40 53  2  0  0  0
 40 58  1  0  0  0
 41108  1  0  0  0
 41109  1  0  0  0
 41110  1  0  0  0
 41 48  1  0  0  0
 42 43  1  0  0  0
 42 66  1  0  0  0
 42111  1  0  0  0
 42112  1  0  0  0
 43 44  1  0  0  0
 44113  1  0  0  0
 45 46  2  0  0  0
 45114  1  0  0  0
 46115  1  0  0  0
 47116  1  0  0  0
 47117  1  0  0  0
 48 56  1  0  0  0
 48 65  1  0  0  0
 48118  1  0  0  0
 49 50  1  0  0  0
 49 53  1  0  0  0
 49 64  1  0  0  0
 49119  1  0  0  0
 50 51  1  0  0  0
 50120  1  0  0  0
 50121  1  0  0  0
 51 52  1  0  0  0
 51122  1  0  0  0
 51123  1  0  0  0
 52124  1  0  0  0
 52125  1  0  0  0
 53 54  1  0  0  0
 54 55  2  0  0  0
 54126  1  0  0  0
 55 57  1  0  0  0
 55127  1  0  0  0
 56 69  2  0  0  0
 57 58  2  0  0  0
 57128  1  0  0  0
 58129  1  0  0  0
 59 60  1  0  0  0
 59 61  1  0  0  0
 59 62  1  0  0  0
 60130  1  0  0  0
 60131  1  0  0  0
 60132  1  0  0  0
 61133  1  0  0  0
 61134  1  0  0  0
 61135  1  0  0  0
 62136  1  0  0  0
 62137  1  0  0  0
 62138  1  0  0  0
 63 65  1  0  0  0
 63139  1  0  0  0
 63140  1  0  0  0
 63141  1  0  0  0
 64142  1  0  0  0
 65143  1  0  0  0
 68 79  1  0  0  0
 71 72  2  0  0  0
 71 75  1  0  0  0
 71144  1  0  0  0
 72 76  1  0  0  0
 72145  1  0  0  0
 73 74  1  0  0  0
 73 75  2  0  0  0
 73146  1  0  0  0
 74 76  2  0  0  0
 74 78  1  0  0  0
 75 82  1  0  0  0
 76 83  1  0  0  0
 77 78  2  0  0  0
 77147  1  0  0  0
 77148  1  0  0  0
 78 80  1  0  0  0
 79 83  1  0  0  0
 79 84  2  0  0  0
 80149  1  0  0  0
 80150  1  0  0  0
 80151  1  0  0  0
 81 83  1  0  0  0
 81152  1  0  0  0
 81153  1  0  0  0
 81154  1  0  0  0
 82155  1  0  0  0
M  ISO  4   1 100  68 101  79 101  82 100
M  END
> <chiral flag>
0

> <version>
0

> <s_m_source_file>
/data/baiqing/PycharmProjects/Reinvent-master-3.2/result/LINK_invent/BTK/process_docking_weight1_custom_product_contain_oxygen_bond_distance_aromatic_linkinvent_7_9_3/rearranged_h_0070.sdf

> <i_m_source_file_index>
82

> <r_mmod_Potential_Energy-OPLS-2005>
1280.99780273438

> <r_mmod_Stretch_Energy-OPLS-2005>
570.072265625

> <r_mmod_Bend_Energy-OPLS-2005>
425.661041259766

> <r_mmod_Torsional_Energy-OPLS-2005>
246.997039794922

> <r_mmod_Improper_Torsional_Energy-OPLS-2005>
4.11363458633423

> <r_mmod_Van_der_Waal_Energy-OPLS-2005>
130.228393554688

> <r_mmod_Electrostatic_Energy-OPLS-2005>
-349.248016357422

> <r_mmod_Solvation_Energy-OPLS-2005>
-211.816452026367

> <b_mmod_Minimization_Converged-OPLS-2005>
0

> <r_mmod_RMS_Derivative-OPLS-2005>
2.75463843345642

$$$$
82
                    3D
 Structure written by MMmdl.
155163  0  0  1  0            999 V2000
  -30.5902  -14.6810   20.4644 C   0  0  0  0  0  0
  -30.4447  -12.4102   19.4489 C   0  0  0  0  0  0
  -29.5104  -12.5014   18.2202 C   0  0  0  0  0  0
  -28.0323  -12.3370   18.6333 C   0  0  0  0  0  0
  -27.6507  -13.2126   19.8564 C   0  0  2  0  0  0
  -28.7009  -13.0823   20.9845 C   0  0  0  0  0  0
  -25.2564  -13.8146   20.5684 C   0  0  0  0  0  0
  -24.1831  -13.0422   20.9204 C   0  0  0  0  0  0
  -24.6390  -11.6889   20.8746 C   0  0  0  0  0  0
  -23.9066  -10.4266   21.0409 C   0  0  0  0  0  0
  -24.3609   -9.4179   21.9190 C   0  0  0  0  0  0
  -23.6277   -8.2226   22.0766 C   0  0  0  0  0  0
  -22.4262   -8.0270   21.3556 C   0  0  0  0  0  0
  -21.9901   -9.0249   20.4666 C   0  0  0  0  0  0
  -22.7232  -10.2124   20.3065 C   0  0  0  0  0  0
  -21.6848   -6.0717   22.5270 C   0  0  0  0  0  0
  -21.4011   -6.5625   23.8204 C   0  0  0  0  0  0
  -21.3670   -5.6782   24.9174 C   0  0  0  0  0  0
  -21.6053   -4.3047   24.7223 C   0  0  0  0  0  0
  -21.8824   -3.8138   23.4349 C   0  0  0  0  0  0
  -21.9188   -4.6948   22.3400 C   0  0  0  0  0  0
  -22.7857  -13.5238   21.1857 C   0  0  0  0  0  0
  -22.1660   -4.2131   21.0979 F   0  0  0  0  0  0
  -21.5635   -3.4538   25.7745 F   0  0  0  0  0  0
  -30.0115  -13.4373   20.4155 N   0  0  0  0  0  0
  -26.2978  -12.9316   20.3294 N   0  0  0  0  0  0
  -25.9314  -11.6483   20.5744 N   0  0  0  0  0  0
  -22.0484  -12.8234   22.0414 N   0  0  0  0  0  0
  -25.4282  -15.1867   20.4082 N   0  0  0  0  0  0
  -31.7618  -14.8614   20.1200 O   0  0  0  0  0  0
  -21.6642   -6.8858   21.4233 O   0  0  0  0  0  0
  -22.3561  -14.5553   20.6703 O   0  0  0  0  0  0
  -24.6279  -31.8579   23.2011 C   0  0  0  0  0  0
  -25.9116  -32.4769   23.8343 C   0  0  1  0  0  0
  -27.2358  -27.3197   20.1163 C   0  0  0  0  0  0
  -25.5921  -33.8565   24.2274 N   0  0  0  0  0  0
  -23.4213  -30.4792   21.5427 C   0  0  2  0  0  0
  -24.8728  -28.9291   20.1143 C   0  0  0  0  0  0
  -22.7481  -29.4612   22.4933 C   0  0  0  0  0  0
  -18.0292  -28.1362   22.8504 C   0  0  0  0  0  0
  -24.1485  -36.7289   23.2640 C   0  0  0  0  0  0
  -25.9631  -30.7920   21.3688 C   0  0  0  0  0  0
  -26.0419  -29.4155   20.7152 C   0  0  0  0  0  0
  -27.2286  -28.6238   20.7021 C   0  0  0  0  0  0
  -26.0467  -26.8807   19.4972 C   0  0  0  0  0  0
  -24.8774  -27.6678   19.4966 C   0  0  0  0  0  0
  -23.6389  -29.8081   20.1605 C   0  0  0  0  0  0
  -25.4104  -36.3078   24.0334 C   0  0  1  0  0  0
  -20.5880  -28.3679   23.1263 C   0  0  2  0  0  0
  -20.6784  -26.9413   22.5357 C   0  0  0  0  0  0
  -19.5711  -26.6344   21.5215 C   0  0  0  0  0  0
  -18.1934  -26.7887   22.1696 C   0  0  0  0  0  0
  -19.1537  -28.8840   23.2880 C   0  0  0  0  0  0
  -18.9460  -30.1446   23.8895 C   0  0  0  0  0  0
  -17.6461  -30.6573   24.0549 C   0  0  0  0  0  0
  -25.9044  -34.9443   23.5101 C   0  0  0  0  0  0
  -16.5357  -29.9069   23.6317 C   0  0  0  0  0  0
  -16.7275  -28.6478   23.0360 C   0  0  0  0  0  0
  -26.4500  -31.6585   25.0715 C   0  0  0  0  0  0
  -25.3737  -31.3715   26.1448 C   0  0  0  0  0  0
  -27.0328  -30.3008   24.6158 C   0  0  0  0  0  0
  -27.6054  -32.4320   25.7490 C   0  0  0  0  0  0
  -27.5574  -37.1801   24.8470 C   0  0  0  0  0  0
  -21.4187  -29.3053   22.3684 N   0  0  0  0  0  0
  -26.4283  -37.3772   23.9406 N   0  0  0  0  0  0
  -24.6898  -31.0594   22.0953 N   0  0  0  0  0  0
  -23.4205  -28.8158   23.3012 O   0  0  0  0  0  0
  -28.3482  -26.4651   20.1077 O   0  0  0  0  0  0
  -26.5621  -34.8907   22.4673 O   0  0  0  0  0  0
  -23.5432  -32.1373   23.7336 O   0  0  0  0  0  0
  -29.6637  -19.3088   21.8899 C   0  0  0  0  0  0
  -29.3401  -17.9185   19.5097 C   0  0  0  0  0  0
  -29.0690  -20.0340   20.8148 C   0  0  0  0  0  0
  -29.0110  -19.3201   19.5695 C   0  0  0  0  0  0
  -29.7921  -17.1715   20.6396 C   0  0  0  0  0  0
  -30.0048  -17.9281   21.8166 C   0  0  0  0  0  0
  -28.2135  -21.2349   21.2247 C   0  0  0  0  0  0
  -28.7289  -23.7428   20.1729 C   0  0  0  0  0  0
  -28.1835  -25.1419   20.7587 C   0  0  0  0  0  0
  -28.5417  -19.9205   18.3950 N   0  0  0  0  0  0
  -27.2900  -20.9042   22.1313 N   0  0  0  0  0  0
  -29.7156  -15.7078   20.7088 N   0  0  0  0  0  0
  -28.1181  -22.5820   20.9295 N   0  3  0  0  0  0
  -30.4315  -17.2972   22.9371 F   0  0  0  0  0  0
  -31.4839  -12.5498   19.1456 H   0  0  0  0  0  0
  -30.3917  -11.4199   19.9038 H   0  0  0  0  0  0
  -29.7779  -11.7406   17.4849 H   0  0  0  0  0  0
  -29.6473  -13.4649   17.7261 H   0  0  0  0  0  0
  -27.8708  -11.2844   18.8677 H   0  0  0  0  0  0
  -27.3769  -12.5647   17.7914 H   0  0  0  0  0  0
  -27.6604  -14.2419   19.5013 H   0  0  0  0  0  0
  -28.7247  -12.0641   21.3763 H   0  0  0  0  0  0
  -28.4444  -13.7204   21.8323 H   0  0  0  0  0  0
  -25.2743   -9.5656   22.4767 H   0  0  0  0  0  0
  -23.9987   -7.4620   22.7490 H   0  0  0  0  0  0
  -21.0828   -8.8779   19.8966 H   0  0  0  0  0  0
  -22.3698  -10.9674   19.6184 H   0  0  0  0  0  0
  -21.2013   -7.6135   23.9700 H   0  0  0  0  0  0
  -21.1488   -6.0518   25.9075 H   0  0  0  0  0  0
  -22.0598   -2.7600   23.2860 H   0  0  0  0  0  0
  -22.4087  -11.9909   22.4827 H   0  0  0  0  0  0
  -21.1111  -13.1296   22.2619 H   0  0  0  0  0  0
  -24.6534  -15.8327   20.5126 H   0  0  0  0  0  0
  -26.2559  -15.6238   20.0252 H   0  0  0  0  0  0
  -26.7197  -32.5463   23.1103 H   0  0  0  0  0  0
  -25.0074  -33.9715   25.0426 H   0  0  0  0  0  0
  -22.7165  -31.3007   21.3955 H   0  0  0  0  0  0
  -23.3738  -35.9636   23.3309 H   0  0  0  0  0  0
  -24.3577  -36.8911   22.2058 H   0  0  0  0  0  0
  -23.7260  -37.6496   23.6653 H   0  0  0  0  0  0
  -26.0896  -31.5526   20.5957 H   0  0  0  0  0  0
  -26.8452  -30.8473   21.9954 H   0  0  0  0  0  0
  -28.1326  -28.9946   21.1661 H   0  0  0  0  0  0
  -26.0193  -25.9120   19.0177 H   0  0  0  0  0  0
  -23.9825  -27.2894   19.0227 H   0  0  0  0  0  0
  -23.7574  -30.5804   19.3995 H   0  0  0  0  0  0
  -22.7603  -29.2342   19.8607 H   0  0  0  0  0  0
  -25.1288  -36.1918   25.0830 H   0  0  0  0  0  0
  -20.9965  -28.3223   24.1379 H   0  0  0  0  0  0
  -20.5783  -26.2269   23.3540 H   0  0  0  0  0  0
  -21.6620  -26.7504   22.1049 H   0  0  0  0  0  0
  -19.6888  -25.6236   21.1307 H   0  0  0  0  0  0
  -19.6604  -27.3112   20.6710 H   0  0  0  0  0  0
  -17.4148  -26.6580   21.4174 H   0  0  0  0  0  0
  -18.0389  -26.0054   22.9118 H   0  0  0  0  0  0
  -19.7935  -30.7247   24.2266 H   0  0  0  0  0  0
  -17.5015  -31.6257   24.5143 H   0  0  0  0  0  0
  -15.5354  -30.2961   23.7623 H   0  0  0  0  0  0
  -15.8685  -28.0785   22.7068 H   0  0  0  0  0  0
  -24.5916  -30.7064   25.7784 H   0  0  0  0  0  0
  -24.8926  -32.2876   26.4874 H   0  0  0  0  0  0
  -25.8077  -30.8901   27.0226 H   0  0  0  0  0  0
  -26.2895  -29.6771   24.1184 H   0  0  0  0  0  0
  -27.4036  -29.7250   25.4650 H   0  0  0  0  0  0
  -27.8756  -30.4289   23.9360 H   0  0  0  0  0  0
  -27.2654  -33.3614   26.2062 H   0  0  0  0  0  0
  -28.3857  -32.6898   25.0323 H   0  0  0  0  0  0
  -28.0713  -31.8454   26.5420 H   0  0  0  0  0  0
  -28.2592  -38.0094   24.7488 H   0  0  0  0  0  0
  -28.1070  -36.2621   24.6316 H   0  0  0  0  0  0
  -27.2292  -37.1477   25.8876 H   0  0  0  0  0  0
  -20.9373  -29.8826   21.6938 H   0  0  0  0  0  0
  -26.0163  -38.2850   24.1404 H   0  0  0  0  0  0
  -29.7373  -19.7806   22.8587 H   0  0  0  0  0  0
  -29.1564  -17.3777   18.5930 H   0  0  0  0  0  0
  -29.8174  -23.6998   20.2185 H   0  0  0  0  0  0
  -28.4485  -23.6574   19.1223 H   0  0  0  0  0  0
  -28.6676  -25.2673   21.7282 H   0  0  0  0  0  0
  -27.1340  -24.9996   21.0167 H   0  0  0  0  0  0
  -28.7406  -19.4597   17.5110 H   0  0  0  0  0  0
  -28.6070  -20.9304   18.3089 H   0  0  0  0  0  0
  -27.2244  -19.9364   22.4121 H   0  0  0  0  0  0
  -26.6330  -21.5434   22.5483 H   0  0  0  0  0  0
  -28.8056  -15.3686   20.9715 H   0  0  0  0  0  0
  -27.2762  -22.9595   21.3346 H   0  0  0  0  0  0
  1 25  1  0  0  0
  1 30  2  0  0  0
  1 82  1  0  0  0
  2  3  1  0  0  0
  2 25  1  0  0  0
  2 85  1  0  0  0
  2 86  1  0  0  0
  3  4  1  0  0  0
  3 87  1  0  0  0
  3 88  1  0  0  0
  4  5  1  0  0  0
  4 89  1  0  0  0
  4 90  1  0  0  0
  5  6  1  0  0  0
  5 26  1  0  0  0
  5 91  1  0  0  0
  6 25  1  0  0  0
  6 92  1  0  0  0
  6 93  1  0  0  0
  7  8  2  0  0  0
  7 26  1  0  0  0
  7 29  1  0  0  0
  8  9  1  0  0  0
  8 22  1  0  0  0
  9 10  1  0  0  0
  9 27  2  0  0  0
 10 11  2  0  0  0
 10 15  1  0  0  0
 11 12  1  0  0  0
 11 94  1  0  0  0
 12 13  2  0  0  0
 12 95  1  0  0  0
 13 14  1  0  0  0
 13 31  1  0  0  0
 14 15  2  0  0  0
 14 96  1  0  0  0
 15 97  1  0  0  0
 16 17  2  0  0  0
 16 21  1  0  0  0
 16 31  1  0  0  0
 17 18  1  0  0  0
 17 98  1  0  0  0
 18 19  2  0  0  0
 18 99  1  0  0  0
 19 20  1  0  0  0
 19 24  1  0  0  0
 20 21  2  0  0  0
 20100  1  0  0  0
 21 23  1  0  0  0
 22 28  1  0  0  0
 22 32  2  0  0  0
 26 27  1  0  0  0
 28101  1  0  0  0
 28102  1  0  0  0
 29103  1  0  0  0
 29104  1  0  0  0
 33 34  1  0  0  0
 33 66  1  0  0  0
 33 70  2  0  0  0
 34 36  1  0  0  0
 34 59  1  0  0  0
 34105  1  0  0  0
 35 44  2  0  0  0
 35 45  1  0  0  0
 35 68  1  0  0  0
 36 56  1  0  0  0
 36106  1  0  0  0
 37 39  1  0  0  0
 37 47  1  0  0  0
 37 66  1  0  0  0
 37107  1  0  0  0
 38 43  2  0  0  0
 38 46  1  0  0  0
 38 47  1  0  0  0
 39 64  1  0  0  0
 39 67  2  0  0  0
 40 52  1  0  0  0
 40 53  2  0  0  0
 40 58  1  0  0  0
 41108  1  0  0  0
 41109  1  0  0  0
 41110  1  0  0  0
 41 48  1  0  0  0
 42 43  1  0  0  0
 42 66  1  0  0  0
 42111  1  0  0  0
 42112  1  0  0  0
 43 44  1  0  0  0
 44113  1  0  0  0
 45 46  2  0  0  0
 45114  1  0  0  0
 46115  1  0  0  0
 47116  1  0  0  0
 47117  1  0  0  0
 48 56  1  0  0  0
 48 65  1  0  0  0
 48118  1  0  0  0
 49 50  1  0  0  0
 49 53  1  0  0  0
 49 64  1  0  0  0
 49119  1  0  0  0
 50 51  1  0  0  0
 50120  1  0  0  0
 50121  1  0  0  0
 51 52  1  0  0  0
 51122  1  0  0  0
 51123  1  0  0  0
 52124  1  0  0  0
 52125  1  0  0  0
 53 54  1  0  0  0
 54 55  2  0  0  0
 54126  1  0  0  0
 55 57  1  0  0  0
 55127  1  0  0  0
 56 69  2  0  0  0
 57 58  2  0  0  0
 57128  1  0  0  0
 58129  1  0  0  0
 59 60  1  0  0  0
 59 61  1  0  0  0
 59 62  1  0  0  0
 60130  1  0  0  0
 60131  1  0  0  0
 60132  1  0  0  0
 61133  1  0  0  0
 61134  1  0  0  0
 61135  1  0  0  0
 62136  1  0  0  0
 62137  1  0  0  0
 62138  1  0  0  0
 63 65  1  0  0  0
 63139  1  0  0  0
 63140  1  0  0  0
 63141  1  0  0  0
 64142  1  0  0  0
 65143  1  0  0  0
 68 79  1  0  0  0
 71 73  2  0  0  0
 71 76  1  0  0  0
 71144  1  0  0  0
 72 74  2  0  0  0
 72 75  1  0  0  0
 72145  1  0  0  0
 73 74  1  0  0  0
 73 77  1  0  0  0
 74 80  1  0  0  0
 75 76  2  0  0  0
 75 82  1  0  0  0
 76 84  1  0  0  0
 77 81  1  0  0  0
 77 83  2  0  0  0
 78 79  1  0  0  0
 78 83  1  0  0  0
 78146  1  0  0  0
 78147  1  0  0  0
 79148  1  0  0  0
 79149  1  0  0  0
 80150  1  0  0  0
 80151  1  0  0  0
 81152  1  0  0  0
 81153  1  0  0  0
 82154  1  0  0  0
 83155  1  0  0  0
M  CHG  1  83   1
M  ISO  4   1 100  68 101  79 101  82 100
M  END
> <chiral flag>
0

> <version>
0

> <s_m_source_file>
/data/baiqing/PycharmProjects/Reinvent-master-3.2/result/LINK_invent/BTK/process_docking_weight1_custom_product_contain_oxygen_bond_distance_aromatic_linkinvent_7_9_3/rearranged_h_0070.sdf

> <i_m_source_file_index>
83

> <r_mmod_Potential_Energy-OPLS-2005>
81.0433883666992

> <r_mmod_Stretch_Energy-OPLS-2005>
88.2187042236328

> <r_mmod_Bend_Energy-OPLS-2005>
226.963043212891

> <r_mmod_Torsional_Energy-OPLS-2005>
310.020141601562

> <r_mmod_Improper_Torsional_Energy-OPLS-2005>
16.3126354217529

> <r_mmod_Van_der_Waal_Energy-OPLS-2005>
137.079940795898

> <r_mmod_Electrostatic_Energy-OPLS-2005>
-306.243896484375

> <r_mmod_Solvation_Energy-OPLS-2005>
-447.659210205078

> <b_mmod_Minimization_Converged-OPLS-2005>
0

> <r_mmod_RMS_Derivative-OPLS-2005>
2.54219365119934

$$$$
83
                    3D
 Structure written by MMmdl.
157165  0  0  1  0            999 V2000
  -30.5352  -14.8836   20.4834 C   0  0  0  0  0  0
  -30.4609  -12.5608   19.4594 C   0  0  0  0  0  0
  -29.5245  -12.5281   18.2302 C   0  0  0  0  0  0
  -28.0573  -12.3061   18.6513 C   0  0  0  0  0  0
  -27.6358  -13.2227   19.8300 C   0  0  2  0  0  0
  -28.6874  -13.1717   20.9531 C   0  0  0  0  0  0
  -25.2527  -13.8139   20.5663 C   0  0  0  0  0  0
  -24.1824  -13.0410   20.9194 C   0  0  0  0  0  0
  -24.6404  -11.6894   20.8728 C   0  0  0  0  0  0
  -23.9072  -10.4274   21.0390 C   0  0  0  0  0  0
  -24.3612   -9.4186   21.9160 C   0  0  0  0  0  0
  -23.6286   -8.2228   22.0750 C   0  0  0  0  0  0
  -22.4260   -8.0277   21.3559 C   0  0  0  0  0  0
  -21.9896   -9.0240   20.4653 C   0  0  0  0  0  0
  -22.7230  -10.2114   20.3053 C   0  0  0  0  0  0
  -21.6850   -6.0718   22.5274 C   0  0  0  0  0  0
  -21.3993   -6.5631   23.8202 C   0  0  0  0  0  0
  -21.3676   -5.6803   24.9182 C   0  0  0  0  0  0
  -21.6035   -4.3058   24.7241 C   0  0  0  0  0  0
  -21.8813   -3.8141   23.4376 C   0  0  0  0  0  0
  -21.9186   -4.6944   22.3421 C   0  0  0  0  0  0
  -22.7837  -13.5197   21.1896 C   0  0  0  0  0  0
  -22.1647   -4.2129   21.1002 F   0  0  0  0  0  0
  -21.5667   -3.4557   25.7764 F   0  0  0  0  0  0
  -29.9546  -13.6248   20.3648 N   0  0  0  0  0  0
  -26.2921  -12.9329   20.3183 N   0  0  0  0  0  0
  -25.9311  -11.6505   20.5668 N   0  0  0  0  0  0
  -22.0520  -12.8185   22.0476 N   0  0  0  0  0  0
  -25.4265  -15.1861   20.4088 N   0  0  0  0  0  0
  -31.7565  -14.9813   20.3157 O   0  0  0  0  0  0
  -21.6643   -6.8864   21.4234 O   0  0  0  0  0  0
  -22.3495  -14.5487   20.6741 O   0  0  0  0  0  0
  -24.6385  -31.8477   23.1898 C   0  0  0  0  0  0
  -25.9175  -32.4708   23.8276 C   0  0  1  0  0  0
  -27.2111  -27.1583   20.2068 C   0  0  0  0  0  0
  -25.5892  -33.8504   24.2195 N   0  0  0  0  0  0
  -23.4448  -30.4672   21.5324 C   0  0  2  0  0  0
  -24.8991  -28.8953   20.1256 C   0  0  0  0  0  0
  -22.7575  -29.4558   22.4850 C   0  0  0  0  0  0
  -18.0333  -28.1334   22.8465 C   0  0  0  0  0  0
  -24.1504  -36.7265   23.2643 C   0  0  0  0  0  0
  -25.9988  -30.7373   21.3847 C   0  0  0  0  0  0
  -26.0735  -29.3420   20.7499 C   0  0  0  0  0  0
  -27.2371  -28.4871   20.7781 C   0  0  0  0  0  0
  -26.0169  -26.8013   19.5522 C   0  0  0  0  0  0
  -24.8797  -27.6352   19.5105 C   0  0  0  0  0  0
  -23.6758  -29.7963   20.1529 C   0  0  0  0  0  0
  -25.4125  -36.3047   24.0331 C   0  0  1  0  0  0
  -20.5926  -28.3767   23.1289 C   0  0  2  0  0  0
  -20.6831  -26.9435   22.5556 C   0  0  0  0  0  0
  -19.5906  -26.6391   21.5236 C   0  0  0  0  0  0
  -18.2028  -26.7873   22.1579 C   0  0  0  0  0  0
  -19.1561  -28.8859   23.2843 C   0  0  0  0  0  0
  -18.9427  -30.1463   23.8826 C   0  0  0  0  0  0
  -17.6402  -30.6577   24.0409 C   0  0  0  0  0  0
  -25.9071  -34.9410   23.5078 C   0  0  0  0  0  0
  -16.5326  -29.9015   23.6209 C   0  0  0  0  0  0
  -16.7300  -28.6395   23.0331 C   0  0  0  0  0  0
  -26.4512  -31.6549   25.0679 C   0  0  0  0  0  0
  -25.3722  -31.3756   26.1391 C   0  0  0  0  0  0
  -27.0364  -30.2936   24.6230 C   0  0  0  0  0  0
  -27.6061  -32.4276   25.7453 C   0  0  0  0  0  0
  -27.5586  -37.1780   24.8465 C   0  0  0  0  0  0
  -21.4265  -29.3078   22.3642 N   0  0  0  0  0  0
  -26.4295  -37.3747   23.9415 N   0  0  0  0  0  0
  -24.7141  -31.0390   22.0915 N   0  0  0  0  0  0
  -23.4243  -28.8088   23.2977 O   0  0  0  0  0  0
  -28.2348  -26.1612   20.1511 O   0  0  0  0  0  0
  -26.5693  -34.8898   22.4678 O   0  0  0  0  0  0
  -23.5496  -32.1326   23.7109 O   0  0  0  0  0  0
  -28.5479  -19.7103   22.4513 C   0  0  0  0  0  0
  -29.6421  -18.7339   20.5158 C   0  0  0  0  0  0
  -28.4096  -18.4133   22.9976 C   0  0  0  0  0  0
  -29.1620  -19.9583   21.2070 C   0  0  0  0  0  0
  -29.5114  -17.3504   21.0452 C   0  0  0  0  0  0
  -28.8752  -17.2664   22.3093 C   0  0  0  0  0  0
  -28.5077  -25.2397   21.2223 C   0  0  0  0  0  0
  -28.7454  -23.8474   21.4451 C   0  0  0  0  0  0
  -28.5917  -22.5501   20.6217 C   0  0  0  0  0  0
  -27.6984  -18.2680   24.3383 C   0  0  0  0  0  0
  -29.1397  -23.5460   22.8964 C   0  0  0  0  0  0
  -28.6422  -16.0165   22.8799 N   0  0  0  0  0  0
  -29.4122  -21.4388   20.9365 N   0  0  0  0  0  0
  -29.7041  -16.0161   20.3378 N   0  0  0  0  0  0
  -27.7564  -22.4424   19.7210 O   0  0  0  0  0  0
  -31.4850  -12.7584   19.1406 H   0  0  0  0  0  0
  -30.4858  -11.5920   19.9612 H   0  0  0  0  0  0
  -29.8427  -11.7500   17.5363 H   0  0  0  0  0  0
  -29.6051  -13.4739   17.6937 H   0  0  0  0  0  0
  -27.9624  -11.2592   18.9483 H   0  0  0  0  0  0
  -27.3933  -12.4431   17.7983 H   0  0  0  0  0  0
  -27.6140  -14.2366   19.4314 H   0  0  0  0  0  0
  -28.7833  -12.1547   21.3359 H   0  0  0  0  0  0
  -28.3841  -13.7728   21.8035 H   0  0  0  0  0  0
  -25.2767   -9.5662   22.4732 H   0  0  0  0  0  0
  -24.0008   -7.4602   22.7452 H   0  0  0  0  0  0
  -21.0850   -8.8733   19.8946 H   0  0  0  0  0  0
  -22.3675  -10.9646   19.6172 H   0  0  0  0  0  0
  -21.1946   -7.6128   23.9696 H   0  0  0  0  0  0
  -21.1521   -6.0546   25.9079 H   0  0  0  0  0  0
  -22.0579   -2.7609   23.2877 H   0  0  0  0  0  0
  -22.4186  -11.9846   22.4827 H   0  0  0  0  0  0
  -21.1114  -13.1163   22.2676 H   0  0  0  0  0  0
  -24.6755  -15.8529   20.5427 H   0  0  0  0  0  0
  -26.2937  -15.6272   20.1344 H   0  0  0  0  0  0
  -26.7253  -32.5372   23.1028 H   0  0  0  0  0  0
  -24.9916  -33.9650   25.0245 H   0  0  0  0  0  0
  -22.7447  -31.2928   21.3754 H   0  0  0  0  0  0
  -23.3759  -35.9603   23.3298 H   0  0  0  0  0  0
  -24.3601  -36.8878   22.2062 H   0  0  0  0  0  0
  -23.7273  -37.6462   23.6671 H   0  0  0  0  0  0
  -26.1421  -31.4832   20.6030 H   0  0  0  0  0  0
  -26.8754  -30.7999   22.0170 H   0  0  0  0  0  0
  -28.1388  -28.8279   21.2624 H   0  0  0  0  0  0
  -25.9528  -25.8241   19.0929 H   0  0  0  0  0  0
  -23.9828  -27.2801   19.0201 H   0  0  0  0  0  0
  -23.8102  -30.5697   19.3962 H   0  0  0  0  0  0
  -22.7943  -29.2353   19.8402 H   0  0  0  0  0  0
  -25.1311  -36.1873   25.0824 H   0  0  0  0  0  0
  -21.0007  -28.3428   24.1415 H   0  0  0  0  0  0
  -20.5533  -26.2427   23.3830 H   0  0  0  0  0  0
  -21.6768  -26.7353   22.1552 H   0  0  0  0  0  0
  -19.7156  -25.6300   21.1279 H   0  0  0  0  0  0
  -19.6896  -27.3204   20.6795 H   0  0  0  0  0  0
  -17.4391  -26.6610   21.3907 H   0  0  0  0  0  0
  -18.0433  -25.9956   22.8912 H   0  0  0  0  0  0
  -19.7870  -30.7317   24.2198 H   0  0  0  0  0  0
  -17.4928  -31.6293   24.4924 H   0  0  0  0  0  0
  -15.5330  -30.2900   23.7442 H   0  0  0  0  0  0
  -15.8725  -28.0642   22.7103 H   0  0  0  0  0  0
  -24.5906  -30.7077   25.7745 H   0  0  0  0  0  0
  -24.8906  -32.2953   26.4714 H   0  0  0  0  0  0
  -25.8005  -30.9006   27.0231 H   0  0  0  0  0  0
  -26.2975  -29.6664   24.1218 H   0  0  0  0  0  0
  -27.3992  -29.7188   25.4771 H   0  0  0  0  0  0
  -27.8869  -30.4163   23.9518 H   0  0  0  0  0  0
  -27.2665  -33.3571   26.2028 H   0  0  0  0  0  0
  -28.3871  -32.6837   25.0285 H   0  0  0  0  0  0
  -28.0743  -31.8403   26.5371 H   0  0  0  0  0  0
  -28.2597  -38.0088   24.7499 H   0  0  0  0  0  0
  -28.1083  -36.2606   24.6283 H   0  0  0  0  0  0
  -27.2303  -37.1411   25.8870 H   0  0  0  0  0  0
  -20.9423  -29.8907   21.6957 H   0  0  0  0  0  0
  -26.0156  -38.2804   24.1413 H   0  0  0  0  0  0
  -28.1868  -20.5498   23.0296 H   0  0  0  0  0  0
  -30.1176  -18.8553   19.5549 H   0  0  0  0  0  0
  -28.6165  -25.8674   22.0982 H   0  0  0  0  0  0
  -27.6129  -19.2264   24.8505 H   0  0  0  0  0  0
  -28.2263  -17.5861   25.0067 H   0  0  0  0  0  0
  -26.6929  -17.8788   24.1750 H   0  0  0  0  0  0
  -29.5320  -24.4313   23.3982 H   0  0  0  0  0  0
  -29.9224  -22.7954   23.0000 H   0  0  0  0  0  0
  -28.2667  -23.2060   23.4585 H   0  0  0  0  0  0
  -27.9450  -15.9699   23.6147 H   0  0  0  0  0  0
  -28.5546  -15.2490   22.2316 H   0  0  0  0  0  0
  -30.1851  -21.7707   21.4987 H   0  0  0  0  0  0
  -28.8278  -15.7091   19.9515 H   0  0  0  0  0  0
  1 25  1  0  0  0
  1 30  2  0  0  0
  1 84  1  0  0  0
  2  3  1  0  0  0
  2 25  1  0  0  0
  2 86  1  0  0  0
  2 87  1  0  0  0
  3  4  1  0  0  0
  3 88  1  0  0  0
  3 89  1  0  0  0
  4  5  1  0  0  0
  4 90  1  0  0  0
  4 91  1  0  0  0
  5  6  1  0  0  0
  5 26  1  0  0  0
  5 92  1  0  0  0
  6 25  1  0  0  0
  6 93  1  0  0  0
  6 94  1  0  0  0
  7  8  2  0  0  0
  7 26  1  0  0  0
  7 29  1  0  0  0
  8  9  1  0  0  0
  8 22  1  0  0  0
  9 10  1  0  0  0
  9 27  2  0  0  0
 10 11  2  0  0  0
 10 15  1  0  0  0
 11 12  1  0  0  0
 11 95  1  0  0  0
 12 13  2  0  0  0
 12 96  1  0  0  0
 13 14  1  0  0  0
 13 31  1  0  0  0
 14 15  2  0  0  0
 14 97  1  0  0  0
 15 98  1  0  0  0
 16 17  2  0  0  0
 16 21  1  0  0  0
 16 31  1  0  0  0
 17 18  1  0  0  0
 17 99  1  0  0  0
 18 19  2  0  0  0
 18100  1  0  0  0
 19 20  1  0  0  0
 19 24  1  0  0  0
 20 21  2  0  0  0
 20101  1  0  0  0
 21 23  1  0  0  0
 22 28  1  0  0  0
 22 32  2  0  0  0
 26 27  1  0  0  0
 28102  1  0  0  0
 28103  1  0  0  0
 29104  1  0  0  0
 29105  1  0  0  0
 33 34  1  0  0  0
 33 66  1  0  0  0
 33 70  2  0  0  0
 34 36  1  0  0  0
 34 59  1  0  0  0
 34106  1  0  0  0
 35 44  2  0  0  0
 35 45  1  0  0  0
 35 68  1  0  0  0
 36 56  1  0  0  0
 36107  1  0  0  0
 37 39  1  0  0  0
 37 47  1  0  0  0
 37 66  1  0  0  0
 37108  1  0  0  0
 38 43  2  0  0  0
 38 46  1  0  0  0
 38 47  1  0  0  0
 39 64  1  0  0  0
 39 67  2  0  0  0
 40 52  1  0  0  0
 40 53  2  0  0  0
 40 58  1  0  0  0
 41109  1  0  0  0
 41110  1  0  0  0
 41111  1  0  0  0
 41 48  1  0  0  0
 42 43  1  0  0  0
 42 66  1  0  0  0
 42112  1  0  0  0
 42113  1  0  0  0
 43 44  1  0  0  0
 44114  1  0  0  0
 45 46  2  0  0  0
 45115  1  0  0  0
 46116  1  0  0  0
 47117  1  0  0  0
 47118  1  0  0  0
 48 56  1  0  0  0
 48 65  1  0  0  0
 48119  1  0  0  0
 49 50  1  0  0  0
 49 53  1  0  0  0
 49 64  1  0  0  0
 49120  1  0  0  0
 50 51  1  0  0  0
 50121  1  0  0  0
 50122  1  0  0  0
 51 52  1  0  0  0
 51123  1  0  0  0
 51124  1  0  0  0
 52125  1  0  0  0
 52126  1  0  0  0
 53 54  1  0  0  0
 54 55  2  0  0  0
 54127  1  0  0  0
 55 57  1  0  0  0
 55128  1  0  0  0
 56 69  2  0  0  0
 57 58  2  0  0  0
 57129  1  0  0  0
 58130  1  0  0  0
 59 60  1  0  0  0
 59 61  1  0  0  0
 59 62  1  0  0  0
 60131  1  0  0  0
 60132  1  0  0  0
 60133  1  0  0  0
 61134  1  0  0  0
 61135  1  0  0  0
 61136  1  0  0  0
 62137  1  0  0  0
 62138  1  0  0  0
 62139  1  0  0  0
 63 65  1  0  0  0
 63140  1  0  0  0
 63141  1  0  0  0
 63142  1  0  0  0
 64143  1  0  0  0
 65144  1  0  0  0
 68 77  1  0  0  0
 71 73  2  0  0  0
 71 74  1  0  0  0
 71145  1  0  0  0
 72 74  2  0  0  0
 72 75  1  0  0  0
 72146  1  0  0  0
 73 76  1  0  0  0
 73 80  1  0  0  0
 74 83  1  0  0  0
 75 76  2  0  0  0
 75 84  1  0  0  0
 76 82  1  0  0  0
 77 78  2  0  0  0
 77147  1  0  0  0
 78 79  1  0  0  0
 78 81  1  0  0  0
 79 83  1  0  0  0
 79 85  2  0  0  0
 80148  1  0  0  0
 80149  1  0  0  0
 80150  1  0  0  0
 81151  1  0  0  0
 81152  1  0  0  0
 81153  1  0  0  0
 82154  1  0  0  0
 82155  1  0  0  0
 83156  1  0  0  0
 84157  1  0  0  0
M  ISO  4   1 100  68 101  77 101  84 100
M  END
> <chiral flag>
0

> <version>
0

> <s_m_source_file>
/data/baiqing/PycharmProjects/Reinvent-master-3.2/result/LINK_invent/BTK/process_docking_weight1_custom_product_contain_oxygen_bond_distance_aromatic_linkinvent_7_9_3/rearranged_h_0070.sdf

> <i_m_source_file_index>
84

> <r_mmod_Potential_Energy-OPLS-2005>
447.389495849609

> <r_mmod_Stretch_Energy-OPLS-2005>
202.999420166016

> <r_mmod_Bend_Energy-OPLS-2005>
306.203338623047

> <r_mmod_Torsional_Energy-OPLS-2005>
363.694549560547

> <r_mmod_Improper_Torsional_Energy-OPLS-2005>
26.6433868408203

> <r_mmod_Van_der_Waal_Energy-OPLS-2005>
139.382690429688

> <r_mmod_Electrostatic_Energy-OPLS-2005>
-520.187805175781

> <r_mmod_Solvation_Energy-OPLS-2005>
-238.446182250977

> <b_mmod_Minimization_Converged-OPLS-2005>
0

> <r_mmod_RMS_Derivative-OPLS-2005>
5.20923519134521

$$$$
84
                    3D
 Structure written by MMmdl.
155164  0  0  1  0            999 V2000
  -30.6107  -14.7449   20.4573 C   0  0  0  0  0  0
  -30.4320  -12.4485   19.4937 C   0  0  0  0  0  0
  -29.5174  -12.5126   18.2490 C   0  0  0  0  0  0
  -28.0413  -12.3411   18.6545 C   0  0  0  0  0  0
  -27.6465  -13.2355   19.8600 C   0  0  2  0  0  0
  -28.6870  -13.1615   21.0006 C   0  0  0  0  0  0
  -25.2525  -13.8209   20.5717 C   0  0  0  0  0  0
  -24.1815  -13.0447   20.9209 C   0  0  0  0  0  0
  -24.6408  -11.6926   20.8748 C   0  0  0  0  0  0
  -23.9081  -10.4297   21.0397 C   0  0  0  0  0  0
  -24.3622   -9.4213   21.9179 C   0  0  0  0  0  0
  -23.6295   -8.2250   22.0753 C   0  0  0  0  0  0
  -22.4279   -8.0285   21.3545 C   0  0  0  0  0  0
  -21.9914   -9.0261   20.4651 C   0  0  0  0  0  0
  -22.7247  -10.2137   20.3057 C   0  0  0  0  0  0
  -21.6857   -6.0744   22.5282 C   0  0  0  0  0  0
  -21.4020   -6.5645   23.8216 C   0  0  0  0  0  0
  -21.3660   -5.6794   24.9176 C   0  0  0  0  0  0
  -21.6039   -4.3055   24.7225 C   0  0  0  0  0  0
  -21.8819   -3.8153   23.4343 C   0  0  0  0  0  0
  -21.9193   -4.6973   22.3401 C   0  0  0  0  0  0
  -22.7835  -13.5225   21.1856 C   0  0  0  0  0  0
  -22.1663   -4.2162   21.0980 F   0  0  0  0  0  0
  -21.5617   -3.4534   25.7736 F   0  0  0  0  0  0
  -29.9950  -13.5110   20.4329 N   0  0  0  0  0  0
  -26.2961  -12.9424   20.3313 N   0  0  0  0  0  0
  -25.9344  -11.6560   20.5759 N   0  0  0  0  0  0
  -22.0477  -12.8224   22.0417 N   0  0  0  0  0  0
  -25.4208  -15.1938   20.4174 N   0  0  0  0  0  0
  -31.7791  -14.8475   20.0720 O   0  0  0  0  0  0
  -21.6639   -6.8885   21.4245 O   0  0  0  0  0  0
  -22.3522  -14.5532   20.6704 O   0  0  0  0  0  0
  -24.6326  -31.8545   23.1991 C   0  0  0  0  0  0
  -25.9154  -32.4750   23.8338 C   0  0  1  0  0  0
  -27.2167  -27.2388   20.1316 C   0  0  0  0  0  0
  -25.5949  -33.8554   24.2265 N   0  0  0  0  0  0
  -23.4306  -30.4785   21.5422 C   0  0  2  0  0  0
  -24.8798  -28.9283   20.1064 C   0  0  0  0  0  0
  -22.7512  -29.4600   22.4900 C   0  0  0  0  0  0
  -18.0292  -28.1392   22.8489 C   0  0  0  0  0  0
  -24.1489  -36.7270   23.2640 C   0  0  0  0  0  0
  -25.9795  -30.7582   21.3870 C   0  0  0  0  0  0
  -26.0503  -29.3800   20.7272 C   0  0  0  0  0  0
  -27.2175  -28.5455   20.7350 C   0  0  0  0  0  0
  -26.0303  -26.8821   19.4470 C   0  0  0  0  0  0
  -24.8769  -27.6886   19.4531 C   0  0  0  0  0  0
  -23.6505  -29.8153   20.1576 C   0  0  0  0  0  0
  -25.4118  -36.3066   24.0329 C   0  0  1  0  0  0
  -20.5896  -28.3702   23.1265 C   0  0  2  0  0  0
  -20.6779  -26.9419   22.5411 C   0  0  0  0  0  0
  -19.5753  -26.6388   21.5217 C   0  0  0  0  0  0
  -18.1933  -26.7932   22.1631 C   0  0  0  0  0  0
  -19.1548  -28.8867   23.2871 C   0  0  0  0  0  0
  -18.9465  -30.1469   23.8887 C   0  0  0  0  0  0
  -17.6462  -30.6590   24.0564 C   0  0  0  0  0  0
  -25.9061  -34.9438   23.5100 C   0  0  0  0  0  0
  -16.5354  -29.9085   23.6336 C   0  0  0  0  0  0
  -16.7279  -28.6504   23.0357 C   0  0  0  0  0  0
  -26.4511  -31.6573   25.0731 C   0  0  0  0  0  0
  -25.3723  -31.3727   26.1439 C   0  0  0  0  0  0
  -27.0364  -30.2984   24.6245 C   0  0  0  0  0  0
  -27.6061  -32.4313   25.7502 C   0  0  0  0  0  0
  -27.5572  -37.1803   24.8471 C   0  0  0  0  0  0
  -21.4214  -29.3043   22.3644 N   0  0  0  0  0  0
  -26.4294  -37.3764   23.9400 N   0  0  0  0  0  0
  -24.6998  -31.0494   22.0982 N   0  0  0  0  0  0
  -23.4203  -28.8135   23.3010 O   0  0  0  0  0  0
  -28.2971  -26.3174   20.2348 O   0  0  0  0  0  0
  -26.5629  -34.8907   22.4665 O   0  0  0  0  0  0
  -23.5477  -32.1383   23.7277 O   0  0  0  0  0  0
  -29.6222  -18.5164   20.7147 C   0  0  0  0  0  0
  -29.9457  -17.2056   18.6873 C   0  0  0  0  0  0
  -29.5049  -19.7620   19.9522 C   0  0  0  0  0  0
  -29.8474  -17.2072   20.0967 C   0  0  0  0  0  0
  -29.8297  -18.3894   17.9325 C   0  0  0  0  0  0
  -29.6163  -19.6391   18.5477 C   0  0  0  0  0  0
  -28.4064  -22.0999   20.2114 C   0  0  0  0  0  0
  -30.2857  -23.4067   20.7278 C   0  0  0  0  0  0
  -30.5355  -21.8873   20.9925 C   0  0  0  0  0  0
  -28.7632  -23.5768   20.6713 C   0  0  1  0  0  0
  -28.1245  -24.8516   19.8769 C   0  0  0  0  0  0
  -29.3758  -21.1543   20.4777 N   0  0  0  0  0  0
  -29.8723  -15.8805   20.7776 N   0  0  0  0  0  0
  -27.3160  -21.8385   19.6950 O   0  0  0  0  0  0
  -29.9272  -18.3221   16.5833 F   0  0  0  0  0  0
  -29.5548  -20.7440   17.7641 F   0  0  0  0  0  0
  -31.4770  -12.5575   19.1996 H   0  0  0  0  0  0
  -30.3620  -11.4699   19.9718 H   0  0  0  0  0  0
  -29.8000  -11.7406   17.5323 H   0  0  0  0  0  0
  -29.6532  -13.4685   17.7399 H   0  0  0  0  0  0
  -27.8939  -11.2916   18.9110 H   0  0  0  0  0  0
  -27.3884  -12.5393   17.8039 H   0  0  0  0  0  0
  -27.6447  -14.2599   19.4875 H   0  0  0  0  0  0
  -28.7179  -12.1616   21.4360 H   0  0  0  0  0  0
  -28.4189  -13.8382   21.8130 H   0  0  0  0  0  0
  -25.2764   -9.5688   22.4754 H   0  0  0  0  0  0
  -24.0007   -7.4641   22.7469 H   0  0  0  0  0  0
  -21.0840   -8.8782   19.8955 H   0  0  0  0  0  0
  -22.3702  -10.9676   19.6164 H   0  0  0  0  0  0
  -21.2024   -7.6157   23.9729 H   0  0  0  0  0  0
  -21.1474   -6.0519   25.9077 H   0  0  0  0  0  0
  -22.0597   -2.7617   23.2837 H   0  0  0  0  0  0
  -22.4091  -11.9891   22.4823 H   0  0  0  0  0  0
  -21.1097  -13.1254   22.2615 H   0  0  0  0  0  0
  -24.6510  -15.8438   20.5325 H   0  0  0  0  0  0
  -26.2695  -15.6384   20.0906 H   0  0  0  0  0  0
  -26.7215  -32.5399   23.1073 H   0  0  0  0  0  0
  -25.0093  -33.9689   25.0410 H   0  0  0  0  0  0
  -22.7282  -31.3018   21.3975 H   0  0  0  0  0  0
  -23.3753  -35.9602   23.3321 H   0  0  0  0  0  0
  -24.3571  -36.8875   22.2050 H   0  0  0  0  0  0
  -23.7245  -37.6481   23.6648 H   0  0  0  0  0  0
  -26.1268  -31.5192   20.6191 H   0  0  0  0  0  0
  -26.8547  -30.8047   22.0235 H   0  0  0  0  0  0
  -28.1057  -28.8819   21.2513 H   0  0  0  0  0  0
  -25.9488  -25.9569   18.8989 H   0  0  0  0  0  0
  -23.9870  -27.3466   18.9425 H   0  0  0  0  0  0
  -23.7738  -30.5938   19.4038 H   0  0  0  0  0  0
  -22.7690  -29.2493   19.8514 H   0  0  0  0  0  0
  -25.1304  -36.1915   25.0824 H   0  0  0  0  0  0
  -21.0001  -28.3290   24.1383 H   0  0  0  0  0  0
  -20.5685  -26.2313   23.3618 H   0  0  0  0  0  0
  -21.6642  -26.7443   22.1202 H   0  0  0  0  0  0
  -19.6913  -25.6298   21.1248 H   0  0  0  0  0  0
  -19.6688  -27.3199   20.6744 H   0  0  0  0  0  0
  -17.4204  -26.6682   21.4034 H   0  0  0  0  0  0
  -18.0333  -26.0072   22.9028 H   0  0  0  0  0  0
  -19.7940  -30.7296   24.2244 H   0  0  0  0  0  0
  -17.5012  -31.6267   24.5173 H   0  0  0  0  0  0
  -15.5355  -30.2983   23.7664 H   0  0  0  0  0  0
  -15.8676  -28.0821   22.7074 H   0  0  0  0  0  0
  -24.5911  -30.7057   25.7761 H   0  0  0  0  0  0
  -24.8890  -32.2894   26.4831 H   0  0  0  0  0  0
  -25.8033  -30.8928   27.0234 H   0  0  0  0  0  0
  -26.2962  -29.6721   24.1246 H   0  0  0  0  0  0
  -27.4000  -29.7255   25.4785 H   0  0  0  0  0  0
  -27.8859  -30.4240   23.9528 H   0  0  0  0  0  0
  -27.2673  -33.3617   26.2066 H   0  0  0  0  0  0
  -28.3877  -32.6868   25.0334 H   0  0  0  0  0  0
  -28.0719  -31.8445   26.5428 H   0  0  0  0  0  0
  -28.2618  -38.0073   24.7488 H   0  0  0  0  0  0
  -28.1047  -36.2607   24.6346 H   0  0  0  0  0  0
  -27.2284  -37.1504   25.8875 H   0  0  0  0  0  0
  -20.9399  -29.8753   21.6832 H   0  0  0  0  0  0
  -26.0176  -38.2845   24.1381 H   0  0  0  0  0  0
  -29.5407  -18.5701   21.7911 H   0  0  0  0  0  0
  -30.0904  -16.2803   18.1484 H   0  0  0  0  0  0
  -30.7252  -23.6966   19.7726 H   0  0  0  0  0  0
  -30.7404  -24.0322   21.4967 H   0  0  0  0  0  0
  -30.6182  -21.6905   22.0622 H   0  0  0  0  0  0
  -31.4601  -21.5499   20.5225 H   0  0  0  0  0  0
  -28.4050  -23.6404   21.6993 H   0  0  0  0  0  0
  -27.0663  -24.6145   19.9428 H   0  0  0  0  0  0
  -28.3782  -24.7571   18.8208 H   0  0  0  0  0  0
  -29.0648  -15.6930   21.3536 H   0  0  0  0  0  0
  1 25  1  0  0  0
  1 30  2  0  0  0
  1 83  1  0  0  0
  2  3  1  0  0  0
  2 25  1  0  0  0
  2 87  1  0  0  0
  2 88  1  0  0  0
  3  4  1  0  0  0
  3 89  1  0  0  0
  3 90  1  0  0  0
  4  5  1  0  0  0
  4 91  1  0  0  0
  4 92  1  0  0  0
  5  6  1  0  0  0
  5 26  1  0  0  0
  5 93  1  0  0  0
  6 25  1  0  0  0
  6 94  1  0  0  0
  6 95  1  0  0  0
  7  8  2  0  0  0
  7 26  1  0  0  0
  7 29  1  0  0  0
  8  9  1  0  0  0
  8 22  1  0  0  0
  9 10  1  0  0  0
  9 27  2  0  0  0
 10 11  2  0  0  0
 10 15  1  0  0  0
 11 12  1  0  0  0
 11 96  1  0  0  0
 12 13  2  0  0  0
 12 97  1  0  0  0
 13 14  1  0  0  0
 13 31  1  0  0  0
 14 15  2  0  0  0
 14 98  1  0  0  0
 15 99  1  0  0  0
 16 17  2  0  0  0
 16 21  1  0  0  0
 16 31  1  0  0  0
 17 18  1  0  0  0
 17100  1  0  0  0
 18 19  2  0  0  0
 18101  1  0  0  0
 19 20  1  0  0  0
 19 24  1  0  0  0
 20 21  2  0  0  0
 20102  1  0  0  0
 21 23  1  0  0  0
 22 28  1  0  0  0
 22 32  2  0  0  0
 26 27  1  0  0  0
 28103  1  0  0  0
 28104  1  0  0  0
 29105  1  0  0  0
 29106  1  0  0  0
 33 34  1  0  0  0
 33 66  1  0  0  0
 33 70  2  0  0  0
 34 36  1  0  0  0
 34 59  1  0  0  0
 34107  1  0  0  0
 35 44  2  0  0  0
 35 45  1  0  0  0
 35 68  1  0  0  0
 36 56  1  0  0  0
 36108  1  0  0  0
 37 39  1  0  0  0
 37 47  1  0  0  0
 37 66  1  0  0  0
 37109  1  0  0  0
 38 43  2  0  0  0
 38 46  1  0  0  0
 38 47  1  0  0  0
 39 64  1  0  0  0
 39 67  2  0  0  0
 40 52  1  0  0  0
 40 53  2  0  0  0
 40 58  1  0  0  0
 41110  1  0  0  0
 41111  1  0  0  0
 41112  1  0  0  0
 41 48  1  0  0  0
 42 43  1  0  0  0
 42 66  1  0  0  0
 42113  1  0  0  0
 42114  1  0  0  0
 43 44  1  0  0  0
 44115  1  0  0  0
 45 46  2  0  0  0
 45116  1  0  0  0
 46117  1  0  0  0
 47118  1  0  0  0
 47119  1  0  0  0
 48 56  1  0  0  0
 48 65  1  0  0  0
 48120  1  0  0  0
 49 50  1  0  0  0
 49 53  1  0  0  0
 49 64  1  0  0  0
 49121  1  0  0  0
 50 51  1  0  0  0
 50122  1  0  0  0
 50123  1  0  0  0
 51 52  1  0  0  0
 51124  1  0  0  0
 51125  1  0  0  0
 52126  1  0  0  0
 52127  1  0  0  0
 53 54  1  0  0  0
 54 55  2  0  0  0
 54128  1  0  0  0
 55 57  1  0  0  0
 55129  1  0  0  0
 56 69  2  0  0  0
 57 58  2  0  0  0
 57130  1  0  0  0
 58131  1  0  0  0
 59 60  1  0  0  0
 59 61  1  0  0  0
 59 62  1  0  0  0
 60132  1  0  0  0
 60133  1  0  0  0
 60134  1  0  0  0
 61135  1  0  0  0
 61136  1  0  0  0
 61137  1  0  0  0
 62138  1  0  0  0
 62139  1  0  0  0
 62140  1  0  0  0
 63 65  1  0  0  0
 63141  1  0  0  0
 63142  1  0  0  0
 63143  1  0  0  0
 64144  1  0  0  0
 65145  1  0  0  0
 68 81  1  0  0  0
 71 73  2  0  0  0
 71 74  1  0  0  0
 71146  1  0  0  0
 72 74  2  0  0  0
 72 75  1  0  0  0
 72147  1  0  0  0
 73 76  1  0  0  0
 73 82  1  0  0  0
 74 83  1  0  0  0
 75 76  2  0  0  0
 75 85  1  0  0  0
 76 86  1  0  0  0
 77 80  1  0  0  0
 77 82  1  0  0  0
 77 84  2  0  0  0
 78 79  1  0  0  0
 78 80  1  0  0  0
 78148  1  0  0  0
 78149  1  0  0  0
 79 82  1  0  0  0
 79150  1  0  0  0
 79151  1  0  0  0
 80 81  1  0  0  0
 80152  1  0  0  0
 81153  1  0  0  0
 81154  1  0  0  0
 83155  1  0  0  0
M  ISO  4   1 100  68 101  81 101  83 100
M  END
> <chiral flag>
0

> <version>
0

> <s_m_source_file>
/data/baiqing/PycharmProjects/Reinvent-master-3.2/result/LINK_invent/BTK/process_docking_weight1_custom_product_contain_oxygen_bond_distance_aromatic_linkinvent_7_9_3/rearranged_h_0070.sdf

> <i_m_source_file_index>
85

> <r_mmod_Potential_Energy-OPLS-2005>
329.272247314453

> <r_mmod_Stretch_Energy-OPLS-2005>
133.572463989258

> <r_mmod_Bend_Energy-OPLS-2005>
203.959213256836

> <r_mmod_Torsional_Energy-OPLS-2005>
315.611907958984

> <r_mmod_Improper_Torsional_Energy-OPLS-2005>
5.95462417602539

> <r_mmod_Van_der_Waal_Energy-OPLS-2005>
136.06315612793

> <r_mmod_Electrostatic_Energy-OPLS-2005>
-339.860137939453

> <r_mmod_Solvation_Energy-OPLS-2005>
-219.733871459961

> <b_mmod_Minimization_Converged-OPLS-2005>
0

> <r_mmod_RMS_Derivative-OPLS-2005>
1.29958593845367

$$$$
85
                    3D
 Structure written by MMmdl.
157165  0  0  1  0            999 V2000
  -30.6262  -14.7285   20.4674 C   0  0  0  0  0  0
  -30.4346  -12.4482   19.4526 C   0  0  0  0  0  0
  -29.5055  -12.5104   18.2211 C   0  0  0  0  0  0
  -28.0341  -12.3331   18.6464 C   0  0  0  0  0  0
  -27.6444  -13.2302   19.8517 C   0  0  2  0  0  0
  -28.6964  -13.1586   20.9790 C   0  0  0  0  0  0
  -25.2548  -13.8197   20.5748 C   0  0  0  0  0  0
  -24.1827  -13.0448   20.9252 C   0  0  0  0  0  0
  -24.6409  -11.6921   20.8773 C   0  0  0  0  0  0
  -23.9089  -10.4292   21.0426 C   0  0  0  0  0  0
  -24.3634   -9.4204   21.9196 C   0  0  0  0  0  0
  -23.6303   -8.2246   22.0753 C   0  0  0  0  0  0
  -22.4282   -8.0293   21.3548 C   0  0  0  0  0  0
  -21.9930   -9.0271   20.4647 C   0  0  0  0  0  0
  -22.7270  -10.2146   20.3066 C   0  0  0  0  0  0
  -21.6857   -6.0753   22.5285 C   0  0  0  0  0  0
  -21.4007   -6.5653   23.8222 C   0  0  0  0  0  0
  -21.3657   -5.6804   24.9182 C   0  0  0  0  0  0
  -21.6050   -4.3068   24.7224 C   0  0  0  0  0  0
  -21.8816   -3.8160   23.4341 C   0  0  0  0  0  0
  -21.9188   -4.6979   22.3401 C   0  0  0  0  0  0
  -22.7849  -13.5240   21.1900 C   0  0  0  0  0  0
  -22.1666   -4.2176   21.0978 F   0  0  0  0  0  0
  -21.5627   -3.4540   25.7727 F   0  0  0  0  0  0
  -29.9918  -13.5087   20.3830 N   0  0  0  0  0  0
  -26.2973  -12.9405   20.3325 N   0  0  0  0  0  0
  -25.9342  -11.6544   20.5764 N   0  0  0  0  0  0
  -22.0467  -12.8215   22.0417 N   0  0  0  0  0  0
  -25.4213  -15.1923   20.4167 N   0  0  0  0  0  0
  -31.8251  -14.8189   20.1951 O   0  0  0  0  0  0
  -21.6644   -6.8896   21.4247 O   0  0  0  0  0  0
  -22.3560  -14.5558   20.6748 O   0  0  0  0  0  0
  -24.6310  -31.8535   23.1951 C   0  0  0  0  0  0
  -25.9124  -32.4742   23.8298 C   0  0  1  0  0  0
  -27.2335  -27.2537   20.1333 C   0  0  0  0  0  0
  -25.5901  -33.8553   24.2222 N   0  0  0  0  0  0
  -23.4303  -30.4768   21.5334 C   0  0  2  0  0  0
  -24.8832  -28.9172   20.1074 C   0  0  0  0  0  0
  -22.7506  -29.4613   22.4831 C   0  0  0  0  0  0
  -18.0297  -28.1412   22.8521 C   0  0  0  0  0  0
  -24.1469  -36.7247   23.2648 C   0  0  0  0  0  0
  -25.9769  -30.7617   21.3799 C   0  0  0  0  0  0
  -26.0516  -29.3826   20.7215 C   0  0  0  0  0  0
  -27.2286  -28.5655   20.7195 C   0  0  0  0  0  0
  -26.0443  -26.8590   19.4812 C   0  0  0  0  0  0
  -24.8865  -27.6642   19.4736 C   0  0  0  0  0  0
  -23.6529  -29.8053   20.1510 C   0  0  0  0  0  0
  -25.4101  -36.3069   24.0336 C   0  0  1  0  0  0
  -20.5917  -28.3699   23.1253 C   0  0  2  0  0  0
  -20.6777  -26.9400   22.5420 C   0  0  0  0  0  0
  -19.5747  -26.6387   21.5222 C   0  0  0  0  0  0
  -18.1930  -26.7961   22.1635 C   0  0  0  0  0  0
  -19.1574  -28.8855   23.2904 C   0  0  0  0  0  0
  -18.9509  -30.1460   23.8926 C   0  0  0  0  0  0
  -17.6521  -30.6619   24.0570 C   0  0  0  0  0  0
  -25.9040  -34.9446   23.5078 C   0  0  0  0  0  0
  -16.5400  -29.9129   23.6344 C   0  0  0  0  0  0
  -16.7287  -28.6533   23.0381 C   0  0  0  0  0  0
  -26.4451  -31.6589   25.0718 C   0  0  0  0  0  0
  -25.3640  -31.3836   26.1424 C   0  0  0  0  0  0
  -27.0254  -30.2973   24.6246 C   0  0  0  0  0  0
  -27.6006  -32.4305   25.7519 C   0  0  0  0  0  0
  -27.5560  -37.1773   24.8478 C   0  0  0  0  0  0
  -21.4198  -29.3065   22.3606 N   0  0  0  0  0  0
  -26.4272  -37.3769   23.9433 N   0  0  0  0  0  0
  -24.6980  -31.0491   22.0914 N   0  0  0  0  0  0
  -23.4235  -28.8151   23.2910 O   0  0  0  0  0  0
  -28.3444  -26.3745   20.1534 O   0  0  0  0  0  0
  -26.5654  -34.8938   22.4675 O   0  0  0  0  0  0
  -23.5443  -32.1362   23.7202 O   0  0  0  0  0  0
  -30.6481  -19.8728   22.0438 C   0  0  0  0  0  0
  -31.1837  -18.7135   22.6409 C   0  0  0  0  0  0
  -29.6256  -18.4696   20.3433 C   0  0  0  0  0  0
  -29.8570  -19.8113   20.8729 C   0  0  0  0  0  0
  -30.1565  -17.2517   20.9547 C   0  0  0  0  0  0
  -30.9455  -17.4282   22.1151 C   0  0  0  0  0  0
  -29.1449  -22.3244   20.8520 C   0  0  0  0  0  0
  -31.8382  -23.6751   19.5954 C   0  0  0  0  0  0
  -30.6662  -24.3447   20.3434 C   0  0  0  0  0  0
  -28.1568  -24.9107   20.5025 C   0  0  0  0  0  0
  -29.2425  -23.7550   20.1038 C   0  0  2  0  0  0
  -29.4295  -21.0983   20.2496 N   0  0  0  0  0  0
  -29.8325  -15.8630   20.5395 N   0  0  0  0  0  0
  -28.7845  -22.3453   22.0315 O   0  0  0  0  0  0
  -31.4394  -16.3564   22.7807 F   0  0  0  0  0  0
  -31.4743  -12.5766   19.1444 H   0  0  0  0  0  0
  -30.3775  -11.4694   19.9305 H   0  0  0  0  0  0
  -29.7816  -11.7379   17.5010 H   0  0  0  0  0  0
  -29.6317  -13.4664   17.7092 H   0  0  0  0  0  0
  -27.8998  -11.2842   18.9094 H   0  0  0  0  0  0
  -27.3708  -12.5249   17.8028 H   0  0  0  0  0  0
  -27.6371  -14.2521   19.4736 H   0  0  0  0  0  0
  -28.7357  -12.1627   21.4228 H   0  0  0  0  0  0
  -28.4424  -13.8450   21.7883 H   0  0  0  0  0  0
  -25.2764   -9.5698   22.4791 H   0  0  0  0  0  0
  -24.0013   -7.4644   22.7469 H   0  0  0  0  0  0
  -21.0867   -8.8800   19.8951 H   0  0  0  0  0  0
  -22.3728  -10.9693   19.6191 H   0  0  0  0  0  0
  -21.1994   -7.6158   23.9740 H   0  0  0  0  0  0
  -21.1489   -6.0524   25.9095 H   0  0  0  0  0  0
  -22.0587   -2.7620   23.2827 H   0  0  0  0  0  0
  -22.4049  -11.9853   22.4785 H   0  0  0  0  0  0
  -21.1089  -13.1253   22.2613 H   0  0  0  0  0  0
  -24.6547  -15.8410   20.5576 H   0  0  0  0  0  0
  -26.2556  -15.6389   20.0605 H   0  0  0  0  0  0
  -26.7191  -32.5371   23.1029 H   0  0  0  0  0  0
  -24.9962  -33.9702   25.0304 H   0  0  0  0  0  0
  -22.7290  -31.2992   21.3795 H   0  0  0  0  0  0
  -23.3752  -35.9559   23.3313 H   0  0  0  0  0  0
  -24.3552  -36.8852   22.2060 H   0  0  0  0  0  0
  -23.7197  -37.6446   23.6647 H   0  0  0  0  0  0
  -26.1246  -31.5248   20.6145 H   0  0  0  0  0  0
  -26.8537  -30.8044   22.0158 H   0  0  0  0  0  0
  -28.1250  -28.9211   21.2070 H   0  0  0  0  0  0
  -25.9965  -25.9127   18.9643 H   0  0  0  0  0  0
  -23.9976  -27.3090   18.9734 H   0  0  0  0  0  0
  -23.7748  -30.5814   19.3935 H   0  0  0  0  0  0
  -22.7707  -29.2386   19.8455 H   0  0  0  0  0  0
  -25.1272  -36.1886   25.0822 H   0  0  0  0  0  0
  -21.0049  -28.3265   24.1348 H   0  0  0  0  0  0
  -20.5604  -26.2308   23.3640 H   0  0  0  0  0  0
  -21.6642  -26.7378   22.1242 H   0  0  0  0  0  0
  -19.6895  -25.6293   21.1235 H   0  0  0  0  0  0
  -19.6683  -27.3225   20.6774 H   0  0  0  0  0  0
  -17.4199  -26.6747   21.4048 H   0  0  0  0  0  0
  -18.0303  -26.0116   22.9025 H   0  0  0  0  0  0
  -19.7996  -30.7254   24.2308 H   0  0  0  0  0  0
  -17.5098  -31.6306   24.5143 H   0  0  0  0  0  0
  -15.5413  -30.3041   23.7663 H   0  0  0  0  0  0
  -15.8704  -28.0845   22.7104 H   0  0  0  0  0  0
  -24.5961  -30.6965   25.7837 H   0  0  0  0  0  0
  -24.8652  -32.3023   26.4525 H   0  0  0  0  0  0
  -25.7956  -30.9357   27.0383 H   0  0  0  0  0  0
  -26.2853  -29.6770   24.1180 H   0  0  0  0  0  0
  -27.3794  -29.7186   25.4788 H   0  0  0  0  0  0
  -27.8781  -30.4187   23.9566 H   0  0  0  0  0  0
  -27.2672  -33.3729   26.1869 H   0  0  0  0  0  0
  -28.3970  -32.6615   25.0432 H   0  0  0  0  0  0
  -28.0449  -31.8524   26.5631 H   0  0  0  0  0  0
  -28.2567  -38.0076   24.7517 H   0  0  0  0  0  0
  -28.1055  -36.2609   24.6285 H   0  0  0  0  0  0
  -27.2289  -37.1391   25.8885 H   0  0  0  0  0  0
  -20.9338  -29.8787   21.6849 H   0  0  0  0  0  0
  -26.0137  -38.2825   24.1476 H   0  0  0  0  0  0
  -30.8764  -20.8240   22.5047 H   0  0  0  0  0  0
  -31.7773  -18.8105   23.5372 H   0  0  0  0  0  0
  -29.0231  -18.3702   19.4525 H   0  0  0  0  0  0
  -32.7800  -24.1609   19.8567 H   0  0  0  0  0  0
  -31.7297  -23.7583   18.5130 H   0  0  0  0  0  0
  -31.9482  -22.6178   19.8410 H   0  0  0  0  0  0
  -30.6716  -25.3957   20.0575 H   0  0  0  0  0  0
  -30.8806  -24.3427   21.4146 H   0  0  0  0  0  0
  -28.0462  -24.8906   21.5887 H   0  0  0  0  0  0
  -27.1943  -24.5592   20.1331 H   0  0  0  0  0  0
  -29.1338  -23.5705   19.0347 H   0  0  0  0  0  0
  -29.4701  -21.1167   19.2367 H   0  0  0  0  0  0
  -28.8498  -15.6801   20.4216 H   0  0  0  0  0  0
  1 25  1  0  0  0
  1 30  2  0  0  0
  1 83  1  0  0  0
  2  3  1  0  0  0
  2 25  1  0  0  0
  2 86  1  0  0  0
  2 87  1  0  0  0
  3  4  1  0  0  0
  3 88  1  0  0  0
  3 89  1  0  0  0
  4  5  1  0  0  0
  4 90  1  0  0  0
  4 91  1  0  0  0
  5  6  1  0  0  0
  5 26  1  0  0  0
  5 92  1  0  0  0
  6 25  1  0  0  0
  6 93  1  0  0  0
  6 94  1  0  0  0
  7  8  2  0  0  0
  7 26  1  0  0  0
  7 29  1  0  0  0
  8  9  1  0  0  0
  8 22  1  0  0  0
  9 10  1  0  0  0
  9 27  2  0  0  0
 10 11  2  0  0  0
 10 15  1  0  0  0
 11 12  1  0  0  0
 11 95  1  0  0  0
 12 13  2  0  0  0
 12 96  1  0  0  0
 13 14  1  0  0  0
 13 31  1  0  0  0
 14 15  2  0  0  0
 14 97  1  0  0  0
 15 98  1  0  0  0
 16 17  2  0  0  0
 16 21  1  0  0  0
 16 31  1  0  0  0
 17 18  1  0  0  0
 17 99  1  0  0  0
 18 19  2  0  0  0
 18100  1  0  0  0
 19 20  1  0  0  0
 19 24  1  0  0  0
 20 21  2  0  0  0
 20101  1  0  0  0
 21 23  1  0  0  0
 22 28  1  0  0  0
 22 32  2  0  0  0
 26 27  1  0  0  0
 28102  1  0  0  0
 28103  1  0  0  0
 29104  1  0  0  0
 29105  1  0  0  0
 33 34  1  0  0  0
 33 66  1  0  0  0
 33 70  2  0  0  0
 34 36  1  0  0  0
 34 59  1  0  0  0
 34106  1  0  0  0
 35 44  2  0  0  0
 35 45  1  0  0  0
 35 68  1  0  0  0
 36 56  1  0  0  0
 36107  1  0  0  0
 37 39  1  0  0  0
 37 47  1  0  0  0
 37 66  1  0  0  0
 37108  1  0  0  0
 38 43  2  0  0  0
 38 46  1  0  0  0
 38 47  1  0  0  0
 39 64  1  0  0  0
 39 67  2  0  0  0
 40 52  1  0  0  0
 40 53  2  0  0  0
 40 58  1  0  0  0
 41109  1  0  0  0
 41110  1  0  0  0
 41111  1  0  0  0
 41 48  1  0  0  0
 42 43  1  0  0  0
 42 66  1  0  0  0
 42112  1  0  0  0
 42113  1  0  0  0
 43 44  1  0  0  0
 44114  1  0  0  0
 45 46  2  0  0  0
 45115  1  0  0  0
 46116  1  0  0  0
 47117  1  0  0  0
 47118  1  0  0  0
 48 56  1  0  0  0
 48 65  1  0  0  0
 48119  1  0  0  0
 49 50  1  0  0  0
 49 53  1  0  0  0
 49 64  1  0  0  0
 49120  1  0  0  0
 50 51  1  0  0  0
 50121  1  0  0  0
 50122  1  0  0  0
 51 52  1  0  0  0
 51123  1  0  0  0
 51124  1  0  0  0
 52125  1  0  0  0
 52126  1  0  0  0
 53 54  1  0  0  0
 54 55  2  0  0  0
 54127  1  0  0  0
 55 57  1  0  0  0
 55128  1  0  0  0
 56 69  2  0  0  0
 57 58  2  0  0  0
 57129  1  0  0  0
 58130  1  0  0  0
 59 60  1  0  0  0
 59 61  1  0  0  0
 59 62  1  0  0  0
 60131  1  0  0  0
 60132  1  0  0  0
 60133  1  0  0  0
 61134  1  0  0  0
 61135  1  0  0  0
 61136  1  0  0  0
 62137  1  0  0  0
 62138  1  0  0  0
 62139  1  0  0  0
 63 65  1  0  0  0
 63140  1  0  0  0
 63141  1  0  0  0
 63142  1  0  0  0
 64143  1  0  0  0
 65144  1  0  0  0
 68 80  1  0  0  0
 71 72  2  0  0  0
 71 74  1  0  0  0
 71145  1  0  0  0
 72 76  1  0  0  0
 72146  1  0  0  0
 73 74  2  0  0  0
 73 75  1  0  0  0
 73147  1  0  0  0
 74 82  1  0  0  0
 75 76  2  0  0  0
 75 83  1  0  0  0
 76 85  1  0  0  0
 77 81  1  0  0  0
 77 82  1  0  0  0
 77 84  2  0  0  0
 78 79  1  0  0  0
 78148  1  0  0  0
 78149  1  0  0  0
 78150  1  0  0  0
 79151  1  0  0  0
 79152  1  0  0  0
 79 81  1  0  0  0
 80 81  1  0  0  0
 80153  1  0  0  0
 80154  1  0  0  0
 81155  1  0  0  0
 82156  1  0  0  0
 83157  1  0  0  0
M  ISO  4   1 100  68 101  80 101  83 100
M  END
> <chiral flag>
0

> <version>
0

> <s_m_source_file>
/data/baiqing/PycharmProjects/Reinvent-master-3.2/result/LINK_invent/BTK/process_docking_weight1_custom_product_contain_oxygen_bond_distance_aromatic_linkinvent_7_9_3/rearranged_h_0070.sdf

> <i_m_source_file_index>
86

> <r_mmod_Potential_Energy-OPLS-2005>
172.668502807617

> <r_mmod_Stretch_Energy-OPLS-2005>
135.321701049805

> <r_mmod_Bend_Energy-OPLS-2005>
158.022644042969

> <r_mmod_Torsional_Energy-OPLS-2005>
275.509521484375

> <r_mmod_Improper_Torsional_Energy-OPLS-2005>
9.09053134918213

> <r_mmod_Van_der_Waal_Energy-OPLS-2005>
137.512634277344

> <r_mmod_Electrostatic_Energy-OPLS-2005>
-394.678680419922

> <r_mmod_Solvation_Energy-OPLS-2005>
-230.460647583008

> <b_mmod_Minimization_Converged-OPLS-2005>
0

> <r_mmod_RMS_Derivative-OPLS-2005>
4.12435340881348

$$$$
86
                    3D
 Structure written by MMmdl.
152160  0  0  1  0            999 V2000
  -30.6113  -14.6535   20.4959 C   0  0  0  0  0  0
  -30.4403  -12.4000   19.4549 C   0  0  0  0  0  0
  -29.5092  -12.5064   18.2258 C   0  0  0  0  0  0
  -28.0320  -12.3412   18.6366 C   0  0  0  0  0  0
  -27.6518  -13.2150   19.8611 C   0  0  2  0  0  0
  -28.6959  -13.0750   20.9923 C   0  0  0  0  0  0
  -25.2556  -13.8162   20.5679 C   0  0  0  0  0  0
  -24.1827  -13.0433   20.9206 C   0  0  0  0  0  0
  -24.6391  -11.6902   20.8745 C   0  0  0  0  0  0
  -23.9057  -10.4288   21.0410 C   0  0  0  0  0  0
  -24.3612   -9.4204   21.9186 C   0  0  0  0  0  0
  -23.6289   -8.2239   22.0753 C   0  0  0  0  0  0
  -22.4271   -8.0277   21.3544 C   0  0  0  0  0  0
  -21.9903   -9.0252   20.4649 C   0  0  0  0  0  0
  -22.7228  -10.2134   20.3059 C   0  0  0  0  0  0
  -21.6852   -6.0733   22.5279 C   0  0  0  0  0  0
  -21.4014   -6.5638   23.8212 C   0  0  0  0  0  0
  -21.3659   -5.6790   24.9175 C   0  0  0  0  0  0
  -21.6044   -4.3052   24.7225 C   0  0  0  0  0  0
  -21.8819   -3.8145   23.4346 C   0  0  0  0  0  0
  -21.9193   -4.6961   22.3402 C   0  0  0  0  0  0
  -22.7851  -13.5234   21.1863 C   0  0  0  0  0  0
  -22.1662   -4.2148   21.0980 F   0  0  0  0  0  0
  -21.5629   -3.4536   25.7737 F   0  0  0  0  0  0
  -30.0108  -13.4223   20.4305 N   0  0  0  0  0  0
  -26.2977  -12.9338   20.3295 N   0  0  0  0  0  0
  -25.9316  -11.6498   20.5747 N   0  0  0  0  0  0
  -22.0485  -12.8232   22.0417 N   0  0  0  0  0  0
  -25.4265  -15.1881   20.4065 N   0  0  0  0  0  0
  -31.7774  -14.8138   20.1212 O   0  0  0  0  0  0
  -21.6636   -6.8875   21.4240 O   0  0  0  0  0  0
  -22.3544  -14.5542   20.6705 O   0  0  0  0  0  0
  -24.6257  -31.8597   23.2019 C   0  0  0  0  0  0
  -25.9104  -32.4778   23.8351 C   0  0  1  0  0  0
  -27.2254  -27.3182   20.1256 C   0  0  0  0  0  0
  -25.5920  -33.8579   24.2276 N   0  0  0  0  0  0
  -23.4197  -30.4822   21.5448 C   0  0  2  0  0  0
  -24.8672  -28.9337   20.1145 C   0  0  0  0  0  0
  -22.7472  -29.4621   22.4942 C   0  0  0  0  0  0
  -18.0284  -28.1386   22.8486 C   0  0  0  0  0  0
  -24.1490  -36.7295   23.2639 C   0  0  0  0  0  0
  -25.9604  -30.7904   21.3732 C   0  0  0  0  0  0
  -26.0354  -29.4162   20.7185 C   0  0  0  0  0  0
  -27.2193  -28.6208   20.7120 C   0  0  0  0  0  0
  -26.0390  -26.8900   19.4908 C   0  0  0  0  0  0
  -24.8706  -27.6760   19.4910 C   0  0  0  0  0  0
  -23.6349  -29.8141   20.1613 C   0  0  0  0  0  0
  -25.4114  -36.3083   24.0329 C   0  0  1  0  0  0
  -20.5883  -28.3687   23.1289 C   0  0  2  0  0  0
  -20.6773  -26.9411   22.5415 C   0  0  0  0  0  0
  -19.5752  -26.6385   21.5215 C   0  0  0  0  0  0
  -18.1930  -26.7929   22.1624 C   0  0  0  0  0  0
  -19.1536  -28.8853   23.2881 C   0  0  0  0  0  0
  -18.9458  -30.1456   23.8896 C   0  0  0  0  0  0
  -17.6458  -30.6586   24.0564 C   0  0  0  0  0  0
  -25.9050  -34.9452   23.5104 C   0  0  0  0  0  0
  -16.5349  -29.9086   23.6331 C   0  0  0  0  0  0
  -16.7272  -28.6505   23.0349 C   0  0  0  0  0  0
  -26.4491  -31.6588   25.0721 C   0  0  0  0  0  0
  -25.3726  -31.3732   26.1452 C   0  0  0  0  0  0
  -27.0327  -30.3009   24.6175 C   0  0  0  0  0  0
  -27.6060  -32.4317   25.7483 C   0  0  0  0  0  0
  -27.5581  -37.1799   24.8462 C   0  0  0  0  0  0
  -21.4186  -29.3039   22.3683 N   0  0  0  0  0  0
  -26.4293  -37.3776   23.9406 N   0  0  0  0  0  0
  -24.6874  -31.0608   22.0970 N   0  0  0  0  0  0
  -23.4194  -28.8163   23.3025 O   0  0  0  0  0  0
  -28.3467  -26.4772   20.1407 O   0  0  0  0  0  0
  -26.5622  -34.8920   22.4672 O   0  0  0  0  0  0
  -23.5421  -32.1392   23.7350 O   0  0  0  0  0  0
  -28.7029  -19.3670   20.4587 C   0  0  0  0  0  0
  -28.7011  -17.9533   20.6866 C   0  0  0  0  0  0
  -31.0759  -17.8723   20.3696 C   0  0  0  0  0  0
  -29.8948  -20.0821   20.1651 C   0  0  0  0  0  0
  -29.8796  -17.1536   20.6229 C   0  0  0  0  0  0
  -31.0848  -19.2841   20.1524 C   0  0  0  0  0  0
  -29.9190  -21.5589   19.7612 C   0  0  0  0  0  0
  -29.1629  -24.0366   19.8665 C   0  0  0  0  0  0
  -28.1568  -25.0530   20.5319 C   0  0  0  0  0  0
  -29.7876  -15.7010   20.8269 N   0  0  0  0  0  0
  -29.1370  -22.5936   20.2561 N   0  0  0  0  0  0
  -30.7922  -21.8607   18.7927 N   0  3  0  0  0  0
  -29.9652  -24.4470   19.0161 O   0  0  0  0  0  0
  -32.2819  -19.8630   19.8833 F   0  0  0  0  0  0
  -31.4807  -12.5308   19.1519 H   0  0  0  0  0  0
  -30.3812  -11.4051   19.8991 H   0  0  0  0  0  0
  -29.7771  -11.7525   17.4843 H   0  0  0  0  0  0
  -29.6483  -13.4739   17.7407 H   0  0  0  0  0  0
  -27.8715  -11.2885   18.8722 H   0  0  0  0  0  0
  -27.3775  -12.5663   17.7936 H   0  0  0  0  0  0
  -27.6677  -14.2483   19.5150 H   0  0  0  0  0  0
  -28.7099  -12.0536   21.3759 H   0  0  0  0  0  0
  -28.4377  -13.7074   21.8431 H   0  0  0  0  0  0
  -25.2759   -9.5682   22.4756 H   0  0  0  0  0  0
  -24.0001   -7.4629   22.7469 H   0  0  0  0  0  0
  -21.0833   -8.8771   19.8956 H   0  0  0  0  0  0
  -22.3686  -10.9673   19.6169 H   0  0  0  0  0  0
  -21.2005   -7.6145   23.9715 H   0  0  0  0  0  0
  -21.1482   -6.0520   25.9078 H   0  0  0  0  0  0
  -22.0599   -2.7606   23.2844 H   0  0  0  0  0  0
  -22.4095  -11.9892   22.4809 H   0  0  0  0  0  0
  -21.1106  -13.1267   22.2623 H   0  0  0  0  0  0
  -24.6483  -15.8326   20.4953 H   0  0  0  0  0  0
  -26.2471  -15.6137   19.9969 H   0  0  0  0  0  0
  -26.7173  -32.5452   23.1102 H   0  0  0  0  0  0
  -25.0063  -33.9724   25.0418 H   0  0  0  0  0  0
  -22.7135  -31.3024   21.4007 H   0  0  0  0  0  0
  -23.3752  -35.9628   23.3301 H   0  0  0  0  0  0
  -24.3581  -36.8916   22.2053 H   0  0  0  0  0  0
  -23.7243  -37.6498   23.6661 H   0  0  0  0  0  0
  -26.0909  -31.5527   20.6037 H   0  0  0  0  0  0
  -26.8411  -30.8409   22.0018 H   0  0  0  0  0  0
  -28.1179  -28.9882   21.1874 H   0  0  0  0  0  0
  -26.0028  -25.9363   18.9850 H   0  0  0  0  0  0
  -23.9776  -27.3043   19.0074 H   0  0  0  0  0  0
  -23.7540  -30.5889   19.4032 H   0  0  0  0  0  0
  -22.7553  -29.2421   19.8603 H   0  0  0  0  0  0
  -25.1295  -36.1937   25.0822 H   0  0  0  0  0  0
  -20.9976  -28.3263   24.1408 H   0  0  0  0  0  0
  -20.5674  -26.2297   23.3613 H   0  0  0  0  0  0
  -21.6643  -26.7442   22.1209 H   0  0  0  0  0  0
  -19.6912  -25.6296   21.1245 H   0  0  0  0  0  0
  -19.6691  -27.3197   20.6746 H   0  0  0  0  0  0
  -17.4201  -26.6678   21.4024 H   0  0  0  0  0  0
  -18.0326  -26.0070   22.9020 H   0  0  0  0  0  0
  -19.7933  -30.7274   24.2263 H   0  0  0  0  0  0
  -17.5012  -31.6265   24.5168 H   0  0  0  0  0  0
  -15.5349  -30.2987   23.7655 H   0  0  0  0  0  0
  -15.8673  -28.0827   22.7059 H   0  0  0  0  0  0
  -24.5898  -30.7082   25.7785 H   0  0  0  0  0  0
  -24.8921  -32.2902   26.4873 H   0  0  0  0  0  0
  -25.8051  -30.8913   27.0230 H   0  0  0  0  0  0
  -26.2896  -29.6760   24.1207 H   0  0  0  0  0  0
  -27.4030  -29.7264   25.4676 H   0  0  0  0  0  0
  -27.8766  -30.4290   23.9391 H   0  0  0  0  0  0
  -27.2682  -33.3621   26.2060 H   0  0  0  0  0  0
  -28.3866  -32.6868   25.0303 H   0  0  0  0  0  0
  -28.0734  -31.8441   26.5394 H   0  0  0  0  0  0
  -28.2601  -38.0095   24.7509 H   0  0  0  0  0  0
  -28.1076  -36.2625   24.6288 H   0  0  0  0  0  0
  -27.2301  -37.1450   25.8867 H   0  0  0  0  0  0
  -20.9365  -29.8758   21.6890 H   0  0  0  0  0  0
  -26.0177  -38.2854   24.1406 H   0  0  0  0  0  0
  -27.7590  -19.8930   20.4741 H   0  0  0  0  0  0
  -27.7519  -17.4765   20.8888 H   0  0  0  0  0  0
  -32.0181  -17.3479   20.3229 H   0  0  0  0  0  0
  -28.2873  -24.9891   21.6120 H   0  0  0  0  0  0
  -27.1510  -24.6881   20.3327 H   0  0  0  0  0  0
  -28.8788  -15.3827   21.1239 H   0  0  0  0  0  0
  -28.4973  -22.2741   20.9679 H   0  0  0  0  0  0
  -31.4887  -21.1812   18.5211 H   0  0  0  0  0  0
  -30.8706  -22.8243   18.4879 H   0  0  0  0  0  0
  1 25  1  0  0  0
  1 30  2  0  0  0
  1 80  1  0  0  0
  2  3  1  0  0  0
  2 25  1  0  0  0
  2 85  1  0  0  0
  2 86  1  0  0  0
  3  4  1  0  0  0
  3 87  1  0  0  0
  3 88  1  0  0  0
  4  5  1  0  0  0
  4 89  1  0  0  0
  4 90  1  0  0  0
  5  6  1  0  0  0
  5 26  1  0  0  0
  5 91  1  0  0  0
  6 25  1  0  0  0
  6 92  1  0  0  0
  6 93  1  0  0  0
  7  8  2  0  0  0
  7 26  1  0  0  0
  7 29  1  0  0  0
  8  9  1  0  0  0
  8 22  1  0  0  0
  9 10  1  0  0  0
  9 27  2  0  0  0
 10 11  2  0  0  0
 10 15  1  0  0  0
 11 12  1  0  0  0
 11 94  1  0  0  0
 12 13  2  0  0  0
 12 95  1  0  0  0
 13 14  1  0  0  0
 13 31  1  0  0  0
 14 15  2  0  0  0
 14 96  1  0  0  0
 15 97  1  0  0  0
 16 17  2  0  0  0
 16 21  1  0  0  0
 16 31  1  0  0  0
 17 18  1  0  0  0
 17 98  1  0  0  0
 18 19  2  0  0  0
 18 99  1  0  0  0
 19 20  1  0  0  0
 19 24  1  0  0  0
 20 21  2  0  0  0
 20100  1  0  0  0
 21 23  1  0  0  0
 22 28  1  0  0  0
 22 32  2  0  0  0
 26 27  1  0  0  0
 28101  1  0  0  0
 28102  1  0  0  0
 29103  1  0  0  0
 29104  1  0  0  0
 33 34  1  0  0  0
 33 66  1  0  0  0
 33 70  2  0  0  0
 34 36  1  0  0  0
 34 59  1  0  0  0
 34105  1  0  0  0
 35 44  2  0  0  0
 35 45  1  0  0  0
 35 68  1  0  0  0
 36 56  1  0  0  0
 36106  1  0  0  0
 37 39  1  0  0  0
 37 47  1  0  0  0
 37 66  1  0  0  0
 37107  1  0  0  0
 38 43  2  0  0  0
 38 46  1  0  0  0
 38 47  1  0  0  0
 39 64  1  0  0  0
 39 67  2  0  0  0
 40 52  1  0  0  0
 40 53  2  0  0  0
 40 58  1  0  0  0
 41108  1  0  0  0
 41109  1  0  0  0
 41110  1  0  0  0
 41 48  1  0  0  0
 42 43  1  0  0  0
 42 66  1  0  0  0
 42111  1  0  0  0
 42112  1  0  0  0
 43 44  1  0  0  0
 44113  1  0  0  0
 45 46  2  0  0  0
 45114  1  0  0  0
 46115  1  0  0  0
 47116  1  0  0  0
 47117  1  0  0  0
 48 56  1  0  0  0
 48 65  1  0  0  0
 48118  1  0  0  0
 49 50  1  0  0  0
 49 53  1  0  0  0
 49 64  1  0  0  0
 49119  1  0  0  0
 50 51  1  0  0  0
 50120  1  0  0  0
 50121  1  0  0  0
 51 52  1  0  0  0
 51122  1  0  0  0
 51123  1  0  0  0
 52124  1  0  0  0
 52125  1  0  0  0
 53 54  1  0  0  0
 54 55  2  0  0  0
 54126  1  0  0  0
 55 57  1  0  0  0
 55127  1  0  0  0
 56 69  2  0  0  0
 57 58  2  0  0  0
 57128  1  0  0  0
 58129  1  0  0  0
 59 60  1  0  0  0
 59 61  1  0  0  0
 59 62  1  0  0  0
 60130  1  0  0  0
 60131  1  0  0  0
 60132  1  0  0  0
 61133  1  0  0  0
 61134  1  0  0  0
 61135  1  0  0  0
 62136  1  0  0  0
 62137  1  0  0  0
 62138  1  0  0  0
 63 65  1  0  0  0
 63139  1  0  0  0
 63140  1  0  0  0
 63141  1  0  0  0
 64142  1  0  0  0
 65143  1  0  0  0
 68 79  1  0  0  0
 71 72  2  0  0  0
 71 74  1  0  0  0
 71144  1  0  0  0
 72 75  1  0  0  0
 72145  1  0  0  0
 73 75  2  0  0  0
 73 76  1  0  0  0
 73146  1  0  0  0
 74 76  2  0  0  0
 74 77  1  0  0  0
 75 80  1  0  0  0
 76 84  1  0  0  0
 77 81  1  0  0  0
 77 82  2  0  0  0
 78 79  1  0  0  0
 78 81  1  0  0  0
 78 83  2  0  0  0
 79147  1  0  0  0
 79148  1  0  0  0
 80149  1  0  0  0
 81150  1  0  0  0
 82151  1  0  0  0
 82152  1  0  0  0
M  CHG  1  82   1
M  ISO  4   1 100  68 101  79 101  80 100
M  END
> <chiral flag>
0

> <version>
0

> <s_m_source_file>
/data/baiqing/PycharmProjects/Reinvent-master-3.2/result/LINK_invent/BTK/process_docking_weight1_custom_product_contain_oxygen_bond_distance_aromatic_linkinvent_7_9_3/rearranged_h_0070.sdf

> <i_m_source_file_index>
87

> <r_mmod_Potential_Energy-OPLS-2005>
-171.113098144531

> <r_mmod_Stretch_Energy-OPLS-2005>
88.8483047485352

> <r_mmod_Bend_Energy-OPLS-2005>
143.545318603516

> <r_mmod_Torsional_Energy-OPLS-2005>
223.217269897461

> <r_mmod_Improper_Torsional_Energy-OPLS-2005>
5.6275429725647

> <r_mmod_Van_der_Waal_Energy-OPLS-2005>
160.325942993164

> <r_mmod_Electrostatic_Energy-OPLS-2005>
-378.513397216797

> <r_mmod_Solvation_Energy-OPLS-2005>
-464.06884765625

> <b_mmod_Minimization_Converged-OPLS-2005>
0

> <r_mmod_RMS_Derivative-OPLS-2005>
0.336467862129211

$$$$
87
                    3D
 Structure written by MMmdl.
161170  0  0  1  0            999 V2000
  -30.6158  -14.6414   20.5029 C   0  0  0  0  0  0
  -30.4435  -12.3944   19.4489 C   0  0  0  0  0  0
  -29.5094  -12.5070   18.2228 C   0  0  0  0  0  0
  -28.0319  -12.3436   18.6350 C   0  0  0  0  0  0
  -27.6545  -13.2130   19.8633 C   0  0  2  0  0  0
  -28.7006  -13.0633   20.9917 C   0  0  0  0  0  0
  -25.2566  -13.8156   20.5672 C   0  0  0  0  0  0
  -24.1834  -13.0432   20.9200 C   0  0  0  0  0  0
  -24.6397  -11.6901   20.8747 C   0  0  0  0  0  0
  -23.9063  -10.4287   21.0410 C   0  0  0  0  0  0
  -24.3615   -9.4202   21.9186 C   0  0  0  0  0  0
  -23.6288   -8.2240   22.0755 C   0  0  0  0  0  0
  -22.4271   -8.0280   21.3546 C   0  0  0  0  0  0
  -21.9904   -9.0255   20.4649 C   0  0  0  0  0  0
  -22.7235  -10.2133   20.3058 C   0  0  0  0  0  0
  -21.6851   -6.0733   22.5278 C   0  0  0  0  0  0
  -21.4014   -6.5637   23.8211 C   0  0  0  0  0  0
  -21.3658   -5.6790   24.9173 C   0  0  0  0  0  0
  -21.6043   -4.3053   24.7224 C   0  0  0  0  0  0
  -21.8821   -3.8145   23.4345 C   0  0  0  0  0  0
  -21.9193   -4.6961   22.3401 C   0  0  0  0  0  0
  -22.7856  -13.5230   21.1853 C   0  0  0  0  0  0
  -22.1663   -4.2147   21.0979 F   0  0  0  0  0  0
  -21.5626   -3.4538   25.7738 F   0  0  0  0  0  0
  -30.0159  -13.4111   20.4293 N   0  0  0  0  0  0
  -26.2995  -12.9331   20.3313 N   0  0  0  0  0  0
  -25.9324  -11.6491   20.5759 N   0  0  0  0  0  0
  -22.0493  -12.8230   22.0411 N   0  0  0  0  0  0
  -25.4269  -15.1873   20.4040 N   0  0  0  0  0  0
  -31.7828  -14.8117   20.1361 O   0  0  0  0  0  0
  -21.6637   -6.8876   21.4240 O   0  0  0  0  0  0
  -22.3545  -14.5534   20.6695 O   0  0  0  0  0  0
  -24.6266  -31.8605   23.2036 C   0  0  0  0  0  0
  -25.9115  -32.4781   23.8361 C   0  0  1  0  0  0
  -27.2228  -27.3213   20.1129 C   0  0  0  0  0  0
  -25.5932  -33.8581   24.2288 N   0  0  0  0  0  0
  -23.4198  -30.4859   21.5467 C   0  0  2  0  0  0
  -24.8656  -28.9449   20.1112 C   0  0  0  0  0  0
  -22.7477  -29.4629   22.4936 C   0  0  0  0  0  0
  -18.0289  -28.1384   22.8484 C   0  0  0  0  0  0
  -24.1491  -36.7296   23.2636 C   0  0  0  0  0  0
  -25.9622  -30.7923   21.3752 C   0  0  0  0  0  0
  -26.0364  -29.4214   20.7144 C   0  0  0  0  0  0
  -27.2189  -28.6224   20.7043 C   0  0  0  0  0  0
  -26.0252  -26.9004   19.4865 C   0  0  0  0  0  0
  -24.8620  -27.6895   19.4886 C   0  0  0  0  0  0
  -23.6342  -29.8250   20.1609 C   0  0  0  0  0  0
  -25.4113  -36.3084   24.0329 C   0  0  1  0  0  0
  -20.5889  -28.3689   23.1282 C   0  0  2  0  0  0
  -20.6780  -26.9411   22.5409 C   0  0  0  0  0  0
  -19.5756  -26.6382   21.5211 C   0  0  0  0  0  0
  -18.1935  -26.7927   22.1622 C   0  0  0  0  0  0
  -19.1541  -28.8853   23.2879 C   0  0  0  0  0  0
  -18.9462  -30.1455   23.8896 C   0  0  0  0  0  0
  -17.6462  -30.6584   24.0564 C   0  0  0  0  0  0
  -25.9051  -34.9452   23.5107 C   0  0  0  0  0  0
  -16.5354  -29.9083   23.6328 C   0  0  0  0  0  0
  -16.7276  -28.6501   23.0347 C   0  0  0  0  0  0
  -26.4497  -31.6586   25.0728 C   0  0  0  0  0  0
  -25.3731  -31.3728   26.1457 C   0  0  0  0  0  0
  -27.0334  -30.3006   24.6184 C   0  0  0  0  0  0
  -27.6058  -32.4318   25.7499 C   0  0  0  0  0  0
  -27.5582  -37.1801   24.8460 C   0  0  0  0  0  0
  -21.4190  -29.3043   22.3676 N   0  0  0  0  0  0
  -26.4291  -37.3778   23.9408 N   0  0  0  0  0  0
  -24.6884  -31.0623   22.0986 N   0  0  0  0  0  0
  -23.4202  -28.8163   23.3010 O   0  0  0  0  0  0
  -28.3363  -26.4646   20.1617 O   0  0  0  0  0  0
  -26.5615  -34.8918   22.4670 O   0  0  0  0  0  0
  -23.5430  -32.1402   23.7367 O   0  0  0  0  0  0
  -28.6727  -19.2975   20.3571 C   0  0  0  0  0  0
  -28.6769  -17.8789   20.4885 C   0  0  0  0  0  0
  -31.0610  -17.8920   20.7586 C   0  0  0  0  0  0
  -31.0647  -19.3213   20.6615 C   0  0  0  0  0  0
  -29.8627  -20.0693   20.4084 C   0  0  0  0  0  0
  -29.8693  -17.1292   20.6669 C   0  0  0  0  0  0
  -30.5780  -22.2476   19.3563 C   0  0  0  0  0  0
  -30.2188  -23.7395   19.3344 C   0  0  0  0  0  0
  -28.7215  -22.4453   20.6567 C   0  0  0  0  0  0
  -29.2056  -23.9453   20.4747 C   0  0  1  0  0  0
  -32.3995  -20.0124   20.8943 C   0  0  0  0  0  0
  -29.9163  -24.3912   21.7696 C   0  0  0  0  0  0
  -28.0678  -25.0067   20.1261 C   0  0  0  0  0  0
  -29.8106  -21.5339   20.2097 N   0  0  0  0  0  0
  -29.7783  -15.6776   20.8235 N   0  0  0  0  0  0
  -31.4675  -21.8016   18.6260 O   0  0  0  0  0  0
  -31.4831  -12.5284   19.1445 H   0  0  0  0  0  0
  -30.3864  -11.3975   19.8886 H   0  0  0  0  0  0
  -29.7736  -11.7556   17.4777 H   0  0  0  0  0  0
  -29.6506  -13.4763   17.7418 H   0  0  0  0  0  0
  -27.8683  -11.2902   18.8654 H   0  0  0  0  0  0
  -27.3777  -12.5747   17.7936 H   0  0  0  0  0  0
  -27.6727  -14.2481   19.5225 H   0  0  0  0  0  0
  -28.7137  -12.0393   21.3679 H   0  0  0  0  0  0
  -28.4464  -13.6894   21.8485 H   0  0  0  0  0  0
  -25.2760   -9.5676   22.4760 H   0  0  0  0  0  0
  -23.9997   -7.4628   22.7472 H   0  0  0  0  0  0
  -21.0834   -8.8776   19.8955 H   0  0  0  0  0  0
  -22.3696  -10.9674   19.6169 H   0  0  0  0  0  0
  -21.2009   -7.6146   23.9713 H   0  0  0  0  0  0
  -21.1477   -6.0521   25.9075 H   0  0  0  0  0  0
  -22.0602   -2.7607   23.2848 H   0  0  0  0  0  0
  -22.4100  -11.9894   22.4810 H   0  0  0  0  0  0
  -21.1113  -13.1264   22.2611 H   0  0  0  0  0  0
  -24.6523  -15.8358   20.4942 H   0  0  0  0  0  0
  -26.2553  -15.6145   20.0120 H   0  0  0  0  0  0
  -26.7184  -32.5451   23.1111 H   0  0  0  0  0  0
  -25.0086  -33.9726   25.0437 H   0  0  0  0  0  0
  -22.7136  -31.3068   21.4058 H   0  0  0  0  0  0
  -23.3751  -35.9630   23.3297 H   0  0  0  0  0  0
  -24.3586  -36.8916   22.2051 H   0  0  0  0  0  0
  -23.7246  -37.6499   23.6659 H   0  0  0  0  0  0
  -26.0959  -31.5581   20.6098 H   0  0  0  0  0  0
  -26.8419  -30.8379   22.0056 H   0  0  0  0  0  0
  -28.1167  -28.9831   21.1864 H   0  0  0  0  0  0
  -25.9511  -25.9444   18.9924 H   0  0  0  0  0  0
  -23.9651  -27.3186   19.0116 H   0  0  0  0  0  0
  -23.7548  -30.6036   19.4068 H   0  0  0  0  0  0
  -22.7536  -29.2563   19.8563 H   0  0  0  0  0  0
  -25.1291  -36.1938   25.0822 H   0  0  0  0  0  0
  -20.9982  -28.3265   24.1402 H   0  0  0  0  0  0
  -20.5685  -26.2295   23.3607 H   0  0  0  0  0  0
  -21.6650  -26.7444   22.1201 H   0  0  0  0  0  0
  -19.6918  -25.6294   21.1240 H   0  0  0  0  0  0
  -19.6692  -27.3192   20.6742 H   0  0  0  0  0  0
  -17.4204  -26.6672   21.4026 H   0  0  0  0  0  0
  -18.0335  -26.0070   22.9019 H   0  0  0  0  0  0
  -19.7938  -30.7271   24.2264 H   0  0  0  0  0  0
  -17.5016  -31.6263   24.5167 H   0  0  0  0  0  0
  -15.5355  -30.2984   23.7652 H   0  0  0  0  0  0
  -15.8676  -28.0822   22.7059 H   0  0  0  0  0  0
  -24.5906  -30.7074   25.7792 H   0  0  0  0  0  0
  -24.8922  -32.2897   26.4877 H   0  0  0  0  0  0
  -25.8057  -30.8913   27.0235 H   0  0  0  0  0  0
  -26.2906  -29.6760   24.1206 H   0  0  0  0  0  0
  -27.4024  -29.7257   25.4688 H   0  0  0  0  0  0
  -27.8781  -30.4284   23.9411 H   0  0  0  0  0  0
  -27.2667  -33.3613   26.2084 H   0  0  0  0  0  0
  -28.3864  -32.6886   25.0326 H   0  0  0  0  0  0
  -28.0731  -31.8438   26.5409 H   0  0  0  0  0  0
  -28.2593  -38.0105   24.7517 H   0  0  0  0  0  0
  -28.1086  -36.2638   24.6272 H   0  0  0  0  0  0
  -27.2304  -37.1434   25.8864 H   0  0  0  0  0  0
  -20.9365  -29.8770   21.6892 H   0  0  0  0  0  0
  -26.0174  -38.2852   24.1413 H   0  0  0  0  0  0
  -27.7257  -19.7928   20.1947 H   0  0  0  0  0  0
  -27.7289  -17.3630   20.4374 H   0  0  0  0  0  0
  -31.9943  -17.3779   20.9419 H   0  0  0  0  0  0
  -29.7778  -23.9649   18.3633 H   0  0  0  0  0  0
  -31.1073  -24.3611   19.4468 H   0  0  0  0  0  0
  -27.8436  -22.2568   20.0365 H   0  0  0  0  0  0
  -28.4348  -22.2292   21.6865 H   0  0  0  0  0  0
  -33.0204  -19.4347   21.5799 H   0  0  0  0  0  0
  -32.2723  -20.9991   21.3395 H   0  0  0  0  0  0
  -32.9490  -20.1148   19.9587 H   0  0  0  0  0  0
  -30.7052  -23.6979   22.0638 H   0  0  0  0  0  0
  -29.2125  -24.4581   22.6002 H   0  0  0  0  0  0
  -30.3720  -25.3751   21.6513 H   0  0  0  0  0  0
  -27.2430  -24.8166   20.8155 H   0  0  0  0  0  0
  -27.6963  -24.7485   19.1344 H   0  0  0  0  0  0
  -28.8555  -15.3459   21.0574 H   0  0  0  0  0  0
  1 25  1  0  0  0
  1 30  2  0  0  0
  1 85  1  0  0  0
  2  3  1  0  0  0
  2 25  1  0  0  0
  2 87  1  0  0  0
  2 88  1  0  0  0
  3  4  1  0  0  0
  3 89  1  0  0  0
  3 90  1  0  0  0
  4  5  1  0  0  0
  4 91  1  0  0  0
  4 92  1  0  0  0
  5  6  1  0  0  0
  5 26  1  0  0  0
  5 93  1  0  0  0
  6 25  1  0  0  0
  6 94  1  0  0  0
  6 95  1  0  0  0
  7  8  2  0  0  0
  7 26  1  0  0  0
  7 29  1  0  0  0
  8  9  1  0  0  0
  8 22  1  0  0  0
  9 10  1  0  0  0
  9 27  2  0  0  0
 10 11  2  0  0  0
 10 15  1  0  0  0
 11 12  1  0  0  0
 11 96  1  0  0  0
 12 13  2  0  0  0
 12 97  1  0  0  0
 13 14  1  0  0  0
 13 31  1  0  0  0
 14 15  2  0  0  0
 14 98  1  0  0  0
 15 99  1  0  0  0
 16 17  2  0  0  0
 16 21  1  0  0  0
 16 31  1  0  0  0
 17 18  1  0  0  0
 17100  1  0  0  0
 18 19  2  0  0  0
 18101  1  0  0  0
 19 20  1  0  0  0
 19 24  1  0  0  0
 20 21  2  0  0  0
 20102  1  0  0  0
 21 23  1  0  0  0
 22 28  1  0  0  0
 22 32  2  0  0  0
 26 27  1  0  0  0
 28103  1  0  0  0
 28104  1  0  0  0
 29105  1  0  0  0
 29106  1  0  0  0
 33 34  1  0  0  0
 33 66  1  0  0  0
 33 70  2  0  0  0
 34 36  1  0  0  0
 34 59  1  0  0  0
 34107  1  0  0  0
 35 44  2  0  0  0
 35 45  1  0  0  0
 35 68  1  0  0  0
 36 56  1  0  0  0
 36108  1  0  0  0
 37 39  1  0  0  0
 37 47  1  0  0  0
 37 66  1  0  0  0
 37109  1  0  0  0
 38 43  2  0  0  0
 38 46  1  0  0  0
 38 47  1  0  0  0
 39 64  1  0  0  0
 39 67  2  0  0  0
 40 52  1  0  0  0
 40 53  2  0  0  0
 40 58  1  0  0  0
 41110  1  0  0  0
 41111  1  0  0  0
 41112  1  0  0  0
 41 48  1  0  0  0
 42 43  1  0  0  0
 42 66  1  0  0  0
 42113  1  0  0  0
 42114  1  0  0  0
 43 44  1  0  0  0
 44115  1  0  0  0
 45 46  2  0  0  0
 45116  1  0  0  0
 46117  1  0  0  0
 47118  1  0  0  0
 47119  1  0  0  0
 48 56  1  0  0  0
 48 65  1  0  0  0
 48120  1  0  0  0
 49 50  1  0  0  0
 49 53  1  0  0  0
 49 64  1  0  0  0
 49121  1  0  0  0
 50 51  1  0  0  0
 50122  1  0  0  0
 50123  1  0  0  0
 51 52  1  0  0  0
 51124  1  0  0  0
 51125  1  0  0  0
 52126  1  0  0  0
 52127  1  0  0  0
 53 54  1  0  0  0
 54 55  2  0  0  0
 54128  1  0  0  0
 55 57  1  0  0  0
 55129  1  0  0  0
 56 69  2  0  0  0
 57 58  2  0  0  0
 57130  1  0  0  0
 58131  1  0  0  0
 59 60  1  0  0  0
 59 61  1  0  0  0
 59 62  1  0  0  0
 60132  1  0  0  0
 60133  1  0  0  0
 60134  1  0  0  0
 61135  1  0  0  0
 61136  1  0  0  0
 61137  1  0  0  0
 62138  1  0  0  0
 62139  1  0  0  0
 62140  1  0  0  0
 63 65  1  0  0  0
 63141  1  0  0  0
 63142  1  0  0  0
 63143  1  0  0  0
 64144  1  0  0  0
 65145  1  0  0  0
 68 83  1  0  0  0
 71 72  2  0  0  0
 71 75  1  0  0  0
 71146  1  0  0  0
 72 76  1  0  0  0
 72147  1  0  0  0
 73 74  1  0  0  0
 73 76  2  0  0  0
 73148  1  0  0  0
 74 75  2  0  0  0
 74 81  1  0  0  0
 75 84  1  0  0  0
 76 85  1  0  0  0
 77 78  1  0  0  0
 77 84  1  0  0  0
 77 86  2  0  0  0
 78 80  1  0  0  0
 78149  1  0  0  0
 78150  1  0  0  0
 79 80  1  0  0  0
 79 84  1  0  0  0
 79151  1  0  0  0
 79152  1  0  0  0
 80 82  1  0  0  0
 80 83  1  0  0  0
 81153  1  0  0  0
 81154  1  0  0  0
 81155  1  0  0  0
 82156  1  0  0  0
 82157  1  0  0  0
 82158  1  0  0  0
 83159  1  0  0  0
 83160  1  0  0  0
 85161  1  0  0  0
M  ISO  4   1 100  68 101  83 101  85 100
M  END
> <chiral flag>
0

> <version>
0

> <s_m_source_file>
/data/baiqing/PycharmProjects/Reinvent-master-3.2/result/LINK_invent/BTK/process_docking_weight1_custom_product_contain_oxygen_bond_distance_aromatic_linkinvent_7_9_3/rearranged_h_0070.sdf

> <i_m_source_file_index>
88

> <r_mmod_Potential_Energy-OPLS-2005>
152.436569213867

> <r_mmod_Stretch_Energy-OPLS-2005>
81.3562774658203

> <r_mmod_Bend_Energy-OPLS-2005>
164.196914672852

> <r_mmod_Torsional_Energy-OPLS-2005>
288.173248291016

> <r_mmod_Improper_Torsional_Energy-OPLS-2005>
5.64258003234863

> <r_mmod_Van_der_Waal_Energy-OPLS-2005>
144.045608520508

> <r_mmod_Electrostatic_Energy-OPLS-2005>
-357.372985839844

> <r_mmod_Solvation_Energy-OPLS-2005>
-222.777954101562

> <b_mmod_Minimization_Converged-OPLS-2005>
0

> <r_mmod_RMS_Derivative-OPLS-2005>
0.348473399877548

$$$$
88
                    3D
 Structure written by MMmdl.
152160  0  0  1  0            999 V2000
  -30.6032  -14.7725   20.4349 C   0  0  0  0  0  0
  -30.4324  -12.4689   19.4917 C   0  0  0  0  0  0
  -29.5201  -12.5131   18.2464 C   0  0  0  0  0  0
  -28.0446  -12.3336   18.6526 C   0  0  0  0  0  0
  -27.6426  -13.2343   19.8540 C   0  0  2  0  0  0
  -28.6797  -13.1863   20.9980 C   0  0  0  0  0  0
  -25.2459  -13.8180   20.5532 C   0  0  0  0  0  0
  -24.1814  -13.0448   20.9253 C   0  0  0  0  0  0
  -24.6413  -11.6941   20.8789 C   0  0  0  0  0  0
  -23.9049  -10.4327   21.0446 C   0  0  0  0  0  0
  -24.3603   -9.4227   21.9207 C   0  0  0  0  0  0
  -23.6296   -8.2263   22.0748 C   0  0  0  0  0  0
  -22.4276   -8.0308   21.3542 C   0  0  0  0  0  0
  -21.9907   -9.0278   20.4641 C   0  0  0  0  0  0
  -22.7216  -10.2174   20.3079 C   0  0  0  0  0  0
  -21.6874   -6.0737   22.5267 C   0  0  0  0  0  0
  -21.4036   -6.5655   23.8196 C   0  0  0  0  0  0
  -21.3655   -5.6807   24.9162 C   0  0  0  0  0  0
  -21.6036   -4.3063   24.7228 C   0  0  0  0  0  0
  -21.8815   -3.8149   23.4353 C   0  0  0  0  0  0
  -21.9200   -4.6959   22.3400 C   0  0  0  0  0  0
  -22.7841  -13.5236   21.1896 C   0  0  0  0  0  0
  -22.1662   -4.2158   21.0975 F   0  0  0  0  0  0
  -21.5622   -3.4539   25.7730 F   0  0  0  0  0  0
  -29.9817  -13.5396   20.4166 N   0  0  0  0  0  0
  -26.2940  -12.9425   20.3229 N   0  0  0  0  0  0
  -25.9358  -11.6576   20.5821 N   0  0  0  0  0  0
  -22.0449  -12.8258   22.0447 N   0  0  0  0  0  0
  -25.4023  -15.1850   20.3426 N   0  0  0  0  0  0
  -31.8002  -14.8107   20.1248 O   0  0  0  0  0  0
  -21.6663   -6.8889   21.4231 O   0  0  0  0  0  0
  -22.3569  -14.5539   20.6681 O   0  0  0  0  0  0
  -24.6303  -31.8563   23.2027 C   0  0  0  0  0  0
  -25.9141  -32.4746   23.8346 C   0  0  1  0  0  0
  -27.1961  -27.2376   20.0954 C   0  0  0  0  0  0
  -25.5951  -33.8566   24.2267 N   0  0  0  0  0  0
  -23.4262  -30.4850   21.5486 C   0  0  2  0  0  0
  -24.8653  -28.9404   20.1032 C   0  0  0  0  0  0
  -22.7512  -29.4604   22.4919 C   0  0  0  0  0  0
  -18.0288  -28.1420   22.8440 C   0  0  0  0  0  0
  -24.1489  -36.7292   23.2628 C   0  0  0  0  0  0
  -25.9770  -30.7557   21.3906 C   0  0  0  0  0  0
  -26.0397  -29.3776   20.7291 C   0  0  0  0  0  0
  -27.2003  -28.5321   20.7281 C   0  0  0  0  0  0
  -26.0050  -26.9074   19.4051 C   0  0  0  0  0  0
  -24.8561  -27.7132   19.4330 C   0  0  0  0  0  0
  -23.6437  -29.8323   20.1605 C   0  0  0  0  0  0
  -25.4111  -36.3056   24.0314 C   0  0  1  0  0  0
  -20.5904  -28.3714   23.1339 C   0  0  2  0  0  0
  -20.6774  -26.9424   22.5512 C   0  0  0  0  0  0
  -19.5807  -26.6396   21.5251 C   0  0  0  0  0  0
  -18.1947  -26.7967   22.1566 C   0  0  0  0  0  0
  -19.1566  -28.8880   23.2848 C   0  0  0  0  0  0
  -18.9489  -30.1470   23.8942 C   0  0  0  0  0  0
  -17.6530  -30.6612   24.0592 C   0  0  0  0  0  0
  -25.9062  -34.9431   23.5092 C   0  0  0  0  0  0
  -16.5394  -29.9138   23.6384 C   0  0  0  0  0  0
  -16.7283  -28.6564   23.0344 C   0  0  0  0  0  0
  -26.4507  -31.6582   25.0755 C   0  0  0  0  0  0
  -25.3723  -31.3751   26.1476 C   0  0  0  0  0  0
  -27.0363  -30.2986   24.6276 C   0  0  0  0  0  0
  -27.6062  -32.4314   25.7532 C   0  0  0  0  0  0
  -27.5578  -37.1802   24.8460 C   0  0  0  0  0  0
  -21.4205  -29.3053   22.3677 N   0  0  0  0  0  0
  -26.4278  -37.3757   23.9398 N   0  0  0  0  0  0
  -24.6994  -31.0509   22.1028 N   0  0  0  0  0  0
  -23.4191  -28.8134   23.3009 O   0  0  0  0  0  0
  -28.2772  -26.3169   20.1807 O   0  0  0  0  0  0
  -26.5621  -34.8899   22.4650 O   0  0  0  0  0  0
  -23.5448  -32.1406   23.7317 O   0  0  0  0  0  0
  -27.6000  -20.7841   21.4484 C   0  0  0  0  0  0
  -27.2657  -19.4801   21.8588 C   0  0  0  0  0  0
  -29.4973  -19.8498   20.2629 C   0  0  0  0  0  0
  -29.2005  -18.4787   20.6903 C   0  0  0  0  0  0
  -28.7157  -21.0285   20.6191 C   0  0  0  0  0  0
  -28.0168  -18.3434   21.4782 C   0  0  0  0  0  0
  -30.1655  -17.2725   20.3757 C   0  0  0  0  0  0
  -28.5541  -23.6565   20.5910 C   0  0  0  0  0  0
  -28.1958  -24.9000   19.6355 C   0  0  0  0  0  0
  -27.5161  -17.1180   21.9299 N   0  0  0  0  0  0
  -28.9098  -22.4061   20.0784 N   0  0  0  0  0  0
  -29.8403  -15.9328   20.6081 N   0  0  0  0  0  0
  -31.2521  -17.5837   19.8727 O   0  0  0  0  0  0
  -28.5006  -23.8332   21.8123 O   0  0  0  0  0  0
  -31.4787  -12.5821   19.1967 H   0  0  0  0  0  0
  -30.3795  -11.4953   19.9822 H   0  0  0  0  0  0
  -29.8096  -11.7329   17.5409 H   0  0  0  0  0  0
  -29.6530  -13.4667   17.7321 H   0  0  0  0  0  0
  -27.9075  -11.2839   18.9234 H   0  0  0  0  0  0
  -27.3883  -12.5206   17.8008 H   0  0  0  0  0  0
  -27.6420  -14.2561   19.4764 H   0  0  0  0  0  0
  -28.7213  -12.1959   21.4539 H   0  0  0  0  0  0
  -28.4119  -13.8809   21.7975 H   0  0  0  0  0  0
  -25.2746   -9.5751   22.4781 H   0  0  0  0  0  0
  -24.0018   -7.4673   22.7488 H   0  0  0  0  0  0
  -21.0825   -8.8794   19.8962 H   0  0  0  0  0  0
  -22.3643  -10.9723   19.6209 H   0  0  0  0  0  0
  -21.2034   -7.6164   23.9708 H   0  0  0  0  0  0
  -21.1478   -6.0535   25.9066 H   0  0  0  0  0  0
  -22.0592   -2.7619   23.2838 H   0  0  0  0  0  0
  -22.4075  -11.9956   22.4869 H   0  0  0  0  0  0
  -21.1077  -13.1344   22.2650 H   0  0  0  0  0  0
  -24.5149  -15.6779   20.3072 H   0  0  0  0  0  0
  -25.9587  -15.3867   19.5195 H   0  0  0  0  0  0
  -26.7209  -32.5386   23.1086 H   0  0  0  0  0  0
  -25.0120  -33.9704   25.0419 H   0  0  0  0  0  0
  -22.7178  -31.3033   21.4106 H   0  0  0  0  0  0
  -23.3749  -35.9627   23.3284 H   0  0  0  0  0  0
  -24.3586  -36.8930   22.2045 H   0  0  0  0  0  0
  -23.7266  -37.6496   23.6675 H   0  0  0  0  0  0
  -26.1229  -31.5181   20.6217 H   0  0  0  0  0  0
  -26.8528  -30.7978   22.0283 H   0  0  0  0  0  0
  -28.0931  -28.8545   21.2426 H   0  0  0  0  0  0
  -25.9002  -26.0181   18.8095 H   0  0  0  0  0  0
  -23.9651  -27.3970   18.9041 H   0  0  0  0  0  0
  -23.7685  -30.6150   19.4106 H   0  0  0  0  0  0
  -22.7578  -29.2707   19.8532 H   0  0  0  0  0  0
  -25.1306  -36.1902   25.0807 H   0  0  0  0  0  0
  -21.0022  -28.3308   24.1458 H   0  0  0  0  0  0
  -20.5645  -26.2353   23.3711 H   0  0  0  0  0  0
  -21.6647  -26.7373   22.1388 H   0  0  0  0  0  0
  -19.6967  -25.6314   21.1261 H   0  0  0  0  0  0
  -19.6795  -27.3234   20.6806 H   0  0  0  0  0  0
  -17.4378  -26.6778   21.3799 H   0  0  0  0  0  0
  -18.0229  -26.0051   22.8876 H   0  0  0  0  0  0
  -19.7969  -30.7302   24.2332 H   0  0  0  0  0  0
  -17.5105  -31.6277   24.5213 H   0  0  0  0  0  0
  -15.5437  -30.3075   23.7749 H   0  0  0  0  0  0
  -15.8671  -28.0923   22.7090 H   0  0  0  0  0  0
  -24.5924  -30.7049   25.7834 H   0  0  0  0  0  0
  -24.8885  -32.2939   26.4811 H   0  0  0  0  0  0
  -25.8038  -30.9024   27.0316 H   0  0  0  0  0  0
  -26.2983  -29.6720   24.1270 H   0  0  0  0  0  0
  -27.3995  -29.7237   25.4806 H   0  0  0  0  0  0
  -27.8869  -30.4224   23.9569 H   0  0  0  0  0  0
  -27.2678  -33.3635   26.2070 H   0  0  0  0  0  0
  -28.3915  -32.6840   25.0391 H   0  0  0  0  0  0
  -28.0693  -31.8467   26.5499 H   0  0  0  0  0  0
  -28.2589  -38.0106   24.7505 H   0  0  0  0  0  0
  -28.1078  -36.2639   24.6287 H   0  0  0  0  0  0
  -27.2295  -37.1456   25.8860 H   0  0  0  0  0  0
  -20.9394  -29.8843   21.6957 H   0  0  0  0  0  0
  -26.0169  -38.2830   24.1378 H   0  0  0  0  0  0
  -26.9444  -21.5971   21.7326 H   0  0  0  0  0  0
  -26.3781  -19.3635   22.4644 H   0  0  0  0  0  0
  -30.3770  -20.0048   19.6514 H   0  0  0  0  0  0
  -27.1859  -24.6274   19.3467 H   0  0  0  0  0  0
  -28.7756  -24.8504   18.7108 H   0  0  0  0  0  0
  -26.8727  -16.6811   21.2729 H   0  0  0  0  0  0
  -26.9606  -17.2299   22.7790 H   0  0  0  0  0  0
  -29.2413  -22.4325   19.1237 H   0  0  0  0  0  0
  -28.8963  -15.8273   20.9475 H   0  0  0  0  0  0
  1 25  1  0  0  0
  1 30  2  0  0  0
  1 82  1  0  0  0
  2  3  1  0  0  0
  2 25  1  0  0  0
  2 85  1  0  0  0
  2 86  1  0  0  0
  3  4  1  0  0  0
  3 87  1  0  0  0
  3 88  1  0  0  0
  4  5  1  0  0  0
  4 89  1  0  0  0
  4 90  1  0  0  0
  5  6  1  0  0  0
  5 26  1  0  0  0
  5 91  1  0  0  0
  6 25  1  0  0  0
  6 92  1  0  0  0
  6 93  1  0  0  0
  7  8  2  0  0  0
  7 26  1  0  0  0
  7 29  1  0  0  0
  8  9  1  0  0  0
  8 22  1  0  0  0
  9 10  1  0  0  0
  9 27  2  0  0  0
 10 11  2  0  0  0
 10 15  1  0  0  0
 11 12  1  0  0  0
 11 94  1  0  0  0
 12 13  2  0  0  0
 12 95  1  0  0  0
 13 14  1  0  0  0
 13 31  1  0  0  0
 14 15  2  0  0  0
 14 96  1  0  0  0
 15 97  1  0  0  0
 16 17  2  0  0  0
 16 21  1  0  0  0
 16 31  1  0  0  0
 17 18  1  0  0  0
 17 98  1  0  0  0
 18 19  2  0  0  0
 18 99  1  0  0  0
 19 20  1  0  0  0
 19 24  1  0  0  0
 20 21  2  0  0  0
 20100  1  0  0  0
 21 23  1  0  0  0
 22 28  1  0  0  0
 22 32  2  0  0  0
 26 27  1  0  0  0
 28101  1  0  0  0
 28102  1  0  0  0
 29103  1  0  0  0
 29104  1  0  0  0
 33 34  1  0  0  0
 33 66  1  0  0  0
 33 70  2  0  0  0
 34 36  1  0  0  0
 34 59  1  0  0  0
 34105  1  0  0  0
 35 44  2  0  0  0
 35 45  1  0  0  0
 35 68  1  0  0  0
 36 56  1  0  0  0
 36106  1  0  0  0
 37 39  1  0  0  0
 37 47  1  0  0  0
 37 66  1  0  0  0
 37107  1  0  0  0
 38 43  2  0  0  0
 38 46  1  0  0  0
 38 47  1  0  0  0
 39 64  1  0  0  0
 39 67  2  0  0  0
 40 52  1  0  0  0
 40 53  2  0  0  0
 40 58  1  0  0  0
 41108  1  0  0  0
 41109  1  0  0  0
 41110  1  0  0  0
 41 48  1  0  0  0
 42 43  1  0  0  0
 42 66  1  0  0  0
 42111  1  0  0  0
 42112  1  0  0  0
 43 44  1  0  0  0
 44113  1  0  0  0
 45 46  2  0  0  0
 45114  1  0  0  0
 46115  1  0  0  0
 47116  1  0  0  0
 47117  1  0  0  0
 48 56  1  0  0  0
 48 65  1  0  0  0
 48118  1  0  0  0
 49 50  1  0  0  0
 49 53  1  0  0  0
 49 64  1  0  0  0
 49119  1  0  0  0
 50 51  1  0  0  0
 50120  1  0  0  0
 50121  1  0  0  0
 51 52  1  0  0  0
 51122  1  0  0  0
 51123  1  0  0  0
 52124  1  0  0  0
 52125  1  0  0  0
 53 54  1  0  0  0
 54 55  2  0  0  0
 54126  1  0  0  0
 55 57  1  0  0  0
 55127  1  0  0  0
 56 69  2  0  0  0
 57 58  2  0  0  0
 57128  1  0  0  0
 58129  1  0  0  0
 59 60  1  0  0  0
 59 61  1  0  0  0
 59 62  1  0  0  0
 60130  1  0  0  0
 60131  1  0  0  0
 60132  1  0  0  0
 61133  1  0  0  0
 61134  1  0  0  0
 61135  1  0  0  0
 62136  1  0  0  0
 62137  1  0  0  0
 62138  1  0  0  0
 63 65  1  0  0  0
 63139  1  0  0  0
 63140  1  0  0  0
 63141  1  0  0  0
 64142  1  0  0  0
 65143  1  0  0  0
 68 79  1  0  0  0
 71 72  2  0  0  0
 71 75  1  0  0  0
 71144  1  0  0  0
 72 76  1  0  0  0
 72145  1  0  0  0
 73 74  1  0  0  0
 73 75  2  0  0  0
 73146  1  0  0  0
 74 76  2  0  0  0
 74 77  1  0  0  0
 75 81  1  0  0  0
 76 80  1  0  0  0
 77 82  1  0  0  0
 77 83  2  0  0  0
 78 79  1  0  0  0
 78 81  1  0  0  0
 78 84  2  0  0  0
 79147  1  0  0  0
 79148  1  0  0  0
 80149  1  0  0  0
 80150  1  0  0  0
 81151  1  0  0  0
 82152  1  0  0  0
M  ISO  4   1 100  68 101  79 101  82 100
M  END
> <chiral flag>
0

> <version>
0

> <s_m_source_file>
/data/baiqing/PycharmProjects/Reinvent-master-3.2/result/LINK_invent/BTK/process_docking_weight1_custom_product_contain_oxygen_bond_distance_aromatic_linkinvent_7_9_3/rearranged_h_0070.sdf

> <i_m_source_file_index>
89

> <r_mmod_Potential_Energy-OPLS-2005>
184.549713134766

> <r_mmod_Stretch_Energy-OPLS-2005>
140.825012207031

> <r_mmod_Bend_Energy-OPLS-2005>
175.943008422852

> <r_mmod_Torsional_Energy-OPLS-2005>
274.972778320312

> <r_mmod_Improper_Torsional_Energy-OPLS-2005>
17.4707717895508

> <r_mmod_Van_der_Waal_Energy-OPLS-2005>
152.395782470703

> <r_mmod_Electrostatic_Energy-OPLS-2005>
-424.707061767578

> <r_mmod_Solvation_Energy-OPLS-2005>
-253.890441894531

> <b_mmod_Minimization_Converged-OPLS-2005>
0

> <r_mmod_RMS_Derivative-OPLS-2005>
7.44180631637573

$$$$
89
                    3D
 Structure written by MMmdl.
171180  0  0  1  0            999 V2000
  -30.7220  -14.4744   20.5402 C   0  0  0  0  0  0
  -30.4192  -12.2924   19.4365 C   0  0  0  0  0  0
  -29.5025  -12.4741   18.2109 C   0  0  0  0  0  0
  -28.0196  -12.3604   18.6183 C   0  0  0  0  0  0
  -27.6605  -13.2152   19.8654 C   0  0  2  0  0  0
  -28.7016  -13.0280   20.9896 C   0  0  0  0  0  0
  -25.2583  -13.8181   20.5676 C   0  0  0  0  0  0
  -24.1850  -13.0454   20.9149 C   0  0  0  0  0  0
  -24.6413  -11.6914   20.8727 C   0  0  0  0  0  0
  -23.9081  -10.4296   21.0409 C   0  0  0  0  0  0
  -24.3625   -9.4212   21.9193 C   0  0  0  0  0  0
  -23.6288   -8.2255   22.0774 C   0  0  0  0  0  0
  -22.4272   -8.0286   21.3555 C   0  0  0  0  0  0
  -21.9912   -9.0268   20.4663 C   0  0  0  0  0  0
  -22.7250  -10.2134   20.3069 C   0  0  0  0  0  0
  -21.6850   -6.0739   22.5280 C   0  0  0  0  0  0
  -21.4015   -6.5643   23.8215 C   0  0  0  0  0  0
  -21.3658   -5.6795   24.9175 C   0  0  0  0  0  0
  -21.6040   -4.3058   24.7221 C   0  0  0  0  0  0
  -21.8824   -3.8145   23.4350 C   0  0  0  0  0  0
  -21.9189   -4.6961   22.3405 C   0  0  0  0  0  0
  -22.7865  -13.5240   21.1811 C   0  0  0  0  0  0
  -22.1658   -4.2150   21.0976 F   0  0  0  0  0  0
  -21.5622   -3.4540   25.7739 F   0  0  0  0  0  0
  -30.0320  -13.3056   20.4312 N   0  0  0  0  0  0
  -26.3033  -12.9378   20.3327 N   0  0  0  0  0  0
  -25.9333  -11.6522   20.5741 N   0  0  0  0  0  0
  -22.0503  -12.8257   22.0374 N   0  0  0  0  0  0
  -25.4318  -15.1908   20.4126 N   0  0  0  0  0  0
  -31.8751  -14.5710   20.1186 O   0  0  0  0  0  0
  -21.6640   -6.8883   21.4243 O   0  0  0  0  0  0
  -22.3550  -14.5543   20.6637 O   0  0  0  0  0  0
  -24.6163  -31.8684   23.2111 C   0  0  0  0  0  0
  -25.9059  -32.4828   23.8401 C   0  0  1  0  0  0
  -27.2203  -27.4130   20.0866 C   0  0  0  0  0  0
  -25.5931  -33.8629   24.2323 N   0  0  0  0  0  0
  -23.4037  -30.4882   21.5578 C   0  0  2  0  0  0
  -24.8465  -28.9608   20.1073 C   0  0  0  0  0  0
  -22.7420  -29.4601   22.5039 C   0  0  0  0  0  0
  -18.0245  -28.1347   22.8466 C   0  0  0  0  0  0
  -24.1492  -36.7316   23.2635 C   0  0  0  0  0  0
  -25.9310  -30.8244   21.3661 C   0  0  0  0  0  0
  -26.0065  -29.4578   20.7106 C   0  0  0  0  0  0
  -27.1951  -28.6910   20.6972 C   0  0  0  0  0  0
  -26.0438  -26.9471   19.4540 C   0  0  0  0  0  0
  -24.8612  -27.7077   19.4734 C   0  0  0  0  0  0
  -23.6104  -29.8294   20.1685 C   0  0  0  0  0  0
  -25.4117  -36.3112   24.0318 C   0  0  1  0  0  0
  -20.5833  -28.3633   23.1334 C   0  0  2  0  0  0
  -20.6759  -26.9379   22.5409 C   0  0  0  0  0  0
  -19.5745  -26.6349   21.5197 C   0  0  0  0  0  0
  -18.1909  -26.7893   22.1601 C   0  0  0  0  0  0
  -19.1493  -28.8797   23.2892 C   0  0  0  0  0  0
  -18.9430  -30.1403   23.8910 C   0  0  0  0  0  0
  -17.6445  -30.6575   24.0534 C   0  0  0  0  0  0
  -25.9044  -34.9478   23.5115 C   0  0  0  0  0  0
  -16.5332  -29.9073   23.6307 C   0  0  0  0  0  0
  -16.7244  -28.6480   23.0338 C   0  0  0  0  0  0
  -26.4459  -31.6613   25.0745 C   0  0  0  0  0  0
  -25.3700  -31.3728   26.1484 C   0  0  0  0  0  0
  -27.0287  -30.3071   24.6079 C   0  0  0  0  0  0
  -27.6047  -32.4318   25.7516 C   0  0  0  0  0  0
  -27.5572  -37.1813   24.8452 C   0  0  0  0  0  0
  -21.4137  -29.3023   22.3790 N   0  0  0  0  0  0
  -26.4304  -37.3792   23.9372 N   0  0  0  0  0  0
  -24.6691  -31.0746   22.1041 N   0  0  0  0  0  0
  -23.4194  -28.8124   23.3062 O   0  0  0  0  0  0
  -28.3946  -26.6833   20.1192 O   0  0  0  0  0  0
  -26.5613  -34.8933   22.4683 O   0  0  0  0  0  0
  -23.5356  -32.1469   23.7484 O   0  0  0  0  0  0
  -28.1882  -18.4773   20.1566 C   0  0  0  0  0  0
  -27.8575  -19.8322   20.3952 C   0  0  0  0  0  0
  -30.0086  -20.1589   21.4620 C   0  0  0  0  0  0
  -29.4368  -17.9443   20.5533 C   0  0  0  0  0  0
  -30.3464  -18.8049   21.2280 C   0  0  0  0  0  0
  -28.7739  -20.6987   21.0331 C   0  0  0  0  0  0
  -27.4199  -22.5996   21.8631 C   0  0  0  0  0  0
  -29.8344  -16.5643   20.1342 C   0  0  0  0  0  0
  -29.4973  -23.1395   21.0329 C   0  0  0  0  0  0
  -27.6436  -24.0655   22.2794 C   0  0  0  0  0  0
  -28.8348  -24.5158   21.3583 C   0  0  1  0  0  0
  -31.7254  -18.3196   21.6583 C   0  0  0  0  0  0
  -30.1173  -16.4986   18.6284 C   0  0  0  0  0  0
  -27.9962  -24.0561   23.7875 C   0  0  0  0  0  0
  -26.3498  -24.8961   22.1373 C   0  0  0  0  0  0
  -29.8755  -25.4245   22.0565 C   0  0  0  0  0  0
  -28.3958  -25.2355   20.0280 C   0  0  0  0  0  0
  -30.0023  -15.5901   20.9707 N   0  0  0  0  0  0
  -28.4888  -22.0974   21.2221 N   0  0  0  0  0  0
  -26.3767  -21.9916   22.1263 O   0  0  0  0  0  0
  -31.4665  -12.3627   19.1363 H   0  0  0  0  0  0
  -30.3012  -11.2914   19.8539 H   0  0  0  0  0  0
  -29.7368  -11.7241   17.4541 H   0  0  0  0  0  0
  -29.6933  -13.4386   17.7418 H   0  0  0  0  0  0
  -27.8177  -11.3079   18.8201 H   0  0  0  0  0  0
  -27.3791  -12.6331   17.7799 H   0  0  0  0  0  0
  -27.6985  -14.2596   19.5558 H   0  0  0  0  0  0
  -28.6701  -12.0069   21.3753 H   0  0  0  0  0  0
  -28.4738  -13.6739   21.8392 H   0  0  0  0  0  0
  -25.2773   -9.5677   22.4763 H   0  0  0  0  0  0
  -23.9982   -7.4659   22.7515 H   0  0  0  0  0  0
  -21.0836   -8.8807   19.8976 H   0  0  0  0  0  0
  -22.3727  -10.9683   19.6176 H   0  0  0  0  0  0
  -21.2024   -7.6152   23.9715 H   0  0  0  0  0  0
  -21.1466   -6.0527   25.9079 H   0  0  0  0  0  0
  -22.0601   -2.7612   23.2851 H   0  0  0  0  0  0
  -22.4096  -11.9901   22.4759 H   0  0  0  0  0  0
  -21.1135  -13.1321   22.2591 H   0  0  0  0  0  0
  -24.6772  -15.8538   20.5483 H   0  0  0  0  0  0
  -26.3060  -15.6273   20.1530 H   0  0  0  0  0  0
  -26.7128  -32.5521   23.1152 H   0  0  0  0  0  0
  -25.0096  -33.9788   25.0475 H   0  0  0  0  0  0
  -22.6926  -31.3051   21.4229 H   0  0  0  0  0  0
  -23.3754  -35.9653   23.3323 H   0  0  0  0  0  0
  -24.3588  -36.8931   22.2049 H   0  0  0  0  0  0
  -23.7235  -37.6517   23.6657 H   0  0  0  0  0  0
  -26.0344  -31.5900   20.5965 H   0  0  0  0  0  0
  -26.8219  -30.8877   21.9790 H   0  0  0  0  0  0
  -28.0902  -29.0669   21.1742 H   0  0  0  0  0  0
  -26.0098  -26.0098   18.9226 H   0  0  0  0  0  0
  -23.9731  -27.3300   18.9845 H   0  0  0  0  0  0
  -23.7170  -30.6104   19.4163 H   0  0  0  0  0  0
  -22.7318  -29.2536   19.8768 H   0  0  0  0  0  0
  -25.1285  -36.2022   25.0812 H   0  0  0  0  0  0
  -20.9862  -28.3194   24.1477 H   0  0  0  0  0  0
  -20.5655  -26.2223   23.3581 H   0  0  0  0  0  0
  -21.6633  -26.7442   22.1201 H   0  0  0  0  0  0
  -19.6915  -25.6254   21.1230 H   0  0  0  0  0  0
  -19.6691  -27.3155   20.6736 H   0  0  0  0  0  0
  -17.4162  -26.6573   21.4028 H   0  0  0  0  0  0
  -18.0345  -26.0047   22.9020 H   0  0  0  0  0  0
  -19.7930  -30.7167   24.2319 H   0  0  0  0  0  0
  -17.5030  -31.6270   24.5117 H   0  0  0  0  0  0
  -15.5346  -30.2988   23.7631 H   0  0  0  0  0  0
  -15.8633  -28.0822   22.7061 H   0  0  0  0  0  0
  -24.5926  -30.7005   25.7822 H   0  0  0  0  0  0
  -24.8795  -32.2877   26.4853 H   0  0  0  0  0  0
  -25.8045  -30.8981   27.0298 H   0  0  0  0  0  0
  -26.2847  -29.6865   24.1078 H   0  0  0  0  0  0
  -27.4026  -29.7270   25.4518 H   0  0  0  0  0  0
  -27.8679  -30.4396   23.9248 H   0  0  0  0  0  0
  -27.2715  -33.3657   26.2071 H   0  0  0  0  0  0
  -28.3907  -32.6822   25.0373 H   0  0  0  0  0  0
  -28.0670  -31.8443   26.5464 H   0  0  0  0  0  0
  -28.2578  -38.0125   24.7545 H   0  0  0  0  0  0
  -28.1080  -36.2651   24.6254 H   0  0  0  0  0  0
  -27.2289  -37.1465   25.8859 H   0  0  0  0  0  0
  -20.9296  -29.8846   21.7097 H   0  0  0  0  0  0
  -26.0205  -38.2861   24.1426 H   0  0  0  0  0  0
  -27.4868  -17.8520   19.6203 H   0  0  0  0  0  0
  -26.9054  -20.2106   20.0519 H   0  0  0  0  0  0
  -30.7179  -20.7934   21.9730 H   0  0  0  0  0  0
  -30.3270  -22.9422   21.7121 H   0  0  0  0  0  0
  -29.8987  -23.0894   20.0206 H   0  0  0  0  0  0
  -32.3154  -19.1219   22.1023 H   0  0  0  0  0  0
  -32.2806  -17.9394   20.7994 H   0  0  0  0  0  0
  -31.6506  -17.5233   22.3998 H   0  0  0  0  0  0
  -29.7744  -17.3992   18.1196 H   0  0  0  0  0  0
  -29.6020  -15.6561   18.1717 H   0  0  0  0  0  0
  -31.1878  -16.4145   18.4366 H   0  0  0  0  0  0
  -28.9555  -23.5814   23.9911 H   0  0  0  0  0  0
  -27.2478  -23.5054   24.3608 H   0  0  0  0  0  0
  -28.0283  -25.0672   24.1954 H   0  0  0  0  0  0
  -25.8448  -24.7259   21.1870 H   0  0  0  0  0  0
  -26.5562  -25.9598   22.2385 H   0  0  0  0  0  0
  -25.6336  -24.6445   22.9192 H   0  0  0  0  0  0
  -30.4077  -24.9153   22.8594 H   0  0  0  0  0  0
  -29.4060  -26.3093   22.4874 H   0  0  0  0  0  0
  -30.6314  -25.7596   21.3461 H   0  0  0  0  0  0
  -27.4865  -24.7879   19.6385 H   0  0  0  0  0  0
  -29.1299  -25.0247   19.2519 H   0  0  0  0  0  0
  1 25  1  0  0  0
  1 30  2  0  0  0
  1 88  1  0  0  0
  2  3  1  0  0  0
  2 25  1  0  0  0
  2 91  1  0  0  0
  2 92  1  0  0  0
  3  4  1  0  0  0
  3 93  1  0  0  0
  3 94  1  0  0  0
  4  5  1  0  0  0
  4 95  1  0  0  0
  4 96  1  0  0  0
  5  6  1  0  0  0
  5 26  1  0  0  0
  5 97  1  0  0  0
  6 25  1  0  0  0
  6 98  1  0  0  0
  6 99  1  0  0  0
  7  8  2  0  0  0
  7 26  1  0  0  0
  7 29  1  0  0  0
  8  9  1  0  0  0
  8 22  1  0  0  0
  9 10  1  0  0  0
  9 27  2  0  0  0
 10 11  2  0  0  0
 10 15  1  0  0  0
 11 12  1  0  0  0
 11100  1  0  0  0
 12 13  2  0  0  0
 12101  1  0  0  0
 13 14  1  0  0  0
 13 31  1  0  0  0
 14 15  2  0  0  0
 14102  1  0  0  0
 15103  1  0  0  0
 16 17  2  0  0  0
 16 21  1  0  0  0
 16 31  1  0  0  0
 17 18  1  0  0  0
 17104  1  0  0  0
 18 19  2  0  0  0
 18105  1  0  0  0
 19 20  1  0  0  0
 19 24  1  0  0  0
 20 21  2  0  0  0
 20106  1  0  0  0
 21 23  1  0  0  0
 22 28  1  0  0  0
 22 32  2  0  0  0
 26 27  1  0  0  0
 28107  1  0  0  0
 28108  1  0  0  0
 29109  1  0  0  0
 29110  1  0  0  0
 33 34  1  0  0  0
 33 66  1  0  0  0
 33 70  2  0  0  0
 34 36  1  0  0  0
 34 59  1  0  0  0
 34111  1  0  0  0
 35 44  2  0  0  0
 35 45  1  0  0  0
 35 68  1  0  0  0
 36 56  1  0  0  0
 36112  1  0  0  0
 37 39  1  0  0  0
 37 47  1  0  0  0
 37 66  1  0  0  0
 37113  1  0  0  0
 38 43  2  0  0  0
 38 46  1  0  0  0
 38 47  1  0  0  0
 39 64  1  0  0  0
 39 67  2  0  0  0
 40 52  1  0  0  0
 40 53  2  0  0  0
 40 58  1  0  0  0
 41114  1  0  0  0
 41115  1  0  0  0
 41116  1  0  0  0
 41 48  1  0  0  0
 42 43  1  0  0  0
 42 66  1  0  0  0
 42117  1  0  0  0
 42118  1  0  0  0
 43 44  1  0  0  0
 44119  1  0  0  0
 45 46  2  0  0  0
 45120  1  0  0  0
 46121  1  0  0  0
 47122  1  0  0  0
 47123  1  0  0  0
 48 56  1  0  0  0
 48 65  1  0  0  0
 48124  1  0  0  0
 49 50  1  0  0  0
 49 53  1  0  0  0
 49 64  1  0  0  0
 49125  1  0  0  0
 50 51  1  0  0  0
 50126  1  0  0  0
 50127  1  0  0  0
 51 52  1  0  0  0
 51128  1  0  0  0
 51129  1  0  0  0
 52130  1  0  0  0
 52131  1  0  0  0
 53 54  1  0  0  0
 54 55  2  0  0  0
 54132  1  0  0  0
 55 57  1  0  0  0
 55133  1  0  0  0
 56 69  2  0  0  0
 57 58  2  0  0  0
 57134  1  0  0  0
 58135  1  0  0  0
 59 60  1  0  0  0
 59 61  1  0  0  0
 59 62  1  0  0  0
 60136  1  0  0  0
 60137  1  0  0  0
 60138  1  0  0  0
 61139  1  0  0  0
 61140  1  0  0  0
 61141  1  0  0  0
 62142  1  0  0  0
 62143  1  0  0  0
 62144  1  0  0  0
 63 65  1  0  0  0
 63145  1  0  0  0
 63146  1  0  0  0
 63147  1  0  0  0
 64148  1  0  0  0
 65149  1  0  0  0
 68 87  1  0  0  0
 71 72  2  0  0  0
 71 74  1  0  0  0
 71150  1  0  0  0
 72 76  1  0  0  0
 72151  1  0  0  0
 73 75  1  0  0  0
 73 76  2  0  0  0
 73152  1  0  0  0
 74 75  2  0  0  0
 74 78  1  0  0  0
 75 82  1  0  0  0
 76 89  1  0  0  0
 77 80  1  0  0  0
 77 89  1  0  0  0
 77 90  2  0  0  0
 78 83  1  0  0  0
 78 88  2  0  0  0
 79 81  1  0  0  0
 79 89  1  0  0  0
 79153  1  0  0  0
 79154  1  0  0  0
 80 81  1  0  0  0
 80 84  1  0  0  0
 80 85  1  0  0  0
 81 86  1  0  0  0
 81 87  1  0  0  0
 82155  1  0  0  0
 82156  1  0  0  0
 82157  1  0  0  0
 83158  1  0  0  0
 83159  1  0  0  0
 83160  1  0  0  0
 84161  1  0  0  0
 84162  1  0  0  0
 84163  1  0  0  0
 85164  1  0  0  0
 85165  1  0  0  0
 85166  1  0  0  0
 86167  1  0  0  0
 86168  1  0  0  0
 86169  1  0  0  0
 87170  1  0  0  0
 87171  1  0  0  0
M  ISO  4   1 100  68 101  87 101  88 100
M  END
> <chiral flag>
0

> <version>
0

> <s_m_source_file>
/data/baiqing/PycharmProjects/Reinvent-master-3.2/result/LINK_invent/BTK/process_docking_weight1_custom_product_contain_oxygen_bond_distance_aromatic_linkinvent_7_9_3/rearranged_h_0070.sdf

> <i_m_source_file_index>
90

> <r_mmod_Potential_Energy-OPLS-2005>
195.412307739258

> <r_mmod_Stretch_Energy-OPLS-2005>
50.7020683288574

> <r_mmod_Bend_Energy-OPLS-2005>
149.331497192383

> <r_mmod_Torsional_Energy-OPLS-2005>
303.096038818359

> <r_mmod_Improper_Torsional_Energy-OPLS-2005>
5.51593446731567

> <r_mmod_Van_der_Waal_Energy-OPLS-2005>
167.372024536133

> <r_mmod_Electrostatic_Energy-OPLS-2005>
-312.439819335938

> <r_mmod_Solvation_Energy-OPLS-2005>
-186.238708496094

> <b_mmod_Minimization_Converged-OPLS-2005>
0

> <r_mmod_RMS_Derivative-OPLS-2005>
3.43418145179749

$$$$
90
                    3D
 Structure written by MMmdl.
154162  0  0  1  0            999 V2000
  -30.5108  -15.0485   20.4208 C   0  0  0  0  0  0
  -30.4416  -12.6633   19.4986 C   0  0  0  0  0  0
  -29.5222  -12.5404   18.2601 C   0  0  0  0  0  0
  -28.0610  -12.3045   18.6859 C   0  0  0  0  0  0
  -27.6213  -13.2538   19.8303 C   0  0  2  0  0  0
  -28.6650  -13.3343   20.9644 C   0  0  0  0  0  0
  -25.2437  -13.8222   20.5724 C   0  0  0  0  0  0
  -24.1767  -13.0443   20.9256 C   0  0  0  0  0  0
  -24.6393  -11.6928   20.8769 C   0  0  0  0  0  0
  -23.9075  -10.4294   21.0416 C   0  0  0  0  0  0
  -24.3623   -9.4208   21.9191 C   0  0  0  0  0  0
  -23.6299   -8.2244   22.0753 C   0  0  0  0  0  0
  -22.4282   -8.0281   21.3541 C   0  0  0  0  0  0
  -21.9917   -9.0255   20.4643 C   0  0  0  0  0  0
  -22.7246  -10.2139   20.3061 C   0  0  0  0  0  0
  -21.6855   -6.0737   22.5277 C   0  0  0  0  0  0
  -21.4013   -6.5644   23.8208 C   0  0  0  0  0  0
  -21.3653   -5.6798   24.9172 C   0  0  0  0  0  0
  -21.6046   -4.3059   24.7225 C   0  0  0  0  0  0
  -21.8818   -3.8150   23.4343 C   0  0  0  0  0  0
  -21.9194   -4.6965   22.3400 C   0  0  0  0  0  0
  -22.7787  -13.5213   21.1893 C   0  0  0  0  0  0
  -22.1665   -4.2154   21.0976 F   0  0  0  0  0  0
  -21.5624   -3.4538   25.7734 F   0  0  0  0  0  0
  -29.9205  -13.7787   20.3467 N   0  0  0  0  0  0
  -26.2853  -12.9456   20.3236 N   0  0  0  0  0  0
  -25.9322  -11.6584   20.5738 N   0  0  0  0  0  0
  -22.0427  -12.8203   22.0443 N   0  0  0  0  0  0
  -25.4087  -15.1949   20.4119 N   0  0  0  0  0  0
  -31.7318  -15.0786   20.2218 O   0  0  0  0  0  0
  -21.6646   -6.8881   21.4238 O   0  0  0  0  0  0
  -22.3479  -14.5515   20.6727 O   0  0  0  0  0  0
  -24.6510  -31.8370   23.1814 C   0  0  0  0  0  0
  -25.9244  -32.4662   23.8227 C   0  0  1  0  0  0
  -27.2107  -27.0536   20.1648 C   0  0  0  0  0  0
  -25.5960  -33.8468   24.2143 N   0  0  0  0  0  0
  -23.4593  -30.4539   21.5296 C   0  0  2  0  0  0
  -24.9093  -28.8676   20.1110 C   0  0  0  0  0  0
  -22.7612  -29.4508   22.4832 C   0  0  0  0  0  0
  -18.0322  -28.1387   22.8468 C   0  0  0  0  0  0
  -24.1503  -36.7242   23.2641 C   0  0  0  0  0  0
  -26.0211  -30.6842   21.3936 C   0  0  0  0  0  0
  -26.0909  -29.2872   20.7355 C   0  0  0  0  0  0
  -27.2423  -28.3987   20.7419 C   0  0  0  0  0  0
  -26.0028  -26.7616   19.4916 C   0  0  0  0  0  0
  -24.8830  -27.6212   19.4706 C   0  0  0  0  0  0
  -23.6907  -29.7794   20.1513 C   0  0  0  0  0  0
  -25.4135  -36.3015   24.0312 C   0  0  1  0  0  0
  -20.5936  -28.3726   23.1211 C   0  0  2  0  0  0
  -20.6807  -26.9424   22.5394 C   0  0  0  0  0  0
  -19.5778  -26.6373   21.5206 C   0  0  0  0  0  0
  -18.1959  -26.7922   22.1616 C   0  0  0  0  0  0
  -19.1580  -28.8876   23.2830 C   0  0  0  0  0  0
  -18.9488  -30.1469   23.8863 C   0  0  0  0  0  0
  -17.6481  -30.6584   24.0552 C   0  0  0  0  0  0
  -25.9088  -34.9392   23.5048 C   0  0  0  0  0  0
  -16.5376  -29.9072   23.6334 C   0  0  0  0  0  0
  -16.7305  -28.6489   23.0357 C   0  0  0  0  0  0
  -26.4536  -31.6546   25.0696 C   0  0  0  0  0  0
  -25.3681  -31.3740   26.1356 C   0  0  0  0  0  0
  -27.0423  -30.2940   24.6319 C   0  0  0  0  0  0
  -27.6061  -32.4322   25.7475 C   0  0  0  0  0  0
  -27.5583  -37.1775   24.8463 C   0  0  0  0  0  0
  -21.4299  -29.3045   22.3578 N   0  0  0  0  0  0
  -26.4296  -37.3731   23.9397 N   0  0  0  0  0  0
  -24.7311  -31.0151   22.0890 N   0  0  0  0  0  0
  -23.4216  -28.8060   23.3017 O   0  0  0  0  0  0
  -28.2318  -26.0087   20.2261 O   0  0  0  0  0  0
  -26.5692  -34.8907   22.4639 O   0  0  0  0  0  0
  -23.5608  -32.1283   23.6982 O   0  0  0  0  0  0
  -31.4834  -19.3398   21.9034 C   0  0  0  0  0  0
  -31.1791  -18.0453   21.4402 C   0  0  0  0  0  0
  -29.2437  -19.0366   20.3749 C   0  0  0  0  0  0
  -30.7047  -20.5034   21.6529 C   0  0  0  0  0  0
  -30.0203  -17.7747   20.6964 C   0  0  0  0  0  0
  -29.5612  -20.4687   20.7729 C   0  0  0  0  0  0
  -31.1377  -21.6428   22.4927 C   0  0  0  0  0  0
  -28.9704  -23.1758   20.2391 C   0  0  0  0  0  0
  -27.8671  -24.4555   20.2634 C   0  0  0  0  0  0
  -31.2077  -21.4878   23.8157 N   0  0  0  0  0  0
  -28.7100  -21.7708   20.4957 N   0  0  0  0  0  0
  -29.7248  -16.2623   20.4443 N   0  0  0  0  0  0
  -31.5424  -22.8062   22.0014 N   0  3  0  0  0  0
  -30.1092  -23.4833   19.8791 O   0  0  0  0  0  0
  -31.4679  -12.8473   19.1764 H   0  0  0  0  0  0
  -30.4683  -11.7286   20.0612 H   0  0  0  0  0  0
  -29.8615  -11.7320   17.6115 H   0  0  0  0  0  0
  -29.5856  -13.4546   17.6680 H   0  0  0  0  0  0
  -27.9794  -11.2684   19.0177 H   0  0  0  0  0  0
  -27.3935  -12.4026   17.8293 H   0  0  0  0  0  0
  -27.5655  -14.2428   19.3746 H   0  0  0  0  0  0
  -28.7837  -12.3733   21.4664 H   0  0  0  0  0  0
  -28.3474  -14.0472   21.7269 H   0  0  0  0  0  0
  -25.2755   -9.5696   22.4778 H   0  0  0  0  0  0
  -24.0002   -7.4640   22.7477 H   0  0  0  0  0  0
  -21.0845   -8.8781   19.8949 H   0  0  0  0  0  0
  -22.3695  -10.9686   19.6177 H   0  0  0  0  0  0
  -21.2006   -7.6151   23.9714 H   0  0  0  0  0  0
  -21.1472   -6.0526   25.9077 H   0  0  0  0  0  0
  -22.0599   -2.7612   23.2843 H   0  0  0  0  0  0
  -22.4040  -11.9872   22.4843 H   0  0  0  0  0  0
  -21.1035  -13.1218   22.2620 H   0  0  0  0  0  0
  -24.6344  -15.8415   20.5179 H   0  0  0  0  0  0
  -26.2364  -15.6315   20.0301 H   0  0  0  0  0  0
  -26.7301  -32.5247   23.0937 H   0  0  0  0  0  0
  -25.0054  -33.9556   25.0250 H   0  0  0  0  0  0
  -22.7667  -31.2825   21.3688 H   0  0  0  0  0  0
  -23.3784  -35.9557   23.3287 H   0  0  0  0  0  0
  -24.3581  -36.8902   22.2060 H   0  0  0  0  0  0
  -23.7241  -37.6420   23.6702 H   0  0  0  0  0  0
  -26.1868  -31.4350   20.6195 H   0  0  0  0  0  0
  -26.8882  -30.7362   22.0413 H   0  0  0  0  0  0
  -28.1411  -28.7149   21.2538 H   0  0  0  0  0  0
  -25.8822  -25.8184   18.9836 H   0  0  0  0  0  0
  -23.9838  -27.2966   18.9645 H   0  0  0  0  0  0
  -23.8353  -30.5524   19.3953 H   0  0  0  0  0  0
  -22.8040  -29.2255   19.8382 H   0  0  0  0  0  0
  -25.1324  -36.1849   25.0807 H   0  0  0  0  0  0
  -21.0019  -28.3334   24.1336 H   0  0  0  0  0  0
  -20.5703  -26.2341   23.3621 H   0  0  0  0  0  0
  -21.6669  -26.7429   22.1186 H   0  0  0  0  0  0
  -19.6943  -25.6274   21.1260 H   0  0  0  0  0  0
  -19.6718  -27.3167   20.6720 H   0  0  0  0  0  0
  -17.4225  -26.6673   21.4024 H   0  0  0  0  0  0
  -18.0361  -26.0067   22.9017 H   0  0  0  0  0  0
  -19.7969  -30.7282   24.2231 H   0  0  0  0  0  0
  -17.5039  -31.6263   24.5149 H   0  0  0  0  0  0
  -15.5371  -30.2954   23.7674 H   0  0  0  0  0  0
  -15.8713  -28.0788   22.7090 H   0  0  0  0  0  0
  -24.5894  -30.7070   25.7626 H   0  0  0  0  0  0
  -24.8823  -32.2918   26.4688 H   0  0  0  0  0  0
  -25.7917  -30.8948   27.0191 H   0  0  0  0  0  0
  -26.3056  -29.6631   24.1335 H   0  0  0  0  0  0
  -27.4024  -29.7280   25.4913 H   0  0  0  0  0  0
  -27.8968  -30.4164   23.9664 H   0  0  0  0  0  0
  -27.2676  -33.3679   26.1940 H   0  0  0  0  0  0
  -28.3918  -32.6789   25.0319 H   0  0  0  0  0  0
  -28.0676  -31.8511   26.5468 H   0  0  0  0  0  0
  -28.2576  -38.0100   24.7529 H   0  0  0  0  0  0
  -28.1120  -36.2623   24.6289 H   0  0  0  0  0  0
  -27.2295  -37.1403   25.8868 H   0  0  0  0  0  0
  -20.9534  -29.8742   21.6731 H   0  0  0  0  0  0
  -26.0181  -38.2805   24.1405 H   0  0  0  0  0  0
  -32.3529  -19.4240   22.5418 H   0  0  0  0  0  0
  -31.8265  -17.2357   21.7435 H   0  0  0  0  0  0
  -28.3399  -18.8940   19.8025 H   0  0  0  0  0  0
  -27.2471  -24.3045   21.1475 H   0  0  0  0  0  0
  -27.2191  -24.2437   19.4156 H   0  0  0  0  0  0
  -30.8959  -20.6165   24.2201 H   0  0  0  0  0  0
  -31.5198  -22.2125   24.4424 H   0  0  0  0  0  0
  -27.7142  -21.5970   20.5363 H   0  0  0  0  0  0
  -28.7423  -16.0672   20.3336 H   0  0  0  0  0  0
  -31.2599  -23.0375   21.0448 H   0  0  0  0  0  0
  -31.9261  -23.5416   22.5721 H   0  0  0  0  0  0
  1 25  1  0  0  0
  1 30  2  0  0  0
  1 82  1  0  0  0
  2  3  1  0  0  0
  2 25  1  0  0  0
  2 85  1  0  0  0
  2 86  1  0  0  0
  3  4  1  0  0  0
  3 87  1  0  0  0
  3 88  1  0  0  0
  4  5  1  0  0  0
  4 89  1  0  0  0
  4 90  1  0  0  0
  5  6  1  0  0  0
  5 26  1  0  0  0
  5 91  1  0  0  0
  6 25  1  0  0  0
  6 92  1  0  0  0
  6 93  1  0  0  0
  7  8  2  0  0  0
  7 26  1  0  0  0
  7 29  1  0  0  0
  8  9  1  0  0  0
  8 22  1  0  0  0
  9 10  1  0  0  0
  9 27  2  0  0  0
 10 11  2  0  0  0
 10 15  1  0  0  0
 11 12  1  0  0  0
 11 94  1  0  0  0
 12 13  2  0  0  0
 12 95  1  0  0  0
 13 14  1  0  0  0
 13 31  1  0  0  0
 14 15  2  0  0  0
 14 96  1  0  0  0
 15 97  1  0  0  0
 16 17  2  0  0  0
 16 21  1  0  0  0
 16 31  1  0  0  0
 17 18  1  0  0  0
 17 98  1  0  0  0
 18 19  2  0  0  0
 18 99  1  0  0  0
 19 20  1  0  0  0
 19 24  1  0  0  0
 20 21  2  0  0  0
 20100  1  0  0  0
 21 23  1  0  0  0
 22 28  1  0  0  0
 22 32  2  0  0  0
 26 27  1  0  0  0
 28101  1  0  0  0
 28102  1  0  0  0
 29103  1  0  0  0
 29104  1  0  0  0
 33 34  1  0  0  0
 33 66  1  0  0  0
 33 70  2  0  0  0
 34 36  1  0  0  0
 34 59  1  0  0  0
 34105  1  0  0  0
 35 44  2  0  0  0
 35 45  1  0  0  0
 35 68  1  0  0  0
 36 56  1  0  0  0
 36106  1  0  0  0
 37 39  1  0  0  0
 37 47  1  0  0  0
 37 66  1  0  0  0
 37107  1  0  0  0
 38 43  2  0  0  0
 38 46  1  0  0  0
 38 47  1  0  0  0
 39 64  1  0  0  0
 39 67  2  0  0  0
 40 52  1  0  0  0
 40 53  2  0  0  0
 40 58  1  0  0  0
 41108  1  0  0  0
 41109  1  0  0  0
 41110  1  0  0  0
 41 48  1  0  0  0
 42 43  1  0  0  0
 42 66  1  0  0  0
 42111  1  0  0  0
 42112  1  0  0  0
 43 44  1  0  0  0
 44113  1  0  0  0
 45 46  2  0  0  0
 45114  1  0  0  0
 46115  1  0  0  0
 47116  1  0  0  0
 47117  1  0  0  0
 48 56  1  0  0  0
 48 65  1  0  0  0
 48118  1  0  0  0
 49 50  1  0  0  0
 49 53  1  0  0  0
 49 64  1  0  0  0
 49119  1  0  0  0
 50 51  1  0  0  0
 50120  1  0  0  0
 50121  1  0  0  0
 51 52  1  0  0  0
 51122  1  0  0  0
 51123  1  0  0  0
 52124  1  0  0  0
 52125  1  0  0  0
 53 54  1  0  0  0
 54 55  2  0  0  0
 54126  1  0  0  0
 55 57  1  0  0  0
 55127  1  0  0  0
 56 69  2  0  0  0
 57 58  2  0  0  0
 57128  1  0  0  0
 58129  1  0  0  0
 59 60  1  0  0  0
 59 61  1  0  0  0
 59 62  1  0  0  0
 60130  1  0  0  0
 60131  1  0  0  0
 60132  1  0  0  0
 61133  1  0  0  0
 61134  1  0  0  0
 61135  1  0  0  0
 62136  1  0  0  0
 62137  1  0  0  0
 62138  1  0  0  0
 63 65  1  0  0  0
 63139  1  0  0  0
 63140  1  0  0  0
 63141  1  0  0  0
 64142  1  0  0  0
 65143  1  0  0  0
 68 79  1  0  0  0
 71 72  2  0  0  0
 71 74  1  0  0  0
 71144  1  0  0  0
 72 75  1  0  0  0
 72145  1  0  0  0
 73 75  2  0  0  0
 73 76  1  0  0  0
 73146  1  0  0  0
 74 76  2  0  0  0
 74 77  1  0  0  0
 75 82  1  0  0  0
 76 81  1  0  0  0
 77 80  1  0  0  0
 77 83  2  0  0  0
 78 79  1  0  0  0
 78 81  1  0  0  0
 78 84  2  0  0  0
 79147  1  0  0  0
 79148  1  0  0  0
 80149  1  0  0  0
 80150  1  0  0  0
 81151  1  0  0  0
 82152  1  0  0  0
 83153  1  0  0  0
 83154  1  0  0  0
M  CHG  1  83   1
M  ISO  4   1 100  68 101  79 101  82 100
M  END
> <chiral flag>
0

> <version>
0

> <s_m_source_file>
/data/baiqing/PycharmProjects/Reinvent-master-3.2/result/LINK_invent/BTK/process_docking_weight1_custom_product_contain_oxygen_bond_distance_aromatic_linkinvent_7_9_3/rearranged_h_0070.sdf

> <i_m_source_file_index>
91

> <r_mmod_Potential_Energy-OPLS-2005>
517.477844238281

> <r_mmod_Stretch_Energy-OPLS-2005>
358.858734130859

> <r_mmod_Bend_Energy-OPLS-2005>
288.999145507812

> <r_mmod_Torsional_Energy-OPLS-2005>
263.021606445312

> <r_mmod_Improper_Torsional_Energy-OPLS-2005>
9.51687622070312

> <r_mmod_Van_der_Waal_Energy-OPLS-2005>
150.356796264648

> <r_mmod_Electrostatic_Energy-OPLS-2005>
-372.952239990234

> <r_mmod_Solvation_Energy-OPLS-2005>
-454.676086425781

> <b_mmod_Minimization_Converged-OPLS-2005>
0

> <r_mmod_RMS_Derivative-OPLS-2005>
1.51757621765137

$$$$
