0
                    3D
 Structure written by MMmdl.
159168  0  0  1  0            999 V2000
  -30.6199  -14.7110   20.4584 C   0  0  0  0  0  0
  -30.4459  -12.4346   19.4568 C   0  0  0  0  0  0
  -29.5147  -12.5108   18.2265 C   0  0  0  0  0  0
  -28.0396  -12.3382   18.6426 C   0  0  0  0  0  0
  -27.6532  -13.2250   19.8558 C   0  0  2  0  0  0
  -28.7030  -13.1277   20.9866 C   0  0  0  0  0  0
  -25.2576  -13.8184   20.5717 C   0  0  0  0  0  0
  -24.1840  -13.0445   20.9200 C   0  0  0  0  0  0
  -24.6408  -11.6920   20.8726 C   0  0  0  0  0  0
  -23.9060  -10.4305   21.0395 C   0  0  0  0  0  0
  -24.3611   -9.4216   21.9170 C   0  0  0  0  0  0
  -23.6298   -8.2248   22.0741 C   0  0  0  0  0  0
  -22.4277   -8.0286   21.3541 C   0  0  0  0  0  0
  -21.9903   -9.0257   20.4649 C   0  0  0  0  0  0
  -22.7223  -10.2141   20.3051 C   0  0  0  0  0  0
  -21.6856   -6.0720   22.5274 C   0  0  0  0  0  0
  -21.4011   -6.5625   23.8203 C   0  0  0  0  0  0
  -21.3659   -5.6783   24.9170 C   0  0  0  0  0  0
  -21.6050   -4.3041   24.7226 C   0  0  0  0  0  0
  -21.8821   -3.8135   23.4343 C   0  0  0  0  0  0
  -21.9195   -4.6949   22.3394 C   0  0  0  0  0  0
  -22.7863  -13.5241   21.1851 C   0  0  0  0  0  0
  -22.1675   -4.2132   21.0972 F   0  0  0  0  0  0
  -21.5622   -3.4522   25.7736 F   0  0  0  0  0  0
  -30.0123  -13.4782   20.4107 N   0  0  0  0  0  0
  -26.3002  -12.9385   20.3294 N   0  0  0  0  0  0
  -25.9346  -11.6528   20.5735 N   0  0  0  0  0  0
  -22.0497  -12.8245   22.0417 N   0  0  0  0  0  0
  -25.4281  -15.1911   20.4161 N   0  0  0  0  0  0
  -31.7973  -14.8438   20.1163 O   0  0  0  0  0  0
  -21.6644   -6.8876   21.4243 O   0  0  0  0  0  0
  -22.3551  -14.5536   20.6672 O   0  0  0  0  0  0
  -24.6279  -31.8578   23.2034 C   0  0  0  0  0  0
  -25.9119  -32.4770   23.8377 C   0  0  1  0  0  0
  -27.2298  -27.2910   20.1320 C   0  0  0  0  0  0
  -25.5919  -33.8567   24.2298 N   0  0  0  0  0  0
  -23.4246  -30.4791   21.5451 C   0  0  2  0  0  0
  -24.8749  -28.9302   20.1118 C   0  0  0  0  0  0
  -22.7502  -29.4598   22.4945 C   0  0  0  0  0  0
  -18.0285  -28.1388   22.8476 C   0  0  0  0  0  0
  -24.1486  -36.7270   23.2647 C   0  0  0  0  0  0
  -25.9686  -30.7760   21.3843 C   0  0  0  0  0  0
  -26.0422  -29.4014   20.7273 C   0  0  0  0  0  0
  -27.2191  -28.5922   20.7303 C   0  0  0  0  0  0
  -26.0463  -26.8887   19.4722 C   0  0  0  0  0  0
  -24.8809  -27.6801   19.4749 C   0  0  0  0  0  0
  -23.6424  -29.8120   20.1610 C   0  0  0  0  0  0
  -25.4111  -36.3081   24.0340 C   0  0  1  0  0  0
  -20.5881  -28.3683   23.1292 C   0  0  2  0  0  0
  -20.6756  -26.9395   22.5437 C   0  0  0  0  0  0
  -19.5746  -26.6382   21.5228 C   0  0  0  0  0  0
  -18.1922  -26.7931   22.1629 C   0  0  0  0  0  0
  -19.1535  -28.8862   23.2869 C   0  0  0  0  0  0
  -18.9458  -30.1473   23.8875 C   0  0  0  0  0  0
  -17.6451  -30.6582   24.0572 C   0  0  0  0  0  0
  -25.9055  -34.9447   23.5122 C   0  0  0  0  0  0
  -16.5342  -29.9075   23.6341 C   0  0  0  0  0  0
  -16.7270  -28.6504   23.0333 C   0  0  0  0  0  0
  -26.4472  -31.6593   25.0766 C   0  0  0  0  0  0
  -25.3686  -31.3780   26.1499 C   0  0  0  0  0  0
  -27.0285  -30.2992   24.6287 C   0  0  0  0  0  0
  -27.6084  -32.4303   25.7472 C   0  0  0  0  0  0
  -27.5584  -37.1790   24.8466 C   0  0  0  0  0  0
  -21.4212  -29.3014   22.3677 N   0  0  0  0  0  0
  -26.4293  -37.3779   23.9409 N   0  0  0  0  0  0
  -24.6921  -31.0566   22.0996 N   0  0  0  0  0  0
  -23.4218  -28.8151   23.3040 O   0  0  0  0  0  0
  -28.3427  -26.4249   20.1777 O   0  0  0  0  0  0
  -26.5635  -34.8906   22.4703 O   0  0  0  0  0  0
  -23.5437  -32.1390   23.7346 O   0  0  0  0  0  0
  -30.5477  -19.4645   19.6456 C   0  0  0  0  0  0
  -29.2045  -18.0753   21.5441 C   0  0  0  0  0  0
  -30.6030  -18.0296   19.6160 C   0  0  0  0  0  0
  -29.9322  -17.2680   20.6260 C   0  0  0  0  0  0
  -29.7863  -20.1890   20.6090 C   0  0  0  0  0  0
  -29.1641  -24.0491   20.3394 C   0  0  0  0  0  0
  -28.8528  -22.5647   20.3612 C   0  0  0  0  0  0
  -31.3028  -23.6299   21.4307 C   0  0  0  0  0  0
  -31.9110  -24.1703   22.4986 C   0  0  0  0  0  0
  -28.1744  -25.0126   20.2649 C   0  0  0  0  0  0
  -30.6211  -24.4602   20.3765 C   0  0  0  0  0  0
  -31.1832  -22.1312   21.1983 C   0  0  0  0  0  0
  -31.3373  -17.3708   18.4591 C   0  0  0  0  0  0
  -29.1356  -19.4430   21.5463 N   0  0  0  0  0  0
  -29.8811  -21.6675   20.6665 N   0  0  0  0  0  0
  -29.8094  -15.7911   20.7372 N   0  0  0  0  0  0
  -27.7249  -22.1439   20.0836 O   0  0  0  0  0  0
  -31.4852  -12.5634   19.1478 H   0  0  0  0  0  0
  -30.3937  -11.4489   19.9206 H   0  0  0  0  0  0
  -29.7915  -11.7486   17.4961 H   0  0  0  0  0  0
  -29.6452  -13.4712   17.7263 H   0  0  0  0  0  0
  -27.8883  -11.2878   18.8929 H   0  0  0  0  0  0
  -27.3841  -12.5435   17.7964 H   0  0  0  0  0  0
  -27.6584  -14.2525   19.4909 H   0  0  0  0  0  0
  -28.7319  -12.1207   21.4054 H   0  0  0  0  0  0
  -28.4437  -13.7901   21.8148 H   0  0  0  0  0  0
  -25.2760   -9.5688   22.4727 H   0  0  0  0  0  0
  -24.0005   -7.4637   22.7453 H   0  0  0  0  0  0
  -21.0819   -8.8774   19.8978 H   0  0  0  0  0  0
  -22.3665  -10.9670   19.6153 H   0  0  0  0  0  0
  -21.2009   -7.6135   23.9695 H   0  0  0  0  0  0
  -21.1481   -6.0514   25.9070 H   0  0  0  0  0  0
  -22.0602   -2.7600   23.2838 H   0  0  0  0  0  0
  -22.4094  -11.9933   22.4863 H   0  0  0  0  0  0
  -21.1115  -13.1282   22.2605 H   0  0  0  0  0  0
  -24.6578  -15.8409   20.5268 H   0  0  0  0  0  0
  -26.2677  -15.6308   20.0621 H   0  0  0  0  0  0
  -26.7184  -32.5422   23.1121 H   0  0  0  0  0  0
  -25.0027  -33.9720   25.0410 H   0  0  0  0  0  0
  -22.7192  -31.3001   21.3996 H   0  0  0  0  0  0
  -23.3737  -35.9621   23.3393 H   0  0  0  0  0  0
  -24.3555  -36.8803   22.2044 H   0  0  0  0  0  0
  -23.7272  -37.6513   23.6598 H   0  0  0  0  0  0
  -26.1143  -31.5397   20.6198 H   0  0  0  0  0  0
  -26.8429  -30.8175   22.0222 H   0  0  0  0  0  0
  -28.1121  -28.9483   21.2242 H   0  0  0  0  0  0
  -26.0023  -25.9401   18.9590 H   0  0  0  0  0  0
  -23.9908  -27.3186   18.9792 H   0  0  0  0  0  0
  -23.7598  -30.5854   19.4003 H   0  0  0  0  0  0
  -22.7628  -29.2378   19.8646 H   0  0  0  0  0  0
  -25.1288  -36.1950   25.0836 H   0  0  0  0  0  0
  -20.9971  -28.3248   24.1419 H   0  0  0  0  0  0
  -20.5634  -26.2294   23.3639 H   0  0  0  0  0  0
  -21.6627  -26.7409   22.1264 H   0  0  0  0  0  0
  -19.6905  -25.6294   21.1261 H   0  0  0  0  0  0
  -19.6706  -27.3195   20.6758 H   0  0  0  0  0  0
  -17.4213  -26.6708   21.4002 H   0  0  0  0  0  0
  -18.0293  -26.0068   22.9018 H   0  0  0  0  0  0
  -19.7928  -30.7298   24.2222 H   0  0  0  0  0  0
  -17.5001  -31.6250   24.5201 H   0  0  0  0  0  0
  -15.5338  -30.2961   23.7679 H   0  0  0  0  0  0
  -15.8676  -28.0835   22.7024 H   0  0  0  0  0  0
  -24.5845  -30.7137   25.7846 H   0  0  0  0  0  0
  -24.8861  -32.2952   26.4891 H   0  0  0  0  0  0
  -25.7984  -30.8983   27.0307 H   0  0  0  0  0  0
  -26.2864  -29.6765   24.1283 H   0  0  0  0  0  0
  -27.3883  -29.7266   25.4851 H   0  0  0  0  0  0
  -27.8792  -30.4237   23.9585 H   0  0  0  0  0  0
  -27.2771  -33.3623   26.2069 H   0  0  0  0  0  0
  -28.3832  -32.6848   25.0220 H   0  0  0  0  0  0
  -28.0813  -31.8404   26.5340 H   0  0  0  0  0  0
  -28.2657  -38.0034   24.7463 H   0  0  0  0  0  0
  -28.1019  -36.2573   24.6330 H   0  0  0  0  0  0
  -27.2311  -37.1517   25.8875 H   0  0  0  0  0  0
  -20.9425  -29.8703   21.6843 H   0  0  0  0  0  0
  -26.0185  -38.2867   24.1381 H   0  0  0  0  0  0
  -31.0994  -20.0272   18.9024 H   0  0  0  0  0  0
  -28.6312  -17.5951   22.3252 H   0  0  0  0  0  0
  -31.9520  -25.2416   22.6391 H   0  0  0  0  0  0
  -32.3755  -23.5575   23.2579 H   0  0  0  0  0  0
  -27.1362  -24.7152   20.2725 H   0  0  0  0  0  0
  -30.7310  -25.5264   20.5796 H   0  0  0  0  0  0
  -31.0818  -24.2583   19.4081 H   0  0  0  0  0  0
  -31.3907  -21.6079   22.1329 H   0  0  0  0  0  0
  -31.9671  -21.8363   20.5002 H   0  0  0  0  0  0
  -31.3719  -18.0269   17.5876 H   0  0  0  0  0  0
  -30.8352  -16.4575   18.1424 H   0  0  0  0  0  0
  -32.3627  -17.1253   18.7357 H   0  0  0  0  0  0
  -28.9251  -15.4881   21.1189 H   0  0  0  0  0  0
  1 25  1  0  0  0
  1 30  2  0  0  0
  1 86  1  0  0  0
  2  3  1  0  0  0
  2 25  1  0  0  0
  2 88  1  0  0  0
  2 89  1  0  0  0
  3  4  1  0  0  0
  3 90  1  0  0  0
  3 91  1  0  0  0
  4  5  1  0  0  0
  4 92  1  0  0  0
  4 93  1  0  0  0
  5  6  1  0  0  0
  5 26  1  0  0  0
  5 94  1  0  0  0
  6 25  1  0  0  0
  6 95  1  0  0  0
  6 96  1  0  0  0
  7  8  2  0  0  0
  7 26  1  0  0  0
  7 29  1  0  0  0
  8  9  1  0  0  0
  8 22  1  0  0  0
  9 10  1  0  0  0
  9 27  2  0  0  0
 10 11  2  0  0  0
 10 15  1  0  0  0
 11 12  1  0  0  0
 11 97  1  0  0  0
 12 13  2  0  0  0
 12 98  1  0  0  0
 13 14  1  0  0  0
 13 31  1  0  0  0
 14 15  2  0  0  0
 14 99  1  0  0  0
 15100  1  0  0  0
 16 17  2  0  0  0
 16 21  1  0  0  0
 16 31  1  0  0  0
 17 18  1  0  0  0
 17101  1  0  0  0
 18 19  2  0  0  0
 18102  1  0  0  0
 19 20  1  0  0  0
 19 24  1  0  0  0
 20 21  2  0  0  0
 20103  1  0  0  0
 21 23  1  0  0  0
 22 28  1  0  0  0
 22 32  2  0  0  0
 26 27  1  0  0  0
 28104  1  0  0  0
 28105  1  0  0  0
 29106  1  0  0  0
 29107  1  0  0  0
 33 34  1  0  0  0
 33 66  1  0  0  0
 33 70  2  0  0  0
 34 36  1  0  0  0
 34 59  1  0  0  0
 34108  1  0  0  0
 35 44  2  0  0  0
 35 45  1  0  0  0
 35 68  1  0  0  0
 36 56  1  0  0  0
 36109  1  0  0  0
 37 39  1  0  0  0
 37 47  1  0  0  0
 37 66  1  0  0  0
 37110  1  0  0  0
 38 43  2  0  0  0
 38 46  1  0  0  0
 38 47  1  0  0  0
 39 64  1  0  0  0
 39 67  2  0  0  0
 40 52  1  0  0  0
 40 53  2  0  0  0
 40 58  1  0  0  0
 41111  1  0  0  0
 41112  1  0  0  0
 41113  1  0  0  0
 41 48  1  0  0  0
 42 43  1  0  0  0
 42 66  1  0  0  0
 42114  1  0  0  0
 42115  1  0  0  0
 43 44  1  0  0  0
 44116  1  0  0  0
 45 46  2  0  0  0
 45117  1  0  0  0
 46118  1  0  0  0
 47119  1  0  0  0
 47120  1  0  0  0
 48 56  1  0  0  0
 48 65  1  0  0  0
 48121  1  0  0  0
 49 50  1  0  0  0
 49 53  1  0  0  0
 49 64  1  0  0  0
 49122  1  0  0  0
 50 51  1  0  0  0
 50123  1  0  0  0
 50124  1  0  0  0
 51 52  1  0  0  0
 51125  1  0  0  0
 51126  1  0  0  0
 52127  1  0  0  0
 52128  1  0  0  0
 53 54  1  0  0  0
 54 55  2  0  0  0
 54129  1  0  0  0
 55 57  1  0  0  0
 55130  1  0  0  0
 56 69  2  0  0  0
 57 58  2  0  0  0
 57131  1  0  0  0
 58132  1  0  0  0
 59 60  1  0  0  0
 59 61  1  0  0  0
 59 62  1  0  0  0
 60133  1  0  0  0
 60134  1  0  0  0
 60135  1  0  0  0
 61136  1  0  0  0
 61137  1  0  0  0
 61138  1  0  0  0
 62139  1  0  0  0
 62140  1  0  0  0
 62141  1  0  0  0
 63 65  1  0  0  0
 63142  1  0  0  0
 63143  1  0  0  0
 63144  1  0  0  0
 64145  1  0  0  0
 65146  1  0  0  0
 68 80  1  0  0  0
 71 73  2  0  0  0
 71 75  1  0  0  0
 71147  1  0  0  0
 72 74  2  0  0  0
 72 84  1  0  0  0
 72148  1  0  0  0
 73 74  1  0  0  0
 73 83  1  0  0  0
 74 86  1  0  0  0
 75 84  2  0  0  0
 75 85  1  0  0  0
 76 77  1  0  0  0
 76 80  2  0  0  0
 76 81  1  0  0  0
 77 85  1  0  0  0
 77 87  2  0  0  0
 78 79  2  0  0  0
 78 81  1  0  0  0
 78 82  1  0  0  0
 79149  1  0  0  0
 79150  1  0  0  0
 80151  1  0  0  0
 81152  1  0  0  0
 81153  1  0  0  0
 82 85  1  0  0  0
 82154  1  0  0  0
 82155  1  0  0  0
 83156  1  0  0  0
 83157  1  0  0  0
 83158  1  0  0  0
 86159  1  0  0  0
M  ISO  4   1 100  68 101  80 101  86 100
M  END
> <chiral flag>
0

> <version>
0

> <s_m_source_file>
/data/baiqing/PycharmProjects/Reinvent-master-3.2/result/LINK_invent/BTK/process_docking_weight1_custom_product_contain_oxygen_bond_distance_aromatic_linkinvent_7_9_3/rearranged_h_0086.sdf

> <i_m_source_file_index>
1

> <r_mmod_Potential_Energy-OPLS-2005>
24.0428256988525

> <r_mmod_Stretch_Energy-OPLS-2005>
105.329391479492

> <r_mmod_Bend_Energy-OPLS-2005>
159.006713867188

> <r_mmod_Torsional_Energy-OPLS-2005>
275.168395996094

> <r_mmod_Improper_Torsional_Energy-OPLS-2005>
5.2105016708374

> <r_mmod_Van_der_Waal_Energy-OPLS-2005>
156.30827331543

> <r_mmod_Electrostatic_Energy-OPLS-2005>
-525.40478515625

> <r_mmod_Solvation_Energy-OPLS-2005>
-220.648773193359

> <b_mmod_Minimization_Converged-OPLS-2005>
0

> <r_mmod_RMS_Derivative-OPLS-2005>
2.65578198432922

$$$$
1
                    3D
 Structure written by MMmdl.
149157  0  0  1  0            999 V2000
  -30.5941  -14.6845   20.4789 C   0  0  0  0  0  0
  -30.4437  -12.4152   19.4592 C   0  0  0  0  0  0
  -29.5127  -12.5071   18.2286 C   0  0  0  0  0  0
  -28.0353  -12.3405   18.6378 C   0  0  0  0  0  0
  -27.6510  -13.2164   19.8597 C   0  0  2  0  0  0
  -28.6961  -13.0868   20.9907 C   0  0  0  0  0  0
  -25.2555  -13.8167   20.5683 C   0  0  0  0  0  0
  -24.1823  -13.0433   20.9198 C   0  0  0  0  0  0
  -24.6387  -11.6905   20.8734 C   0  0  0  0  0  0
  -23.9053  -10.4288   21.0399 C   0  0  0  0  0  0
  -24.3608   -9.4207   21.9177 C   0  0  0  0  0  0
  -23.6283   -8.2244   22.0751 C   0  0  0  0  0  0
  -22.4268   -8.0279   21.3543 C   0  0  0  0  0  0
  -21.9896   -9.0254   20.4645 C   0  0  0  0  0  0
  -22.7223  -10.2132   20.3054 C   0  0  0  0  0  0
  -21.6855   -6.0729   22.5273 C   0  0  0  0  0  0
  -21.4020   -6.5635   23.8208 C   0  0  0  0  0  0
  -21.3659   -5.6786   24.9168 C   0  0  0  0  0  0
  -21.6041   -4.3049   24.7219 C   0  0  0  0  0  0
  -21.8821   -3.8141   23.4342 C   0  0  0  0  0  0
  -21.9195   -4.6956   22.3396 C   0  0  0  0  0  0
  -22.7845  -13.5228   21.1858 C   0  0  0  0  0  0
  -22.1660   -4.2143   21.0971 F   0  0  0  0  0  0
  -21.5626   -3.4532   25.7734 F   0  0  0  0  0  0
  -30.0072  -13.4436   20.4263 N   0  0  0  0  0  0
  -26.2975  -12.9343   20.3289 N   0  0  0  0  0  0
  -25.9315  -11.6501   20.5742 N   0  0  0  0  0  0
  -22.0484  -12.8234   22.0418 N   0  0  0  0  0  0
  -25.4261  -15.1888   20.4085 N   0  0  0  0  0  0
  -31.7637  -14.8490   20.1189 O   0  0  0  0  0  0
  -21.6639   -6.8873   21.4237 O   0  0  0  0  0  0
  -22.3532  -14.5531   20.6698 O   0  0  0  0  0  0
  -24.6276  -31.8581   23.2004 C   0  0  0  0  0  0
  -25.9111  -32.4768   23.8348 C   0  0  1  0  0  0
  -27.2274  -27.3038   20.1261 C   0  0  0  0  0  0
  -25.5920  -33.8567   24.2274 N   0  0  0  0  0  0
  -23.4235  -30.4793   21.5433 C   0  0  2  0  0  0
  -24.8721  -28.9288   20.1138 C   0  0  0  0  0  0
  -22.7486  -29.4610   22.4934 C   0  0  0  0  0  0
  -18.0290  -28.1385   22.8491 C   0  0  0  0  0  0
  -24.1491  -36.7294   23.2642 C   0  0  0  0  0  0
  -25.9652  -30.7839   21.3737 C   0  0  0  0  0  0
  -26.0414  -29.4083   20.7191 C   0  0  0  0  0  0
  -27.2247  -28.6083   20.7131 C   0  0  0  0  0  0
  -26.0391  -26.8814   19.4924 C   0  0  0  0  0  0
  -24.8730  -27.6707   19.4912 C   0  0  0  0  0  0
  -23.6402  -29.8106   20.1603 C   0  0  0  0  0  0
  -25.4114  -36.3077   24.0330 C   0  0  1  0  0  0
  -20.5890  -28.3692   23.1280 C   0  0  2  0  0  0
  -20.6779  -26.9416   22.5402 C   0  0  0  0  0  0
  -19.5745  -26.6383   21.5214 C   0  0  0  0  0  0
  -18.1933  -26.7923   22.1641 C   0  0  0  0  0  0
  -19.1541  -28.8857   23.2879 C   0  0  0  0  0  0
  -18.9463  -30.1460   23.8895 C   0  0  0  0  0  0
  -17.6462  -30.6588   24.0563 C   0  0  0  0  0  0
  -25.9048  -34.9445   23.5105 C   0  0  0  0  0  0
  -16.5354  -29.9087   23.6325 C   0  0  0  0  0  0
  -16.7278  -28.6502   23.0353 C   0  0  0  0  0  0
  -26.4487  -31.6584   25.0726 C   0  0  0  0  0  0
  -25.3722  -31.3743   26.1463 C   0  0  0  0  0  0
  -27.0323  -30.3003   24.6190 C   0  0  0  0  0  0
  -27.6056  -32.4316   25.7486 C   0  0  0  0  0  0
  -27.5568  -37.1815   24.8474 C   0  0  0  0  0  0
  -21.4197  -29.3045   22.3676 N   0  0  0  0  0  0
  -26.4298  -37.3763   23.9392 N   0  0  0  0  0  0
  -24.6910  -31.0575   22.0964 N   0  0  0  0  0  0
  -23.4199  -28.8154   23.3023 O   0  0  0  0  0  0
  -28.3340  -26.4383   20.1398 O   0  0  0  0  0  0
  -26.5621  -34.8912   22.4674 O   0  0  0  0  0  0
  -23.5434  -32.1386   23.7319 O   0  0  0  0  0  0
  -28.5234  -19.3504   20.3931 C   0  0  0  0  0  0
  -28.5843  -17.9388   20.6237 C   0  0  0  0  0  0
  -30.9601  -17.9630   20.3069 C   0  0  0  0  0  0
  -29.6821  -20.1192   20.1061 C   0  0  0  0  0  0
  -29.7955  -17.1893   20.5638 C   0  0  0  0  0  0
  -30.9066  -19.3787   20.0898 C   0  0  0  0  0  0
  -28.9109  -23.8443   19.9983 C   0  0  0  0  0  0
  -29.6199  -21.6060   19.6585 C   0  0  0  0  0  0
  -28.1161  -25.0512   20.6448 C   0  0  0  0  0  0
  -28.8952  -22.5883   20.3969 N   0  0  0  0  0  0
  -29.7492  -15.7304   20.7791 N   0  0  0  0  0  0
  -30.2659  -21.8653   18.6389 O   0  0  0  0  0  0
  -32.0716  -20.0215   19.8292 F   0  0  0  0  0  0
  -31.4832  -12.5518   19.1559 H   0  0  0  0  0  0
  -30.3913  -11.4233   19.9104 H   0  0  0  0  0  0
  -29.7837  -11.7483   17.4933 H   0  0  0  0  0  0
  -29.6498  -13.4715   17.7363 H   0  0  0  0  0  0
  -27.8757  -11.2881   18.8738 H   0  0  0  0  0  0
  -27.3824  -12.5646   17.7937 H   0  0  0  0  0  0
  -27.6621  -14.2481   19.5092 H   0  0  0  0  0  0
  -28.7166  -12.0670   21.3776 H   0  0  0  0  0  0
  -28.4352  -13.7213   21.8395 H   0  0  0  0  0  0
  -25.2757   -9.5684   22.4748 H   0  0  0  0  0  0
  -23.9991   -7.4638   22.7475 H   0  0  0  0  0  0
  -21.0823   -8.8772   19.8955 H   0  0  0  0  0  0
  -22.3678  -10.9673   19.6165 H   0  0  0  0  0  0
  -21.2020   -7.6147   23.9710 H   0  0  0  0  0  0
  -21.1475   -6.0516   25.9069 H   0  0  0  0  0  0
  -22.0602   -2.7603   23.2845 H   0  0  0  0  0  0
  -22.4097  -11.9901   22.4822 H   0  0  0  0  0  0
  -21.1104  -13.1274   22.2618 H   0  0  0  0  0  0
  -24.6535  -15.8385   20.5101 H   0  0  0  0  0  0
  -26.2566  -15.6209   20.0263 H   0  0  0  0  0  0
  -26.7183  -32.5434   23.1102 H   0  0  0  0  0  0
  -25.0055  -33.9708   25.0412 H   0  0  0  0  0  0
  -22.7180  -31.2999   21.3972 H   0  0  0  0  0  0
  -23.3728  -35.9656   23.3347 H   0  0  0  0  0  0
  -24.3573  -36.8866   22.2047 H   0  0  0  0  0  0
  -23.7279  -37.6526   23.6633 H   0  0  0  0  0  0
  -26.0961  -31.5447   20.6030 H   0  0  0  0  0  0
  -26.8455  -30.8359   22.0028 H   0  0  0  0  0  0
  -28.1231  -28.9713   21.1927 H   0  0  0  0  0  0
  -26.0029  -25.9208   18.9989 H   0  0  0  0  0  0
  -23.9787  -27.2987   19.0100 H   0  0  0  0  0  0
  -23.7612  -30.5849   19.4018 H   0  0  0  0  0  0
  -22.7600  -29.2403   19.8581 H   0  0  0  0  0  0
  -25.1296  -36.1941   25.0824 H   0  0  0  0  0  0
  -20.9981  -28.3268   24.1401 H   0  0  0  0  0  0
  -20.5691  -26.2301   23.3601 H   0  0  0  0  0  0
  -21.6646  -26.7450   22.1186 H   0  0  0  0  0  0
  -19.6904  -25.6295   21.1243 H   0  0  0  0  0  0
  -19.6667  -27.3192   20.6742 H   0  0  0  0  0  0
  -17.4189  -26.6653   21.4062 H   0  0  0  0  0  0
  -18.0354  -26.0074   22.9050 H   0  0  0  0  0  0
  -19.7938  -30.7280   24.2261 H   0  0  0  0  0  0
  -17.5014  -31.6266   24.5167 H   0  0  0  0  0  0
  -15.5355  -30.2991   23.7643 H   0  0  0  0  0  0
  -15.8679  -28.0819   22.7072 H   0  0  0  0  0  0
  -24.5835  -30.7172   25.7782 H   0  0  0  0  0  0
  -24.8996  -32.2929   26.4954 H   0  0  0  0  0  0
  -25.8032  -30.8842   27.0202 H   0  0  0  0  0  0
  -26.2898  -29.6758   24.1209 H   0  0  0  0  0  0
  -27.4009  -29.7259   25.4699 H   0  0  0  0  0  0
  -27.8772  -30.4283   23.9419 H   0  0  0  0  0  0
  -27.2680  -33.3630   26.2043 H   0  0  0  0  0  0
  -28.3871  -32.6850   25.0309 H   0  0  0  0  0  0
  -28.0713  -31.8450   26.5416 H   0  0  0  0  0  0
  -28.2628  -38.0068   24.7452 H   0  0  0  0  0  0
  -28.1022  -36.2598   24.6394 H   0  0  0  0  0  0
  -27.2273  -37.1574   25.8876 H   0  0  0  0  0  0
  -20.9385  -29.8773   21.6884 H   0  0  0  0  0  0
  -26.0184  -38.2849   24.1345 H   0  0  0  0  0  0
  -27.5601  -19.8410   20.4037 H   0  0  0  0  0  0
  -27.6554  -17.4232   20.8242 H   0  0  0  0  0  0
  -31.9231  -17.4766   20.2614 H   0  0  0  0  0  0
  -29.4997  -24.1698   19.1352 H   0  0  0  0  0  0
  -28.3725  -25.0696   21.7041 H   0  0  0  0  0  0
  -27.0609  -24.7818   20.6244 H   0  0  0  0  0  0
  -28.8445  -15.3927   21.0675 H   0  0  0  0  0  0
  1 25  1  0  0  0
  1 30  2  0  0  0
  1 81  1  0  0  0
  2  3  1  0  0  0
  2 25  1  0  0  0
  2 84  1  0  0  0
  2 85  1  0  0  0
  3  4  1  0  0  0
  3 86  1  0  0  0
  3 87  1  0  0  0
  4  5  1  0  0  0
  4 88  1  0  0  0
  4 89  1  0  0  0
  5  6  1  0  0  0
  5 26  1  0  0  0
  5 90  1  0  0  0
  6 25  1  0  0  0
  6 91  1  0  0  0
  6 92  1  0  0  0
  7  8  2  0  0  0
  7 26  1  0  0  0
  7 29  1  0  0  0
  8  9  1  0  0  0
  8 22  1  0  0  0
  9 10  1  0  0  0
  9 27  2  0  0  0
 10 11  2  0  0  0
 10 15  1  0  0  0
 11 12  1  0  0  0
 11 93  1  0  0  0
 12 13  2  0  0  0
 12 94  1  0  0  0
 13 14  1  0  0  0
 13 31  1  0  0  0
 14 15  2  0  0  0
 14 95  1  0  0  0
 15 96  1  0  0  0
 16 17  2  0  0  0
 16 21  1  0  0  0
 16 31  1  0  0  0
 17 18  1  0  0  0
 17 97  1  0  0  0
 18 19  2  0  0  0
 18 98  1  0  0  0
 19 20  1  0  0  0
 19 24  1  0  0  0
 20 21  2  0  0  0
 20 99  1  0  0  0
 21 23  1  0  0  0
 22 28  1  0  0  0
 22 32  2  0  0  0
 26 27  1  0  0  0
 28100  1  0  0  0
 28101  1  0  0  0
 29102  1  0  0  0
 29103  1  0  0  0
 33 34  1  0  0  0
 33 66  1  0  0  0
 33 70  2  0  0  0
 34 36  1  0  0  0
 34 59  1  0  0  0
 34104  1  0  0  0
 35 44  2  0  0  0
 35 45  1  0  0  0
 35 68  1  0  0  0
 36 56  1  0  0  0
 36105  1  0  0  0
 37 39  1  0  0  0
 37 47  1  0  0  0
 37 66  1  0  0  0
 37106  1  0  0  0
 38 43  2  0  0  0
 38 46  1  0  0  0
 38 47  1  0  0  0
 39 64  1  0  0  0
 39 67  2  0  0  0
 40 52  1  0  0  0
 40 53  2  0  0  0
 40 58  1  0  0  0
 41107  1  0  0  0
 41108  1  0  0  0
 41109  1  0  0  0
 41 48  1  0  0  0
 42 43  1  0  0  0
 42 66  1  0  0  0
 42110  1  0  0  0
 42111  1  0  0  0
 43 44  1  0  0  0
 44112  1  0  0  0
 45 46  2  0  0  0
 45113  1  0  0  0
 46114  1  0  0  0
 47115  1  0  0  0
 47116  1  0  0  0
 48 56  1  0  0  0
 48 65  1  0  0  0
 48117  1  0  0  0
 49 50  1  0  0  0
 49 53  1  0  0  0
 49 64  1  0  0  0
 49118  1  0  0  0
 50 51  1  0  0  0
 50119  1  0  0  0
 50120  1  0  0  0
 51 52  1  0  0  0
 51121  1  0  0  0
 51122  1  0  0  0
 52123  1  0  0  0
 52124  1  0  0  0
 53 54  1  0  0  0
 54 55  2  0  0  0
 54125  1  0  0  0
 55 57  1  0  0  0
 55126  1  0  0  0
 56 69  2  0  0  0
 57 58  2  0  0  0
 57127  1  0  0  0
 58128  1  0  0  0
 59 60  1  0  0  0
 59 61  1  0  0  0
 59 62  1  0  0  0
 60129  1  0  0  0
 60130  1  0  0  0
 60131  1  0  0  0
 61132  1  0  0  0
 61133  1  0  0  0
 61134  1  0  0  0
 62135  1  0  0  0
 62136  1  0  0  0
 62137  1  0  0  0
 63 65  1  0  0  0
 63138  1  0  0  0
 63139  1  0  0  0
 63140  1  0  0  0
 64141  1  0  0  0
 65142  1  0  0  0
 68 79  1  0  0  0
 71 72  2  0  0  0
 71 74  1  0  0  0
 71143  1  0  0  0
 72 75  1  0  0  0
 72144  1  0  0  0
 73 75  2  0  0  0
 73 76  1  0  0  0
 73145  1  0  0  0
 74 76  2  0  0  0
 74 78  1  0  0  0
 75 81  1  0  0  0
 76 83  1  0  0  0
 77 79  1  0  0  0
 77 80  2  0  0  0
 77146  1  0  0  0
 78 80  1  0  0  0
 78 82  2  0  0  0
 79147  1  0  0  0
 79148  1  0  0  0
 81149  1  0  0  0
M  ISO  4   1 100  68 101  79 101  81 100
M  END
> <chiral flag>
0

> <version>
0

> <s_m_source_file>
/data/baiqing/PycharmProjects/Reinvent-master-3.2/result/LINK_invent/BTK/process_docking_weight1_custom_product_contain_oxygen_bond_distance_aromatic_linkinvent_7_9_3/rearranged_h_0086.sdf

> <i_m_source_file_index>
2

> <r_mmod_Potential_Energy-OPLS-2005>
117.288688659668

> <r_mmod_Stretch_Energy-OPLS-2005>
93.9881362915039

> <r_mmod_Bend_Energy-OPLS-2005>
143.158737182617

> <r_mmod_Torsional_Energy-OPLS-2005>
230.474792480469

> <r_mmod_Improper_Torsional_Energy-OPLS-2005>
5.39532899856567

> <r_mmod_Van_der_Waal_Energy-OPLS-2005>
147.806732177734

> <r_mmod_Electrostatic_Energy-OPLS-2005>
-354.025787353516

> <r_mmod_Solvation_Energy-OPLS-2005>
-209.601470947266

> <b_mmod_Minimization_Converged-OPLS-2005>
0

> <r_mmod_RMS_Derivative-OPLS-2005>
0.876761496067047

$$$$
2
                    3D
 Structure written by MMmdl.
152160  0  0  1  0            999 V2000
  -30.6444  -14.5984   20.5040 C   0  0  0  0  0  0
  -30.4265  -12.3642   19.4500 C   0  0  0  0  0  0
  -29.5039  -12.5118   18.2194 C   0  0  0  0  0  0
  -28.0223  -12.3652   18.6225 C   0  0  0  0  0  0
  -27.6536  -13.2184   19.8666 C   0  0  2  0  0  0
  -28.6946  -13.0377   20.9908 C   0  0  0  0  0  0
  -25.2551  -13.8181   20.5688 C   0  0  0  0  0  0
  -24.1812  -13.0442   20.9177 C   0  0  0  0  0  0
  -24.6381  -11.6917   20.8719 C   0  0  0  0  0  0
  -23.9053  -10.4299   21.0394 C   0  0  0  0  0  0
  -24.3612   -9.4219   21.9171 C   0  0  0  0  0  0
  -23.6296   -8.2253   22.0757 C   0  0  0  0  0  0
  -22.4277   -8.0283   21.3553 C   0  0  0  0  0  0
  -21.9904   -9.0246   20.4646 C   0  0  0  0  0  0
  -22.7224  -10.2129   20.3047 C   0  0  0  0  0  0
  -21.6857   -6.0732   22.5278 C   0  0  0  0  0  0
  -21.4017   -6.5637   23.8209 C   0  0  0  0  0  0
  -21.3663   -5.6792   24.9176 C   0  0  0  0  0  0
  -21.6046   -4.3057   24.7230 C   0  0  0  0  0  0
  -21.8821   -3.8145   23.4352 C   0  0  0  0  0  0
  -21.9198   -4.6959   22.3405 C   0  0  0  0  0  0
  -22.7833  -13.5224   21.1857 C   0  0  0  0  0  0
  -22.1662   -4.2138   21.0986 F   0  0  0  0  0  0
  -21.5629   -3.4546   25.7746 F   0  0  0  0  0  0
  -30.0152  -13.3807   20.4413 N   0  0  0  0  0  0
  -26.2981  -12.9368   20.3321 N   0  0  0  0  0  0
  -25.9311  -11.6515   20.5728 N   0  0  0  0  0  0
  -22.0488  -12.8211   22.0418 N   0  0  0  0  0  0
  -25.4283  -15.1907   20.4148 N   0  0  0  0  0  0
  -31.7938  -14.7283   20.0717 O   0  0  0  0  0  0
  -21.6654   -6.8874   21.4241 O   0  0  0  0  0  0
  -22.3506  -14.5526   20.6710 O   0  0  0  0  0  0
  -24.6223  -31.8628   23.2048 C   0  0  0  0  0  0
  -25.9086  -32.4801   23.8370 C   0  0  1  0  0  0
  -27.2289  -27.3597   20.0967 C   0  0  0  0  0  0
  -25.5920  -33.8603   24.2295 N   0  0  0  0  0  0
  -23.4153  -30.4860   21.5463 C   0  0  2  0  0  0
  -24.8623  -28.9466   20.1081 C   0  0  0  0  0  0
  -22.7453  -29.4639   22.4948 C   0  0  0  0  0  0
  -18.0283  -28.1388   22.8498 C   0  0  0  0  0  0
  -24.1483  -36.7294   23.2634 C   0  0  0  0  0  0
  -25.9533  -30.8037   21.3712 C   0  0  0  0  0  0
  -26.0289  -29.4349   20.7114 C   0  0  0  0  0  0
  -27.2149  -28.6486   20.7038 C   0  0  0  0  0  0
  -26.0367  -26.9058   19.4894 C   0  0  0  0  0  0
  -24.8652  -27.6850   19.4921 C   0  0  0  0  0  0
  -23.6281  -29.8215   20.1605 C   0  0  0  0  0  0
  -25.4107  -36.3096   24.0331 C   0  0  1  0  0  0
  -20.5878  -28.3696   23.1294 C   0  0  2  0  0  0
  -20.6776  -26.9423   22.5418 C   0  0  0  0  0  0
  -19.5750  -26.6392   21.5224 C   0  0  0  0  0  0
  -18.1928  -26.7937   22.1627 C   0  0  0  0  0  0
  -19.1532  -28.8857   23.2897 C   0  0  0  0  0  0
  -18.9459  -30.1460   23.8916 C   0  0  0  0  0  0
  -17.6459  -30.6596   24.0564 C   0  0  0  0  0  0
  -25.9053  -34.9463   23.5112 C   0  0  0  0  0  0
  -16.5351  -29.9100   23.6323 C   0  0  0  0  0  0
  -16.7272  -28.6509   23.0359 C   0  0  0  0  0  0
  -26.4483  -31.6600   25.0731 C   0  0  0  0  0  0
  -25.3723  -31.3728   26.1461 C   0  0  0  0  0  0
  -27.0324  -30.3025   24.6172 C   0  0  0  0  0  0
  -27.6049  -32.4328   25.7505 C   0  0  0  0  0  0
  -27.5589  -37.1787   24.8451 C   0  0  0  0  0  0
  -21.4169  -29.3049   22.3690 N   0  0  0  0  0  0
  -26.4276  -37.3798   23.9433 N   0  0  0  0  0  0
  -24.6823  -31.0665   22.0984 N   0  0  0  0  0  0
  -23.4189  -28.8183   23.3016 O   0  0  0  0  0  0
  -28.3341  -26.5111   20.1640 O   0  0  0  0  0  0
  -26.5622  -34.8927   22.4679 O   0  0  0  0  0  0
  -23.5394  -32.1408   23.7394 O   0  0  0  0  0  0
  -27.8471  -19.4789   22.4967 C   0  0  0  0  0  0
  -28.4904  -18.3062   22.0564 C   0  0  0  0  0  0
  -28.0224  -20.7006   21.8198 C   0  0  0  0  0  0
  -29.4895  -19.5717   20.2398 C   0  0  0  0  0  0
  -29.3382  -18.3155   20.9261 C   0  0  0  0  0  0
  -28.8471  -20.7846   20.6750 C   0  0  0  0  0  0
  -30.0296  -17.0375   20.4945 C   0  0  0  0  0  0
  -29.8539  -15.7644   20.9789 C   0  0  0  0  0  0
  -28.5738  -25.6245   19.1205 C   0  0  0  0  0  0
  -28.7601  -24.2628   19.1139 C   0  0  0  0  0  0
  -28.7095  -23.3388   20.2762 C   0  0  0  0  0  0
  -28.9678  -22.0343   19.9338 N   0  0  0  0  0  0
  -28.4820  -23.6939   21.4348 O   0  0  0  0  0  0
  -29.0004  -23.7027   17.9139 O   0  0  0  0  0  0
  -31.4709  -12.4655   19.1523 H   0  0  0  0  0  0
  -30.3394  -11.3634   19.8751 H   0  0  0  0  0  0
  -29.7578  -11.7702   17.4609 H   0  0  0  0  0  0
  -29.6640  -13.4873   17.7573 H   0  0  0  0  0  0
  -27.8391  -11.3103   18.8295 H   0  0  0  0  0  0
  -27.3763  -12.6235   17.7821 H   0  0  0  0  0  0
  -27.6851  -14.2615   19.5524 H   0  0  0  0  0  0
  -28.6953  -12.0035   21.3374 H   0  0  0  0  0  0
  -28.4353  -13.6265   21.8681 H   0  0  0  0  0  0
  -25.2758   -9.5700   22.4736 H   0  0  0  0  0  0
  -24.0010   -7.4650   22.7482 H   0  0  0  0  0  0
  -21.0835   -8.8753   19.8950 H   0  0  0  0  0  0
  -22.3674  -10.9663   19.6151 H   0  0  0  0  0  0
  -21.2005   -7.6146   23.9703 H   0  0  0  0  0  0
  -21.1481   -6.0532   25.9074 H   0  0  0  0  0  0
  -22.0595   -2.7605   23.2867 H   0  0  0  0  0  0
  -22.4124  -11.9886   22.4804 H   0  0  0  0  0  0
  -21.1094  -13.1210   22.2617 H   0  0  0  0  0  0
  -24.6679  -15.8512   20.5358 H   0  0  0  0  0  0
  -26.2946  -15.6315   20.1304 H   0  0  0  0  0  0
  -26.7162  -32.5479   23.1127 H   0  0  0  0  0  0
  -25.0071  -33.9764   25.0442 H   0  0  0  0  0  0
  -22.7079  -31.3055   21.4039 H   0  0  0  0  0  0
  -23.3769  -35.9600   23.3266 H   0  0  0  0  0  0
  -24.3583  -36.8944   22.2055 H   0  0  0  0  0  0
  -23.7198  -37.6471   23.6677 H   0  0  0  0  0  0
  -26.0812  -31.5694   20.6050 H   0  0  0  0  0  0
  -26.8346  -30.8517   21.9995 H   0  0  0  0  0  0
  -28.1102  -29.0134   21.1875 H   0  0  0  0  0  0
  -25.9925  -25.9250   19.0374 H   0  0  0  0  0  0
  -23.9667  -27.2996   19.0302 H   0  0  0  0  0  0
  -23.7436  -30.5982   19.4037 H   0  0  0  0  0  0
  -22.7496  -29.2485   19.8592 H   0  0  0  0  0  0
  -25.1272  -36.1947   25.0820 H   0  0  0  0  0  0
  -20.9982  -28.3279   24.1410 H   0  0  0  0  0  0
  -20.5695  -26.2308   23.3617 H   0  0  0  0  0  0
  -21.6647  -26.7466   22.1203 H   0  0  0  0  0  0
  -19.6922  -25.6305   21.1249 H   0  0  0  0  0  0
  -19.6685  -27.3205   20.6757 H   0  0  0  0  0  0
  -17.4202  -26.6692   21.4027 H   0  0  0  0  0  0
  -18.0324  -26.0074   22.9019 H   0  0  0  0  0  0
  -19.7935  -30.7268   24.2302 H   0  0  0  0  0  0
  -17.5015  -31.6274   24.5173 H   0  0  0  0  0  0
  -15.5356  -30.3007   23.7637 H   0  0  0  0  0  0
  -15.8668  -28.0827   22.7079 H   0  0  0  0  0  0
  -24.5902  -30.7074   25.7786 H   0  0  0  0  0  0
  -24.8910  -32.2889   26.4891 H   0  0  0  0  0  0
  -25.8046  -30.8900   27.0232 H   0  0  0  0  0  0
  -26.2891  -29.6793   24.1186 H   0  0  0  0  0  0
  -27.4012  -29.7268   25.4672 H   0  0  0  0  0  0
  -27.8763  -30.4315   23.9391 H   0  0  0  0  0  0
  -27.2665  -33.3624   26.2093 H   0  0  0  0  0  0
  -28.3855  -32.6894   25.0334 H   0  0  0  0  0  0
  -28.0724  -31.8449   26.5412 H   0  0  0  0  0  0
  -28.2548  -38.0147   24.7603 H   0  0  0  0  0  0
  -28.1145  -36.2685   24.6136 H   0  0  0  0  0  0
  -27.2330  -37.1264   25.8856 H   0  0  0  0  0  0
  -20.9355  -29.8765   21.6889 H   0  0  0  0  0  0
  -26.0157  -38.2854   24.1511 H   0  0  0  0  0  0
  -27.2042  -19.4396   23.3657 H   0  0  0  0  0  0
  -28.3220  -17.3974   22.6143 H   0  0  0  0  0  0
  -27.4876  -21.5639   22.1875 H   0  0  0  0  0  0
  -30.1155  -19.6026   19.3590 H   0  0  0  0  0  0
  -30.7638  -17.1676   19.7098 H   0  0  0  0  0  0
  -29.1246  -15.6085   21.7539 H   0  0  0  0  0  0
  -28.6167  -26.1820   18.1943 H   0  0  0  0  0  0
  -29.2388  -21.9531   18.9612 H   0  0  0  0  0  0
  -28.9868  -24.3954   17.2659 H   0  0  0  0  0  0
  1 25  1  0  0  0
  1 30  2  0  0  0
  1 78  1  0  0  0
  2  3  1  0  0  0
  2 25  1  0  0  0
  2 85  1  0  0  0
  2 86  1  0  0  0
  3  4  1  0  0  0
  3 87  1  0  0  0
  3 88  1  0  0  0
  4  5  1  0  0  0
  4 89  1  0  0  0
  4 90  1  0  0  0
  5  6  1  0  0  0
  5 26  1  0  0  0
  5 91  1  0  0  0
  6 25  1  0  0  0
  6 92  1  0  0  0
  6 93  1  0  0  0
  7  8  2  0  0  0
  7 26  1  0  0  0
  7 29  1  0  0  0
  8  9  1  0  0  0
  8 22  1  0  0  0
  9 10  1  0  0  0
  9 27  2  0  0  0
 10 11  2  0  0  0
 10 15  1  0  0  0
 11 12  1  0  0  0
 11 94  1  0  0  0
 12 13  2  0  0  0
 12 95  1  0  0  0
 13 14  1  0  0  0
 13 31  1  0  0  0
 14 15  2  0  0  0
 14 96  1  0  0  0
 15 97  1  0  0  0
 16 17  2  0  0  0
 16 21  1  0  0  0
 16 31  1  0  0  0
 17 18  1  0  0  0
 17 98  1  0  0  0
 18 19  2  0  0  0
 18 99  1  0  0  0
 19 20  1  0  0  0
 19 24  1  0  0  0
 20 21  2  0  0  0
 20100  1  0  0  0
 21 23  1  0  0  0
 22 28  1  0  0  0
 22 32  2  0  0  0
 26 27  1  0  0  0
 28101  1  0  0  0
 28102  1  0  0  0
 29103  1  0  0  0
 29104  1  0  0  0
 33 34  1  0  0  0
 33 66  1  0  0  0
 33 70  2  0  0  0
 34 36  1  0  0  0
 34 59  1  0  0  0
 34105  1  0  0  0
 35 44  2  0  0  0
 35 45  1  0  0  0
 35 68  1  0  0  0
 36 56  1  0  0  0
 36106  1  0  0  0
 37 39  1  0  0  0
 37 47  1  0  0  0
 37 66  1  0  0  0
 37107  1  0  0  0
 38 43  2  0  0  0
 38 46  1  0  0  0
 38 47  1  0  0  0
 39 64  1  0  0  0
 39 67  2  0  0  0
 40 52  1  0  0  0
 40 53  2  0  0  0
 40 58  1  0  0  0
 41108  1  0  0  0
 41109  1  0  0  0
 41110  1  0  0  0
 41 48  1  0  0  0
 42 43  1  0  0  0
 42 66  1  0  0  0
 42111  1  0  0  0
 42112  1  0  0  0
 43 44  1  0  0  0
 44113  1  0  0  0
 45 46  2  0  0  0
 45114  1  0  0  0
 46115  1  0  0  0
 47116  1  0  0  0
 47117  1  0  0  0
 48 56  1  0  0  0
 48 65  1  0  0  0
 48118  1  0  0  0
 49 50  1  0  0  0
 49 53  1  0  0  0
 49 64  1  0  0  0
 49119  1  0  0  0
 50 51  1  0  0  0
 50120  1  0  0  0
 50121  1  0  0  0
 51 52  1  0  0  0
 51122  1  0  0  0
 51123  1  0  0  0
 52124  1  0  0  0
 52125  1  0  0  0
 53 54  1  0  0  0
 54 55  2  0  0  0
 54126  1  0  0  0
 55 57  1  0  0  0
 55127  1  0  0  0
 56 69  2  0  0  0
 57 58  2  0  0  0
 57128  1  0  0  0
 58129  1  0  0  0
 59 60  1  0  0  0
 59 61  1  0  0  0
 59 62  1  0  0  0
 60130  1  0  0  0
 60131  1  0  0  0
 60132  1  0  0  0
 61133  1  0  0  0
 61134  1  0  0  0
 61135  1  0  0  0
 62136  1  0  0  0
 62137  1  0  0  0
 62138  1  0  0  0
 63 65  1  0  0  0
 63139  1  0  0  0
 63140  1  0  0  0
 63141  1  0  0  0
 64142  1  0  0  0
 65143  1  0  0  0
 68 79  1  0  0  0
 71 72  2  0  0  0
 71 73  1  0  0  0
 71144  1  0  0  0
 72 75  1  0  0  0
 72145  1  0  0  0
 73 76  2  0  0  0
 73146  1  0  0  0
 74 75  2  0  0  0
 74 76  1  0  0  0
 74147  1  0  0  0
 75 77  1  0  0  0
 76 82  1  0  0  0
 77 78  2  0  0  0
 77148  1  0  0  0
 78149  1  0  0  0
 79 80  2  0  0  0
 79150  1  0  0  0
 80 81  1  0  0  0
 80 84  1  0  0  0
 81 82  1  0  0  0
 81 83  2  0  0  0
 82151  1  0  0  0
 84152  1  0  0  0
M  ISO  4   1 100  68 101  78 100  79 101
M  END
> <chiral flag>
0

> <version>
0

> <s_m_source_file>
/data/baiqing/PycharmProjects/Reinvent-master-3.2/result/LINK_invent/BTK/process_docking_weight1_custom_product_contain_oxygen_bond_distance_aromatic_linkinvent_7_9_3/rearranged_h_0086.sdf

> <i_m_source_file_index>
3

> <r_mmod_Potential_Energy-OPLS-2005>
3.97433543205261

> <r_mmod_Stretch_Energy-OPLS-2005>
67.233772277832

> <r_mmod_Bend_Energy-OPLS-2005>
131.932464599609

> <r_mmod_Torsional_Energy-OPLS-2005>
188.65837097168

> <r_mmod_Improper_Torsional_Energy-OPLS-2005>
3.48894357681274

> <r_mmod_Van_der_Waal_Energy-OPLS-2005>
158.0224609375

> <r_mmod_Electrostatic_Energy-OPLS-2005>
-355.964263916016

> <r_mmod_Solvation_Energy-OPLS-2005>
-225.249252319336

> <b_mmod_Minimization_Converged-OPLS-2005>
0

> <r_mmod_RMS_Derivative-OPLS-2005>
1.40562033653259

$$$$
3
                    3D
 Structure written by MMmdl.
141148  0  0  1  0            999 V2000
  -30.1240  -16.1277   20.2610 C   0  0  0  0  0  0
  -30.3842  -13.4318   19.5848 C   0  0  0  0  0  0
  -29.5764  -12.8018   18.3944 C   0  0  0  0  0  0
  -28.1873  -12.3366   18.8422 C   0  0  0  0  0  0
  -27.5837  -13.3711   19.8106 C   0  0  2  0  0  0
  -28.5513  -13.9027   20.9116 C   0  0  0  0  0  0
  -25.2243  -13.8386   20.5845 C   0  0  0  0  0  0
  -24.1687  -13.0453   20.9294 C   0  0  0  0  0  0
  -24.6469  -11.6991   20.8734 C   0  0  0  0  0  0
  -23.9175  -10.4308   21.0359 C   0  0  0  0  0  0
  -24.3696   -9.4225   21.9154 C   0  0  0  0  0  0
  -23.6341   -8.2271   22.0744 C   0  0  0  0  0  0
  -22.4319   -8.0298   21.3539 C   0  0  0  0  0  0
  -21.9975   -9.0281   20.4639 C   0  0  0  0  0  0
  -22.7330  -10.2147   20.3027 C   0  0  0  0  0  0
  -21.6875   -6.0749   22.5279 C   0  0  0  0  0  0
  -21.4025   -6.5652   23.8210 C   0  0  0  0  0  0
  -21.3662   -5.6799   24.9171 C   0  0  0  0  0  0
  -21.6042   -4.3059   24.7222 C   0  0  0  0  0  0
  -21.8813   -3.8158   23.4337 C   0  0  0  0  0  0
  -21.9194   -4.6978   22.3399 C   0  0  0  0  0  0
  -22.7681  -13.5138   21.1924 C   0  0  0  0  0  0
  -22.1659   -4.2160   21.0977 F   0  0  0  0  0  0
  -21.5625   -3.4537   25.7734 F   0  0  0  0  0  0
  -29.6761  -14.6631   20.2670 N   0  0  0  0  0  0
  -26.2763  -12.9846   20.3280 N   0  0  0  0  0  0
  -25.9443  -11.6844   20.5639 N   0  0  0  0  0  0
  -22.0362  -12.8113   22.0484 N   0  0  0  0  0  0
  -25.3769  -15.2140   20.4331 N   0  0  0  0  0  0
  -31.3476  -15.9541   20.0274 O   0  0  0  0  0  0
  -21.6654   -6.8908   21.4252 O   0  0  0  0  0  0
  -22.3349  -14.5422   20.6741 O   0  0  0  0  0  0
  -24.7159  -31.7589   23.1225 C   0  0  0  0  0  0
  -25.9576  -32.4258   23.7904 C   0  0  1  0  0  0
  -27.2448  -26.3596   20.2384 C   0  0  0  0  0  0
  -25.6019  -33.8107   24.1753 N   0  0  0  0  0  0
  -23.5587  -30.3445   21.4826 C   0  0  2  0  0  0
  -25.0227  -28.6144   20.1207 C   0  0  0  0  0  0
  -22.7920  -29.4097   22.4602 C   0  0  0  0  0  0
  -18.0365  -28.1442   22.8428 C   0  0  0  0  0  0
  -24.1511  -36.7075   23.2670 C   0  0  0  0  0  0
  -26.1516  -30.3743   21.4444 C   0  0  0  0  0  0
  -26.2124  -28.9026   20.7976 C   0  0  0  0  0  0
  -27.2862  -27.8116   20.8207 C   0  0  0  0  0  0
  -26.0263  -26.3749   19.4839 C   0  0  0  0  0  0
  -24.9907  -27.3820   19.4381 C   0  0  0  0  0  0
  -23.8323  -29.6093   20.1324 C   0  0  0  0  0  0
  -25.4183  -36.2782   24.0253 C   0  0  1  0  0  0
  -20.6016  -28.3819   23.1076 C   0  0  2  0  0  0
  -20.6817  -26.9449   22.5406 C   0  0  0  0  0  0
  -19.5797  -26.6362   21.5217 C   0  0  0  0  0  0
  -18.1979  -26.7959   22.1609 C   0  0  0  0  0  0
  -19.1638  -28.8964   23.2717 C   0  0  0  0  0  0
  -18.9534  -30.1538   23.8779 C   0  0  0  0  0  0
  -17.6519  -30.6610   24.0544 C   0  0  0  0  0  0
  -25.9162  -34.9164   23.4860 C   0  0  0  0  0  0
  -16.5407  -29.9089   23.6354 C   0  0  0  0  0  0
  -16.7345  -28.6515   23.0368 C   0  0  0  0  0  0
  -26.4651  -31.6450   25.0673 C   0  0  0  0  0  0
  -25.3621  -31.3876   26.1223 C   0  0  0  0  0  0
  -27.0648  -30.2747   24.6845 C   0  0  0  0  0  0
  -27.6031  -32.4404   25.7510 C   0  0  0  0  0  0
  -27.5530  -37.1744   24.8497 C   0  0  0  0  0  0
  -21.4537  -29.2992   22.3349 N   0  0  0  0  0  0
  -26.4306  -37.3545   23.9337 N   0  0  0  0  0  0
  -24.8359  -30.8694   22.0669 N   0  0  0  0  0  0
  -23.4195  -28.7754   23.3115 O   0  0  0  0  0  0
  -28.1443  -24.9774   20.3769 O   0  0  0  0  0  0
  -26.5842  -34.8798   22.4510 O   0  0  0  0  0  0
  -23.6113  -32.0832   23.5960 O   0  0  0  0  0  0
  -29.3880  -17.8139   20.5178 C   0  0  0  0  0  0
  -29.3446  -19.3975   20.0766 C   0  0  0  0  0  0
  -28.7205  -21.2205   20.5724 C   0  0  0  0  0  0
  -30.1465  -19.6590   18.8150 C   0  0  0  0  0  0
  -28.2224  -23.0969   19.9157 C   0  0  0  0  0  0
  -28.5507  -21.2430   21.7944 O   0  0  0  0  0  0
  -31.3549  -13.7266   19.1853 H   0  0  0  0  0  0
  -30.6317  -12.6640   20.3206 H   0  0  0  0  0  0
  -30.1286  -11.9713   17.9518 H   0  0  0  0  0  0
  -29.4712  -13.5510   17.6091 H   0  0  0  0  0  0
  -28.2950  -11.3790   19.3542 H   0  0  0  0  0  0
  -27.5359  -12.1642   17.9839 H   0  0  0  0  0  0
  -27.3870  -14.2291   19.1649 H   0  0  0  0  0  0
  -28.8956  -13.1011   21.5671 H   0  0  0  0  0  0
  -28.0209  -14.6017   21.5595 H   0  0  0  0  0  0
  -25.2839   -9.5684   22.4746 H   0  0  0  0  0  0
  -24.0026   -7.4664   22.7478 H   0  0  0  0  0  0
  -21.0896   -8.8826   19.8959 H   0  0  0  0  0  0
  -22.3790  -10.9686   19.6135 H   0  0  0  0  0  0
  -21.2027   -7.6159   23.9726 H   0  0  0  0  0  0
  -21.1487   -6.0522   25.9075 H   0  0  0  0  0  0
  -22.0590   -2.7619   23.2837 H   0  0  0  0  0  0
  -22.4023  -11.9814   22.4912 H   0  0  0  0  0  0
  -21.0946  -13.1089   22.2627 H   0  0  0  0  0  0
  -24.6067  -15.8614   20.5581 H   0  0  0  0  0  0
  -26.2254  -15.6666   20.1193 H   0  0  0  0  0  0
  -26.7694  -32.4647   23.0640 H   0  0  0  0  0  0
  -25.0030  -33.9092   24.9817 H   0  0  0  0  0  0
  -22.9032  -31.1898   21.2626 H   0  0  0  0  0  0
  -23.3725  -35.9466   23.3439 H   0  0  0  0  0  0
  -24.3501  -36.8639   22.2054 H   0  0  0  0  0  0
  -23.7371  -37.6324   23.6703 H   0  0  0  0  0  0
  -26.3967  -31.0755   20.6462 H   0  0  0  0  0  0
  -26.9873  -30.4494   22.1264 H   0  0  0  0  0  0
  -28.1651  -28.0464   21.4035 H   0  0  0  0  0  0
  -25.8047  -25.4643   18.9456 H   0  0  0  0  0  0
  -24.1058  -27.1502   18.8611 H   0  0  0  0  0  0
  -24.0335  -30.3542   19.3621 H   0  0  0  0  0  0
  -22.9312  -29.0900   19.8008 H   0  0  0  0  0  0
  -25.1436  -36.1526   25.0754 H   0  0  0  0  0  0
  -21.0080  -28.3479   24.1209 H   0  0  0  0  0  0
  -20.5655  -26.2459   23.3705 H   0  0  0  0  0  0
  -21.6677  -26.7347   22.1236 H   0  0  0  0  0  0
  -19.6953  -25.6242   21.1321 H   0  0  0  0  0  0
  -19.6749  -27.3111   20.6697 H   0  0  0  0  0  0
  -17.4252  -26.6697   21.4010 H   0  0  0  0  0  0
  -18.0358  -26.0133   22.9036 H   0  0  0  0  0  0
  -19.8012  -30.7379   24.2099 H   0  0  0  0  0  0
  -17.5072  -31.6277   24.5172 H   0  0  0  0  0  0
  -15.5402  -30.2954   23.7753 H   0  0  0  0  0  0
  -15.8746  -28.0799   22.7149 H   0  0  0  0  0  0
  -24.5835  -30.7211   25.7497 H   0  0  0  0  0  0
  -24.8794  -32.3138   26.4345 H   0  0  0  0  0  0
  -25.7706  -30.9215   27.0197 H   0  0  0  0  0  0
  -26.3443  -29.6244   24.1877 H   0  0  0  0  0  0
  -27.3962  -29.7343   25.5722 H   0  0  0  0  0  0
  -27.9462  -30.3789   24.0516 H   0  0  0  0  0  0
  -27.2510  -33.3803   26.1780 H   0  0  0  0  0  0
  -28.3991  -32.6819   25.0450 H   0  0  0  0  0  0
  -28.0544  -31.8754   26.5679 H   0  0  0  0  0  0
  -28.2672  -37.9895   24.7273 H   0  0  0  0  0  0
  -28.0895  -36.2413   24.6714 H   0  0  0  0  0  0
  -27.2183  -37.1838   25.8882 H   0  0  0  0  0  0
  -20.9943  -29.8586   21.6301 H   0  0  0  0  0  0
  -26.0123  -38.2631   24.1156 H   0  0  0  0  0  0
  -28.7601  -17.7233   21.3920 H   0  0  0  0  0  0
  -30.4575  -18.7308   18.3335 H   0  0  0  0  0  0
  -31.0390  -20.2418   19.0451 H   0  0  0  0  0  0
  -29.5466  -20.2194   18.0948 H   0  0  0  0  0  0
  -27.1890  -22.9253   19.6136 H   0  0  0  0  0  0
  -28.7591  -23.1328   18.9676 H   0  0  0  0  0  0
  1 25  1  0  0  0
  1 30  2  0  0  0
  1 71  1  0  0  0
  2  3  1  0  0  0
  2 25  1  0  0  0
  2 77  1  0  0  0
  2 78  1  0  0  0
  3  4  1  0  0  0
  3 79  1  0  0  0
  3 80  1  0  0  0
  4  5  1  0  0  0
  4 81  1  0  0  0
  4 82  1  0  0  0
  5  6  1  0  0  0
  5 26  1  0  0  0
  5 83  1  0  0  0
  6 25  1  0  0  0
  6 84  1  0  0  0
  6 85  1  0  0  0
  7  8  2  0  0  0
  7 26  1  0  0  0
  7 29  1  0  0  0
  8  9  1  0  0  0
  8 22  1  0  0  0
  9 10  1  0  0  0
  9 27  2  0  0  0
 10 11  2  0  0  0
 10 15  1  0  0  0
 11 12  1  0  0  0
 11 86  1  0  0  0
 12 13  2  0  0  0
 12 87  1  0  0  0
 13 14  1  0  0  0
 13 31  1  0  0  0
 14 15  2  0  0  0
 14 88  1  0  0  0
 15 89  1  0  0  0
 16 17  2  0  0  0
 16 21  1  0  0  0
 16 31  1  0  0  0
 17 18  1  0  0  0
 17 90  1  0  0  0
 18 19  2  0  0  0
 18 91  1  0  0  0
 19 20  1  0  0  0
 19 24  1  0  0  0
 20 21  2  0  0  0
 20 92  1  0  0  0
 21 23  1  0  0  0
 22 28  1  0  0  0
 22 32  2  0  0  0
 26 27  1  0  0  0
 28 93  1  0  0  0
 28 94  1  0  0  0
 29 95  1  0  0  0
 29 96  1  0  0  0
 33 34  1  0  0  0
 33 66  1  0  0  0
 33 70  2  0  0  0
 34 36  1  0  0  0
 34 59  1  0  0  0
 34 97  1  0  0  0
 35 44  2  0  0  0
 35 45  1  0  0  0
 35 68  1  0  0  0
 36 56  1  0  0  0
 36 98  1  0  0  0
 37 39  1  0  0  0
 37 47  1  0  0  0
 37 66  1  0  0  0
 37 99  1  0  0  0
 38 43  2  0  0  0
 38 46  1  0  0  0
 38 47  1  0  0  0
 39 64  1  0  0  0
 39 67  2  0  0  0
 40 52  1  0  0  0
 40 53  2  0  0  0
 40 58  1  0  0  0
 41100  1  0  0  0
 41101  1  0  0  0
 41102  1  0  0  0
 41 48  1  0  0  0
 42 43  1  0  0  0
 42 66  1  0  0  0
 42103  1  0  0  0
 42104  1  0  0  0
 43 44  1  0  0  0
 44105  1  0  0  0
 45 46  2  0  0  0
 45106  1  0  0  0
 46107  1  0  0  0
 47108  1  0  0  0
 47109  1  0  0  0
 48 56  1  0  0  0
 48 65  1  0  0  0
 48110  1  0  0  0
 49 50  1  0  0  0
 49 53  1  0  0  0
 49 64  1  0  0  0
 49111  1  0  0  0
 50 51  1  0  0  0
 50112  1  0  0  0
 50113  1  0  0  0
 51 52  1  0  0  0
 51114  1  0  0  0
 51115  1  0  0  0
 52116  1  0  0  0
 52117  1  0  0  0
 53 54  1  0  0  0
 54 55  2  0  0  0
 54118  1  0  0  0
 55 57  1  0  0  0
 55119  1  0  0  0
 56 69  2  0  0  0
 57 58  2  0  0  0
 57120  1  0  0  0
 58121  1  0  0  0
 59 60  1  0  0  0
 59 61  1  0  0  0
 59 62  1  0  0  0
 60122  1  0  0  0
 60123  1  0  0  0
 60124  1  0  0  0
 61125  1  0  0  0
 61126  1  0  0  0
 61127  1  0  0  0
 62128  1  0  0  0
 62129  1  0  0  0
 62130  1  0  0  0
 63 65  1  0  0  0
 63131  1  0  0  0
 63132  1  0  0  0
 63133  1  0  0  0
 64134  1  0  0  0
 65135  1  0  0  0
 68 75  1  0  0  0
 71 72  2  0  0  0
 71136  1  0  0  0
 72 73  1  0  0  0
 72 74  1  0  0  0
 73 75  1  0  0  0
 73 76  2  0  0  0
 74137  1  0  0  0
 74138  1  0  0  0
 74139  1  0  0  0
 75140  1  0  0  0
 75141  1  0  0  0
M  ISO  4   1 100  68 101  71 100  75 101
M  END
> <chiral flag>
0

> <version>
0

> <s_m_source_file>
/data/baiqing/PycharmProjects/Reinvent-master-3.2/result/LINK_invent/BTK/process_docking_weight1_custom_product_contain_oxygen_bond_distance_aromatic_linkinvent_7_9_3/rearranged_h_0086.sdf

> <i_m_source_file_index>
4

> <r_mmod_Potential_Energy-OPLS-2005>
4548.9248046875

> <r_mmod_Stretch_Energy-OPLS-2005>
2041.65417480469

> <r_mmod_Bend_Energy-OPLS-2005>
925.166198730469

> <r_mmod_Torsional_Energy-OPLS-2005>
205.003890991211

> <r_mmod_Improper_Torsional_Energy-OPLS-2005>
2.60852956771851

> <r_mmod_Van_der_Waal_Energy-OPLS-2005>
114.559150695801

> <r_mmod_Electrostatic_Energy-OPLS-2005>
-300.109405517578

> <r_mmod_Solvation_Energy-OPLS-2005>
-218.248611450195

> <b_mmod_Minimization_Converged-OPLS-2005>
0

> <r_mmod_RMS_Derivative-OPLS-2005>
1.76081383228302

$$$$
4
                    3D
 Structure written by MMmdl.
154163  0  0  1  0            999 V2000
  -30.6432  -14.7598   20.4795 C   0  0  0  0  0  0
  -30.4624  -12.4714   19.4909 C   0  0  0  0  0  0
  -29.5167  -12.4542   18.2692 C   0  0  0  0  0  0
  -28.0554  -12.2509   18.7059 C   0  0  0  0  0  0
  -27.6559  -13.1917   19.8650 C   0  0  2  0  0  0
  -28.7042  -13.1661   21.0031 C   0  0  0  0  0  0
  -25.2635  -13.8111   20.5814 C   0  0  0  0  0  0
  -24.1892  -13.0388   20.9287 C   0  0  0  0  0  0
  -24.6454  -11.6862   20.8880 C   0  0  0  0  0  0
  -23.9119  -10.4244   21.0481 C   0  0  0  0  0  0
  -24.3654   -9.4160   21.9246 C   0  0  0  0  0  0
  -23.6300   -8.2207   22.0776 C   0  0  0  0  0  0
  -22.4294   -8.0287   21.3541 C   0  0  0  0  0  0
  -21.9955   -9.0280   20.4676 C   0  0  0  0  0  0
  -22.7293  -10.2153   20.3104 C   0  0  0  0  0  0
  -21.6824   -6.0777   22.5302 C   0  0  0  0  0  0
  -21.3984   -6.5668   23.8237 C   0  0  0  0  0  0
  -21.3646   -5.6803   24.9185 C   0  0  0  0  0  0
  -21.6032   -4.3060   24.7203 C   0  0  0  0  0  0
  -21.8797   -3.8188   23.4314 C   0  0  0  0  0  0
  -21.9183   -4.7026   22.3399 C   0  0  0  0  0  0
  -22.7901  -13.5229   21.1816 C   0  0  0  0  0  0
  -22.1661   -4.2221   21.0964 F   0  0  0  0  0  0
  -21.5626   -3.4532   25.7709 F   0  0  0  0  0  0
  -30.0058  -13.5326   20.4280 N   0  0  0  0  0  0
  -26.3025  -12.9230   20.3382 N   0  0  0  0  0  0
  -25.9356  -11.6425   20.5867 N   0  0  0  0  0  0
  -22.0497  -12.8341   22.0397 N   0  0  0  0  0  0
  -25.4108  -15.1849   20.4143 N   0  0  0  0  0  0
  -31.7629  -14.8783   19.9769 O   0  0  0  0  0  0
  -21.6602   -6.8929   21.4256 O   0  0  0  0  0  0
  -22.3661  -14.5508   20.6518 O   0  0  0  0  0  0
  -24.6375  -31.8491   23.1824 C   0  0  0  0  0  0
  -25.9156  -32.4704   23.8208 C   0  0  1  0  0  0
  -27.2322  -27.2298   20.1135 C   0  0  0  0  0  0
  -25.5882  -33.8476   24.2048 N   0  0  0  0  0  0
  -23.4357  -30.4733   21.5289 C   0  0  2  0  0  0
  -24.8813  -28.9074   20.1095 C   0  0  0  0  0  0
  -22.7547  -29.4600   22.4834 C   0  0  0  0  0  0
  -18.0366  -28.1427   22.8512 C   0  0  0  0  0  0
  -24.1514  -36.7258   23.2668 C   0  0  0  0  0  0
  -25.9896  -30.7438   21.3717 C   0  0  0  0  0  0
  -26.0598  -29.3672   20.7102 C   0  0  0  0  0  0
  -27.2391  -28.5471   20.6935 C   0  0  0  0  0  0
  -26.0173  -26.8364   19.5031 C   0  0  0  0  0  0
  -24.8670  -27.6472   19.5028 C   0  0  0  0  0  0
  -23.6447  -29.7916   20.1550 C   0  0  0  0  0  0
  -25.4135  -36.2987   24.0297 C   0  0  1  0  0  0
  -20.5953  -28.3729   23.1247 C   0  0  2  0  0  0
  -20.6813  -26.9412   22.5394 C   0  0  0  0  0  0
  -19.5741  -26.6390   21.5249 C   0  0  0  0  0  0
  -18.1954  -26.7981   22.1666 C   0  0  0  0  0  0
  -19.1618  -28.8920   23.2888 C   0  0  0  0  0  0
  -18.9524  -30.1531   23.8858 C   0  0  0  0  0  0
  -17.6504  -30.6601   24.0645 C   0  0  0  0  0  0
  -25.9103  -34.9379   23.5010 C   0  0  0  0  0  0
  -16.5412  -29.9086   23.6398 C   0  0  0  0  0  0
  -16.7357  -28.6548   23.0326 C   0  0  0  0  0  0
  -26.4415  -31.6633   25.0693 C   0  0  0  0  0  0
  -25.3571  -31.3772   26.1396 C   0  0  0  0  0  0
  -27.0337  -30.3058   24.6264 C   0  0  0  0  0  0
  -27.5877  -32.4546   25.7435 C   0  0  0  0  0  0
  -27.5558  -37.1760   24.8465 C   0  0  0  0  0  0
  -21.4240  -29.3082   22.3601 N   0  0  0  0  0  0
  -26.4277  -37.3721   23.9432 N   0  0  0  0  0  0
  -24.7086  -31.0435   22.0815 N   0  0  0  0  0  0
  -23.4215  -28.8117   23.2958 O   0  0  0  0  0  0
  -28.3313  -26.3196   20.1568 O   0  0  0  0  0  0
  -26.5730  -34.8919   22.4603 O   0  0  0  0  0  0
  -23.5516  -32.1301   23.7107 O   0  0  0  0  0  0
  -27.7848  -18.2489   18.9417 C   0  0  0  0  0  0
  -28.4253  -17.1560   19.5490 C   0  0  0  0  0  0
  -28.1840  -19.5668   19.2407 C   0  0  0  0  0  0
  -29.9007  -18.6934   20.7354 C   0  0  0  0  0  0
  -30.4108  -23.3945   20.1820 C   0  0  0  0  0  0
  -28.5239  -22.2893   20.4497 C   0  0  0  0  0  0
  -29.5013  -17.3084   20.4672 C   0  0  0  0  0  0
  -28.9874  -23.5956   20.3173 C   0  0  0  0  0  0
  -29.2431  -19.8456   20.1314 C   0  0  0  0  0  0
  -30.6811  -22.0345   20.1955 C   0  0  0  0  0  0
  -30.0134  -16.0336   21.2175 C   0  0  0  0  0  0
  -27.9960  -24.8556   20.2963 C   0  0  0  0  0  0
  -29.9967  -16.0413   22.4875 N   0  0  0  0  0  0
  -29.5085  -21.2913   20.3015 N   0  0  0  0  0  0
  -31.8783  -21.3937   20.0652 O   0  0  0  0  0  0
  -31.4853  -12.6284   19.1451 H   0  0  0  0  0  0
  -30.4775  -11.5068   20.0015 H   0  0  0  0  0  0
  -29.8105  -11.6485   17.5943 H   0  0  0  0  0  0
  -29.6095  -13.3830   17.7040 H   0  0  0  0  0  0
  -27.9605  -11.2169   19.0417 H   0  0  0  0  0  0
  -27.3788  -12.3532   17.8596 H   0  0  0  0  0  0
  -27.6376  -14.1824   19.4331 H   0  0  0  0  0  0
  -28.7597  -12.1714   21.4536 H   0  0  0  0  0  0
  -28.4142  -13.8439   21.8087 H   0  0  0  0  0  0
  -25.2798   -9.5580   22.4853 H   0  0  0  0  0  0
  -23.9977   -7.4574   22.7522 H   0  0  0  0  0  0
  -21.0861   -8.8856   19.8984 H   0  0  0  0  0  0
  -22.3810  -10.9721   19.6242 H   0  0  0  0  0  0
  -21.1962   -7.6168   23.9759 H   0  0  0  0  0  0
  -21.1477   -6.0524   25.9086 H   0  0  0  0  0  0
  -22.0582   -2.7648   23.2778 H   0  0  0  0  0  0
  -22.4106  -12.0039   22.4873 H   0  0  0  0  0  0
  -21.1103  -13.1396   22.2505 H   0  0  0  0  0  0
  -24.6162  -15.7962   20.5688 H   0  0  0  0  0  0
  -26.1919  -15.6682   19.9838 H   0  0  0  0  0  0
  -26.7224  -32.5258   23.0939 H   0  0  0  0  0  0
  -24.9950  -33.9632   25.0153 H   0  0  0  0  0  0
  -22.7392  -31.3029   21.3742 H   0  0  0  0  0  0
  -23.3757  -35.9627   23.3273 H   0  0  0  0  0  0
  -24.3626  -36.8940   22.2106 H   0  0  0  0  0  0
  -23.7273  -37.6423   23.6769 H   0  0  0  0  0  0
  -26.1589  -31.4951   20.6017 H   0  0  0  0  0  0
  -26.8576  -30.7756   22.0123 H   0  0  0  0  0  0
  -28.1394  -28.8981   21.1749 H   0  0  0  0  0  0
  -25.8842  -25.8811   19.0257 H   0  0  0  0  0  0
  -23.9608  -27.2729   19.0456 H   0  0  0  0  0  0
  -23.7398  -30.5528   19.3829 H   0  0  0  0  0  0
  -22.7617  -29.2166   19.8680 H   0  0  0  0  0  0
  -25.1323  -36.1773   25.0788 H   0  0  0  0  0  0
  -21.0184  -28.3340   24.1318 H   0  0  0  0  0  0
  -20.5821  -26.2302   23.3618 H   0  0  0  0  0  0
  -21.6647  -26.7450   22.1074 H   0  0  0  0  0  0
  -19.6865  -25.6301   21.1262 H   0  0  0  0  0  0
  -19.6654  -27.3262   20.6854 H   0  0  0  0  0  0
  -17.4178  -26.6851   21.4077 H   0  0  0  0  0  0
  -18.0287  -26.0127   22.9080 H   0  0  0  0  0  0
  -19.7984  -30.7478   24.2039 H   0  0  0  0  0  0
  -17.5023  -31.6259   24.5274 H   0  0  0  0  0  0
  -15.5388  -30.2952   23.7757 H   0  0  0  0  0  0
  -15.8761  -28.0933   22.6896 H   0  0  0  0  0  0
  -24.5668  -30.7256   25.7589 H   0  0  0  0  0  0
  -24.8889  -32.2984   26.4935 H   0  0  0  0  0  0
  -25.7853  -30.8736   27.0107 H   0  0  0  0  0  0
  -26.2934  -29.6729   24.1353 H   0  0  0  0  0  0
  -27.4056  -29.7397   25.4818 H   0  0  0  0  0  0
  -27.8780  -30.4284   23.9466 H   0  0  0  0  0  0
  -27.2315  -33.3874   26.1861 H   0  0  0  0  0  0
  -28.3678  -32.7190   25.0261 H   0  0  0  0  0  0
  -28.0568  -31.8863   26.5482 H   0  0  0  0  0  0
  -28.2517  -38.0124   24.7583 H   0  0  0  0  0  0
  -28.1131  -36.2646   24.6220 H   0  0  0  0  0  0
  -27.2305  -37.1251   25.8881 H   0  0  0  0  0  0
  -20.9422  -29.8757   21.6752 H   0  0  0  0  0  0
  -26.0100  -38.2769   24.1523 H   0  0  0  0  0  0
  -26.9576  -18.0945   18.2486 H   0  0  0  0  0  0
  -28.0272  -16.1854   19.3070 H   0  0  0  0  0  0
  -27.6515  -20.3811   18.7625 H   0  0  0  0  0  0
  -30.7080  -18.8841   21.4313 H   0  0  0  0  0  0
  -31.1736  -24.1545   20.0548 H   0  0  0  0  0  0
  -27.5080  -21.9495   20.5828 H   0  0  0  0  0  0
  -27.4168  -24.7565   21.2147 H   0  0  0  0  0  0
  -27.3282  -24.5547   19.4926 H   0  0  0  0  0  0
  -29.6235  -16.9125   22.8422 H   0  0  0  0  0  0
  -32.5625  -22.0529   20.0155 H   0  0  0  0  0  0
  1 25  1  0  0  0
  1 30  2  0  0  0
  1 81  1  0  0  0
  2  3  1  0  0  0
  2 25  1  0  0  0
  2 86  1  0  0  0
  2 87  1  0  0  0
  3  4  1  0  0  0
  3 88  1  0  0  0
  3 89  1  0  0  0
  4  5  1  0  0  0
  4 90  1  0  0  0
  4 91  1  0  0  0
  5  6  1  0  0  0
  5 26  1  0  0  0
  5 92  1  0  0  0
  6 25  1  0  0  0
  6 93  1  0  0  0
  6 94  1  0  0  0
  7  8  2  0  0  0
  7 26  1  0  0  0
  7 29  1  0  0  0
  8  9  1  0  0  0
  8 22  1  0  0  0
  9 10  1  0  0  0
  9 27  2  0  0  0
 10 11  2  0  0  0
 10 15  1  0  0  0
 11 12  1  0  0  0
 11 95  1  0  0  0
 12 13  2  0  0  0
 12 96  1  0  0  0
 13 14  1  0  0  0
 13 31  1  0  0  0
 14 15  2  0  0  0
 14 97  1  0  0  0
 15 98  1  0  0  0
 16 17  2  0  0  0
 16 21  1  0  0  0
 16 31  1  0  0  0
 17 18  1  0  0  0
 17 99  1  0  0  0
 18 19  2  0  0  0
 18100  1  0  0  0
 19 20  1  0  0  0
 19 24  1  0  0  0
 20 21  2  0  0  0
 20101  1  0  0  0
 21 23  1  0  0  0
 22 28  1  0  0  0
 22 32  2  0  0  0
 26 27  1  0  0  0
 28102  1  0  0  0
 28103  1  0  0  0
 29104  1  0  0  0
 29105  1  0  0  0
 33 34  1  0  0  0
 33 66  1  0  0  0
 33 70  2  0  0  0
 34 36  1  0  0  0
 34 59  1  0  0  0
 34106  1  0  0  0
 35 44  2  0  0  0
 35 45  1  0  0  0
 35 68  1  0  0  0
 36 56  1  0  0  0
 36107  1  0  0  0
 37 39  1  0  0  0
 37 47  1  0  0  0
 37 66  1  0  0  0
 37108  1  0  0  0
 38 43  2  0  0  0
 38 46  1  0  0  0
 38 47  1  0  0  0
 39 64  1  0  0  0
 39 67  2  0  0  0
 40 52  1  0  0  0
 40 53  2  0  0  0
 40 58  1  0  0  0
 41109  1  0  0  0
 41110  1  0  0  0
 41111  1  0  0  0
 41 48  1  0  0  0
 42 43  1  0  0  0
 42 66  1  0  0  0
 42112  1  0  0  0
 42113  1  0  0  0
 43 44  1  0  0  0
 44114  1  0  0  0
 45 46  2  0  0  0
 45115  1  0  0  0
 46116  1  0  0  0
 47117  1  0  0  0
 47118  1  0  0  0
 48 56  1  0  0  0
 48 65  1  0  0  0
 48119  1  0  0  0
 49 50  1  0  0  0
 49 53  1  0  0  0
 49 64  1  0  0  0
 49120  1  0  0  0
 50 51  1  0  0  0
 50121  1  0  0  0
 50122  1  0  0  0
 51 52  1  0  0  0
 51123  1  0  0  0
 51124  1  0  0  0
 52125  1  0  0  0
 52126  1  0  0  0
 53 54  1  0  0  0
 54 55  2  0  0  0
 54127  1  0  0  0
 55 57  1  0  0  0
 55128  1  0  0  0
 56 69  2  0  0  0
 57 58  2  0  0  0
 57129  1  0  0  0
 58130  1  0  0  0
 59 60  1  0  0  0
 59 61  1  0  0  0
 59 62  1  0  0  0
 60131  1  0  0  0
 60132  1  0  0  0
 60133  1  0  0  0
 61134  1  0  0  0
 61135  1  0  0  0
 61136  1  0  0  0
 62137  1  0  0  0
 62138  1  0  0  0
 62139  1  0  0  0
 63 65  1  0  0  0
 63140  1  0  0  0
 63141  1  0  0  0
 63142  1  0  0  0
 64143  1  0  0  0
 65144  1  0  0  0
 68 82  1  0  0  0
 71 72  2  0  0  0
 71 73  1  0  0  0
 71145  1  0  0  0
 72 77  1  0  0  0
 72146  1  0  0  0
 73 79  2  0  0  0
 73147  1  0  0  0
 74 77  2  0  0  0
 74 79  1  0  0  0
 74148  1  0  0  0
 75 78  1  0  0  0
 75 80  2  0  0  0
 75149  1  0  0  0
 76 78  2  0  0  0
 76 84  1  0  0  0
 76150  1  0  0  0
 77 81  1  0  0  0
 78 82  1  0  0  0
 79 84  1  0  0  0
 80 84  1  0  0  0
 80 85  1  0  0  0
 81 83  2  0  0  0
 82151  1  0  0  0
 82152  1  0  0  0
 83153  1  0  0  0
 85154  1  0  0  0
M  ISO  4   1 100  68 101  81 100  82 101
M  END
> <chiral flag>
0

> <version>
0

> <s_m_source_file>
/data/baiqing/PycharmProjects/Reinvent-master-3.2/result/LINK_invent/BTK/process_docking_weight1_custom_product_contain_oxygen_bond_distance_aromatic_linkinvent_7_9_3/rearranged_h_0086.sdf

> <i_m_source_file_index>
5

> <r_mmod_Potential_Energy-OPLS-2005>
378.392395019531

> <r_mmod_Stretch_Energy-OPLS-2005>
133.316146850586

> <r_mmod_Bend_Energy-OPLS-2005>
206.609848022461

> <r_mmod_Torsional_Energy-OPLS-2005>
249.021713256836

> <r_mmod_Improper_Torsional_Energy-OPLS-2005>
4.28473711013794

> <r_mmod_Van_der_Waal_Energy-OPLS-2005>
135.528198242188

> <r_mmod_Electrostatic_Energy-OPLS-2005>
-230.894989013672

> <r_mmod_Solvation_Energy-OPLS-2005>
-220.240997314453

> <b_mmod_Minimization_Converged-OPLS-2005>
0

> <r_mmod_RMS_Derivative-OPLS-2005>
9.61849308013916

$$$$
5
                    3D
 Structure written by MMmdl.
155163  0  0  1  0            999 V2000
  -30.3764  -15.4436   20.3518 C   0  0  0  0  0  0
  -30.4336  -12.9424   19.5202 C   0  0  0  0  0  0
  -29.5377  -12.5990   18.2994 C   0  0  0  0  0  0
  -28.0998  -12.2838   18.7442 C   0  0  0  0  0  0
  -27.6008  -13.2837   19.8131 C   0  0  2  0  0  0
  -28.6308  -13.5470   20.9341 C   0  0  0  0  0  0
  -25.2331  -13.8247   20.5759 C   0  0  0  0  0  0
  -24.1711  -13.0425   20.9317 C   0  0  0  0  0  0
  -24.6385  -11.6933   20.8813 C   0  0  0  0  0  0
  -23.9093  -10.4294   21.0433 C   0  0  0  0  0  0
  -24.3642   -9.4205   21.9197 C   0  0  0  0  0  0
  -23.6300   -8.2240   22.0766 C   0  0  0  0  0  0
  -22.4277   -8.0288   21.3562 C   0  0  0  0  0  0
  -21.9927   -9.0260   20.4658 C   0  0  0  0  0  0
  -22.7272  -10.2129   20.3071 C   0  0  0  0  0  0
  -21.6858   -6.0722   22.5276 C   0  0  0  0  0  0
  -21.4012   -6.5630   23.8206 C   0  0  0  0  0  0
  -21.3664   -5.6793   24.9171 C   0  0  0  0  0  0
  -21.6052   -4.3051   24.7230 C   0  0  0  0  0  0
  -21.8823   -3.8141   23.4354 C   0  0  0  0  0  0
  -21.9193   -4.6949   22.3407 C   0  0  0  0  0  0
  -22.7731  -13.5175   21.1948 C   0  0  0  0  0  0
  -22.1660   -4.2134   21.0985 F   0  0  0  0  0  0
  -21.5632   -3.4546   25.7747 F   0  0  0  0  0  0
  -29.8296  -14.1103   20.2828 N   0  0  0  0  0  0
  -26.2768  -12.9540   20.3221 N   0  0  0  0  0  0
  -25.9329  -11.6642   20.5758 N   0  0  0  0  0  0
  -22.0395  -12.8140   22.0491 N   0  0  0  0  0  0
  -25.3880  -15.1979   20.4089 N   0  0  0  0  0  0
  -31.6119  -15.4241   20.2120 O   0  0  0  0  0  0
  -21.6648   -6.8876   21.4245 O   0  0  0  0  0  0
  -22.3425  -14.5475   20.6776 O   0  0  0  0  0  0
  -24.6752  -31.8106   23.1655 C   0  0  0  0  0  0
  -25.9384  -32.4526   23.8152 C   0  0  1  0  0  0
  -27.2153  -26.8061   20.1895 C   0  0  0  0  0  0
  -25.5995  -33.8354   24.2017 N   0  0  0  0  0  0
  -23.4968  -30.4196   21.5178 C   0  0  2  0  0  0
  -24.9518  -28.7894   20.1142 C   0  0  0  0  0  0
  -22.7725  -29.4380   22.4767 C   0  0  0  0  0  0
  -18.0322  -28.1399   22.8465 C   0  0  0  0  0  0
  -24.1506  -36.7181   23.2640 C   0  0  0  0  0  0
  -26.0746  -30.5729   21.4198 C   0  0  0  0  0  0
  -26.1369  -29.1502   20.7662 C   0  0  0  0  0  0
  -27.2566  -28.1794   20.7853 C   0  0  0  0  0  0
  -26.0112  -26.6497   19.4592 C   0  0  0  0  0  0
  -24.9207  -27.5605   19.4374 C   0  0  0  0  0  0
  -23.7450  -29.7325   20.1468 C   0  0  0  0  0  0
  -25.4143  -36.2929   24.0283 C   0  0  1  0  0  0
  -20.5962  -28.3765   23.1162 C   0  0  2  0  0  0
  -20.6799  -26.9432   22.5400 C   0  0  0  0  0  0
  -19.5775  -26.6368   21.5210 C   0  0  0  0  0  0
  -18.1961  -26.7934   22.1626 C   0  0  0  0  0  0
  -19.1590  -28.8897   23.2801 C   0  0  0  0  0  0
  -18.9499  -30.1486   23.8836 C   0  0  0  0  0  0
  -17.6485  -30.6586   24.0548 C   0  0  0  0  0  0
  -25.9121  -34.9321   23.4974 C   0  0  0  0  0  0
  -16.5371  -29.9075   23.6341 C   0  0  0  0  0  0
  -16.7294  -28.6497   23.0353 C   0  0  0  0  0  0
  -26.4593  -31.6520   25.0736 C   0  0  0  0  0  0
  -25.3680  -31.3795   26.1353 C   0  0  0  0  0  0
  -27.0523  -30.2875   24.6569 C   0  0  0  0  0  0
  -27.6054  -32.4354   25.7553 C   0  0  0  0  0  0
  -27.5579  -37.1731   24.8458 C   0  0  0  0  0  0
  -21.4385  -29.3040   22.3522 N   0  0  0  0  0  0
  -26.4272  -37.3681   23.9428 N   0  0  0  0  0  0
  -24.7719  -30.9653   22.0865 N   0  0  0  0  0  0
  -23.4204  -28.7936   23.3051 O   0  0  0  0  0  0
  -28.1654  -25.6090   20.2513 O   0  0  0  0  0  0
  -26.5765  -34.8875   22.4589 O   0  0  0  0  0  0
  -23.5794  -32.1110   23.6686 O   0  0  0  0  0  0
  -35.7414  -20.2429   22.7569 C   0  0  0  0  0  0
  -31.5477  -18.9170   22.1253 C   0  0  0  0  0  0
  -32.1658  -18.9039   19.7651 C   0  0  0  0  0  0
  -32.8592  -19.3004   22.4677 C   0  0  0  0  0  0
  -33.4771  -19.2876   20.1122 C   0  0  0  0  0  0
  -31.1964  -18.7250   20.7712 C   0  0  0  0  0  0
  -33.8328  -19.4960   21.4612 C   0  0  0  0  0  0
  -36.2847  -20.6219   23.8899 C   0  0  0  0  0  0
  -28.1353  -22.6066   20.1699 C   0  0  0  0  0  0
  -27.7853  -24.0897   20.1384 C   0  0  0  0  0  0
  -29.8110  -18.4202   20.4182 C   0  0  0  0  0  0
  -29.2226  -21.3777   20.3640 C   0  0  0  0  0  0
  -35.1330  -19.9039   21.7565 N   0  0  0  0  0  0
  -28.9845  -19.7058   20.2711 N   0  0  0  0  0  0
  -29.5450  -16.9125   20.3410 N   0  3  0  0  0  0
  -30.3876  -21.6887   20.6207 O   0  0  0  0  0  0
  -31.4371  -13.1834   19.1666 H   0  0  0  0  0  0
  -30.5557  -12.0713   20.1668 H   0  0  0  0  0  0
  -29.9521  -11.7556   17.7449 H   0  0  0  0  0  0
  -29.5259  -13.4452   17.6104 H   0  0  0  0  0  0
  -28.0977  -11.2780   19.1662 H   0  0  0  0  0  0
  -27.4252  -12.2612   17.8888 H   0  0  0  0  0  0
  -27.4864  -14.2220   19.2702 H   0  0  0  0  0  0
  -28.8544  -12.6449   21.5046 H   0  0  0  0  0  0
  -28.2369  -14.2725   21.6473 H   0  0  0  0  0  0
  -25.2783   -9.5670   22.4771 H   0  0  0  0  0  0
  -24.0001   -7.4628   22.7485 H   0  0  0  0  0  0
  -21.0855   -8.8792   19.8957 H   0  0  0  0  0  0
  -22.3742  -10.9665   19.6178 H   0  0  0  0  0  0
  -21.2001   -7.6137   23.9695 H   0  0  0  0  0  0
  -21.1485   -6.0529   25.9071 H   0  0  0  0  0  0
  -22.0600   -2.7598   23.2869 H   0  0  0  0  0  0
  -22.4019  -11.9804   22.4874 H   0  0  0  0  0  0
  -21.1008  -13.1142   22.2704 H   0  0  0  0  0  0
  -24.5888  -15.8207   20.4754 H   0  0  0  0  0  0
  -26.1641  -15.6112   19.9121 H   0  0  0  0  0  0
  -26.7475  -32.5030   23.0880 H   0  0  0  0  0  0
  -25.0046  -33.9432   25.0104 H   0  0  0  0  0  0
  -22.8177  -31.2556   21.3435 H   0  0  0  0  0  0
  -23.3786  -35.9495   23.3264 H   0  0  0  0  0  0
  -24.3575  -36.8868   22.2062 H   0  0  0  0  0  0
  -23.7262  -37.6352   23.6731 H   0  0  0  0  0  0
  -26.2765  -31.3040   20.6353 H   0  0  0  0  0  0
  -26.9280  -30.6314   22.0837 H   0  0  0  0  0  0
  -28.1473  -28.4483   21.3351 H   0  0  0  0  0  0
  -25.8651  -25.7344   18.9092 H   0  0  0  0  0  0
  -24.0299  -27.2805   18.8916 H   0  0  0  0  0  0
  -23.9152  -30.5016   19.3931 H   0  0  0  0  0  0
  -22.8525  -29.1978   19.8206 H   0  0  0  0  0  0
  -25.1355  -36.1690   25.0772 H   0  0  0  0  0  0
  -21.0040  -28.3365   24.1283 H   0  0  0  0  0  0
  -20.5676  -26.2367   23.3644 H   0  0  0  0  0  0
  -21.6663  -26.7382   22.1215 H   0  0  0  0  0  0
  -19.6942  -25.6268   21.1266 H   0  0  0  0  0  0
  -19.6720  -27.3153   20.6729 H   0  0  0  0  0  0
  -17.4225  -26.6639   21.4039 H   0  0  0  0  0  0
  -18.0375  -26.0091   22.9045 H   0  0  0  0  0  0
  -19.7971  -30.7337   24.2160 H   0  0  0  0  0  0
  -17.5032  -31.6263   24.5174 H   0  0  0  0  0  0
  -15.5373  -30.2959   23.7713 H   0  0  0  0  0  0
  -15.8692  -28.0808   22.7089 H   0  0  0  0  0  0
  -24.5907  -30.7093   25.7666 H   0  0  0  0  0  0
  -24.8808  -32.2988   26.4608 H   0  0  0  0  0  0
  -25.7856  -30.9084   27.0256 H   0  0  0  0  0  0
  -26.3228  -29.6519   24.1532 H   0  0  0  0  0  0
  -27.3972  -29.7273   25.5277 H   0  0  0  0  0  0
  -27.9207  -30.4048   24.0081 H   0  0  0  0  0  0
  -27.2582  -33.3672   26.2026 H   0  0  0  0  0  0
  -28.3915  -32.6872   25.0427 H   0  0  0  0  0  0
  -28.0689  -31.8564   26.5553 H   0  0  0  0  0  0
  -28.2519  -38.0101   24.7586 H   0  0  0  0  0  0
  -28.1147  -36.2632   24.6173 H   0  0  0  0  0  0
  -27.2312  -37.1245   25.8857 H   0  0  0  0  0  0
  -20.9661  -29.8666   21.6594 H   0  0  0  0  0  0
  -26.0103  -38.2723   24.1461 H   0  0  0  0  0  0
  -30.8091  -18.7963   22.9062 H   0  0  0  0  0  0
  -31.9019  -18.7748   18.7250 H   0  0  0  0  0  0
  -33.1026  -19.4560   23.5097 H   0  0  0  0  0  0
  -34.2098  -19.4410   19.3337 H   0  0  0  0  0  0
  -36.7487  -19.9121   24.5602 H   0  0  0  0  0  0
  -36.2950  -21.6598   24.1891 H   0  0  0  0  0  0
  -27.2067  -22.0934   19.9620 H   0  0  0  0  0  0
  -26.7296  -24.1292   19.9313 H   0  0  0  0  0  0
  -28.0432  -19.4253   20.0513 H   0  0  0  0  0  0
  -28.5466  -16.8174   20.2987 H   0  0  0  0  0  0
  1 25  1  0  0  0
  1 30  2  0  0  0
  1 85  1  0  0  0
  2  3  1  0  0  0
  2 25  1  0  0  0
  2 87  1  0  0  0
  2 88  1  0  0  0
  3  4  1  0  0  0
  3 89  1  0  0  0
  3 90  1  0  0  0
  4  5  1  0  0  0
  4 91  1  0  0  0
  4 92  1  0  0  0
  5  6  1  0  0  0
  5 26  1  0  0  0
  5 93  1  0  0  0
  6 25  1  0  0  0
  6 94  1  0  0  0
  6 95  1  0  0  0
  7  8  2  0  0  0
  7 26  1  0  0  0
  7 29  1  0  0  0
  8  9  1  0  0  0
  8 22  1  0  0  0
  9 10  1  0  0  0
  9 27  2  0  0  0
 10 11  2  0  0  0
 10 15  1  0  0  0
 11 12  1  0  0  0
 11 96  1  0  0  0
 12 13  2  0  0  0
 12 97  1  0  0  0
 13 14  1  0  0  0
 13 31  1  0  0  0
 14 15  2  0  0  0
 14 98  1  0  0  0
 15 99  1  0  0  0
 16 17  2  0  0  0
 16 21  1  0  0  0
 16 31  1  0  0  0
 17 18  1  0  0  0
 17100  1  0  0  0
 18 19  2  0  0  0
 18101  1  0  0  0
 19 20  1  0  0  0
 19 24  1  0  0  0
 20 21  2  0  0  0
 20102  1  0  0  0
 21 23  1  0  0  0
 22 28  1  0  0  0
 22 32  2  0  0  0
 26 27  1  0  0  0
 28103  1  0  0  0
 28104  1  0  0  0
 29105  1  0  0  0
 29106  1  0  0  0
 33 34  1  0  0  0
 33 66  1  0  0  0
 33 70  2  0  0  0
 34 36  1  0  0  0
 34 59  1  0  0  0
 34107  1  0  0  0
 35 44  2  0  0  0
 35 45  1  0  0  0
 35 68  1  0  0  0
 36 56  1  0  0  0
 36108  1  0  0  0
 37 39  1  0  0  0
 37 47  1  0  0  0
 37 66  1  0  0  0
 37109  1  0  0  0
 38 43  2  0  0  0
 38 46  1  0  0  0
 38 47  1  0  0  0
 39 64  1  0  0  0
 39 67  2  0  0  0
 40 52  1  0  0  0
 40 53  2  0  0  0
 40 58  1  0  0  0
 41110  1  0  0  0
 41111  1  0  0  0
 41112  1  0  0  0
 41 48  1  0  0  0
 42 43  1  0  0  0
 42 66  1  0  0  0
 42113  1  0  0  0
 42114  1  0  0  0
 43 44  1  0  0  0
 44115  1  0  0  0
 45 46  2  0  0  0
 45116  1  0  0  0
 46117  1  0  0  0
 47118  1  0  0  0
 47119  1  0  0  0
 48 56  1  0  0  0
 48 65  1  0  0  0
 48120  1  0  0  0
 49 50  1  0  0  0
 49 53  1  0  0  0
 49 64  1  0  0  0
 49121  1  0  0  0
 50 51  1  0  0  0
 50122  1  0  0  0
 50123  1  0  0  0
 51 52  1  0  0  0
 51124  1  0  0  0
 51125  1  0  0  0
 52126  1  0  0  0
 52127  1  0  0  0
 53 54  1  0  0  0
 54 55  2  0  0  0
 54128  1  0  0  0
 55 57  1  0  0  0
 55129  1  0  0  0
 56 69  2  0  0  0
 57 58  2  0  0  0
 57130  1  0  0  0
 58131  1  0  0  0
 59 60  1  0  0  0
 59 61  1  0  0  0
 59 62  1  0  0  0
 60132  1  0  0  0
 60133  1  0  0  0
 60134  1  0  0  0
 61135  1  0  0  0
 61136  1  0  0  0
 61137  1  0  0  0
 62138  1  0  0  0
 62139  1  0  0  0
 62140  1  0  0  0
 63 65  1  0  0  0
 63141  1  0  0  0
 63142  1  0  0  0
 63143  1  0  0  0
 64144  1  0  0  0
 65145  1  0  0  0
 68 80  1  0  0  0
 71 78  2  0  0  0
 71 83  2  0  0  0
 72 74  2  0  0  0
 72 76  1  0  0  0
 72146  1  0  0  0
 73 75  1  0  0  0
 73 76  2  0  0  0
 73147  1  0  0  0
 74 77  1  0  0  0
 74148  1  0  0  0
 75 77  2  0  0  0
 75149  1  0  0  0
 76 81  1  0  0  0
 77 83  1  0  0  0
 78150  1  0  0  0
 78151  1  0  0  0
 79 80  2  0  0  0
 79 82  1  0  0  0
 79152  1  0  0  0
 80153  1  0  0  0
 81 84  1  0  0  0
 81 85  2  0  0  0
 82 84  1  0  0  0
 82 86  2  0  0  0
 84154  1  0  0  0
 85155  1  0  0  0
M  CHG  1  85   1
M  ISO  4   1 100  68 101  80 101  85 100
M  END
> <chiral flag>
0

> <version>
0

> <s_m_source_file>
/data/baiqing/PycharmProjects/Reinvent-master-3.2/result/LINK_invent/BTK/process_docking_weight1_custom_product_contain_oxygen_bond_distance_aromatic_linkinvent_7_9_3/rearranged_h_0086.sdf

> <i_m_source_file_index>
6

> <r_mmod_Potential_Energy-OPLS-2005>
1435.00231933594

> <r_mmod_Stretch_Energy-OPLS-2005>
748.887573242188

> <r_mmod_Bend_Energy-OPLS-2005>
608.620544433594

> <r_mmod_Torsional_Energy-OPLS-2005>
187.617980957031

> <r_mmod_Improper_Torsional_Energy-OPLS-2005>
6.30149984359741

> <r_mmod_Van_der_Waal_Energy-OPLS-2005>
126.389129638672

> <r_mmod_Electrostatic_Energy-OPLS-2005>
-427.18701171875

> <r_mmod_Solvation_Energy-OPLS-2005>
-488.537170410156

> <b_mmod_Minimization_Converged-OPLS-2005>
0

> <r_mmod_RMS_Derivative-OPLS-2005>
3.64248013496399

$$$$
6
                    3D
 Structure written by MMmdl.
153161  0  0  1  0            999 V2000
  -30.7431  -14.4493   20.5316 C   0  0  0  0  0  0
  -30.4045  -12.2808   19.4366 C   0  0  0  0  0  0
  -29.4943  -12.5013   18.2109 C   0  0  0  0  0  0
  -28.0118  -12.3807   18.6134 C   0  0  0  0  0  0
  -27.6599  -13.2197   19.8725 C   0  0  2  0  0  0
  -28.7005  -13.0199   20.9972 C   0  0  0  0  0  0
  -25.2574  -13.8203   20.5700 C   0  0  0  0  0  0
  -24.1835  -13.0460   20.9184 C   0  0  0  0  0  0
  -24.6407  -11.6929   20.8735 C   0  0  0  0  0  0
  -23.9079  -10.4306   21.0392 C   0  0  0  0  0  0
  -24.3629   -9.4219   21.9170 C   0  0  0  0  0  0
  -23.6302   -8.2255   22.0750 C   0  0  0  0  0  0
  -22.4284   -8.0287   21.3539 C   0  0  0  0  0  0
  -21.9914   -9.0266   20.4648 C   0  0  0  0  0  0
  -22.7244  -10.2145   20.3053 C   0  0  0  0  0  0
  -21.6862   -6.0740   22.5278 C   0  0  0  0  0  0
  -21.4015   -6.5642   23.8212 C   0  0  0  0  0  0
  -21.3659   -5.6790   24.9170 C   0  0  0  0  0  0
  -21.6052   -4.3052   24.7221 C   0  0  0  0  0  0
  -21.8819   -3.8151   23.4340 C   0  0  0  0  0  0
  -21.9190   -4.6968   22.3397 C   0  0  0  0  0  0
  -22.7849  -13.5249   21.1833 C   0  0  0  0  0  0
  -22.1657   -4.2152   21.0972 F   0  0  0  0  0  0
  -21.5632   -3.4535   25.7737 F   0  0  0  0  0  0
  -30.0361  -13.2887   20.4459 N   0  0  0  0  0  0
  -26.3024  -12.9398   20.3371 N   0  0  0  0  0  0
  -25.9339  -11.6542   20.5777 N   0  0  0  0  0  0
  -22.0478  -12.8261   22.0393 N   0  0  0  0  0  0
  -25.4307  -15.1922   20.4118 N   0  0  0  0  0  0
  -31.8878  -14.5406   20.0809 O   0  0  0  0  0  0
  -21.6646   -6.8883   21.4243 O   0  0  0  0  0  0
  -22.3529  -14.5539   20.6650 O   0  0  0  0  0  0
  -24.6117  -31.8685   23.2111 C   0  0  0  0  0  0
  -25.9018  -32.4826   23.8402 C   0  0  1  0  0  0
  -27.2327  -27.4520   20.1038 C   0  0  0  0  0  0
  -25.5881  -33.8626   24.2333 N   0  0  0  0  0  0
  -23.4008  -30.4904   21.5496 C   0  0  2  0  0  0
  -24.8515  -28.9617   20.1099 C   0  0  0  0  0  0
  -22.7398  -29.4650   22.4982 C   0  0  0  0  0  0
  -18.0269  -28.1366   22.8485 C   0  0  0  0  0  0
  -24.1488  -36.7323   23.2639 C   0  0  0  0  0  0
  -25.9280  -30.8401   21.3640 C   0  0  0  0  0  0
  -26.0084  -29.4776   20.7089 C   0  0  0  0  0  0
  -27.2060  -28.7289   20.7047 C   0  0  0  0  0  0
  -26.0680  -26.9483   19.4907 C   0  0  0  0  0  0
  -24.8754  -27.6965   19.4956 C   0  0  0  0  0  0
  -23.6099  -29.8223   20.1635 C   0  0  0  0  0  0
  -25.4111  -36.3120   24.0337 C   0  0  1  0  0  0
  -20.5857  -28.3651   23.1318 C   0  0  2  0  0  0
  -20.6764  -26.9387   22.5422 C   0  0  0  0  0  0
  -19.5757  -26.6376   21.5208 C   0  0  0  0  0  0
  -18.1925  -26.7921   22.1599 C   0  0  0  0  0  0
  -19.1517  -28.8827   23.2897 C   0  0  0  0  0  0
  -18.9442  -30.1435   23.8902 C   0  0  0  0  0  0
  -17.6444  -30.6574   24.0553 C   0  0  0  0  0  0
  -25.9026  -34.9476   23.5132 C   0  0  0  0  0  0
  -16.5336  -29.9071   23.6322 C   0  0  0  0  0  0
  -16.7257  -28.6489   23.0349 C   0  0  0  0  0  0
  -26.4466  -31.6603   25.0721 C   0  0  0  0  0  0
  -25.3743  -31.3704   26.1477 C   0  0  0  0  0  0
  -27.0289  -30.3042   24.6094 C   0  0  0  0  0  0
  -27.6051  -32.4318   25.7467 C   0  0  0  0  0  0
  -27.5589  -37.1810   24.8453 C   0  0  0  0  0  0
  -21.4126  -29.3019   22.3723 N   0  0  0  0  0  0
  -26.4301  -37.3801   23.9399 N   0  0  0  0  0  0
  -24.6647  -31.0796   22.1002 N   0  0  0  0  0  0
  -23.4175  -28.8197   23.3027 O   0  0  0  0  0  0
  -28.3551  -26.6639   20.1550 O   0  0  0  0  0  0
  -26.5594  -34.8925   22.4696 O   0  0  0  0  0  0
  -23.5314  -32.1423   23.7510 O   0  0  0  0  0  0
  -29.3771  -18.5996   21.8415 C   0  0  0  0  0  0
  -29.1595  -19.9736   22.0941 C   0  0  0  0  0  0
  -29.7462  -20.4965   19.7953 C   0  0  0  0  0  0
  -29.8336  -18.1695   20.5768 C   0  0  0  0  0  0
  -29.3666  -20.9409   21.0838 C   0  0  0  0  0  0
  -29.9770  -19.1301   19.5478 C   0  0  0  0  0  0
  -30.2399  -16.7770   20.2982 C   0  0  0  0  0  0
  -30.0531  -15.6429   21.0163 C   0  0  0  0  0  0
  -29.2300  -23.4222   20.6584 C   0  0  0  0  0  0
  -29.4788  -24.7736   21.3492 C   0  0  0  0  0  0
  -28.3058  -25.7739   21.2794 C   0  0  0  0  0  0
  -29.2824  -22.3231   21.4418 N   0  0  0  0  0  0
  -28.9883  -23.3936   19.4499 O   0  0  0  0  0  0
  -30.3867  -18.7515   18.3119 F   0  0  0  0  0  0
  -31.4533  -12.3335   19.1388 H   0  0  0  0  0  0
  -30.2678  -11.2771   19.8415 H   0  0  0  0  0  0
  -29.7287  -11.7769   17.4303 H   0  0  0  0  0  0
  -29.6828  -13.4864   17.7805 H   0  0  0  0  0  0
  -27.8058  -11.3265   18.7978 H   0  0  0  0  0  0
  -27.3722  -12.6727   17.7800 H   0  0  0  0  0  0
  -27.7005  -14.2683   19.5761 H   0  0  0  0  0  0
  -28.6624  -11.9949   21.3690 H   0  0  0  0  0  0
  -28.4722  -13.6499   21.8559 H   0  0  0  0  0  0
  -25.2777   -9.5693   22.4740 H   0  0  0  0  0  0
  -24.0015   -7.4647   22.7464 H   0  0  0  0  0  0
  -21.0846   -8.8786   19.8955 H   0  0  0  0  0  0
  -22.3698  -10.9683   19.6164 H   0  0  0  0  0  0
  -21.2002   -7.6151   23.9724 H   0  0  0  0  0  0
  -21.1483   -6.0513   25.9075 H   0  0  0  0  0  0
  -22.0596   -2.7615   23.2847 H   0  0  0  0  0  0
  -22.4087  -11.9960   22.4856 H   0  0  0  0  0  0
  -21.1079  -13.1286   22.2537 H   0  0  0  0  0  0
  -24.6742  -15.8567   20.5336 H   0  0  0  0  0  0
  -26.2996  -15.6277   20.1275 H   0  0  0  0  0  0
  -26.7087  -32.5546   23.1167 H   0  0  0  0  0  0
  -25.0031  -33.9802   25.0478 H   0  0  0  0  0  0
  -22.6889  -31.3065   21.4098 H   0  0  0  0  0  0
  -23.3749  -35.9655   23.3307 H   0  0  0  0  0  0
  -24.3580  -36.8935   22.2050 H   0  0  0  0  0  0
  -23.7238  -37.6529   23.6653 H   0  0  0  0  0  0
  -26.0413  -31.6104   20.5999 H   0  0  0  0  0  0
  -26.8142  -30.8903   21.9845 H   0  0  0  0  0  0
  -28.0970  -29.1147   21.1812 H   0  0  0  0  0  0
  -26.0830  -25.9694   19.0316 H   0  0  0  0  0  0
  -23.9864  -27.2929   19.0314 H   0  0  0  0  0  0
  -23.7110  -30.5960   19.4014 H   0  0  0  0  0  0
  -22.7373  -29.2351   19.8708 H   0  0  0  0  0  0
  -25.1291  -36.1994   25.0833 H   0  0  0  0  0  0
  -20.9951  -28.3221   24.1438 H   0  0  0  0  0  0
  -20.5664  -26.2256   23.3608 H   0  0  0  0  0  0
  -21.6639  -26.7438   22.1219 H   0  0  0  0  0  0
  -19.6920  -25.6291   21.1231 H   0  0  0  0  0  0
  -19.6716  -27.3193   20.6746 H   0  0  0  0  0  0
  -17.4214  -26.6696   21.3976 H   0  0  0  0  0  0
  -18.0294  -26.0044   22.8970 H   0  0  0  0  0  0
  -19.7915  -30.7254   24.2275 H   0  0  0  0  0  0
  -17.4995  -31.6263   24.5135 H   0  0  0  0  0  0
  -15.5336  -30.2974   23.7645 H   0  0  0  0  0  0
  -15.8658  -28.0810   22.7062 H   0  0  0  0  0  0
  -24.5884  -30.7101   25.7797 H   0  0  0  0  0  0
  -24.8984  -32.2866   26.4979 H   0  0  0  0  0  0
  -25.8096  -30.8810   27.0198 H   0  0  0  0  0  0
  -26.2828  -29.6807   24.1153 H   0  0  0  0  0  0
  -27.4060  -29.7276   25.4551 H   0  0  0  0  0  0
  -27.8668  -30.4358   23.9243 H   0  0  0  0  0  0
  -27.2664  -33.3563   26.2154 H   0  0  0  0  0  0
  -28.3791  -32.6972   25.0253 H   0  0  0  0  0  0
  -28.0811  -31.8389   26.5287 H   0  0  0  0  0  0
  -28.2609  -38.0107   24.7506 H   0  0  0  0  0  0
  -28.1087  -36.2638   24.6271 H   0  0  0  0  0  0
  -27.2310  -37.1452   25.8859 H   0  0  0  0  0  0
  -20.9283  -29.8726   21.6936 H   0  0  0  0  0  0
  -26.0195  -38.2883   24.1408 H   0  0  0  0  0  0
  -29.2532  -17.8893   22.6457 H   0  0  0  0  0  0
  -28.8664  -20.2788   23.0893 H   0  0  0  0  0  0
  -29.9230  -21.1879   18.9863 H   0  0  0  0  0  0
  -30.8185  -16.6884   19.3873 H   0  0  0  0  0  0
  -29.4675  -15.6298   21.9222 H   0  0  0  0  0  0
  -30.3818  -25.2276   20.9411 H   0  0  0  0  0  0
  -29.6996  -24.5813   22.3999 H   0  0  0  0  0  0
  -28.3182  -26.3771   22.1894 H   0  0  0  0  0  0
  -27.3595  -25.2285   21.2980 H   0  0  0  0  0  0
  -29.3475  -22.5129   22.4333 H   0  0  0  0  0  0
  1 25  1  0  0  0
  1 30  2  0  0  0
  1 78  1  0  0  0
  2  3  1  0  0  0
  2 25  1  0  0  0
  2 85  1  0  0  0
  2 86  1  0  0  0
  3  4  1  0  0  0
  3 87  1  0  0  0
  3 88  1  0  0  0
  4  5  1  0  0  0
  4 89  1  0  0  0
  4 90  1  0  0  0
  5  6  1  0  0  0
  5 26  1  0  0  0
  5 91  1  0  0  0
  6 25  1  0  0  0
  6 92  1  0  0  0
  6 93  1  0  0  0
  7  8  2  0  0  0
  7 26  1  0  0  0
  7 29  1  0  0  0
  8  9  1  0  0  0
  8 22  1  0  0  0
  9 10  1  0  0  0
  9 27  2  0  0  0
 10 11  2  0  0  0
 10 15  1  0  0  0
 11 12  1  0  0  0
 11 94  1  0  0  0
 12 13  2  0  0  0
 12 95  1  0  0  0
 13 14  1  0  0  0
 13 31  1  0  0  0
 14 15  2  0  0  0
 14 96  1  0  0  0
 15 97  1  0  0  0
 16 17  2  0  0  0
 16 21  1  0  0  0
 16 31  1  0  0  0
 17 18  1  0  0  0
 17 98  1  0  0  0
 18 19  2  0  0  0
 18 99  1  0  0  0
 19 20  1  0  0  0
 19 24  1  0  0  0
 20 21  2  0  0  0
 20100  1  0  0  0
 21 23  1  0  0  0
 22 28  1  0  0  0
 22 32  2  0  0  0
 26 27  1  0  0  0
 28101  1  0  0  0
 28102  1  0  0  0
 29103  1  0  0  0
 29104  1  0  0  0
 33 34  1  0  0  0
 33 66  1  0  0  0
 33 70  2  0  0  0
 34 36  1  0  0  0
 34 59  1  0  0  0
 34105  1  0  0  0
 35 44  2  0  0  0
 35 45  1  0  0  0
 35 68  1  0  0  0
 36 56  1  0  0  0
 36106  1  0  0  0
 37 39  1  0  0  0
 37 47  1  0  0  0
 37 66  1  0  0  0
 37107  1  0  0  0
 38 43  2  0  0  0
 38 46  1  0  0  0
 38 47  1  0  0  0
 39 64  1  0  0  0
 39 67  2  0  0  0
 40 52  1  0  0  0
 40 53  2  0  0  0
 40 58  1  0  0  0
 41108  1  0  0  0
 41109  1  0  0  0
 41110  1  0  0  0
 41 48  1  0  0  0
 42 43  1  0  0  0
 42 66  1  0  0  0
 42111  1  0  0  0
 42112  1  0  0  0
 43 44  1  0  0  0
 44113  1  0  0  0
 45 46  2  0  0  0
 45114  1  0  0  0
 46115  1  0  0  0
 47116  1  0  0  0
 47117  1  0  0  0
 48 56  1  0  0  0
 48 65  1  0  0  0
 48118  1  0  0  0
 49 50  1  0  0  0
 49 53  1  0  0  0
 49 64  1  0  0  0
 49119  1  0  0  0
 50 51  1  0  0  0
 50120  1  0  0  0
 50121  1  0  0  0
 51 52  1  0  0  0
 51122  1  0  0  0
 51123  1  0  0  0
 52124  1  0  0  0
 52125  1  0  0  0
 53 54  1  0  0  0
 54 55  2  0  0  0
 54126  1  0  0  0
 55 57  1  0  0  0
 55127  1  0  0  0
 56 69  2  0  0  0
 57 58  2  0  0  0
 57128  1  0  0  0
 58129  1  0  0  0
 59 60  1  0  0  0
 59 61  1  0  0  0
 59 62  1  0  0  0
 60130  1  0  0  0
 60131  1  0  0  0
 60132  1  0  0  0
 61133  1  0  0  0
 61134  1  0  0  0
 61135  1  0  0  0
 62136  1  0  0  0
 62137  1  0  0  0
 62138  1  0  0  0
 63 65  1  0  0  0
 63139  1  0  0  0
 63140  1  0  0  0
 63141  1  0  0  0
 64142  1  0  0  0
 65143  1  0  0  0
 68 81  1  0  0  0
 71 72  2  0  0  0
 71 74  1  0  0  0
 71144  1  0  0  0
 72 75  1  0  0  0
 72145  1  0  0  0
 73 75  2  0  0  0
 73 76  1  0  0  0
 73146  1  0  0  0
 74 76  2  0  0  0
 74 77  1  0  0  0
 75 82  1  0  0  0
 76 84  1  0  0  0
 77 78  2  0  0  0
 77147  1  0  0  0
 78148  1  0  0  0
 79 80  1  0  0  0
 79 82  1  0  0  0
 79 83  2  0  0  0
 80 81  1  0  0  0
 80149  1  0  0  0
 80150  1  0  0  0
 81151  1  0  0  0
 81152  1  0  0  0
 82153  1  0  0  0
M  ISO  4   1 100  68 101  78 100  81 101
M  END
> <chiral flag>
0

> <version>
0

> <s_m_source_file>
/data/baiqing/PycharmProjects/Reinvent-master-3.2/result/LINK_invent/BTK/process_docking_weight1_custom_product_contain_oxygen_bond_distance_aromatic_linkinvent_7_9_3/rearranged_h_0086.sdf

> <i_m_source_file_index>
7

> <r_mmod_Potential_Energy-OPLS-2005>
-18.7628402709961

> <r_mmod_Stretch_Energy-OPLS-2005>
35.5861930847168

> <r_mmod_Bend_Energy-OPLS-2005>
104.939979553223

> <r_mmod_Torsional_Energy-OPLS-2005>
229.998306274414

> <r_mmod_Improper_Torsional_Energy-OPLS-2005>
4.77061653137207

> <r_mmod_Van_der_Waal_Energy-OPLS-2005>
158.182067871094

> <r_mmod_Electrostatic_Energy-OPLS-2005>
-345.037963867188

> <r_mmod_Solvation_Energy-OPLS-2005>
-223.381011962891

> <b_mmod_Minimization_Converged-OPLS-2005>
0

> <r_mmod_RMS_Derivative-OPLS-2005>
1.22012734413147

$$$$
7
                    3D
 Structure written by MMmdl.
156165  0  0  1  0            999 V2000
  -30.6927  -14.6025   20.5317 C   0  0  0  0  0  0
  -30.4222  -12.3809   19.4537 C   0  0  0  0  0  0
  -29.4994  -12.5022   18.2237 C   0  0  0  0  0  0
  -28.0265  -12.3395   18.6412 C   0  0  0  0  0  0
  -27.6502  -13.2232   19.8613 C   0  0  2  0  0  0
  -28.6948  -13.1011   20.9929 C   0  0  0  0  0  0
  -25.2538  -13.8193   20.5702 C   0  0  0  0  0  0
  -24.1806  -13.0446   20.9187 C   0  0  0  0  0  0
  -24.6383  -11.6917   20.8733 C   0  0  0  0  0  0
  -23.9055  -10.4298   21.0394 C   0  0  0  0  0  0
  -24.3611   -9.4218   21.9177 C   0  0  0  0  0  0
  -23.6289   -8.2252   22.0751 C   0  0  0  0  0  0
  -22.4266   -8.0284   21.3545 C   0  0  0  0  0  0
  -21.9894   -9.0256   20.4656 C   0  0  0  0  0  0
  -22.7218  -10.2141   20.3059 C   0  0  0  0  0  0
  -21.6867   -6.0728   22.5278 C   0  0  0  0  0  0
  -21.4024   -6.5628   23.8209 C   0  0  0  0  0  0
  -21.3666   -5.6783   24.9175 C   0  0  0  0  0  0
  -21.6044   -4.3049   24.7225 C   0  0  0  0  0  0
  -21.8822   -3.8139   23.4342 C   0  0  0  0  0  0
  -21.9197   -4.6952   22.3400 C   0  0  0  0  0  0
  -22.7827  -13.5233   21.1853 C   0  0  0  0  0  0
  -22.1664   -4.2135   21.0977 F   0  0  0  0  0  0
  -21.5628   -3.4537   25.7741 F   0  0  0  0  0  0
  -30.0144  -13.4162   20.4249 N   0  0  0  0  0  0
  -26.2975  -12.9388   20.3334 N   0  0  0  0  0  0
  -25.9319  -11.6535   20.5762 N   0  0  0  0  0  0
  -22.0465  -12.8236   22.0420 N   0  0  0  0  0  0
  -25.4245  -15.1914   20.4124 N   0  0  0  0  0  0
  -31.8240  -14.7334   20.0545 O   0  0  0  0  0  0
  -21.6646   -6.8868   21.4237 O   0  0  0  0  0  0
  -22.3500  -14.5539   20.6701 O   0  0  0  0  0  0
  -24.6245  -31.8610   23.2053 C   0  0  0  0  0  0
  -25.9103  -32.4788   23.8371 C   0  0  1  0  0  0
  -27.2217  -27.3432   20.1123 C   0  0  0  0  0  0
  -25.5945  -33.8586   24.2327 N   0  0  0  0  0  0
  -23.4171  -30.4846   21.5482 C   0  0  2  0  0  0
  -24.8668  -28.9500   20.1065 C   0  0  0  0  0  0
  -22.7460  -29.4605   22.4943 C   0  0  0  0  0  0
  -18.0285  -28.1371   22.8485 C   0  0  0  0  0  0
  -24.1501  -36.7301   23.2628 C   0  0  0  0  0  0
  -25.9564  -30.7987   21.3751 C   0  0  0  0  0  0
  -26.0338  -29.4292   20.7173 C   0  0  0  0  0  0
  -27.2174  -28.6342   20.7184 C   0  0  0  0  0  0
  -26.0399  -26.9198   19.4632 C   0  0  0  0  0  0
  -24.8693  -27.6990   19.4722 C   0  0  0  0  0  0
  -23.6309  -29.8242   20.1617 C   0  0  0  0  0  0
  -25.4117  -36.3090   24.0339 C   0  0  1  0  0  0
  -20.5880  -28.3658   23.1296 C   0  0  2  0  0  0
  -20.6778  -26.9385   22.5418 C   0  0  0  0  0  0
  -19.5756  -26.6381   21.5207 C   0  0  0  0  0  0
  -18.1928  -26.7918   22.1612 C   0  0  0  0  0  0
  -19.1533  -28.8830   23.2888 C   0  0  0  0  0  0
  -18.9458  -30.1432   23.8892 C   0  0  0  0  0  0
  -17.6458  -30.6566   24.0560 C   0  0  0  0  0  0
  -25.9047  -34.9456   23.5130 C   0  0  0  0  0  0
  -16.5346  -29.9062   23.6326 C   0  0  0  0  0  0
  -16.7271  -28.6482   23.0341 C   0  0  0  0  0  0
  -26.4503  -31.6564   25.0710 C   0  0  0  0  0  0
  -25.3763  -31.3780   26.1476 C   0  0  0  0  0  0
  -27.0253  -30.2945   24.6150 C   0  0  0  0  0  0
  -27.6118  -32.4248   25.7444 C   0  0  0  0  0  0
  -27.5604  -37.1802   24.8455 C   0  0  0  0  0  0
  -21.4175  -29.3009   22.3691 N   0  0  0  0  0  0
  -26.4306  -37.3773   23.9410 N   0  0  0  0  0  0
  -24.6846  -31.0632   22.1002 N   0  0  0  0  0  0
  -23.4185  -28.8143   23.3021 O   0  0  0  0  0  0
  -28.2953  -26.4463   20.1732 O   0  0  0  0  0  0
  -26.5594  -34.8911   22.4679 O   0  0  0  0  0  0
  -23.5417  -32.1413   23.7383 O   0  0  0  0  0  0
  -32.0464  -19.4897   19.6891 C   0  0  0  0  0  0
  -31.4315  -18.2507   19.9355 C   0  0  0  0  0  0
  -31.3244  -20.6933   19.8107 C   0  0  0  0  0  0
  -29.3736  -19.4489   20.4414 C   0  0  0  0  0  0
  -30.0768  -18.1969   20.3084 C   0  0  0  0  0  0
  -29.9619  -20.7450   20.1973 C   0  0  0  0  0  0
  -28.5933  -23.9429   20.4583 C   0  0  0  0  0  0
  -28.1683  -22.6235   20.8986 C   0  0  0  0  0  0
  -27.9620  -25.1522   20.6170 C   0  0  0  0  0  0
  -29.8612  -23.3386   19.8511 C   0  0  0  0  0  0
  -30.6249  -16.0530   22.4547 C   0  0  0  0  0  0
  -29.3864  -16.7973   20.4534 C   0  0  0  0  0  0
  -29.2934  -22.0417   20.3033 N   0  0  0  0  0  0
  -30.0824  -15.6613   21.1544 N   0  0  0  0  0  0
  -27.2141  -22.2590   21.5561 O   0  0  0  0  0  0
  -31.4667  -12.4795   19.1510 H   0  0  0  0  0  0
  -30.3360  -11.3915   19.9069 H   0  0  0  0  0  0
  -29.7620  -11.7476   17.4817 H   0  0  0  0  0  0
  -29.6446  -13.4703   17.7419 H   0  0  0  0  0  0
  -27.8710  -11.2872   18.8856 H   0  0  0  0  0  0
  -27.3669  -12.5515   17.7991 H   0  0  0  0  0  0
  -27.6655  -14.2551   19.5110 H   0  0  0  0  0  0
  -28.6986  -12.0928   21.4077 H   0  0  0  0  0  0
  -28.4400  -13.7652   21.8199 H   0  0  0  0  0  0
  -25.2758   -9.5700   22.4736 H   0  0  0  0  0  0
  -24.0020   -7.4645   22.7464 H   0  0  0  0  0  0
  -21.0824   -8.8768   19.8961 H   0  0  0  0  0  0
  -22.3668  -10.9670   19.6168 H   0  0  0  0  0  0
  -21.2018   -7.6136   23.9708 H   0  0  0  0  0  0
  -21.1484   -6.0515   25.9079 H   0  0  0  0  0  0
  -22.0592   -2.7596   23.2861 H   0  0  0  0  0  0
  -22.4090  -11.9930   22.4847 H   0  0  0  0  0  0
  -21.1090  -13.1291   22.2632 H   0  0  0  0  0  0
  -24.6594  -15.8466   20.5253 H   0  0  0  0  0  0
  -26.2804  -15.6312   20.0994 H   0  0  0  0  0  0
  -26.7156  -32.5489   23.1109 H   0  0  0  0  0  0
  -25.0134  -33.9733   25.0507 H   0  0  0  0  0  0
  -22.7100  -31.3042   21.4093 H   0  0  0  0  0  0
  -23.3766  -35.9624   23.3253 H   0  0  0  0  0  0
  -24.3611  -36.8935   22.2049 H   0  0  0  0  0  0
  -23.7241  -37.6498   23.6651 H   0  0  0  0  0  0
  -26.0833  -31.5629   20.6078 H   0  0  0  0  0  0
  -26.8371  -30.8492   22.0023 H   0  0  0  0  0  0
  -28.1095  -28.9856   21.2173 H   0  0  0  0  0  0
  -26.0064  -25.9562   18.9739 H   0  0  0  0  0  0
  -23.9746  -27.3280   18.9920 H   0  0  0  0  0  0
  -23.7433  -30.6018   19.4055 H   0  0  0  0  0  0
  -22.7520  -29.2496   19.8646 H   0  0  0  0  0  0
  -25.1284  -36.1955   25.0829 H   0  0  0  0  0  0
  -20.9969  -28.3230   24.1417 H   0  0  0  0  0  0
  -20.5650  -26.2268   23.3604 H   0  0  0  0  0  0
  -21.6660  -26.7390   22.1229 H   0  0  0  0  0  0
  -19.6912  -25.6292   21.1229 H   0  0  0  0  0  0
  -19.6693  -27.3203   20.6740 H   0  0  0  0  0  0
  -17.4204  -26.6638   21.4015 H   0  0  0  0  0  0
  -18.0313  -26.0050   22.8997 H   0  0  0  0  0  0
  -19.7933  -30.7262   24.2242 H   0  0  0  0  0  0
  -17.5004  -31.6242   24.5160 H   0  0  0  0  0  0
  -15.5345  -30.2954   23.7638 H   0  0  0  0  0  0
  -15.8671  -28.0795   22.7052 H   0  0  0  0  0  0
  -24.5862  -30.7193   25.7861 H   0  0  0  0  0  0
  -24.9063  -32.2996   26.4918 H   0  0  0  0  0  0
  -25.8094  -30.8943   27.0237 H   0  0  0  0  0  0
  -26.2764  -29.6755   24.1190 H   0  0  0  0  0  0
  -27.3917  -29.7157   25.4645 H   0  0  0  0  0  0
  -27.8680  -30.4158   23.9336 H   0  0  0  0  0  0
  -27.2795  -33.3588   26.1984 H   0  0  0  0  0  0
  -28.3930  -32.6718   25.0244 H   0  0  0  0  0  0
  -28.0751  -31.8369   26.5379 H   0  0  0  0  0  0
  -28.2618  -38.0107   24.7507 H   0  0  0  0  0  0
  -28.1103  -36.2647   24.6243 H   0  0  0  0  0  0
  -27.2339  -37.1407   25.8861 H   0  0  0  0  0  0
  -20.9336  -29.8761   21.6939 H   0  0  0  0  0  0
  -26.0200  -38.2850   24.1412 H   0  0  0  0  0  0
  -33.0845  -19.5192   19.3878 H   0  0  0  0  0  0
  -32.0018  -17.3412   19.8065 H   0  0  0  0  0  0
  -31.8576  -21.6063   19.5925 H   0  0  0  0  0  0
  -28.3280  -19.4149   20.7129 H   0  0  0  0  0  0
  -27.0269  -25.1619   21.1610 H   0  0  0  0  0  0
  -30.8036  -23.5746   20.3497 H   0  0  0  0  0  0
  -29.9771  -23.3857   18.7675 H   0  0  0  0  0  0
  -29.9729  -16.7684   22.9585 H   0  0  0  0  0  0
  -31.6076  -16.5131   22.3374 H   0  0  0  0  0  0
  -30.7337  -15.1857   23.1091 H   0  0  0  0  0  0
  -29.1189  -16.4649   19.4492 H   0  0  0  0  0  0
  -28.4342  -16.9444   20.9628 H   0  0  0  0  0  0
  1 25  1  0  0  0
  1 30  2  0  0  0
  1 84  1  0  0  0
  2  3  1  0  0  0
  2 25  1  0  0  0
  2 86  1  0  0  0
  2 87  1  0  0  0
  3  4  1  0  0  0
  3 88  1  0  0  0
  3 89  1  0  0  0
  4  5  1  0  0  0
  4 90  1  0  0  0
  4 91  1  0  0  0
  5  6  1  0  0  0
  5 26  1  0  0  0
  5 92  1  0  0  0
  6 25  1  0  0  0
  6 93  1  0  0  0
  6 94  1  0  0  0
  7  8  2  0  0  0
  7 26  1  0  0  0
  7 29  1  0  0  0
  8  9  1  0  0  0
  8 22  1  0  0  0
  9 10  1  0  0  0
  9 27  2  0  0  0
 10 11  2  0  0  0
 10 15  1  0  0  0
 11 12  1  0  0  0
 11 95  1  0  0  0
 12 13  2  0  0  0
 12 96  1  0  0  0
 13 14  1  0  0  0
 13 31  1  0  0  0
 14 15  2  0  0  0
 14 97  1  0  0  0
 15 98  1  0  0  0
 16 17  2  0  0  0
 16 21  1  0  0  0
 16 31  1  0  0  0
 17 18  1  0  0  0
 17 99  1  0  0  0
 18 19  2  0  0  0
 18100  1  0  0  0
 19 20  1  0  0  0
 19 24  1  0  0  0
 20 21  2  0  0  0
 20101  1  0  0  0
 21 23  1  0  0  0
 22 28  1  0  0  0
 22 32  2  0  0  0
 26 27  1  0  0  0
 28102  1  0  0  0
 28103  1  0  0  0
 29104  1  0  0  0
 29105  1  0  0  0
 33 34  1  0  0  0
 33 66  1  0  0  0
 33 70  2  0  0  0
 34 36  1  0  0  0
 34 59  1  0  0  0
 34106  1  0  0  0
 35 44  2  0  0  0
 35 45  1  0  0  0
 35 68  1  0  0  0
 36 56  1  0  0  0
 36107  1  0  0  0
 37 39  1  0  0  0
 37 47  1  0  0  0
 37 66  1  0  0  0
 37108  1  0  0  0
 38 43  2  0  0  0
 38 46  1  0  0  0
 38 47  1  0  0  0
 39 64  1  0  0  0
 39 67  2  0  0  0
 40 52  1  0  0  0
 40 53  2  0  0  0
 40 58  1  0  0  0
 41109  1  0  0  0
 41110  1  0  0  0
 41111  1  0  0  0
 41 48  1  0  0  0
 42 43  1  0  0  0
 42 66  1  0  0  0
 42112  1  0  0  0
 42113  1  0  0  0
 43 44  1  0  0  0
 44114  1  0  0  0
 45 46  2  0  0  0
 45115  1  0  0  0
 46116  1  0  0  0
 47117  1  0  0  0
 47118  1  0  0  0
 48 56  1  0  0  0
 48 65  1  0  0  0
 48119  1  0  0  0
 49 50  1  0  0  0
 49 53  1  0  0  0
 49 64  1  0  0  0
 49120  1  0  0  0
 50 51  1  0  0  0
 50121  1  0  0  0
 50122  1  0  0  0
 51 52  1  0  0  0
 51123  1  0  0  0
 51124  1  0  0  0
 52125  1  0  0  0
 52126  1  0  0  0
 53 54  1  0  0  0
 54 55  2  0  0  0
 54127  1  0  0  0
 55 57  1  0  0  0
 55128  1  0  0  0
 56 69  2  0  0  0
 57 58  2  0  0  0
 57129  1  0  0  0
 58130  1  0  0  0
 59 60  1  0  0  0
 59 61  1  0  0  0
 59 62  1  0  0  0
 60131  1  0  0  0
 60132  1  0  0  0
 60133  1  0  0  0
 61134  1  0  0  0
 61135  1  0  0  0
 61136  1  0  0  0
 62137  1  0  0  0
 62138  1  0  0  0
 62139  1  0  0  0
 63 65  1  0  0  0
 63140  1  0  0  0
 63141  1  0  0  0
 63142  1  0  0  0
 64143  1  0  0  0
 65144  1  0  0  0
 68 79  1  0  0  0
 71 72  2  0  0  0
 71 73  1  0  0  0
 71145  1  0  0  0
 72 75  1  0  0  0
 72146  1  0  0  0
 73 76  2  0  0  0
 73147  1  0  0  0
 74 75  2  0  0  0
 74 76  1  0  0  0
 74148  1  0  0  0
 75 82  1  0  0  0
 76 83  1  0  0  0
 77 78  1  0  0  0
 77 79  2  0  0  0
 77 80  1  0  0  0
 78 83  1  0  0  0
 78 85  2  0  0  0
 79149  1  0  0  0
 80 83  1  0  0  0
 80150  1  0  0  0
 80151  1  0  0  0
 81 84  1  0  0  0
 81152  1  0  0  0
 81153  1  0  0  0
 81154  1  0  0  0
 82 84  1  0  0  0
 82155  1  0  0  0
 82156  1  0  0  0
M  ISO  4   1 100  68 101  79 101  84 100
M  END
> <chiral flag>
0

> <version>
0

> <s_m_source_file>
/data/baiqing/PycharmProjects/Reinvent-master-3.2/result/LINK_invent/BTK/process_docking_weight1_custom_product_contain_oxygen_bond_distance_aromatic_linkinvent_7_9_3/rearranged_h_0086.sdf

> <i_m_source_file_index>
8

> <r_mmod_Potential_Energy-OPLS-2005>
227.712066650391

> <r_mmod_Stretch_Energy-OPLS-2005>
70.6634979248047

> <r_mmod_Bend_Energy-OPLS-2005>
208.663513183594

> <r_mmod_Torsional_Energy-OPLS-2005>
283.714630126953

> <r_mmod_Improper_Torsional_Energy-OPLS-2005>
4.28767156600952

> <r_mmod_Van_der_Waal_Energy-OPLS-2005>
139.005325317383

> <r_mmod_Electrostatic_Energy-OPLS-2005>
-317.280395507812

> <r_mmod_Solvation_Energy-OPLS-2005>
-205.252059936523

> <b_mmod_Minimization_Converged-OPLS-2005>
0

> <r_mmod_RMS_Derivative-OPLS-2005>
2.29692387580872

$$$$
8
                    3D
 Structure written by MMmdl.
155164  0  0  1  0            999 V2000
  -30.7118  -14.5036   20.5824 C   0  0  0  0  0  0
  -30.4150  -12.3272   19.4431 C   0  0  0  0  0  0
  -29.4973  -12.5229   18.2187 C   0  0  0  0  0  0
  -28.0182  -12.3754   18.6231 C   0  0  0  0  0  0
  -27.6576  -13.2175   19.8762 C   0  0  2  0  0  0
  -28.6948  -13.0143   21.0028 C   0  0  0  0  0  0
  -25.2545  -13.8190   20.5699 C   0  0  0  0  0  0
  -24.1803  -13.0441   20.9188 C   0  0  0  0  0  0
  -24.6375  -11.6916   20.8733 C   0  0  0  0  0  0
  -23.9052  -10.4293   21.0400 C   0  0  0  0  0  0
  -24.3608   -9.4215   21.9179 C   0  0  0  0  0  0
  -23.6294   -8.2243   22.0752 C   0  0  0  0  0  0
  -22.4274   -8.0275   21.3545 C   0  0  0  0  0  0
  -21.9902   -9.0241   20.4648 C   0  0  0  0  0  0
  -22.7220  -10.2126   20.3053 C   0  0  0  0  0  0
  -21.6849   -6.0733   22.5285 C   0  0  0  0  0  0
  -21.4012   -6.5638   23.8217 C   0  0  0  0  0  0
  -21.3664   -5.6795   24.9181 C   0  0  0  0  0  0
  -21.6048   -4.3056   24.7235 C   0  0  0  0  0  0
  -21.8816   -3.8145   23.4357 C   0  0  0  0  0  0
  -21.9190   -4.6960   22.3412 C   0  0  0  0  0  0
  -22.7821  -13.5226   21.1865 C   0  0  0  0  0  0
  -22.1654   -4.2144   21.0987 F   0  0  0  0  0  0
  -21.5636   -3.4543   25.7749 F   0  0  0  0  0  0
  -30.0292  -13.3242   20.4621 N   0  0  0  0  0  0
  -26.2986  -12.9379   20.3367 N   0  0  0  0  0  0
  -25.9310  -11.6523   20.5755 N   0  0  0  0  0  0
  -22.0461  -12.8215   22.0431 N   0  0  0  0  0  0
  -25.4250  -15.1908   20.4146 N   0  0  0  0  0  0
  -31.8081  -14.6617   20.0368 O   0  0  0  0  0  0
  -21.6641   -6.8869   21.4244 O   0  0  0  0  0  0
  -22.3495  -14.5525   20.6714 O   0  0  0  0  0  0
  -24.6177  -31.8655   23.2089 C   0  0  0  0  0  0
  -25.9059  -32.4816   23.8390 C   0  0  1  0  0  0
  -27.2269  -27.4100   20.1055 C   0  0  0  0  0  0
  -25.5900  -33.8614   24.2317 N   0  0  0  0  0  0
  -23.4082  -30.4893   21.5488 C   0  0  2  0  0  0
  -24.8564  -28.9561   20.1103 C   0  0  0  0  0  0
  -22.7428  -29.4653   22.4973 C   0  0  0  0  0  0
  -18.0274  -28.1386   22.8493 C   0  0  0  0  0  0
  -24.1486  -36.7315   23.2635 C   0  0  0  0  0  0
  -25.9401  -30.8246   21.3663 C   0  0  0  0  0  0
  -26.0194  -29.4595   20.7097 C   0  0  0  0  0  0
  -27.2129  -28.6946   20.7034 C   0  0  0  0  0  0
  -26.0530  -26.9331   19.4885 C   0  0  0  0  0  0
  -24.8697  -27.6939   19.4927 C   0  0  0  0  0  0
  -23.6180  -29.8234   20.1636 C   0  0  0  0  0  0
  -25.4108  -36.3114   24.0340 C   0  0  1  0  0  0
  -20.5869  -28.3683   23.1304 C   0  0  2  0  0  0
  -20.6773  -26.9416   22.5411 C   0  0  0  0  0  0
  -19.5752  -26.6390   21.5215 C   0  0  0  0  0  0
  -18.1930  -26.7932   22.1626 C   0  0  0  0  0  0
  -19.1523  -28.8853   23.2891 C   0  0  0  0  0  0
  -18.9450  -30.1460   23.8904 C   0  0  0  0  0  0
  -17.6452  -30.6594   24.0568 C   0  0  0  0  0  0
  -25.9038  -34.9475   23.5129 C   0  0  0  0  0  0
  -16.5344  -29.9090   23.6335 C   0  0  0  0  0  0
  -16.7261  -28.6506   23.0355 C   0  0  0  0  0  0
  -26.4472  -31.6600   25.0725 C   0  0  0  0  0  0
  -25.3730  -31.3711   26.1470 C   0  0  0  0  0  0
  -27.0300  -30.3037   24.6119 C   0  0  0  0  0  0
  -27.6054  -32.4316   25.7472 C   0  0  0  0  0  0
  -27.5592  -37.1798   24.8452 C   0  0  0  0  0  0
  -21.4154  -29.3035   22.3701 N   0  0  0  0  0  0
  -26.4290  -37.3804   23.9420 N   0  0  0  0  0  0
  -24.6736  -31.0738   22.0997 N   0  0  0  0  0  0
  -23.4185  -28.8197   23.3030 O   0  0  0  0  0  0
  -28.3282  -26.5764   20.1496 O   0  0  0  0  0  0
  -26.5607  -34.8928   22.4693 O   0  0  0  0  0  0
  -23.5362  -32.1413   23.7469 O   0  0  0  0  0  0
  -29.0542  -19.2305   23.6992 C   0  0  0  0  0  0
  -29.4052  -18.0664   22.9965 C   0  0  0  0  0  0
  -29.0383  -20.4781   23.0513 C   0  0  0  0  0  0
  -29.7026  -19.3981   20.9794 C   0  0  0  0  0  0
  -29.5925  -23.7321   19.7384 C   0  0  0  0  0  0
  -28.5824  -23.0130   21.5847 C   0  0  0  0  0  0
  -29.7642  -18.1283   21.6334 C   0  0  0  0  0  0
  -28.7628  -24.1447   20.8205 C   0  0  0  0  0  0
  -29.3438  -20.5980   21.6737 C   0  0  0  0  0  0
  -29.8904  -22.4041   19.9111 C   0  0  0  0  0  0
  -30.2151  -16.8915   20.9257 C   0  0  0  0  0  0
  -30.0783  -15.5979   21.3334 C   0  0  0  0  0  0
  -28.1768  -25.5288   21.1388 C   0  0  0  0  0  0
  -29.2829  -21.9158   21.0678 N   0  0  0  0  0  0
  -30.6748  -21.6169   19.1262 O   0  0  0  0  0  0
  -31.4624  -12.4091   19.1480 H   0  0  0  0  0  0
  -30.3036  -11.3188   19.8438 H   0  0  0  0  0  0
  -29.7463  -11.8023   17.4389 H   0  0  0  0  0  0
  -29.6671  -13.5121   17.7874 H   0  0  0  0  0  0
  -27.8332  -11.3192   18.8220 H   0  0  0  0  0  0
  -27.3687  -12.6443   17.7890 H   0  0  0  0  0  0
  -27.6981  -14.2659   19.5778 H   0  0  0  0  0  0
  -28.6741  -11.9814   21.3527 H   0  0  0  0  0  0
  -28.4301  -13.6127   21.8726 H   0  0  0  0  0  0
  -25.2746   -9.5704   22.4757 H   0  0  0  0  0  0
  -24.0014   -7.4634   22.7465 H   0  0  0  0  0  0
  -21.0834   -8.8743   19.8955 H   0  0  0  0  0  0
  -22.3659  -10.9660   19.6166 H   0  0  0  0  0  0
  -21.1994   -7.6145   23.9722 H   0  0  0  0  0  0
  -21.1497   -6.0526   25.9087 H   0  0  0  0  0  0
  -22.0591   -2.7607   23.2861 H   0  0  0  0  0  0
  -22.4057  -11.9885   22.4842 H   0  0  0  0  0  0
  -21.1073  -13.1237   22.2623 H   0  0  0  0  0  0
  -24.6644  -15.8503   20.5369 H   0  0  0  0  0  0
  -26.2931  -15.6347   20.1393 H   0  0  0  0  0  0
  -26.7123  -32.5524   23.1146 H   0  0  0  0  0  0
  -25.0050  -33.9766   25.0463 H   0  0  0  0  0  0
  -22.6991  -31.3079   21.4094 H   0  0  0  0  0  0
  -23.3765  -35.9628   23.3270 H   0  0  0  0  0  0
  -24.3592  -36.8960   22.2053 H   0  0  0  0  0  0
  -23.7205  -37.6499   23.6666 H   0  0  0  0  0  0
  -26.0572  -31.5917   20.5996 H   0  0  0  0  0  0
  -26.8261  -30.8760   21.9883 H   0  0  0  0  0  0
  -28.1068  -29.0715   21.1797 H   0  0  0  0  0  0
  -26.0509  -25.9571   19.0246 H   0  0  0  0  0  0
  -23.9771  -27.3015   19.0248 H   0  0  0  0  0  0
  -23.7242  -30.5986   19.4029 H   0  0  0  0  0  0
  -22.7430  -29.2406   19.8700 H   0  0  0  0  0  0
  -25.1276  -36.1980   25.0831 H   0  0  0  0  0  0
  -20.9955  -28.3259   24.1427 H   0  0  0  0  0  0
  -20.5704  -26.2285   23.3600 H   0  0  0  0  0  0
  -21.6642  -26.7476   22.1188 H   0  0  0  0  0  0
  -19.6915  -25.6302   21.1245 H   0  0  0  0  0  0
  -19.6695  -27.3208   20.6751 H   0  0  0  0  0  0
  -17.4198  -26.6681   21.4025 H   0  0  0  0  0  0
  -18.0330  -26.0069   22.9015 H   0  0  0  0  0  0
  -19.7927  -30.7275   24.2272 H   0  0  0  0  0  0
  -17.5008  -31.6280   24.5159 H   0  0  0  0  0  0
  -15.5346  -30.2997   23.7656 H   0  0  0  0  0  0
  -15.8662  -28.0834   22.7064 H   0  0  0  0  0  0
  -24.5871  -30.7104   25.7787 H   0  0  0  0  0  0
  -24.8963  -32.2869   26.4972 H   0  0  0  0  0  0
  -25.8065  -30.8815   27.0197 H   0  0  0  0  0  0
  -26.2842  -29.6795   24.1178 H   0  0  0  0  0  0
  -27.4053  -29.7281   25.4589 H   0  0  0  0  0  0
  -27.8690  -30.4345   23.9284 H   0  0  0  0  0  0
  -27.2693  -33.3617   26.2069 H   0  0  0  0  0  0
  -28.3848  -32.6872   25.0280 H   0  0  0  0  0  0
  -28.0743  -31.8427   26.5366 H   0  0  0  0  0  0
  -28.2573  -38.0134   24.7582 H   0  0  0  0  0  0
  -28.1129  -36.2672   24.6181 H   0  0  0  0  0  0
  -27.2324  -37.1329   25.8856 H   0  0  0  0  0  0
  -20.9326  -29.8728   21.6895 H   0  0  0  0  0  0
  -26.0186  -38.2876   24.1462 H   0  0  0  0  0  0
  -28.8074  -19.1672   24.7502 H   0  0  0  0  0  0
  -29.4316  -17.1321   23.5365 H   0  0  0  0  0  0
  -28.7913  -21.3429   23.6481 H   0  0  0  0  0  0
  -29.9482  -19.4388   19.9298 H   0  0  0  0  0  0
  -29.9433  -24.3600   18.9310 H   0  0  0  0  0  0
  -27.9992  -22.9160   22.4880 H   0  0  0  0  0  0
  -30.7489  -17.0734   20.0017 H   0  0  0  0  0  0
  -29.5386  -15.3750   22.2387 H   0  0  0  0  0  0
  -28.6484  -25.8805   22.0559 H   0  0  0  0  0  0
  -27.1285  -25.3686   21.4005 H   0  0  0  0  0  0
  -30.9422  -22.1316   18.3712 H   0  0  0  0  0  0
  1 25  1  0  0  0
  1 30  2  0  0  0
  1 82  1  0  0  0
  2  3  1  0  0  0
  2 25  1  0  0  0
  2 86  1  0  0  0
  2 87  1  0  0  0
  3  4  1  0  0  0
  3 88  1  0  0  0
  3 89  1  0  0  0
  4  5  1  0  0  0
  4 90  1  0  0  0
  4 91  1  0  0  0
  5  6  1  0  0  0
  5 26  1  0  0  0
  5 92  1  0  0  0
  6 25  1  0  0  0
  6 93  1  0  0  0
  6 94  1  0  0  0
  7  8  2  0  0  0
  7 26  1  0  0  0
  7 29  1  0  0  0
  8  9  1  0  0  0
  8 22  1  0  0  0
  9 10  1  0  0  0
  9 27  2  0  0  0
 10 11  2  0  0  0
 10 15  1  0  0  0
 11 12  1  0  0  0
 11 95  1  0  0  0
 12 13  2  0  0  0
 12 96  1  0  0  0
 13 14  1  0  0  0
 13 31  1  0  0  0
 14 15  2  0  0  0
 14 97  1  0  0  0
 15 98  1  0  0  0
 16 17  2  0  0  0
 16 21  1  0  0  0
 16 31  1  0  0  0
 17 18  1  0  0  0
 17 99  1  0  0  0
 18 19  2  0  0  0
 18100  1  0  0  0
 19 20  1  0  0  0
 19 24  1  0  0  0
 20 21  2  0  0  0
 20101  1  0  0  0
 21 23  1  0  0  0
 22 28  1  0  0  0
 22 32  2  0  0  0
 26 27  1  0  0  0
 28102  1  0  0  0
 28103  1  0  0  0
 29104  1  0  0  0
 29105  1  0  0  0
 33 34  1  0  0  0
 33 66  1  0  0  0
 33 70  2  0  0  0
 34 36  1  0  0  0
 34 59  1  0  0  0
 34106  1  0  0  0
 35 44  2  0  0  0
 35 45  1  0  0  0
 35 68  1  0  0  0
 36 56  1  0  0  0
 36107  1  0  0  0
 37 39  1  0  0  0
 37 47  1  0  0  0
 37 66  1  0  0  0
 37108  1  0  0  0
 38 43  2  0  0  0
 38 46  1  0  0  0
 38 47  1  0  0  0
 39 64  1  0  0  0
 39 67  2  0  0  0
 40 52  1  0  0  0
 40 53  2  0  0  0
 40 58  1  0  0  0
 41109  1  0  0  0
 41110  1  0  0  0
 41111  1  0  0  0
 41 48  1  0  0  0
 42 43  1  0  0  0
 42 66  1  0  0  0
 42112  1  0  0  0
 42113  1  0  0  0
 43 44  1  0  0  0
 44114  1  0  0  0
 45 46  2  0  0  0
 45115  1  0  0  0
 46116  1  0  0  0
 47117  1  0  0  0
 47118  1  0  0  0
 48 56  1  0  0  0
 48 65  1  0  0  0
 48119  1  0  0  0
 49 50  1  0  0  0
 49 53  1  0  0  0
 49 64  1  0  0  0
 49120  1  0  0  0
 50 51  1  0  0  0
 50121  1  0  0  0
 50122  1  0  0  0
 51 52  1  0  0  0
 51123  1  0  0  0
 51124  1  0  0  0
 52125  1  0  0  0
 52126  1  0  0  0
 53 54  1  0  0  0
 54 55  2  0  0  0
 54127  1  0  0  0
 55 57  1  0  0  0
 55128  1  0  0  0
 56 69  2  0  0  0
 57 58  2  0  0  0
 57129  1  0  0  0
 58130  1  0  0  0
 59 60  1  0  0  0
 59 61  1  0  0  0
 59 62  1  0  0  0
 60131  1  0  0  0
 60132  1  0  0  0
 60133  1  0  0  0
 61134  1  0  0  0
 61135  1  0  0  0
 61136  1  0  0  0
 62137  1  0  0  0
 62138  1  0  0  0
 62139  1  0  0  0
 63 65  1  0  0  0
 63140  1  0  0  0
 63141  1  0  0  0
 63142  1  0  0  0
 64143  1  0  0  0
 65144  1  0  0  0
 68 83  1  0  0  0
 71 72  2  0  0  0
 71 73  1  0  0  0
 71145  1  0  0  0
 72 77  1  0  0  0
 72146  1  0  0  0
 73 79  2  0  0  0
 73147  1  0  0  0
 74 77  2  0  0  0
 74 79  1  0  0  0
 74148  1  0  0  0
 75 78  1  0  0  0
 75 80  2  0  0  0
 75149  1  0  0  0
 76 78  2  0  0  0
 76 84  1  0  0  0
 76150  1  0  0  0
 77 81  1  0  0  0
 78 83  1  0  0  0
 79 84  1  0  0  0
 80 84  1  0  0  0
 80 85  1  0  0  0
 81 82  2  0  0  0
 81151  1  0  0  0
 82152  1  0  0  0
 83153  1  0  0  0
 83154  1  0  0  0
 85155  1  0  0  0
M  ISO  4   1 100  68 101  82 100  83 101
M  END
> <chiral flag>
0

> <version>
0

> <s_m_source_file>
/data/baiqing/PycharmProjects/Reinvent-master-3.2/result/LINK_invent/BTK/process_docking_weight1_custom_product_contain_oxygen_bond_distance_aromatic_linkinvent_7_9_3/rearranged_h_0086.sdf

> <i_m_source_file_index>
9

> <r_mmod_Potential_Energy-OPLS-2005>
2.84495258331299

> <r_mmod_Stretch_Energy-OPLS-2005>
49.0360984802246

> <r_mmod_Bend_Energy-OPLS-2005>
108.575187683105

> <r_mmod_Torsional_Energy-OPLS-2005>
217.523147583008

> <r_mmod_Improper_Torsional_Energy-OPLS-2005>
2.66333937644958

> <r_mmod_Van_der_Waal_Energy-OPLS-2005>
155.188873291016

> <r_mmod_Electrostatic_Energy-OPLS-2005>
-342.62841796875

> <r_mmod_Solvation_Energy-OPLS-2005>
-206.734634399414

> <b_mmod_Minimization_Converged-OPLS-2005>
0

> <r_mmod_RMS_Derivative-OPLS-2005>
1.53052663803101

$$$$
9
                    3D
 Structure written by MMmdl.
152161  0  0  1  0            999 V2000
  -30.5709  -14.7596   20.4619 C   0  0  0  0  0  0
  -30.4511  -12.4601   19.4690 C   0  0  0  0  0  0
  -29.5215  -12.5082   18.2343 C   0  0  0  0  0  0
  -28.0443  -12.3307   18.6434 C   0  0  0  0  0  0
  -27.6465  -13.2228   19.8492 C   0  0  2  0  0  0
  -28.6930  -13.1378   20.9837 C   0  0  0  0  0  0
  -25.2535  -13.8172   20.5654 C   0  0  0  0  0  0
  -24.1823  -13.0434   20.9200 C   0  0  0  0  0  0
  -24.6406  -11.6911   20.8752 C   0  0  0  0  0  0
  -23.9078  -10.4298   21.0421 C   0  0  0  0  0  0
  -24.3630   -9.4212   21.9199 C   0  0  0  0  0  0
  -23.6301   -8.2248   22.0764 C   0  0  0  0  0  0
  -22.4282   -8.0287   21.3550 C   0  0  0  0  0  0
  -21.9923   -9.0270   20.4659 C   0  0  0  0  0  0
  -22.7252  -10.2148   20.3068 C   0  0  0  0  0  0
  -21.6853   -6.0744   22.5285 C   0  0  0  0  0  0
  -21.4014   -6.5646   23.8220 C   0  0  0  0  0  0
  -21.3655   -5.6795   24.9179 C   0  0  0  0  0  0
  -21.6038   -4.3058   24.7224 C   0  0  0  0  0  0
  -21.8816   -3.8153   23.4346 C   0  0  0  0  0  0
  -21.9192   -4.6973   22.3404 C   0  0  0  0  0  0
  -22.7846  -13.5233   21.1849 C   0  0  0  0  0  0
  -22.1659   -4.2160   21.0984 F   0  0  0  0  0  0
  -21.5631   -3.4537   25.7734 F   0  0  0  0  0  0
  -29.9956  -13.5084   20.4090 N   0  0  0  0  0  0
  -26.2960  -12.9362   20.3241 N   0  0  0  0  0  0
  -25.9329  -11.6519   20.5726 N   0  0  0  0  0  0
  -22.0469  -12.8247   22.0406 N   0  0  0  0  0  0
  -25.4203  -15.1897   20.4027 N   0  0  0  0  0  0
  -31.7617  -14.9122   20.1700 O   0  0  0  0  0  0
  -21.6638   -6.8891   21.4245 O   0  0  0  0  0  0
  -22.3543  -14.5539   20.6692 O   0  0  0  0  0  0
  -24.6314  -31.8550   23.1985 C   0  0  0  0  0  0
  -25.9140  -32.4751   23.8336 C   0  0  1  0  0  0
  -27.2282  -27.2632   20.1383 C   0  0  0  0  0  0
  -25.5942  -33.8555   24.2255 N   0  0  0  0  0  0
  -23.4296  -30.4753   21.5423 C   0  0  2  0  0  0
  -24.8820  -28.9172   20.1184 C   0  0  0  0  0  0
  -22.7504  -29.4597   22.4923 C   0  0  0  0  0  0
  -18.0288  -28.1383   22.8485 C   0  0  0  0  0  0
  -24.1497  -36.7275   23.2640 C   0  0  0  0  0  0
  -25.9767  -30.7655   21.3828 C   0  0  0  0  0  0
  -26.0533  -29.3852   20.7315 C   0  0  0  0  0  0
  -27.2322  -28.5692   20.7352 C   0  0  0  0  0  0
  -26.0380  -26.8582   19.5028 C   0  0  0  0  0  0
  -24.8783  -27.6592   19.4948 C   0  0  0  0  0  0
  -23.6510  -29.8043   20.1612 C   0  0  0  0  0  0
  -25.4124  -36.3061   24.0325 C   0  0  1  0  0  0
  -20.5893  -28.3695   23.1274 C   0  0  2  0  0  0
  -20.6773  -26.9411   22.5418 C   0  0  0  0  0  0
  -19.5757  -26.6374   21.5219 C   0  0  0  0  0  0
  -18.1930  -26.7927   22.1620 C   0  0  0  0  0  0
  -19.1543  -28.8856   23.2869 C   0  0  0  0  0  0
  -18.9464  -30.1460   23.8882 C   0  0  0  0  0  0
  -17.6462  -30.6586   24.0556 C   0  0  0  0  0  0
  -25.9061  -34.9433   23.5087 C   0  0  0  0  0  0
  -16.5352  -29.9077   23.6335 C   0  0  0  0  0  0
  -16.7275  -28.6493   23.0358 C   0  0  0  0  0  0
  -26.4497  -31.6578   25.0727 C   0  0  0  0  0  0
  -25.3709  -31.3744   26.1441 C   0  0  0  0  0  0
  -27.0343  -30.2987   24.6233 C   0  0  0  0  0  0
  -27.6048  -32.4321   25.7499 C   0  0  0  0  0  0
  -27.5583  -37.1793   24.8459 C   0  0  0  0  0  0
  -21.4211  -29.3036   22.3655 N   0  0  0  0  0  0
  -26.4294  -37.3766   23.9403 N   0  0  0  0  0  0
  -24.6977  -31.0503   22.0970 N   0  0  0  0  0  0
  -23.4202  -28.8148   23.3031 O   0  0  0  0  0  0
  -28.2959  -26.3418   20.0900 O   0  0  0  0  0  0
  -26.5631  -34.8907   22.4653 O   0  0  0  0  0  0
  -23.5460  -32.1378   23.7267 O   0  0  0  0  0  0
  -28.5000  -19.4728   20.1595 C   0  0  0  0  0  0
  -30.6741  -19.5660   21.1390 C   0  0  0  0  0  0
  -28.6114  -18.0411   20.1011 C   0  0  0  0  0  0
  -30.7987  -18.1332   21.0509 C   0  0  0  0  0  0
  -29.5165  -20.2977   20.7148 C   0  0  0  0  0  0
  -29.7497  -17.3064   20.5584 C   0  0  0  0  0  0
  -28.7712  -24.0488   21.2523 C   0  0  0  0  0  0
  -29.0173  -23.5134   22.5844 C   0  0  0  0  0  0
  -28.9599  -22.8778   20.3309 C   0  0  0  0  0  0
  -28.4608  -25.4127   21.1421 C   0  0  0  0  0  0
  -29.4765  -22.0752   22.4806 C   0  0  0  0  0  0
  -29.3158  -21.7376   21.0660 N   0  0  0  0  0  0
  -29.6894  -15.8197   20.6181 N   0  0  0  0  0  0
  -28.9153  -24.1045   23.6660 O   0  0  0  0  0  0
  -28.8244  -22.8885   19.1018 O   0  0  0  0  0  0
  -31.4890  -12.6083   19.1665 H   0  0  0  0  0  0
  -30.4135  -11.4790   19.9451 H   0  0  0  0  0  0
  -29.8066  -11.7352   17.5193 H   0  0  0  0  0  0
  -29.6466  -13.4612   17.7177 H   0  0  0  0  0  0
  -27.8962  -11.2802   18.8976 H   0  0  0  0  0  0
  -27.3917  -12.5314   17.7928 H   0  0  0  0  0  0
  -27.6434  -14.2450   19.4717 H   0  0  0  0  0  0
  -28.7330  -12.1295   21.3988 H   0  0  0  0  0  0
  -28.4228  -13.7951   21.8118 H   0  0  0  0  0  0
  -25.2780   -9.5683   22.4769 H   0  0  0  0  0  0
  -24.0008   -7.4637   22.7485 H   0  0  0  0  0  0
  -21.0851   -8.8802   19.8972 H   0  0  0  0  0  0
  -22.3721  -10.9693   19.6179 H   0  0  0  0  0  0
  -21.2007   -7.6156   23.9731 H   0  0  0  0  0  0
  -21.1474   -6.0524   25.9086 H   0  0  0  0  0  0
  -22.0597   -2.7617   23.2842 H   0  0  0  0  0  0
  -22.4056  -11.9915   22.4828 H   0  0  0  0  0  0
  -21.1098  -13.1319   22.2594 H   0  0  0  0  0  0
  -24.6434  -15.8341   20.5007 H   0  0  0  0  0  0
  -26.2473  -15.6262   20.0203 H   0  0  0  0  0  0
  -26.7205  -32.5402   23.1076 H   0  0  0  0  0  0
  -25.0088  -33.9698   25.0399 H   0  0  0  0  0  0
  -22.7264  -31.2975   21.3938 H   0  0  0  0  0  0
  -23.3763  -35.9603   23.3291 H   0  0  0  0  0  0
  -24.3588  -36.8906   22.2056 H   0  0  0  0  0  0
  -23.7246  -37.6470   23.6673 H   0  0  0  0  0  0
  -26.1183  -31.5252   20.6127 H   0  0  0  0  0  0
  -26.8518  -30.8145   22.0194 H   0  0  0  0  0  0
  -28.1322  -28.9260   21.2162 H   0  0  0  0  0  0
  -26.0033  -25.8894   19.0240 H   0  0  0  0  0  0
  -23.9827  -27.2946   19.0104 H   0  0  0  0  0  0
  -23.7720  -30.5779   19.4020 H   0  0  0  0  0  0
  -22.7698  -29.2351   19.8594 H   0  0  0  0  0  0
  -25.1309  -36.1900   25.0820 H   0  0  0  0  0  0
  -20.9985  -28.3271   24.1396 H   0  0  0  0  0  0
  -20.5669  -26.2308   23.3624 H   0  0  0  0  0  0
  -21.6644  -26.7426   22.1216 H   0  0  0  0  0  0
  -19.6913  -25.6278   21.1264 H   0  0  0  0  0  0
  -19.6702  -27.3172   20.6743 H   0  0  0  0  0  0
  -17.4210  -26.6684   21.4012 H   0  0  0  0  0  0
  -18.0316  -26.0069   22.9013 H   0  0  0  0  0  0
  -19.7940  -30.7280   24.2243 H   0  0  0  0  0  0
  -17.5014  -31.6271   24.5147 H   0  0  0  0  0  0
  -15.5348  -30.2967   23.7674 H   0  0  0  0  0  0
  -15.8676  -28.0806   22.7081 H   0  0  0  0  0  0
  -24.5878  -30.7104   25.7764 H   0  0  0  0  0  0
  -24.8908  -32.2923   26.4845 H   0  0  0  0  0  0
  -25.8009  -30.8927   27.0231 H   0  0  0  0  0  0
  -26.2937  -29.6737   24.1229 H   0  0  0  0  0  0
  -27.3976  -29.7250   25.4769 H   0  0  0  0  0  0
  -27.8838  -30.4245   23.9517 H   0  0  0  0  0  0
  -27.2656  -33.3630   26.2056 H   0  0  0  0  0  0
  -28.3866  -32.6867   25.0332 H   0  0  0  0  0  0
  -28.0708  -31.8460   26.5430 H   0  0  0  0  0  0
  -28.2594  -38.0097   24.7505 H   0  0  0  0  0  0
  -28.1084  -36.2623   24.6283 H   0  0  0  0  0  0
  -27.2300  -37.1435   25.8863 H   0  0  0  0  0  0
  -20.9401  -29.8748   21.6850 H   0  0  0  0  0  0
  -26.0165  -38.2839   24.1402 H   0  0  0  0  0  0
  -27.5716  -19.9288   19.8453 H   0  0  0  0  0  0
  -31.4914  -20.1086   21.5926 H   0  0  0  0  0  0
  -27.7599  -17.4941   19.7225 H   0  0  0  0  0  0
  -31.6971  -17.6701   21.4344 H   0  0  0  0  0  0
  -28.3897  -25.9754   22.0640 H   0  0  0  0  0  0
  -28.8622  -21.4325   23.1113 H   0  0  0  0  0  0
  -30.5175  -21.9901   22.7912 H   0  0  0  0  0  0
  -28.7484  -15.4707   20.7085 H   0  0  0  0  0  0
  1 25  1  0  0  0
  1 30  2  0  0  0
  1 83  1  0  0  0
  2  3  1  0  0  0
  2 25  1  0  0  0
  2 86  1  0  0  0
  2 87  1  0  0  0
  3  4  1  0  0  0
  3 88  1  0  0  0
  3 89  1  0  0  0
  4  5  1  0  0  0
  4 90  1  0  0  0
  4 91  1  0  0  0
  5  6  1  0  0  0
  5 26  1  0  0  0
  5 92  1  0  0  0
  6 25  1  0  0  0
  6 93  1  0  0  0
  6 94  1  0  0  0
  7  8  2  0  0  0
  7 26  1  0  0  0
  7 29  1  0  0  0
  8  9  1  0  0  0
  8 22  1  0  0  0
  9 10  1  0  0  0
  9 27  2  0  0  0
 10 11  2  0  0  0
 10 15  1  0  0  0
 11 12  1  0  0  0
 11 95  1  0  0  0
 12 13  2  0  0  0
 12 96  1  0  0  0
 13 14  1  0  0  0
 13 31  1  0  0  0
 14 15  2  0  0  0
 14 97  1  0  0  0
 15 98  1  0  0  0
 16 17  2  0  0  0
 16 21  1  0  0  0
 16 31  1  0  0  0
 17 18  1  0  0  0
 17 99  1  0  0  0
 18 19  2  0  0  0
 18100  1  0  0  0
 19 20  1  0  0  0
 19 24  1  0  0  0
 20 21  2  0  0  0
 20101  1  0  0  0
 21 23  1  0  0  0
 22 28  1  0  0  0
 22 32  2  0  0  0
 26 27  1  0  0  0
 28102  1  0  0  0
 28103  1  0  0  0
 29104  1  0  0  0
 29105  1  0  0  0
 33 34  1  0  0  0
 33 66  1  0  0  0
 33 70  2  0  0  0
 34 36  1  0  0  0
 34 59  1  0  0  0
 34106  1  0  0  0
 35 44  2  0  0  0
 35 45  1  0  0  0
 35 68  1  0  0  0
 36 56  1  0  0  0
 36107  1  0  0  0
 37 39  1  0  0  0
 37 47  1  0  0  0
 37 66  1  0  0  0
 37108  1  0  0  0
 38 43  2  0  0  0
 38 46  1  0  0  0
 38 47  1  0  0  0
 39 64  1  0  0  0
 39 67  2  0  0  0
 40 52  1  0  0  0
 40 53  2  0  0  0
 40 58  1  0  0  0
 41109  1  0  0  0
 41110  1  0  0  0
 41111  1  0  0  0
 41 48  1  0  0  0
 42 43  1  0  0  0
 42 66  1  0  0  0
 42112  1  0  0  0
 42113  1  0  0  0
 43 44  1  0  0  0
 44114  1  0  0  0
 45 46  2  0  0  0
 45115  1  0  0  0
 46116  1  0  0  0
 47117  1  0  0  0
 47118  1  0  0  0
 48 56  1  0  0  0
 48 65  1  0  0  0
 48119  1  0  0  0
 49 50  1  0  0  0
 49 53  1  0  0  0
 49 64  1  0  0  0
 49120  1  0  0  0
 50 51  1  0  0  0
 50121  1  0  0  0
 50122  1  0  0  0
 51 52  1  0  0  0
 51123  1  0  0  0
 51124  1  0  0  0
 52125  1  0  0  0
 52126  1  0  0  0
 53 54  1  0  0  0
 54 55  2  0  0  0
 54127  1  0  0  0
 55 57  1  0  0  0
 55128  1  0  0  0
 56 69  2  0  0  0
 57 58  2  0  0  0
 57129  1  0  0  0
 58130  1  0  0  0
 59 60  1  0  0  0
 59 61  1  0  0  0
 59 62  1  0  0  0
 60131  1  0  0  0
 60132  1  0  0  0
 60133  1  0  0  0
 61134  1  0  0  0
 61135  1  0  0  0
 61136  1  0  0  0
 62137  1  0  0  0
 62138  1  0  0  0
 62139  1  0  0  0
 63 65  1  0  0  0
 63140  1  0  0  0
 63141  1  0  0  0
 63142  1  0  0  0
 64143  1  0  0  0
 65144  1  0  0  0
 68 80  1  0  0  0
 71 73  2  0  0  0
 71 75  1  0  0  0
 71145  1  0  0  0
 72 74  1  0  0  0
 72 75  2  0  0  0
 72146  1  0  0  0
 73 76  1  0  0  0
 73147  1  0  0  0
 74 76  2  0  0  0
 74148  1  0  0  0
 75 82  1  0  0  0
 76 83  1  0  0  0
 77 78  1  0  0  0
 77 79  1  0  0  0
 77 80  2  0  0  0
 78 81  1  0  0  0
 78 84  2  0  0  0
 79 82  1  0  0  0
 79 85  2  0  0  0
 80149  1  0  0  0
 81 82  1  0  0  0
 81150  1  0  0  0
 81151  1  0  0  0
 83152  1  0  0  0
M  ISO  4   1 100  68 101  80 101  83 100
M  END
> <chiral flag>
0

> <version>
0

> <s_m_source_file>
/data/baiqing/PycharmProjects/Reinvent-master-3.2/result/LINK_invent/BTK/process_docking_weight1_custom_product_contain_oxygen_bond_distance_aromatic_linkinvent_7_9_3/rearranged_h_0086.sdf

> <i_m_source_file_index>
10

> <r_mmod_Potential_Energy-OPLS-2005>
288.390350341797

> <r_mmod_Stretch_Energy-OPLS-2005>
113.899597167969

> <r_mmod_Bend_Energy-OPLS-2005>
252.969711303711

> <r_mmod_Torsional_Energy-OPLS-2005>
300.813354492188

> <r_mmod_Improper_Torsional_Energy-OPLS-2005>
7.98848342895508

> <r_mmod_Van_der_Waal_Energy-OPLS-2005>
125.28759765625

> <r_mmod_Electrostatic_Energy-OPLS-2005>
-362.604187011719

> <r_mmod_Solvation_Energy-OPLS-2005>
-240.025238037109

> <b_mmod_Minimization_Converged-OPLS-2005>
0

> <r_mmod_RMS_Derivative-OPLS-2005>
1.27533888816833

$$$$
10
                    3D
 Structure written by MMmdl.
152161  0  0  1  0            999 V2000
  -30.6262  -14.7859   20.4441 C   0  0  0  0  0  0
  -30.4222  -12.4790   19.4853 C   0  0  0  0  0  0
  -29.5082  -12.5070   18.2418 C   0  0  0  0  0  0
  -28.0363  -12.3275   18.6563 C   0  0  0  0  0  0
  -27.6355  -13.2409   19.8457 C   0  0  2  0  0  0
  -28.6797  -13.2150   20.9833 C   0  0  0  0  0  0
  -25.2479  -13.8217   20.5707 C   0  0  0  0  0  0
  -24.1785  -13.0447   20.9221 C   0  0  0  0  0  0
  -24.6391  -11.6928   20.8757 C   0  0  0  0  0  0
  -23.9075  -10.4297   21.0409 C   0  0  0  0  0  0
  -24.3624   -9.4210   21.9186 C   0  0  0  0  0  0
  -23.6298   -8.2246   22.0755 C   0  0  0  0  0  0
  -22.4280   -8.0284   21.3544 C   0  0  0  0  0  0
  -21.9918   -9.0258   20.4647 C   0  0  0  0  0  0
  -22.7248  -10.2137   20.3057 C   0  0  0  0  0  0
  -21.6854   -6.0737   22.5279 C   0  0  0  0  0  0
  -21.4016   -6.5641   23.8212 C   0  0  0  0  0  0
  -21.3660   -5.6793   24.9174 C   0  0  0  0  0  0
  -21.6043   -4.3056   24.7224 C   0  0  0  0  0  0
  -21.8819   -3.8148   23.4345 C   0  0  0  0  0  0
  -21.9194   -4.6965   22.3402 C   0  0  0  0  0  0
  -22.7805  -13.5218   21.1876 C   0  0  0  0  0  0
  -22.1661   -4.2150   21.0979 F   0  0  0  0  0  0
  -21.5629   -3.4539   25.7738 F   0  0  0  0  0  0
  -29.9744  -13.5680   20.3912 N   0  0  0  0  0  0
  -26.2908  -12.9441   20.3276 N   0  0  0  0  0  0
  -25.9324  -11.6573   20.5759 N   0  0  0  0  0  0
  -22.0454  -12.8204   22.0429 N   0  0  0  0  0  0
  -25.4150  -15.1943   20.4118 N   0  0  0  0  0  0
  -31.8209  -14.8012   20.1401 O   0  0  0  0  0  0
  -21.6642   -6.8881   21.4241 O   0  0  0  0  0  0
  -22.3487  -14.5521   20.6721 O   0  0  0  0  0  0
  -24.6337  -31.8519   23.1952 C   0  0  0  0  0  0
  -25.9152  -32.4734   23.8305 C   0  0  1  0  0  0
  -27.2202  -27.2325   20.1235 C   0  0  0  0  0  0
  -25.5936  -33.8538   24.2228 N   0  0  0  0  0  0
  -23.4316  -30.4738   21.5390 C   0  0  2  0  0  0
  -24.8781  -28.9162   20.1063 C   0  0  0  0  0  0
  -22.7514  -29.4584   22.4895 C   0  0  0  0  0  0
  -18.0292  -28.1388   22.8481 C   0  0  0  0  0  0
  -24.1490  -36.7275   23.2642 C   0  0  0  0  0  0
  -25.9792  -30.7551   21.3789 C   0  0  0  0  0  0
  -26.0497  -29.3754   20.7192 C   0  0  0  0  0  0
  -27.2184  -28.5444   20.7193 C   0  0  0  0  0  0
  -26.0179  -26.8427   19.4910 C   0  0  0  0  0  0
  -24.8690  -27.6594   19.4828 C   0  0  0  0  0  0
  -23.6503  -29.8064   20.1552 C   0  0  0  0  0  0
  -25.4119  -36.3058   24.0322 C   0  0  1  0  0  0
  -20.5898  -28.3701   23.1262 C   0  0  2  0  0  0
  -20.6778  -26.9415   22.5408 C   0  0  0  0  0  0
  -19.5754  -26.6382   21.5211 C   0  0  0  0  0  0
  -18.1934  -26.7929   22.1624 C   0  0  0  0  0  0
  -19.1547  -28.8862   23.2865 C   0  0  0  0  0  0
  -18.9468  -30.1462   23.8886 C   0  0  0  0  0  0
  -17.6467  -30.6588   24.0560 C   0  0  0  0  0  0
  -25.9062  -34.9430   23.5081 C   0  0  0  0  0  0
  -16.5358  -29.9085   23.6334 C   0  0  0  0  0  0
  -16.7278  -28.6503   23.0353 C   0  0  0  0  0  0
  -26.4506  -31.6576   25.0712 C   0  0  0  0  0  0
  -25.3717  -31.3738   26.1426 C   0  0  0  0  0  0
  -27.0359  -30.2987   24.6227 C   0  0  0  0  0  0
  -27.6050  -32.4326   25.7492 C   0  0  0  0  0  0
  -27.5577  -37.1794   24.8466 C   0  0  0  0  0  0
  -21.4217  -29.3041   22.3644 N   0  0  0  0  0  0
  -26.4290  -37.3763   23.9407 N   0  0  0  0  0  0
  -24.7009  -31.0458   22.0939 N   0  0  0  0  0  0
  -23.4203  -28.8129   23.3006 O   0  0  0  0  0  0
  -28.3178  -26.3360   20.2265 O   0  0  0  0  0  0
  -26.5643  -34.8914   22.4656 O   0  0  0  0  0  0
  -23.5482  -32.1357   23.7233 O   0  0  0  0  0  0
  -32.1690  -19.0597   20.4405 C   0  0  0  0  0  0
  -31.2950  -20.1559   20.3863 C   0  0  0  0  0  0
  -31.6948  -17.7403   20.5253 C   0  0  0  0  0  0
  -29.4235  -18.6040   20.5146 C   0  0  0  0  0  0
  -29.8904  -20.0009   20.4263 C   0  0  0  0  0  0
  -30.3134  -17.4277   20.5454 C   0  0  0  0  0  0
  -27.8435  -23.0489   21.1827 C   0  0  0  0  0  0
  -28.5406  -23.5765   20.1685 C   0  0  0  0  0  0
  -28.1877  -21.6364   21.3678 C   0  0  0  0  0  0
  -29.3499  -22.4288   19.6745 C   0  0  0  0  0  0
  -28.4334  -25.0257   19.4786 C   0  0  0  0  0  0
  -29.1021  -21.2929   20.4303 N   0  0  0  0  0  0
  -29.8986  -15.9768   20.6177 N   0  0  0  0  0  0
  -27.7257  -20.8737   22.2240 O   0  0  0  0  0  0
  -30.1159  -22.4609   18.7041 O   0  0  0  0  0  0
  -31.4648  -12.5851   19.1817 H   0  0  0  0  0  0
  -30.3594  -11.5133   19.9895 H   0  0  0  0  0  0
  -29.7978  -11.7236   17.5400 H   0  0  0  0  0  0
  -29.6308  -13.4539   17.7134 H   0  0  0  0  0  0
  -27.9009  -11.2814   18.9334 H   0  0  0  0  0  0
  -27.3780  -12.5029   17.8045 H   0  0  0  0  0  0
  -27.6180  -14.2551   19.4461 H   0  0  0  0  0  0
  -28.7249  -12.2307   21.4517 H   0  0  0  0  0  0
  -28.4095  -13.9196   21.7713 H   0  0  0  0  0  0
  -25.2767   -9.5686   22.4763 H   0  0  0  0  0  0
  -24.0006   -7.4637   22.7474 H   0  0  0  0  0  0
  -21.0850   -8.8778   19.8951 H   0  0  0  0  0  0
  -22.3706  -10.9677   19.6168 H   0  0  0  0  0  0
  -21.2008   -7.6149   23.9716 H   0  0  0  0  0  0
  -21.1481   -6.0523   25.9077 H   0  0  0  0  0  0
  -22.0598   -2.7610   23.2845 H   0  0  0  0  0  0
  -22.4077  -11.9869   22.4819 H   0  0  0  0  0  0
  -21.1069  -13.1220   22.2633 H   0  0  0  0  0  0
  -24.6443  -15.8448   20.5202 H   0  0  0  0  0  0
  -26.2564  -15.6351   20.0637 H   0  0  0  0  0  0
  -26.7213  -32.5371   23.1037 H   0  0  0  0  0  0
  -25.0066  -33.9664   25.0362 H   0  0  0  0  0  0
  -22.7297  -31.2972   21.3914 H   0  0  0  0  0  0
  -23.3754  -35.9606   23.3303 H   0  0  0  0  0  0
  -24.3576  -36.8904   22.2056 H   0  0  0  0  0  0
  -23.7243  -37.6473   23.6673 H   0  0  0  0  0  0
  -26.1229  -31.5148   20.6092 H   0  0  0  0  0  0
  -26.8551  -30.8029   22.0145 H   0  0  0  0  0  0
  -28.1130  -28.8889   21.2190 H   0  0  0  0  0  0
  -25.9110  -25.8721   19.0342 H   0  0  0  0  0  0
  -23.9676  -27.2976   19.0072 H   0  0  0  0  0  0
  -23.7760  -30.5823   19.3992 H   0  0  0  0  0  0
  -22.7675  -29.2414   19.8502 H   0  0  0  0  0  0
  -25.1304  -36.1899   25.0815 H   0  0  0  0  0  0
  -20.9989  -28.3284   24.1383 H   0  0  0  0  0  0
  -20.5677  -26.2310   23.3616 H   0  0  0  0  0  0
  -21.6645  -26.7434   22.1203 H   0  0  0  0  0  0
  -19.6917  -25.6292   21.1245 H   0  0  0  0  0  0
  -19.6693  -27.3189   20.6740 H   0  0  0  0  0  0
  -17.4202  -26.6672   21.4028 H   0  0  0  0  0  0
  -18.0336  -26.0074   22.9026 H   0  0  0  0  0  0
  -19.7946  -30.7276   24.2253 H   0  0  0  0  0  0
  -17.5023  -31.6269   24.5160 H   0  0  0  0  0  0
  -15.5358  -30.2982   23.7666 H   0  0  0  0  0  0
  -15.8678  -28.0818   22.7076 H   0  0  0  0  0  0
  -24.5905  -30.7072   25.7755 H   0  0  0  0  0  0
  -24.8891  -32.2909   26.4814 H   0  0  0  0  0  0
  -25.8023  -30.8945   27.0226 H   0  0  0  0  0  0
  -26.2952  -29.6725   24.1241 H   0  0  0  0  0  0
  -27.4015  -29.7263   25.4763 H   0  0  0  0  0  0
  -27.8840  -30.4249   23.9494 H   0  0  0  0  0  0
  -27.2655  -33.3642   26.2029 H   0  0  0  0  0  0
  -28.3882  -32.6858   25.0334 H   0  0  0  0  0  0
  -28.0692  -31.8475   26.5441 H   0  0  0  0  0  0
  -28.2593  -38.0091   24.7507 H   0  0  0  0  0  0
  -28.1072  -36.2620   24.6300 H   0  0  0  0  0  0
  -27.2290  -37.1451   25.8869 H   0  0  0  0  0  0
  -20.9407  -29.8764   21.6846 H   0  0  0  0  0  0
  -26.0165  -38.2835   24.1408 H   0  0  0  0  0  0
  -33.2358  -19.2353   20.4260 H   0  0  0  0  0  0
  -31.7382  -21.1413   20.3397 H   0  0  0  0  0  0
  -32.4544  -16.9788   20.5843 H   0  0  0  0  0  0
  -28.3571  -18.4323   20.5570 H   0  0  0  0  0  0
  -27.0984  -23.5740   21.7592 H   0  0  0  0  0  0
  -27.7163  -24.9488   18.6652 H   0  0  0  0  0  0
  -29.3797  -25.1378   18.9489 H   0  0  0  0  0  0
  -28.9136  -15.8240   20.7716 H   0  0  0  0  0  0
  1 25  1  0  0  0
  1 30  2  0  0  0
  1 83  1  0  0  0
  2  3  1  0  0  0
  2 25  1  0  0  0
  2 86  1  0  0  0
  2 87  1  0  0  0
  3  4  1  0  0  0
  3 88  1  0  0  0
  3 89  1  0  0  0
  4  5  1  0  0  0
  4 90  1  0  0  0
  4 91  1  0  0  0
  5  6  1  0  0  0
  5 26  1  0  0  0
  5 92  1  0  0  0
  6 25  1  0  0  0
  6 93  1  0  0  0
  6 94  1  0  0  0
  7  8  2  0  0  0
  7 26  1  0  0  0
  7 29  1  0  0  0
  8  9  1  0  0  0
  8 22  1  0  0  0
  9 10  1  0  0  0
  9 27  2  0  0  0
 10 11  2  0  0  0
 10 15  1  0  0  0
 11 12  1  0  0  0
 11 95  1  0  0  0
 12 13  2  0  0  0
 12 96  1  0  0  0
 13 14  1  0  0  0
 13 31  1  0  0  0
 14 15  2  0  0  0
 14 97  1  0  0  0
 15 98  1  0  0  0
 16 17  2  0  0  0
 16 21  1  0  0  0
 16 31  1  0  0  0
 17 18  1  0  0  0
 17 99  1  0  0  0
 18 19  2  0  0  0
 18100  1  0  0  0
 19 20  1  0  0  0
 19 24  1  0  0  0
 20 21  2  0  0  0
 20101  1  0  0  0
 21 23  1  0  0  0
 22 28  1  0  0  0
 22 32  2  0  0  0
 26 27  1  0  0  0
 28102  1  0  0  0
 28103  1  0  0  0
 29104  1  0  0  0
 29105  1  0  0  0
 33 34  1  0  0  0
 33 66  1  0  0  0
 33 70  2  0  0  0
 34 36  1  0  0  0
 34 59  1  0  0  0
 34106  1  0  0  0
 35 44  2  0  0  0
 35 45  1  0  0  0
 35 68  1  0  0  0
 36 56  1  0  0  0
 36107  1  0  0  0
 37 39  1  0  0  0
 37 47  1  0  0  0
 37 66  1  0  0  0
 37108  1  0  0  0
 38 43  2  0  0  0
 38 46  1  0  0  0
 38 47  1  0  0  0
 39 64  1  0  0  0
 39 67  2  0  0  0
 40 52  1  0  0  0
 40 53  2  0  0  0
 40 58  1  0  0  0
 41109  1  0  0  0
 41110  1  0  0  0
 41111  1  0  0  0
 41 48  1  0  0  0
 42 43  1  0  0  0
 42 66  1  0  0  0
 42112  1  0  0  0
 42113  1  0  0  0
 43 44  1  0  0  0
 44114  1  0  0  0
 45 46  2  0  0  0
 45115  1  0  0  0
 46116  1  0  0  0
 47117  1  0  0  0
 47118  1  0  0  0
 48 56  1  0  0  0
 48 65  1  0  0  0
 48119  1  0  0  0
 49 50  1  0  0  0
 49 53  1  0  0  0
 49 64  1  0  0  0
 49120  1  0  0  0
 50 51  1  0  0  0
 50121  1  0  0  0
 50122  1  0  0  0
 51 52  1  0  0  0
 51123  1  0  0  0
 51124  1  0  0  0
 52125  1  0  0  0
 52126  1  0  0  0
 53 54  1  0  0  0
 54 55  2  0  0  0
 54127  1  0  0  0
 55 57  1  0  0  0
 55128  1  0  0  0
 56 69  2  0  0  0
 57 58  2  0  0  0
 57129  1  0  0  0
 58130  1  0  0  0
 59 60  1  0  0  0
 59 61  1  0  0  0
 59 62  1  0  0  0
 60131  1  0  0  0
 60132  1  0  0  0
 60133  1  0  0  0
 61134  1  0  0  0
 61135  1  0  0  0
 61136  1  0  0  0
 62137  1  0  0  0
 62138  1  0  0  0
 62139  1  0  0  0
 63 65  1  0  0  0
 63140  1  0  0  0
 63141  1  0  0  0
 63142  1  0  0  0
 64143  1  0  0  0
 65144  1  0  0  0
 68 81  1  0  0  0
 71 72  2  0  0  0
 71 73  1  0  0  0
 71145  1  0  0  0
 72 75  1  0  0  0
 72146  1  0  0  0
 73 76  2  0  0  0
 73147  1  0  0  0
 74 75  2  0  0  0
 74 76  1  0  0  0
 74148  1  0  0  0
 75 82  1  0  0  0
 76 83  1  0  0  0
 77 78  2  0  0  0
 77 79  1  0  0  0
 77149  1  0  0  0
 78 80  1  0  0  0
 78 81  1  0  0  0
 79 82  1  0  0  0
 79 84  2  0  0  0
 80 82  1  0  0  0
 80 85  2  0  0  0
 81150  1  0  0  0
 81151  1  0  0  0
 83152  1  0  0  0
M  ISO  4   1 100  68 101  81 101  83 100
M  END
> <chiral flag>
0

> <version>
0

> <s_m_source_file>
/data/baiqing/PycharmProjects/Reinvent-master-3.2/result/LINK_invent/BTK/process_docking_weight1_custom_product_contain_oxygen_bond_distance_aromatic_linkinvent_7_9_3/rearranged_h_0086.sdf

> <i_m_source_file_index>
11

> <r_mmod_Potential_Energy-OPLS-2005>
263.750366210938

> <r_mmod_Stretch_Energy-OPLS-2005>
153.43913269043

> <r_mmod_Bend_Energy-OPLS-2005>
235.681442260742

> <r_mmod_Torsional_Energy-OPLS-2005>
243.639572143555

> <r_mmod_Improper_Torsional_Energy-OPLS-2005>
5.71787691116333

> <r_mmod_Van_der_Waal_Energy-OPLS-2005>
143.333236694336

> <r_mmod_Electrostatic_Energy-OPLS-2005>
-383.01611328125

> <r_mmod_Solvation_Energy-OPLS-2005>
-238.981216430664

> <b_mmod_Minimization_Converged-OPLS-2005>
0

> <r_mmod_RMS_Derivative-OPLS-2005>
0.281984508037567

$$$$
11
                    3D
 Structure written by MMmdl.
159167  0  0  1  0            999 V2000
  -30.7084  -14.4919   20.5644 C   0  0  0  0  0  0
  -30.4202  -12.3182   19.4258 C   0  0  0  0  0  0
  -29.4933  -12.5030   18.2073 C   0  0  0  0  0  0
  -28.0157  -12.3609   18.6219 C   0  0  0  0  0  0
  -27.6586  -13.2105   19.8710 C   0  0  2  0  0  0
  -28.7024  -13.0162   20.9943 C   0  0  0  0  0  0
  -25.2579  -13.8165   20.5682 C   0  0  0  0  0  0
  -24.1835  -13.0437   20.9183 C   0  0  0  0  0  0
  -24.6394  -11.6905   20.8743 C   0  0  0  0  0  0
  -23.9062  -10.4291   21.0409 C   0  0  0  0  0  0
  -24.3615   -9.4205   21.9187 C   0  0  0  0  0  0
  -23.6289   -8.2242   22.0756 C   0  0  0  0  0  0
  -22.4271   -8.0282   21.3545 C   0  0  0  0  0  0
  -21.9907   -9.0254   20.4647 C   0  0  0  0  0  0
  -22.7235  -10.2133   20.3056 C   0  0  0  0  0  0
  -21.6850   -6.0738   22.5281 C   0  0  0  0  0  0
  -21.4012   -6.5641   23.8214 C   0  0  0  0  0  0
  -21.3660   -5.6793   24.9175 C   0  0  0  0  0  0
  -21.6043   -4.3056   24.7223 C   0  0  0  0  0  0
  -21.8820   -3.8148   23.4346 C   0  0  0  0  0  0
  -21.9190   -4.6967   22.3402 C   0  0  0  0  0  0
  -22.7858  -13.5237   21.1845 C   0  0  0  0  0  0
  -22.1659   -4.2152   21.0983 F   0  0  0  0  0  0
  -21.5628   -3.4542   25.7736 F   0  0  0  0  0  0
  -30.0293  -13.3179   20.4337 N   0  0  0  0  0  0
  -26.3014  -12.9340   20.3360 N   0  0  0  0  0  0
  -25.9323  -11.6496   20.5774 N   0  0  0  0  0  0
  -22.0497  -12.8229   22.0399 N   0  0  0  0  0  0
  -25.4296  -15.1884   20.4076 N   0  0  0  0  0  0
  -31.8509  -14.6424   20.1219 O   0  0  0  0  0  0
  -21.6635   -6.8878   21.4241 O   0  0  0  0  0  0
  -22.3547  -14.5548   20.6697 O   0  0  0  0  0  0
  -24.6194  -31.8673   23.2132 C   0  0  0  0  0  0
  -25.9085  -32.4809   23.8411 C   0  0  1  0  0  0
  -27.2166  -27.3933   20.0804 C   0  0  0  0  0  0
  -25.5935  -33.8610   24.2335 N   0  0  0  0  0  0
  -23.4064  -30.4975   21.5549 C   0  0  2  0  0  0
  -24.8464  -28.9699   20.1129 C   0  0  0  0  0  0
  -22.7427  -29.4671   22.4979 C   0  0  0  0  0  0
  -18.0279  -28.1377   22.8495 C   0  0  0  0  0  0
  -24.1483  -36.7302   23.2635 C   0  0  0  0  0  0
  -25.9434  -30.8160   21.3773 C   0  0  0  0  0  0
  -26.0134  -29.4512   20.7179 C   0  0  0  0  0  0
  -27.1979  -28.6687   20.7062 C   0  0  0  0  0  0
  -26.0261  -26.9630   19.4392 C   0  0  0  0  0  0
  -24.8498  -27.7250   19.4740 C   0  0  0  0  0  0
  -23.6144  -29.8429   20.1661 C   0  0  0  0  0  0
  -25.4103  -36.3100   24.0336 C   0  0  1  0  0  0
  -20.5874  -28.3673   23.1300 C   0  0  2  0  0  0
  -20.6768  -26.9402   22.5411 C   0  0  0  0  0  0
  -19.5739  -26.6387   21.5213 C   0  0  0  0  0  0
  -18.1921  -26.7927   22.1622 C   0  0  0  0  0  0
  -19.1530  -28.8842   23.2897 C   0  0  0  0  0  0
  -18.9455  -30.1447   23.8908 C   0  0  0  0  0  0
  -17.6457  -30.6582   24.0570 C   0  0  0  0  0  0
  -25.9040  -34.9467   23.5126 C   0  0  0  0  0  0
  -16.5349  -29.9082   23.6333 C   0  0  0  0  0  0
  -16.7268  -28.6498   23.0356 C   0  0  0  0  0  0
  -26.4496  -31.6593   25.0747 C   0  0  0  0  0  0
  -25.3757  -31.3709   26.1493 C   0  0  0  0  0  0
  -27.0325  -30.3019   24.6159 C   0  0  0  0  0  0
  -27.6074  -32.4313   25.7502 C   0  0  0  0  0  0
  -27.5581  -37.1798   24.8459 C   0  0  0  0  0  0
  -21.4154  -29.3044   22.3707 N   0  0  0  0  0  0
  -26.4280  -37.3795   23.9423 N   0  0  0  0  0  0
  -24.6749  -31.0746   22.1056 N   0  0  0  0  0  0
  -23.4186  -28.8203   23.3026 O   0  0  0  0  0  0
  -28.3653  -26.6061   20.1183 O   0  0  0  0  0  0
  -26.5594  -34.8924   22.4681 O   0  0  0  0  0  0
  -23.5379  -32.1449   23.7500 O   0  0  0  0  0  0
  -32.1013  -18.5579   21.8449 C   0  0  0  0  0  0
  -31.2686  -19.6061   21.4068 C   0  0  0  0  0  0
  -31.6874  -17.2172   21.7258 C   0  0  0  0  0  0
  -29.5843  -17.9671   20.7545 C   0  0  0  0  0  0
  -29.9948  -19.3277   20.8618 C   0  0  0  0  0  0
  -30.4297  -16.9005   21.1629 C   0  0  0  0  0  0
  -29.1128  -20.4453   20.3431 C   0  0  0  0  0  0
  -27.2919  -22.9563   21.7390 C   0  0  0  0  0  0
  -29.0663  -24.1869   20.4153 C   0  0  0  0  0  0
  -27.7906  -22.9107   23.1704 C   0  0  0  0  0  0
  -28.2576  -25.2425   19.6227 C   0  0  0  0  0  0
  -28.3460  -22.8203   20.6397 C   0  0  1  0  0  0
  -26.0579  -23.0626   21.4791 N   0  0  0  0  0  0
  -29.9953  -15.5376   21.0426 N   0  0  0  0  0  0
  -29.2329  -21.6640   20.9090 N   0  0  0  0  0  0
  -28.2690  -20.2027   19.4780 O   0  0  0  0  0  0
  -30.2107  -24.4293   20.8183 O   0  0  0  0  0  0
  -31.4652  -12.4115   19.1242 H   0  0  0  0  0  0
  -30.3183  -11.3124   19.8368 H   0  0  0  0  0  0
  -29.7350  -11.7723   17.4345 H   0  0  0  0  0  0
  -29.6580  -13.4853   17.7619 H   0  0  0  0  0  0
  -27.8317  -11.3056   18.8284 H   0  0  0  0  0  0
  -27.3628  -12.6243   17.7889 H   0  0  0  0  0  0
  -27.6943  -14.2545   19.5593 H   0  0  0  0  0  0
  -28.6839  -11.9878   21.3579 H   0  0  0  0  0  0
  -28.4673  -13.6374   21.8595 H   0  0  0  0  0  0
  -25.2760   -9.5679   22.4759 H   0  0  0  0  0  0
  -23.9997   -7.4635   22.7477 H   0  0  0  0  0  0
  -21.0837   -8.8773   19.8955 H   0  0  0  0  0  0
  -22.3698  -10.9672   19.6163 H   0  0  0  0  0  0
  -21.2007   -7.6147   23.9716 H   0  0  0  0  0  0
  -21.1477   -6.0525   25.9078 H   0  0  0  0  0  0
  -22.0598   -2.7611   23.2846 H   0  0  0  0  0  0
  -22.4102  -11.9878   22.4774 H   0  0  0  0  0  0
  -21.1119  -13.1261   22.2613 H   0  0  0  0  0  0
  -24.6605  -15.8415   20.5086 H   0  0  0  0  0  0
  -26.2757  -15.6256   20.0655 H   0  0  0  0  0  0
  -26.7148  -32.5496   23.1163 H   0  0  0  0  0  0
  -25.0114  -33.9774   25.0499 H   0  0  0  0  0  0
  -22.6972  -31.3171   21.4213 H   0  0  0  0  0  0
  -23.3753  -35.9623   23.3279 H   0  0  0  0  0  0
  -24.3588  -36.8936   22.2053 H   0  0  0  0  0  0
  -23.7219  -37.6494   23.6661 H   0  0  0  0  0  0
  -26.0687  -31.5831   20.6120 H   0  0  0  0  0  0
  -26.8273  -30.8600   22.0016 H   0  0  0  0  0  0
  -28.0943  -29.0333   21.1882 H   0  0  0  0  0  0
  -25.9488  -26.0434   18.8825 H   0  0  0  0  0  0
  -23.9570  -27.3565   18.9878 H   0  0  0  0  0  0
  -23.7291  -30.6243   19.4137 H   0  0  0  0  0  0
  -22.7345  -29.2719   19.8628 H   0  0  0  0  0  0
  -25.1274  -36.1956   25.0826 H   0  0  0  0  0  0
  -20.9970  -28.3239   24.1417 H   0  0  0  0  0  0
  -20.5670  -26.2282   23.3608 H   0  0  0  0  0  0
  -21.6638  -26.7438   22.1200 H   0  0  0  0  0  0
  -19.6898  -25.6303   21.1229 H   0  0  0  0  0  0
  -19.6678  -27.3212   20.6754 H   0  0  0  0  0  0
  -17.4196  -26.6698   21.4017 H   0  0  0  0  0  0
  -18.0309  -26.0052   22.8997 H   0  0  0  0  0  0
  -19.7932  -30.7266   24.2278 H   0  0  0  0  0  0
  -17.5009  -31.6260   24.5169 H   0  0  0  0  0  0
  -15.5352  -30.2987   23.7648 H   0  0  0  0  0  0
  -15.8666  -28.0820   22.7067 H   0  0  0  0  0  0
  -24.5953  -30.7021   25.7850 H   0  0  0  0  0  0
  -24.8926  -32.2863   26.4915 H   0  0  0  0  0  0
  -25.8117  -30.8915   27.0267 H   0  0  0  0  0  0
  -26.2876  -29.6773   24.1212 H   0  0  0  0  0  0
  -27.4069  -29.7267   25.4641 H   0  0  0  0  0  0
  -27.8735  -30.4315   23.9341 H   0  0  0  0  0  0
  -27.2702  -33.3622   26.2073 H   0  0  0  0  0  0
  -28.3886  -32.6850   25.0325 H   0  0  0  0  0  0
  -28.0733  -31.8434   26.5420 H   0  0  0  0  0  0
  -28.2578  -38.0117   24.7544 H   0  0  0  0  0  0
  -28.1100  -36.2654   24.6230 H   0  0  0  0  0  0
  -27.2311  -37.1376   25.8864 H   0  0  0  0  0  0
  -20.9314  -29.8780   21.6941 H   0  0  0  0  0  0
  -26.0162  -38.2860   24.1466 H   0  0  0  0  0  0
  -33.0706  -18.7827   22.2683 H   0  0  0  0  0  0
  -31.6253  -20.6242   21.4859 H   0  0  0  0  0  0
  -32.3493  -16.4345   22.0697 H   0  0  0  0  0  0
  -28.6161  -17.7437   20.3270 H   0  0  0  0  0  0
  -28.7779  -23.3648   23.2549 H   0  0  0  0  0  0
  -27.8565  -21.8773   23.5106 H   0  0  0  0  0  0
  -27.1161  -23.4509   23.8351 H   0  0  0  0  0  0
  -27.2436  -24.8621   19.6723 H   0  0  0  0  0  0
  -28.5608  -25.2147   18.5763 H   0  0  0  0  0  0
  -27.8121  -22.6184   19.7092 H   0  0  0  0  0  0
  -25.4952  -23.1242   22.3209 H   0  0  0  0  0  0
  -29.0205  -15.3514   21.2215 H   0  0  0  0  0  0
  -29.9461  -21.7949   21.6105 H   0  0  0  0  0  0
  1 25  1  0  0  0
  1 30  2  0  0  0
  1 84  1  0  0  0
  2  3  1  0  0  0
  2 25  1  0  0  0
  2 88  1  0  0  0
  2 89  1  0  0  0
  3  4  1  0  0  0
  3 90  1  0  0  0
  3 91  1  0  0  0
  4  5  1  0  0  0
  4 92  1  0  0  0
  4 93  1  0  0  0
  5  6  1  0  0  0
  5 26  1  0  0  0
  5 94  1  0  0  0
  6 25  1  0  0  0
  6 95  1  0  0  0
  6 96  1  0  0  0
  7  8  2  0  0  0
  7 26  1  0  0  0
  7 29  1  0  0  0
  8  9  1  0  0  0
  8 22  1  0  0  0
  9 10  1  0  0  0
  9 27  2  0  0  0
 10 11  2  0  0  0
 10 15  1  0  0  0
 11 12  1  0  0  0
 11 97  1  0  0  0
 12 13  2  0  0  0
 12 98  1  0  0  0
 13 14  1  0  0  0
 13 31  1  0  0  0
 14 15  2  0  0  0
 14 99  1  0  0  0
 15100  1  0  0  0
 16 17  2  0  0  0
 16 21  1  0  0  0
 16 31  1  0  0  0
 17 18  1  0  0  0
 17101  1  0  0  0
 18 19  2  0  0  0
 18102  1  0  0  0
 19 20  1  0  0  0
 19 24  1  0  0  0
 20 21  2  0  0  0
 20103  1  0  0  0
 21 23  1  0  0  0
 22 28  1  0  0  0
 22 32  2  0  0  0
 26 27  1  0  0  0
 28104  1  0  0  0
 28105  1  0  0  0
 29106  1  0  0  0
 29107  1  0  0  0
 33 34  1  0  0  0
 33 66  1  0  0  0
 33 70  2  0  0  0
 34 36  1  0  0  0
 34 59  1  0  0  0
 34108  1  0  0  0
 35 44  2  0  0  0
 35 45  1  0  0  0
 35 68  1  0  0  0
 36 56  1  0  0  0
 36109  1  0  0  0
 37 39  1  0  0  0
 37 47  1  0  0  0
 37 66  1  0  0  0
 37110  1  0  0  0
 38 43  2  0  0  0
 38 46  1  0  0  0
 38 47  1  0  0  0
 39 64  1  0  0  0
 39 67  2  0  0  0
 40 52  1  0  0  0
 40 53  2  0  0  0
 40 58  1  0  0  0
 41111  1  0  0  0
 41112  1  0  0  0
 41113  1  0  0  0
 41 48  1  0  0  0
 42 43  1  0  0  0
 42 66  1  0  0  0
 42114  1  0  0  0
 42115  1  0  0  0
 43 44  1  0  0  0
 44116  1  0  0  0
 45 46  2  0  0  0
 45117  1  0  0  0
 46118  1  0  0  0
 47119  1  0  0  0
 47120  1  0  0  0
 48 56  1  0  0  0
 48 65  1  0  0  0
 48121  1  0  0  0
 49 50  1  0  0  0
 49 53  1  0  0  0
 49 64  1  0  0  0
 49122  1  0  0  0
 50 51  1  0  0  0
 50123  1  0  0  0
 50124  1  0  0  0
 51 52  1  0  0  0
 51125  1  0  0  0
 51126  1  0  0  0
 52127  1  0  0  0
 52128  1  0  0  0
 53 54  1  0  0  0
 54 55  2  0  0  0
 54129  1  0  0  0
 55 57  1  0  0  0
 55130  1  0  0  0
 56 69  2  0  0  0
 57 58  2  0  0  0
 57131  1  0  0  0
 58132  1  0  0  0
 59 60  1  0  0  0
 59 61  1  0  0  0
 59 62  1  0  0  0
 60133  1  0  0  0
 60134  1  0  0  0
 60135  1  0  0  0
 61136  1  0  0  0
 61137  1  0  0  0
 61138  1  0  0  0
 62139  1  0  0  0
 62140  1  0  0  0
 62141  1  0  0  0
 63 65  1  0  0  0
 63142  1  0  0  0
 63143  1  0  0  0
 63144  1  0  0  0
 64145  1  0  0  0
 65146  1  0  0  0
 68 81  1  0  0  0
 71 72  2  0  0  0
 71 73  1  0  0  0
 71147  1  0  0  0
 72 75  1  0  0  0
 72148  1  0  0  0
 73 76  2  0  0  0
 73149  1  0  0  0
 74 75  2  0  0  0
 74 76  1  0  0  0
 74150  1  0  0  0
 75 77  1  0  0  0
 76 84  1  0  0  0
 77 85  1  0  0  0
 77 86  2  0  0  0
 78 80  1  0  0  0
 78 82  1  0  0  0
 78 83  2  0  0  0
 79 81  1  0  0  0
 79 82  1  0  0  0
 79 87  2  0  0  0
 80151  1  0  0  0
 80152  1  0  0  0
 80153  1  0  0  0
 81154  1  0  0  0
 81155  1  0  0  0
 82 85  1  0  0  0
 82156  1  0  0  0
 83157  1  0  0  0
 84158  1  0  0  0
 85159  1  0  0  0
M  ISO  4   1 100  68 101  81 101  84 100
M  END
> <chiral flag>
0

> <version>
0

> <s_m_source_file>
/data/baiqing/PycharmProjects/Reinvent-master-3.2/result/LINK_invent/BTK/process_docking_weight1_custom_product_contain_oxygen_bond_distance_aromatic_linkinvent_7_9_3/rearranged_h_0086.sdf

> <i_m_source_file_index>
12

> <r_mmod_Potential_Energy-OPLS-2005>
-198.709289550781

> <r_mmod_Stretch_Energy-OPLS-2005>
46.424919128418

> <r_mmod_Bend_Energy-OPLS-2005>
103.221878051758

> <r_mmod_Torsional_Energy-OPLS-2005>
215.598358154297

> <r_mmod_Improper_Torsional_Energy-OPLS-2005>
4.69021129608154

> <r_mmod_Van_der_Waal_Energy-OPLS-2005>
163.165161132812

> <r_mmod_Electrostatic_Energy-OPLS-2005>
-504.383728027344

> <r_mmod_Solvation_Energy-OPLS-2005>
-247.539581298828

> <b_mmod_Minimization_Converged-OPLS-2005>
0

> <r_mmod_RMS_Derivative-OPLS-2005>
0.782952487468719

$$$$
12
                    3D
 Structure written by MMmdl.
160169  0  0  1  0            999 V2000
  -30.4587  -14.7032   20.5245 C   0  0  0  0  0  0
  -30.4738  -12.4292   19.4530 C   0  0  0  0  0  0
  -29.5202  -12.4819   18.2298 C   0  0  0  0  0  0
  -28.0474  -12.2782   18.6491 C   0  0  0  0  0  0
  -27.6500  -13.1627   19.8540 C   0  0  2  0  0  0
  -28.6921  -12.9881   20.9872 C   0  0  0  0  0  0
  -25.2662  -13.8027   20.5710 C   0  0  0  0  0  0
  -24.1856  -13.0385   20.9253 C   0  0  0  0  0  0
  -24.6339  -11.6824   20.8772 C   0  0  0  0  0  0
  -23.8965  -10.4262   21.0466 C   0  0  0  0  0  0
  -24.3546   -9.4188   21.9239 C   0  0  0  0  0  0
  -23.6255   -8.2211   22.0783 C   0  0  0  0  0  0
  -22.4257   -8.0246   21.3563 C   0  0  0  0  0  0
  -21.9873   -9.0194   20.4650 C   0  0  0  0  0  0
  -22.7170  -10.2090   20.3085 C   0  0  0  0  0  0
  -21.6820   -6.0737   22.5304 C   0  0  0  0  0  0
  -21.3995   -6.5657   23.8244 C   0  0  0  0  0  0
  -21.3651   -5.6815   24.9196 C   0  0  0  0  0  0
  -21.6052   -4.3067   24.7248 C   0  0  0  0  0  0
  -21.8782   -3.8154   23.4363 C   0  0  0  0  0  0
  -21.9170   -4.6969   22.3427 C   0  0  0  0  0  0
  -22.7937  -13.5270   21.1933 C   0  0  0  0  0  0
  -22.1651   -4.2155   21.1004 F   0  0  0  0  0  0
  -21.5611   -3.4557   25.7760 F   0  0  0  0  0  0
  -29.9998  -13.4086   20.4492 N   0  0  0  0  0  0
  -26.2937  -12.9069   20.3181 N   0  0  0  0  0  0
  -25.9233  -11.6311   20.5736 N   0  0  0  0  0  0
  -22.0485  -12.8270   22.0447 N   0  0  0  0  0  0
  -25.4613  -15.1747   20.4210 N   0  0  0  0  0  0
  -31.5923  -15.0461   20.1570 O   0  0  0  0  0  0
  -21.6611   -6.8858   21.4267 O   0  0  0  0  0  0
  -22.3724  -14.5610   20.6784 O   0  0  0  0  0  0
  -24.6264  -31.8603   23.1997 C   0  0  0  0  0  0
  -25.9111  -32.4777   23.8331 C   0  0  1  0  0  0
  -27.2125  -27.2927   20.1666 C   0  0  0  0  0  0
  -25.5914  -33.8580   24.2254 N   0  0  0  0  0  0
  -23.4176  -30.4824   21.5467 C   0  0  2  0  0  0
  -24.8631  -28.9251   20.1225 C   0  0  0  0  0  0
  -22.7433  -29.4649   22.4958 C   0  0  0  0  0  0
  -18.0292  -28.1392   22.8532 C   0  0  0  0  0  0
  -24.1480  -36.7314   23.2632 C   0  0  0  0  0  0
  -25.9567  -30.7853   21.3772 C   0  0  0  0  0  0
  -26.0295  -29.4059   20.7323 C   0  0  0  0  0  0
  -27.2078  -28.6018   20.7442 C   0  0  0  0  0  0
  -26.0305  -26.8627   19.5331 C   0  0  0  0  0  0
  -24.8648  -27.6572   19.5146 C   0  0  0  0  0  0
  -23.6303  -29.8083   20.1677 C   0  0  0  0  0  0
  -25.4109  -36.3096   24.0303 C   0  0  1  0  0  0
  -20.5899  -28.3720   23.1325 C   0  0  2  0  0  0
  -20.6784  -26.9427   22.5491 C   0  0  0  0  0  0
  -19.5772  -26.6380   21.5292 C   0  0  0  0  0  0
  -18.1946  -26.7948   22.1649 C   0  0  0  0  0  0
  -19.1546  -28.8865   23.2934 C   0  0  0  0  0  0
  -18.9414  -30.1480   23.8945 C   0  0  0  0  0  0
  -17.6402  -30.6626   24.0561 C   0  0  0  0  0  0
  -25.9054  -34.9455   23.5096 C   0  0  0  0  0  0
  -16.5310  -29.9098   23.6346 C   0  0  0  0  0  0
  -16.7263  -28.6503   23.0392 C   0  0  0  0  0  0
  -26.4511  -31.6588   25.0709 C   0  0  0  0  0  0
  -25.3742  -31.3710   26.1428 C   0  0  0  0  0  0
  -27.0346  -30.2986   24.6205 C   0  0  0  0  0  0
  -27.6074  -32.4309   25.7518 C   0  0  0  0  0  0
  -27.5574  -37.1821   24.8457 C   0  0  0  0  0  0
  -21.4154  -29.3045   22.3679 N   0  0  0  0  0  0
  -26.4309  -37.3762   23.9381 N   0  0  0  0  0  0
  -24.6859  -31.0571   22.0992 N   0  0  0  0  0  0
  -23.4154  -28.8246   23.3094 O   0  0  0  0  0  0
  -28.3263  -26.4445   20.1227 O   0  0  0  0  0  0
  -26.5607  -34.8918   22.4653 O   0  0  0  0  0  0
  -23.5427  -32.1410   23.7315 O   0  0  0  0  0  0
  -29.6716  -19.0213   22.0411 C   0  0  0  0  0  0
  -28.9679  -19.2236   19.7663 C   0  0  0  0  0  0
  -29.5982  -20.4433   22.1706 C   0  0  0  0  0  0
  -28.9132  -20.6576   19.8931 C   0  0  0  0  0  0
  -29.3674  -18.3519   20.8307 C   0  0  0  0  0  0
  -29.2337  -21.3438   21.1081 C   0  0  0  0  0  0
  -29.1973  -23.7848   23.6861 C   0  0  0  0  0  0
  -28.5639  -23.8360   20.5876 C   0  0  0  0  0  0
  -28.8694  -16.9214   20.9217 C   0  0  0  0  0  0
  -30.0205  -23.3247   22.4649 C   0  0  0  0  0  0
  -27.7497  -25.4989   22.4373 C   0  0  0  0  0  0
  -28.5546  -25.3579   21.1159 C   0  0  1  0  0  0
  -28.2162  -24.6989   23.5823 N   0  0  0  0  0  0
  -29.2220  -22.8363   21.3143 N   0  0  0  0  0  0
  -29.3380  -15.6165   20.8521 N   0  0  0  0  0  0
  -27.5601  -16.9597   21.2033 N   0  3  0  0  0  0
  -29.4517  -23.2908   24.7822 O   0  0  0  0  0  0
  -27.9673  -23.5926   19.5361 O   0  0  0  0  0  0
  -31.5015  -12.6289   19.1481 H   0  0  0  0  0  0
  -30.4717  -11.4293   19.8892 H   0  0  0  0  0  0
  -29.7963  -11.7172   17.5027 H   0  0  0  0  0  0
  -29.6232  -13.4366   17.7172 H   0  0  0  0  0  0
  -27.9284  -11.2279   18.9188 H   0  0  0  0  0  0
  -27.3782  -12.4462   17.8048 H   0  0  0  0  0  0
  -27.6631  -14.1853   19.4800 H   0  0  0  0  0  0
  -28.7382  -11.9460   21.3055 H   0  0  0  0  0  0
  -28.4115  -13.5342   21.8913 H   0  0  0  0  0  0
  -25.2676   -9.5645   22.4817 H   0  0  0  0  0  0
  -23.9946   -7.4587   22.7481 H   0  0  0  0  0  0
  -21.0825   -8.8686   19.8950 H   0  0  0  0  0  0
  -22.3644  -10.9621   19.6167 H   0  0  0  0  0  0
  -21.2016   -7.6171   23.9745 H   0  0  0  0  0  0
  -21.1520   -6.0555   25.9105 H   0  0  0  0  0  0
  -22.0571   -2.7623   23.2861 H   0  0  0  0  0  0
  -22.3979  -11.9814   22.4695 H   0  0  0  0  0  0
  -21.1100  -13.1334   22.2621 H   0  0  0  0  0  0
  -24.5714  -15.6548   20.4999 H   0  0  0  0  0  0
  -25.8695  -15.4019   19.5201 H   0  0  0  0  0  0
  -26.7158  -32.5469   23.1084 H   0  0  0  0  0  0
  -25.0040  -33.9716   25.0380 H   0  0  0  0  0  0
  -22.7125  -31.3032   21.4003 H   0  0  0  0  0  0
  -23.3724  -35.9678   23.3360 H   0  0  0  0  0  0
  -24.3576  -36.8850   22.2031 H   0  0  0  0  0  0
  -23.7224  -37.6528   23.6622 H   0  0  0  0  0  0
  -26.0780  -31.5382   20.5959 H   0  0  0  0  0  0
  -26.8374  -30.8467   22.0037 H   0  0  0  0  0  0
  -28.1003  -28.9728   21.2253 H   0  0  0  0  0  0
  -25.9968  -25.8881   19.0672 H   0  0  0  0  0  0
  -23.9661  -27.2793   19.0442 H   0  0  0  0  0  0
  -23.7370  -30.5856   19.4100 H   0  0  0  0  0  0
  -22.7446  -29.2383   19.8819 H   0  0  0  0  0  0
  -25.1280  -36.1995   25.0784 H   0  0  0  0  0  0
  -20.9977  -28.3314   24.1445 H   0  0  0  0  0  0
  -20.5696  -26.2322   23.3701 H   0  0  0  0  0  0
  -21.6650  -26.7470   22.1282 H   0  0  0  0  0  0
  -19.6935  -25.6272   21.1375 H   0  0  0  0  0  0
  -19.6745  -27.3154   20.6801 H   0  0  0  0  0  0
  -17.4223  -26.6761   21.4034 H   0  0  0  0  0  0
  -18.0279  -26.0090   22.9021 H   0  0  0  0  0  0
  -19.7879  -30.7348   24.2313 H   0  0  0  0  0  0
  -17.4942  -31.6335   24.5106 H   0  0  0  0  0  0
  -15.5305  -30.2978   23.7692 H   0  0  0  0  0  0
  -15.8671  -28.0833   22.7071 H   0  0  0  0  0  0
  -24.6038  -30.6906   25.7768 H   0  0  0  0  0  0
  -24.8823  -32.2861   26.4729 H   0  0  0  0  0  0
  -25.8108  -30.9005   27.0258 H   0  0  0  0  0  0
  -26.2898  -29.6694   24.1318 H   0  0  0  0  0  0
  -27.4062  -29.7301   25.4745 H   0  0  0  0  0  0
  -27.8775  -30.4183   23.9405 H   0  0  0  0  0  0
  -27.2682  -33.3643   26.2055 H   0  0  0  0  0  0
  -28.3956  -32.6796   25.0387 H   0  0  0  0  0  0
  -28.0695  -31.8438   26.5470 H   0  0  0  0  0  0
  -28.2619  -38.0088   24.7446 H   0  0  0  0  0  0
  -28.1034  -36.2611   24.6370 H   0  0  0  0  0  0
  -27.2308  -37.1560   25.8866 H   0  0  0  0  0  0
  -20.9323  -29.8577   21.6739 H   0  0  0  0  0  0
  -26.0217  -38.2860   24.1334 H   0  0  0  0  0  0
  -29.8475  -18.4269   22.9285 H   0  0  0  0  0  0
  -28.5870  -18.7871   18.8482 H   0  0  0  0  0  0
  -29.7778  -20.8090   23.1692 H   0  0  0  0  0  0
  -28.5842  -21.2310   19.0399 H   0  0  0  0  0  0
  -30.7644  -22.5980   22.7880 H   0  0  0  0  0  0
  -30.6936  -24.1283   22.1708 H   0  0  0  0  0  0
  -26.6944  -25.2704   22.2679 H   0  0  0  0  0  0
  -27.7893  -26.5397   22.7707 H   0  0  0  0  0  0
  -29.5766  -25.6198   21.3694 H   0  0  0  0  0  0
  -27.7381  -24.9066   24.4499 H   0  0  0  0  0  0
  -28.5513  -15.0834   21.1556 H   0  0  0  0  0  0
  -27.1679  -17.8706   21.3894 H   0  0  0  0  0  0
  -26.8837  -16.1997   21.0922 H   0  0  0  0  0  0
  1 25  1  0  0  0
  1 30  2  0  0  0
  1 85  1  0  0  0
  2  3  1  0  0  0
  2 25  1  0  0  0
  2 89  1  0  0  0
  2 90  1  0  0  0
  3  4  1  0  0  0
  3 91  1  0  0  0
  3 92  1  0  0  0
  4  5  1  0  0  0
  4 93  1  0  0  0
  4 94  1  0  0  0
  5  6  1  0  0  0
  5 26  1  0  0  0
  5 95  1  0  0  0
  6 25  1  0  0  0
  6 96  1  0  0  0
  6 97  1  0  0  0
  7  8  2  0  0  0
  7 26  1  0  0  0
  7 29  1  0  0  0
  8  9  1  0  0  0
  8 22  1  0  0  0
  9 10  1  0  0  0
  9 27  2  0  0  0
 10 11  2  0  0  0
 10 15  1  0  0  0
 11 12  1  0  0  0
 11 98  1  0  0  0
 12 13  2  0  0  0
 12 99  1  0  0  0
 13 14  1  0  0  0
 13 31  1  0  0  0
 14 15  2  0  0  0
 14100  1  0  0  0
 15101  1  0  0  0
 16 17  2  0  0  0
 16 21  1  0  0  0
 16 31  1  0  0  0
 17 18  1  0  0  0
 17102  1  0  0  0
 18 19  2  0  0  0
 18103  1  0  0  0
 19 20  1  0  0  0
 19 24  1  0  0  0
 20 21  2  0  0  0
 20104  1  0  0  0
 21 23  1  0  0  0
 22 28  1  0  0  0
 22 32  2  0  0  0
 26 27  1  0  0  0
 28105  1  0  0  0
 28106  1  0  0  0
 29107  1  0  0  0
 29108  1  0  0  0
 33 34  1  0  0  0
 33 66  1  0  0  0
 33 70  2  0  0  0
 34 36  1  0  0  0
 34 59  1  0  0  0
 34109  1  0  0  0
 35 44  2  0  0  0
 35 45  1  0  0  0
 35 68  1  0  0  0
 36 56  1  0  0  0
 36110  1  0  0  0
 37 39  1  0  0  0
 37 47  1  0  0  0
 37 66  1  0  0  0
 37111  1  0  0  0
 38 43  2  0  0  0
 38 46  1  0  0  0
 38 47  1  0  0  0
 39 64  1  0  0  0
 39 67  2  0  0  0
 40 52  1  0  0  0
 40 53  2  0  0  0
 40 58  1  0  0  0
 41112  1  0  0  0
 41113  1  0  0  0
 41114  1  0  0  0
 41 48  1  0  0  0
 42 43  1  0  0  0
 42 66  1  0  0  0
 42115  1  0  0  0
 42116  1  0  0  0
 43 44  1  0  0  0
 44117  1  0  0  0
 45 46  2  0  0  0
 45118  1  0  0  0
 46119  1  0  0  0
 47120  1  0  0  0
 47121  1  0  0  0
 48 56  1  0  0  0
 48 65  1  0  0  0
 48122  1  0  0  0
 49 50  1  0  0  0
 49 53  1  0  0  0
 49 64  1  0  0  0
 49123  1  0  0  0
 50 51  1  0  0  0
 50124  1  0  0  0
 50125  1  0  0  0
 51 52  1  0  0  0
 51126  1  0  0  0
 51127  1  0  0  0
 52128  1  0  0  0
 52129  1  0  0  0
 53 54  1  0  0  0
 54 55  2  0  0  0
 54130  1  0  0  0
 55 57  1  0  0  0
 55131  1  0  0  0
 56 69  2  0  0  0
 57 58  2  0  0  0
 57132  1  0  0  0
 58133  1  0  0  0
 59 60  1  0  0  0
 59 61  1  0  0  0
 59 62  1  0  0  0
 60134  1  0  0  0
 60135  1  0  0  0
 60136  1  0  0  0
 61137  1  0  0  0
 61138  1  0  0  0
 61139  1  0  0  0
 62140  1  0  0  0
 62141  1  0  0  0
 62142  1  0  0  0
 63 65  1  0  0  0
 63143  1  0  0  0
 63144  1  0  0  0
 63145  1  0  0  0
 64146  1  0  0  0
 65147  1  0  0  0
 68 82  1  0  0  0
 71 73  2  0  0  0
 71 75  1  0  0  0
 71148  1  0  0  0
 72 74  1  0  0  0
 72 75  2  0  0  0
 72149  1  0  0  0
 73 76  1  0  0  0
 73150  1  0  0  0
 74 76  2  0  0  0
 74151  1  0  0  0
 75 79  1  0  0  0
 76 84  1  0  0  0
 77 80  1  0  0  0
 77 83  1  0  0  0
 77 87  2  0  0  0
 78 82  1  0  0  0
 78 84  1  0  0  0
 78 88  2  0  0  0
 79 85  1  0  0  0
 79 86  2  0  0  0
 80 84  1  0  0  0
 80152  1  0  0  0
 80153  1  0  0  0
 81 82  1  0  0  0
 81 83  1  0  0  0
 81154  1  0  0  0
 81155  1  0  0  0
 82156  1  0  0  0
 83157  1  0  0  0
 85158  1  0  0  0
 86159  1  0  0  0
 86160  1  0  0  0
M  CHG  1  86   1
M  ISO  4   1 100  68 101  82 101  85 100
M  END
> <chiral flag>
0

> <version>
0

> <s_m_source_file>
/data/baiqing/PycharmProjects/Reinvent-master-3.2/result/LINK_invent/BTK/process_docking_weight1_custom_product_contain_oxygen_bond_distance_aromatic_linkinvent_7_9_3/rearranged_h_0086.sdf

> <i_m_source_file_index>
13

> <r_mmod_Potential_Energy-OPLS-2005>
49.6999626159668

> <r_mmod_Stretch_Energy-OPLS-2005>
114.460205078125

> <r_mmod_Bend_Energy-OPLS-2005>
318.063232421875

> <r_mmod_Torsional_Energy-OPLS-2005>
319.578186035156

> <r_mmod_Improper_Torsional_Energy-OPLS-2005>
21.0943012237549

> <r_mmod_Van_der_Waal_Energy-OPLS-2005>
168.696670532227

> <r_mmod_Electrostatic_Energy-OPLS-2005>
-513.419067382812

> <r_mmod_Solvation_Energy-OPLS-2005>
-460.229766845703

> <b_mmod_Minimization_Converged-OPLS-2005>
0

> <r_mmod_RMS_Derivative-OPLS-2005>
6.5065655708313

$$$$
13
                    3D
 Structure written by MMmdl.
150159  0  0  1  0            999 V2000
  -30.5876  -14.8703   20.4084 C   0  0  0  0  0  0
  -30.4291  -12.5301   19.4956 C   0  0  0  0  0  0
  -29.5166  -12.5139   18.2495 C   0  0  0  0  0  0
  -28.0447  -12.3253   18.6613 C   0  0  0  0  0  0
  -27.6320  -13.2475   19.8400 C   0  0  2  0  0  0
  -28.6751  -13.2535   20.9776 C   0  0  0  0  0  0
  -25.2473  -13.8228   20.5725 C   0  0  0  0  0  0
  -24.1790  -13.0445   20.9236 C   0  0  0  0  0  0
  -24.6409  -11.6931   20.8758 C   0  0  0  0  0  0
  -23.9095  -10.4296   21.0413 C   0  0  0  0  0  0
  -24.3643   -9.4205   21.9189 C   0  0  0  0  0  0
  -23.6311   -8.2243   22.0756 C   0  0  0  0  0  0
  -22.4292   -8.0284   21.3548 C   0  0  0  0  0  0
  -21.9935   -9.0263   20.4653 C   0  0  0  0  0  0
  -22.7267  -10.2139   20.3062 C   0  0  0  0  0  0
  -21.6857   -6.0742   22.5283 C   0  0  0  0  0  0
  -21.4016   -6.5645   23.8217 C   0  0  0  0  0  0
  -21.3661   -5.6793   24.9177 C   0  0  0  0  0  0
  -21.6042   -4.3056   24.7226 C   0  0  0  0  0  0
  -21.8818   -3.8152   23.4348 C   0  0  0  0  0  0
  -21.9198   -4.6970   22.3407 C   0  0  0  0  0  0
  -22.7807  -13.5205   21.1891 C   0  0  0  0  0  0
  -22.1661   -4.2155   21.0985 F   0  0  0  0  0  0
  -21.5631   -3.4541   25.7741 F   0  0  0  0  0  0
  -29.9609  -13.6317   20.3808 N   0  0  0  0  0  0
  -26.2901  -12.9462   20.3254 N   0  0  0  0  0  0
  -25.9339  -11.6589   20.5748 N   0  0  0  0  0  0
  -22.0468  -12.8183   22.0446 N   0  0  0  0  0  0
  -25.4122  -15.1962   20.4164 N   0  0  0  0  0  0
  -31.7964  -14.8855   20.1589 O   0  0  0  0  0  0
  -21.6646   -6.8886   21.4246 O   0  0  0  0  0  0
  -22.3484  -14.5505   20.6737 O   0  0  0  0  0  0
  -24.6389  -31.8485   23.1933 C   0  0  0  0  0  0
  -25.9179  -32.4719   23.8310 C   0  0  1  0  0  0
  -27.2145  -27.1834   20.1477 C   0  0  0  0  0  0
  -25.5944  -33.8528   24.2217 N   0  0  0  0  0  0
  -23.4412  -30.4686   21.5379 C   0  0  2  0  0  0
  -24.8915  -28.9046   20.1111 C   0  0  0  0  0  0
  -22.7551  -29.4555   22.4879 C   0  0  0  0  0  0
  -18.0299  -28.1393   22.8478 C   0  0  0  0  0  0
  -24.1490  -36.7270   23.2638 C   0  0  0  0  0  0
  -25.9942  -30.7349   21.3886 C   0  0  0  0  0  0
  -26.0664  -29.3502   20.7315 C   0  0  0  0  0  0
  -27.2324  -28.5027   20.7397 C   0  0  0  0  0  0
  -26.0211  -26.8322   19.4818 C   0  0  0  0  0  0
  -24.8777  -27.6556   19.4732 C   0  0  0  0  0  0
  -23.6677  -29.8034   20.1549 C   0  0  0  0  0  0
  -25.4120  -36.3046   24.0316 C   0  0  1  0  0  0
  -20.5911  -28.3710   23.1250 C   0  0  2  0  0  0
  -20.6783  -26.9416   22.5412 C   0  0  0  0  0  0
  -19.5759  -26.6373   21.5221 C   0  0  0  0  0  0
  -18.1939  -26.7929   22.1631 C   0  0  0  0  0  0
  -19.1555  -28.8872   23.2854 C   0  0  0  0  0  0
  -18.9474  -30.1471   23.8876 C   0  0  0  0  0  0
  -17.6469  -30.6590   24.0561 C   0  0  0  0  0  0
  -25.9068  -34.9421   23.5073 C   0  0  0  0  0  0
  -16.5360  -29.9087   23.6331 C   0  0  0  0  0  0
  -16.7285  -28.6508   23.0350 C   0  0  0  0  0  0
  -26.4507  -31.6577   25.0738 C   0  0  0  0  0  0
  -25.3704  -31.3776   26.1446 C   0  0  0  0  0  0
  -27.0355  -30.2970   24.6298 C   0  0  0  0  0  0
  -27.6032  -32.4345   25.7527 C   0  0  0  0  0  0
  -27.5574  -37.1796   24.8461 C   0  0  0  0  0  0
  -21.4248  -29.3045   22.3631 N   0  0  0  0  0  0
  -26.4283  -37.3755   23.9405 N   0  0  0  0  0  0
  -24.7107  -31.0376   22.0952 N   0  0  0  0  0  0
  -23.4216  -28.8092   23.3001 O   0  0  0  0  0  0
  -28.2485  -26.1946   20.1855 O   0  0  0  0  0  0
  -26.5652  -34.8906   22.4649 O   0  0  0  0  0  0
  -23.5516  -32.1343   23.7174 O   0  0  0  0  0  0
  -29.4038  -18.7653   20.4677 C   0  0  0  0  0  0
  -30.9433  -20.1749   19.2930 C   0  0  0  0  0  0
  -31.3158  -17.7516   19.3698 C   0  0  0  0  0  0
  -29.7492  -20.1571   20.0572 C   0  0  0  0  0  0
  -30.1676  -17.5233   20.1588 C   0  0  0  0  0  0
  -31.6935  -19.0360   18.9545 C   0  0  0  0  0  0
  -28.4802  -23.5541   20.3973 C   0  0  0  0  0  0
  -28.0297  -22.2234   20.8743 C   0  0  0  0  0  0
  -27.9083  -24.8360   20.5707 C   0  0  0  0  0  0
  -29.6879  -22.8345   19.7413 C   0  0  0  0  0  0
  -29.1212  -21.5392   20.2618 N   0  0  0  0  0  0
  -29.8441  -16.0741   20.5305 N   0  0  0  0  0  0
  -27.0717  -21.9112   21.5501 O   0  0  0  0  0  0
  -32.8090  -19.1819   18.1988 F   0  0  0  0  0  0
  -31.4689  -12.6551   19.1890 H   0  0  0  0  0  0
  -30.3884  -11.5737   20.0197 H   0  0  0  0  0  0
  -29.8202  -11.7173   17.5688 H   0  0  0  0  0  0
  -29.6287  -13.4491   17.6983 H   0  0  0  0  0  0
  -27.9178  -11.2804   18.9475 H   0  0  0  0  0  0
  -27.3878  -12.4869   17.8056 H   0  0  0  0  0  0
  -27.6028  -14.2557   19.4262 H   0  0  0  0  0  0
  -28.7415  -12.2757   21.4572 H   0  0  0  0  0  0
  -28.3913  -13.9624   21.7566 H   0  0  0  0  0  0
  -25.2794   -9.5672   22.4759 H   0  0  0  0  0  0
  -24.0022   -7.4631   22.7469 H   0  0  0  0  0  0
  -21.0870   -8.8788   19.8954 H   0  0  0  0  0  0
  -22.3737  -10.9682   19.6169 H   0  0  0  0  0  0
  -21.2002   -7.6154   23.9723 H   0  0  0  0  0  0
  -21.1482   -6.0525   25.9080 H   0  0  0  0  0  0
  -22.0595   -2.7616   23.2849 H   0  0  0  0  0  0
  -22.4105  -11.9853   22.4837 H   0  0  0  0  0  0
  -21.1081  -13.1183   22.2652 H   0  0  0  0  0  0
  -24.6429  -15.8459   20.5397 H   0  0  0  0  0  0
  -26.2540  -15.6422   20.0759 H   0  0  0  0  0  0
  -26.7246  -32.5331   23.1044 H   0  0  0  0  0  0
  -25.0062  -33.9660   25.0343 H   0  0  0  0  0  0
  -22.7409  -31.2927   21.3872 H   0  0  0  0  0  0
  -23.3752  -35.9602   23.3295 H   0  0  0  0  0  0
  -24.3567  -36.8909   22.2052 H   0  0  0  0  0  0
  -23.7252  -37.6468   23.6680 H   0  0  0  0  0  0
  -26.1453  -31.4911   20.6174 H   0  0  0  0  0  0
  -26.8665  -30.7846   22.0282 H   0  0  0  0  0  0
  -28.1276  -28.8338   21.2472 H   0  0  0  0  0  0
  -25.9557  -25.8738   18.9863 H   0  0  0  0  0  0
  -23.9813  -27.3099   18.9765 H   0  0  0  0  0  0
  -23.8070  -30.5823   19.4043 H   0  0  0  0  0  0
  -22.7829  -29.2484   19.8387 H   0  0  0  0  0  0
  -25.1307  -36.1878   25.0808 H   0  0  0  0  0  0
  -20.9994  -28.3295   24.1376 H   0  0  0  0  0  0
  -20.5677  -26.2325   23.3629 H   0  0  0  0  0  0
  -21.6649  -26.7425   22.1212 H   0  0  0  0  0  0
  -19.6917  -25.6279   21.1267 H   0  0  0  0  0  0
  -19.6695  -27.3171   20.6742 H   0  0  0  0  0  0
  -17.4205  -26.6671   21.4037 H   0  0  0  0  0  0
  -18.0338  -26.0083   22.9040 H   0  0  0  0  0  0
  -19.7949  -30.7296   24.2231 H   0  0  0  0  0  0
  -17.5023  -31.6266   24.5173 H   0  0  0  0  0  0
  -15.5360  -30.2983   23.7667 H   0  0  0  0  0  0
  -15.8686  -28.0825   22.7066 H   0  0  0  0  0  0
  -24.5863  -30.7141   25.7783 H   0  0  0  0  0  0
  -24.8918  -32.2970   26.4833 H   0  0  0  0  0  0
  -25.7993  -30.8975   27.0252 H   0  0  0  0  0  0
  -26.2964  -29.6718   24.1274 H   0  0  0  0  0  0
  -27.3933  -29.7241   25.4864 H   0  0  0  0  0  0
  -27.8892  -30.4202   23.9629 H   0  0  0  0  0  0
  -27.2600  -33.3643   26.2079 H   0  0  0  0  0  0
  -28.3860  -32.6920   25.0379 H   0  0  0  0  0  0
  -28.0685  -31.8502   26.5475 H   0  0  0  0  0  0
  -28.2584  -38.0098   24.7493 H   0  0  0  0  0  0
  -28.1077  -36.2625   24.6301 H   0  0  0  0  0  0
  -27.2289  -37.1459   25.8863 H   0  0  0  0  0  0
  -20.9449  -29.8783   21.6840 H   0  0  0  0  0  0
  -26.0151  -38.2822   24.1412 H   0  0  0  0  0  0
  -28.5001  -18.6488   21.0492 H   0  0  0  0  0  0
  -31.3349  -21.1058   18.9152 H   0  0  0  0  0  0
  -31.9476  -16.9458   19.0359 H   0  0  0  0  0  0
  -26.9946  -24.8634   21.1486 H   0  0  0  0  0  0
  -30.6721  -23.0456   20.1625 H   0  0  0  0  0  0
  -29.7347  -22.8541   18.6511 H   0  0  0  0  0  0
  -28.8949  -15.9221   20.8367 H   0  0  0  0  0  0
  1 25  1  0  0  0
  1 30  2  0  0  0
  1 82  1  0  0  0
  2  3  1  0  0  0
  2 25  1  0  0  0
  2 85  1  0  0  0
  2 86  1  0  0  0
  3  4  1  0  0  0
  3 87  1  0  0  0
  3 88  1  0  0  0
  4  5  1  0  0  0
  4 89  1  0  0  0
  4 90  1  0  0  0
  5  6  1  0  0  0
  5 26  1  0  0  0
  5 91  1  0  0  0
  6 25  1  0  0  0
  6 92  1  0  0  0
  6 93  1  0  0  0
  7  8  2  0  0  0
  7 26  1  0  0  0
  7 29  1  0  0  0
  8  9  1  0  0  0
  8 22  1  0  0  0
  9 10  1  0  0  0
  9 27  2  0  0  0
 10 11  2  0  0  0
 10 15  1  0  0  0
 11 12  1  0  0  0
 11 94  1  0  0  0
 12 13  2  0  0  0
 12 95  1  0  0  0
 13 14  1  0  0  0
 13 31  1  0  0  0
 14 15  2  0  0  0
 14 96  1  0  0  0
 15 97  1  0  0  0
 16 17  2  0  0  0
 16 21  1  0  0  0
 16 31  1  0  0  0
 17 18  1  0  0  0
 17 98  1  0  0  0
 18 19  2  0  0  0
 18 99  1  0  0  0
 19 20  1  0  0  0
 19 24  1  0  0  0
 20 21  2  0  0  0
 20100  1  0  0  0
 21 23  1  0  0  0
 22 28  1  0  0  0
 22 32  2  0  0  0
 26 27  1  0  0  0
 28101  1  0  0  0
 28102  1  0  0  0
 29103  1  0  0  0
 29104  1  0  0  0
 33 34  1  0  0  0
 33 66  1  0  0  0
 33 70  2  0  0  0
 34 36  1  0  0  0
 34 59  1  0  0  0
 34105  1  0  0  0
 35 44  2  0  0  0
 35 45  1  0  0  0
 35 68  1  0  0  0
 36 56  1  0  0  0
 36106  1  0  0  0
 37 39  1  0  0  0
 37 47  1  0  0  0
 37 66  1  0  0  0
 37107  1  0  0  0
 38 43  2  0  0  0
 38 46  1  0  0  0
 38 47  1  0  0  0
 39 64  1  0  0  0
 39 67  2  0  0  0
 40 52  1  0  0  0
 40 53  2  0  0  0
 40 58  1  0  0  0
 41108  1  0  0  0
 41109  1  0  0  0
 41110  1  0  0  0
 41 48  1  0  0  0
 42 43  1  0  0  0
 42 66  1  0  0  0
 42111  1  0  0  0
 42112  1  0  0  0
 43 44  1  0  0  0
 44113  1  0  0  0
 45 46  2  0  0  0
 45114  1  0  0  0
 46115  1  0  0  0
 47116  1  0  0  0
 47117  1  0  0  0
 48 56  1  0  0  0
 48 65  1  0  0  0
 48118  1  0  0  0
 49 50  1  0  0  0
 49 53  1  0  0  0
 49 64  1  0  0  0
 49119  1  0  0  0
 50 51  1  0  0  0
 50120  1  0  0  0
 50121  1  0  0  0
 51 52  1  0  0  0
 51122  1  0  0  0
 51123  1  0  0  0
 52124  1  0  0  0
 52125  1  0  0  0
 53 54  1  0  0  0
 54 55  2  0  0  0
 54126  1  0  0  0
 55 57  1  0  0  0
 55127  1  0  0  0
 56 69  2  0  0  0
 57 58  2  0  0  0
 57128  1  0  0  0
 58129  1  0  0  0
 59 60  1  0  0  0
 59 61  1  0  0  0
 59 62  1  0  0  0
 60130  1  0  0  0
 60131  1  0  0  0
 60132  1  0  0  0
 61133  1  0  0  0
 61134  1  0  0  0
 61135  1  0  0  0
 62136  1  0  0  0
 62137  1  0  0  0
 62138  1  0  0  0
 63 65  1  0  0  0
 63139  1  0  0  0
 63140  1  0  0  0
 63141  1  0  0  0
 64142  1  0  0  0
 65143  1  0  0  0
 68 79  1  0  0  0
 71 74  2  0  0  0
 71 75  1  0  0  0
 71144  1  0  0  0
 72 74  1  0  0  0
 72 76  2  0  0  0
 72145  1  0  0  0
 73 75  2  0  0  0
 73 76  1  0  0  0
 73146  1  0  0  0
 74 81  1  0  0  0
 75 82  1  0  0  0
 76 84  1  0  0  0
 77 78  1  0  0  0
 77 79  2  0  0  0
 77 80  1  0  0  0
 78 81  1  0  0  0
 78 83  2  0  0  0
 79147  1  0  0  0
 80 81  1  0  0  0
 80148  1  0  0  0
 80149  1  0  0  0
 82150  1  0  0  0
M  ISO  4   1 100  68 101  79 101  82 100
M  END
> <chiral flag>
0

> <version>
0

> <s_m_source_file>
/data/baiqing/PycharmProjects/Reinvent-master-3.2/result/LINK_invent/BTK/process_docking_weight1_custom_product_contain_oxygen_bond_distance_aromatic_linkinvent_7_9_3/rearranged_h_0086.sdf

> <i_m_source_file_index>
14

> <r_mmod_Potential_Energy-OPLS-2005>
443.54248046875

> <r_mmod_Stretch_Energy-OPLS-2005>
190.499206542969

> <r_mmod_Bend_Energy-OPLS-2005>
287.619781494141

> <r_mmod_Torsional_Energy-OPLS-2005>
223.418807983398

> <r_mmod_Improper_Torsional_Energy-OPLS-2005>
3.9735255241394

> <r_mmod_Van_der_Waal_Energy-OPLS-2005>
140.909149169922

> <r_mmod_Electrostatic_Energy-OPLS-2005>
-335.642303466797

> <r_mmod_Solvation_Energy-OPLS-2005>
-217.531967163086

> <b_mmod_Minimization_Converged-OPLS-2005>
0

> <r_mmod_RMS_Derivative-OPLS-2005>
1.05436885356903

$$$$
14
                    3D
 Structure written by MMmdl.
154162  0  0  1  0            999 V2000
  -30.5955  -14.7602   20.4704 C   0  0  0  0  0  0
  -30.4415  -12.4713   19.4586 C   0  0  0  0  0  0
  -29.5108  -12.5032   18.2257 C   0  0  0  0  0  0
  -28.0377  -12.3206   18.6439 C   0  0  0  0  0  0
  -27.6400  -13.2259   19.8409 C   0  0  2  0  0  0
  -28.6876  -13.1677   20.9737 C   0  0  0  0  0  0
  -25.2516  -13.8181   20.5660 C   0  0  0  0  0  0
  -24.1817  -13.0439   20.9217 C   0  0  0  0  0  0
  -24.6405  -11.6912   20.8756 C   0  0  0  0  0  0
  -23.9076  -10.4291   21.0413 C   0  0  0  0  0  0
  -24.3625   -9.4208   21.9187 C   0  0  0  0  0  0
  -23.6300   -8.2244   22.0753 C   0  0  0  0  0  0
  -22.4280   -8.0281   21.3545 C   0  0  0  0  0  0
  -21.9917   -9.0256   20.4649 C   0  0  0  0  0  0
  -22.7249  -10.2134   20.3056 C   0  0  0  0  0  0
  -21.6847   -6.0741   22.5278 C   0  0  0  0  0  0
  -21.4013   -6.5643   23.8215 C   0  0  0  0  0  0
  -21.3660   -5.6796   24.9176 C   0  0  0  0  0  0
  -21.6041   -4.3059   24.7225 C   0  0  0  0  0  0
  -21.8825   -3.8152   23.4349 C   0  0  0  0  0  0
  -21.9193   -4.6968   22.3407 C   0  0  0  0  0  0
  -22.7834  -13.5216   21.1877 C   0  0  0  0  0  0
  -22.1666   -4.2149   21.0988 F   0  0  0  0  0  0
  -21.5629   -3.4547   25.7746 F   0  0  0  0  0  0
  -29.9807  -13.5315   20.3824 N   0  0  0  0  0  0
  -26.2938  -12.9375   20.3234 N   0  0  0  0  0  0
  -25.9330  -11.6529   20.5742 N   0  0  0  0  0  0
  -22.0488  -12.8188   22.0421 N   0  0  0  0  0  0
  -25.4205  -15.1911   20.4033 N   0  0  0  0  0  0
  -31.8012  -14.8637   20.2281 O   0  0  0  0  0  0
  -21.6647   -6.8880   21.4234 O   0  0  0  0  0  0
  -22.3515  -14.5531   20.6735 O   0  0  0  0  0  0
  -24.6328  -31.8549   23.1965 C   0  0  0  0  0  0
  -25.9148  -32.4741   23.8326 C   0  0  1  0  0  0
  -27.2182  -27.2510   20.1478 C   0  0  0  0  0  0
  -25.5937  -33.8541   24.2245 N   0  0  0  0  0  0
  -23.4290  -30.4755   21.5393 C   0  0  2  0  0  0
  -24.8776  -28.9186   20.1110 C   0  0  0  0  0  0
  -22.7505  -29.4603   22.4916 C   0  0  0  0  0  0
  -18.0296  -28.1394   22.8483 C   0  0  0  0  0  0
  -24.1493  -36.7289   23.2640 C   0  0  0  0  0  0
  -25.9743  -30.7664   21.3763 C   0  0  0  0  0  0
  -26.0494  -29.3859   20.7222 C   0  0  0  0  0  0
  -27.2257  -28.5667   20.7249 C   0  0  0  0  0  0
  -26.0275  -26.8513   19.5067 C   0  0  0  0  0  0
  -24.8732  -27.6591   19.4896 C   0  0  0  0  0  0
  -23.6485  -29.8073   20.1554 C   0  0  0  0  0  0
  -25.4118  -36.3065   24.0325 C   0  0  1  0  0  0
  -20.5899  -28.3710   23.1285 C   0  0  2  0  0  0
  -20.6791  -26.9426   22.5426 C   0  0  0  0  0  0
  -19.5766  -26.6386   21.5224 C   0  0  0  0  0  0
  -18.1943  -26.7932   22.1631 C   0  0  0  0  0  0
  -19.1548  -28.8865   23.2873 C   0  0  0  0  0  0
  -18.9473  -30.1465   23.8890 C   0  0  0  0  0  0
  -17.6472  -30.6589   24.0561 C   0  0  0  0  0  0
  -25.9065  -34.9435   23.5092 C   0  0  0  0  0  0
  -16.5363  -29.9090   23.6321 C   0  0  0  0  0  0
  -16.7282  -28.6506   23.0345 C   0  0  0  0  0  0
  -26.4511  -31.6565   25.0716 C   0  0  0  0  0  0
  -25.3731  -31.3711   26.1433 C   0  0  0  0  0  0
  -27.0363  -30.2980   24.6204 C   0  0  0  0  0  0
  -27.6054  -32.4310   25.7493 C   0  0  0  0  0  0
  -27.5575  -37.1802   24.8464 C   0  0  0  0  0  0
  -21.4213  -29.3061   22.3674 N   0  0  0  0  0  0
  -26.4290  -37.3764   23.9407 N   0  0  0  0  0  0
  -24.6972  -31.0512   22.0934 N   0  0  0  0  0  0
  -23.4203  -28.8153   23.3022 O   0  0  0  0  0  0
  -28.2994  -26.3403   20.1745 O   0  0  0  0  0  0
  -26.5639  -34.8913   22.4657 O   0  0  0  0  0  0
  -23.5477  -32.1375   23.7253 O   0  0  0  0  0  0
  -31.0951  -18.9057   22.4193 C   0  0  0  0  0  0
  -30.4735  -20.0170   21.8061 C   0  0  0  0  0  0
  -30.8990  -17.5872   21.9518 C   0  0  0  0  0  0
  -29.4085  -18.4814   20.2521 C   0  0  0  0  0  0
  -29.6294  -19.8621   20.6879 C   0  0  0  0  0  0
  -30.0436  -17.3124   20.8617 C   0  0  0  0  0  0
  -28.6157  -23.6223   20.0516 C   0  0  0  0  0  0
  -29.0993  -21.1626   19.9963 C   0  0  0  0  0  0
  -27.9778  -21.5624   17.7904 C   0  0  0  0  0  0
  -28.0645  -24.9638   20.7544 C   0  0  0  0  0  0
  -28.8158  -22.4237   20.6023 N   0  0  0  0  0  0
  -29.7747  -15.8847   20.5196 N   0  0  0  0  0  0
  -28.9974  -21.0059   18.7065 N   0  3  0  0  0  0
  -31.4775  -12.6244   19.1514 H   0  0  0  0  0  0
  -30.4124  -11.4950   19.9459 H   0  0  0  0  0  0
  -29.7971  -11.7273   17.5147 H   0  0  0  0  0  0
  -29.6285  -13.4540   17.7039 H   0  0  0  0  0  0
  -27.9032  -11.2726   18.9149 H   0  0  0  0  0  0
  -27.3770  -12.5040   17.7958 H   0  0  0  0  0  0
  -27.6292  -14.2432   19.4500 H   0  0  0  0  0  0
  -28.7356  -12.1712   21.4174 H   0  0  0  0  0  0
  -28.4197  -13.8526   21.7807 H   0  0  0  0  0  0
  -25.2767   -9.5686   22.4760 H   0  0  0  0  0  0
  -24.0017   -7.4634   22.7468 H   0  0  0  0  0  0
  -21.0854   -8.8778   19.8948 H   0  0  0  0  0  0
  -22.3713  -10.9672   19.6161 H   0  0  0  0  0  0
  -21.2010   -7.6151   23.9714 H   0  0  0  0  0  0
  -21.1466   -6.0532   25.9078 H   0  0  0  0  0  0
  -22.0603   -2.7612   23.2858 H   0  0  0  0  0  0
  -22.4113  -11.9826   22.4764 H   0  0  0  0  0  0
  -21.1104  -13.1186   22.2659 H   0  0  0  0  0  0
  -24.6451  -15.8382   20.4979 H   0  0  0  0  0  0
  -26.2516  -15.6253   20.0241 H   0  0  0  0  0  0
  -26.7212  -32.5389   23.1072 H   0  0  0  0  0  0
  -25.0065  -33.9675   25.0376 H   0  0  0  0  0  0
  -22.7243  -31.2965   21.3919 H   0  0  0  0  0  0
  -23.3753  -35.9624   23.3292 H   0  0  0  0  0  0
  -24.3590  -36.8925   22.2057 H   0  0  0  0  0  0
  -23.7256  -37.6487   23.6676 H   0  0  0  0  0  0
  -26.1100  -31.5237   20.6030 H   0  0  0  0  0  0
  -26.8524  -30.8186   22.0084 H   0  0  0  0  0  0
  -28.1229  -28.9188   21.2152 H   0  0  0  0  0  0
  -25.9778  -25.8816   19.0314 H   0  0  0  0  0  0
  -23.9785  -27.2959   19.0030 H   0  0  0  0  0  0
  -23.7725  -30.5828   19.3989 H   0  0  0  0  0  0
  -22.7664  -29.2430   19.8490 H   0  0  0  0  0  0
  -25.1304  -36.1905   25.0818 H   0  0  0  0  0  0
  -20.9980  -28.3302   24.1414 H   0  0  0  0  0  0
  -20.5694  -26.2335   23.3644 H   0  0  0  0  0  0
  -21.6655  -26.7454   22.1219 H   0  0  0  0  0  0
  -19.6943  -25.6293   21.1265 H   0  0  0  0  0  0
  -19.6706  -27.3180   20.6742 H   0  0  0  0  0  0
  -17.4212  -26.6657   21.4036 H   0  0  0  0  0  0
  -18.0335  -26.0082   22.9037 H   0  0  0  0  0  0
  -19.7941  -30.7281   24.2273 H   0  0  0  0  0  0
  -17.5021  -31.6261   24.5187 H   0  0  0  0  0  0
  -15.5362  -30.2993   23.7662 H   0  0  0  0  0  0
  -15.8674  -28.0825   22.7081 H   0  0  0  0  0  0
  -24.5916  -30.7048   25.7757 H   0  0  0  0  0  0
  -24.8921  -32.2882   26.4843 H   0  0  0  0  0  0
  -25.8061  -30.8899   27.0214 H   0  0  0  0  0  0
  -26.2947  -29.6712   24.1241 H   0  0  0  0  0  0
  -27.4053  -29.7251   25.4722 H   0  0  0  0  0  0
  -27.8820  -30.4243   23.9440 H   0  0  0  0  0  0
  -27.2651  -33.3613   26.2048 H   0  0  0  0  0  0
  -28.3881  -32.6862   25.0337 H   0  0  0  0  0  0
  -28.0704  -31.8453   26.5433 H   0  0  0  0  0  0
  -28.2592  -38.0097   24.7506 H   0  0  0  0  0  0
  -28.1074  -36.2634   24.6298 H   0  0  0  0  0  0
  -27.2299  -37.1455   25.8866 H   0  0  0  0  0  0
  -20.9402  -29.8778   21.6873 H   0  0  0  0  0  0
  -26.0169  -38.2837   24.1395 H   0  0  0  0  0  0
  -31.7411  -19.0728   23.2689 H   0  0  0  0  0  0
  -30.6723  -21.0093   22.1807 H   0  0  0  0  0  0
  -31.3881  -16.7753   22.4740 H   0  0  0  0  0  0
  -28.7341  -18.3225   19.4257 H   0  0  0  0  0  0
  -28.8004  -23.7854   18.9869 H   0  0  0  0  0  0
  -27.1712  -22.0258   18.3596 H   0  0  0  0  0  0
  -27.5745  -20.7417   17.1968 H   0  0  0  0  0  0
  -28.4577  -22.2875   17.1329 H   0  0  0  0  0  0
  -28.4659  -24.9841   21.7677 H   0  0  0  0  0  0
  -26.9947  -24.8145   20.8965 H   0  0  0  0  0  0
  -28.8020  -15.6601   20.3838 H   0  0  0  0  0  0
  -29.4871  -20.2100   18.2906 H   0  0  0  0  0  0
  1 25  1  0  0  0
  1 30  2  0  0  0
  1 82  1  0  0  0
  2  3  1  0  0  0
  2 25  1  0  0  0
  2 84  1  0  0  0
  2 85  1  0  0  0
  3  4  1  0  0  0
  3 86  1  0  0  0
  3 87  1  0  0  0
  4  5  1  0  0  0
  4 88  1  0  0  0
  4 89  1  0  0  0
  5  6  1  0  0  0
  5 26  1  0  0  0
  5 90  1  0  0  0
  6 25  1  0  0  0
  6 91  1  0  0  0
  6 92  1  0  0  0
  7  8  2  0  0  0
  7 26  1  0  0  0
  7 29  1  0  0  0
  8  9  1  0  0  0
  8 22  1  0  0  0
  9 10  1  0  0  0
  9 27  2  0  0  0
 10 11  2  0  0  0
 10 15  1  0  0  0
 11 12  1  0  0  0
 11 93  1  0  0  0
 12 13  2  0  0  0
 12 94  1  0  0  0
 13 14  1  0  0  0
 13 31  1  0  0  0
 14 15  2  0  0  0
 14 95  1  0  0  0
 15 96  1  0  0  0
 16 17  2  0  0  0
 16 21  1  0  0  0
 16 31  1  0  0  0
 17 18  1  0  0  0
 17 97  1  0  0  0
 18 19  2  0  0  0
 18 98  1  0  0  0
 19 20  1  0  0  0
 19 24  1  0  0  0
 20 21  2  0  0  0
 20 99  1  0  0  0
 21 23  1  0  0  0
 22 28  1  0  0  0
 22 32  2  0  0  0
 26 27  1  0  0  0
 28100  1  0  0  0
 28101  1  0  0  0
 29102  1  0  0  0
 29103  1  0  0  0
 33 34  1  0  0  0
 33 66  1  0  0  0
 33 70  2  0  0  0
 34 36  1  0  0  0
 34 59  1  0  0  0
 34104  1  0  0  0
 35 44  2  0  0  0
 35 45  1  0  0  0
 35 68  1  0  0  0
 36 56  1  0  0  0
 36105  1  0  0  0
 37 39  1  0  0  0
 37 47  1  0  0  0
 37 66  1  0  0  0
 37106  1  0  0  0
 38 43  2  0  0  0
 38 46  1  0  0  0
 38 47  1  0  0  0
 39 64  1  0  0  0
 39 67  2  0  0  0
 40 52  1  0  0  0
 40 53  2  0  0  0
 40 58  1  0  0  0
 41107  1  0  0  0
 41108  1  0  0  0
 41109  1  0  0  0
 41 48  1  0  0  0
 42 43  1  0  0  0
 42 66  1  0  0  0
 42110  1  0  0  0
 42111  1  0  0  0
 43 44  1  0  0  0
 44112  1  0  0  0
 45 46  2  0  0  0
 45113  1  0  0  0
 46114  1  0  0  0
 47115  1  0  0  0
 47116  1  0  0  0
 48 56  1  0  0  0
 48 65  1  0  0  0
 48117  1  0  0  0
 49 50  1  0  0  0
 49 53  1  0  0  0
 49 64  1  0  0  0
 49118  1  0  0  0
 50 51  1  0  0  0
 50119  1  0  0  0
 50120  1  0  0  0
 51 52  1  0  0  0
 51121  1  0  0  0
 51122  1  0  0  0
 52123  1  0  0  0
 52124  1  0  0  0
 53 54  1  0  0  0
 54 55  2  0  0  0
 54125  1  0  0  0
 55 57  1  0  0  0
 55126  1  0  0  0
 56 69  2  0  0  0
 57 58  2  0  0  0
 57127  1  0  0  0
 58128  1  0  0  0
 59 60  1  0  0  0
 59 61  1  0  0  0
 59 62  1  0  0  0
 60129  1  0  0  0
 60130  1  0  0  0
 60131  1  0  0  0
 61132  1  0  0  0
 61133  1  0  0  0
 61134  1  0  0  0
 62135  1  0  0  0
 62136  1  0  0  0
 62137  1  0  0  0
 63 65  1  0  0  0
 63138  1  0  0  0
 63139  1  0  0  0
 63140  1  0  0  0
 64141  1  0  0  0
 65142  1  0  0  0
 68 80  1  0  0  0
 71 72  2  0  0  0
 71 73  1  0  0  0
 71143  1  0  0  0
 72 75  1  0  0  0
 72144  1  0  0  0
 73 76  2  0  0  0
 73145  1  0  0  0
 74 75  2  0  0  0
 74 76  1  0  0  0
 74146  1  0  0  0
 75 78  1  0  0  0
 76 82  1  0  0  0
 77 80  1  0  0  0
 77 81  2  0  0  0
 77147  1  0  0  0
 78 81  1  0  0  0
 78 83  2  0  0  0
 79 83  1  0  0  0
 79148  1  0  0  0
 79149  1  0  0  0
 79150  1  0  0  0
 80151  1  0  0  0
 80152  1  0  0  0
 82153  1  0  0  0
 83154  1  0  0  0
M  CHG  1  83   1
M  ISO  4   1 100  68 101  80 101  82 100
M  END
> <chiral flag>
0

> <version>
0

> <s_m_source_file>
/data/baiqing/PycharmProjects/Reinvent-master-3.2/result/LINK_invent/BTK/process_docking_weight1_custom_product_contain_oxygen_bond_distance_aromatic_linkinvent_7_9_3/rearranged_h_0086.sdf

> <i_m_source_file_index>
15

> <r_mmod_Potential_Energy-OPLS-2005>
321.051422119141

> <r_mmod_Stretch_Energy-OPLS-2005>
149.929611206055

> <r_mmod_Bend_Energy-OPLS-2005>
171.646865844727

> <r_mmod_Torsional_Energy-OPLS-2005>
271.6611328125

> <r_mmod_Improper_Torsional_Energy-OPLS-2005>
9.538330078125

> <r_mmod_Van_der_Waal_Energy-OPLS-2005>
144.835525512695

> <r_mmod_Electrostatic_Energy-OPLS-2005>
-64.2353057861328

> <r_mmod_Solvation_Energy-OPLS-2005>
-457.350799560547

> <b_mmod_Minimization_Converged-OPLS-2005>
0

> <r_mmod_RMS_Derivative-OPLS-2005>
2.23244667053223

$$$$
15
                    3D
 Structure written by MMmdl.
153162  0  0  1  0            999 V2000
  -30.5945  -14.6901   20.4919 C   0  0  0  0  0  0
  -30.4449  -12.4230   19.4601 C   0  0  0  0  0  0
  -29.5125  -12.5147   18.2302 C   0  0  0  0  0  0
  -28.0361  -12.3425   18.6414 C   0  0  0  0  0  0
  -27.6526  -13.2183   19.8634 C   0  0  2  0  0  0
  -28.6975  -13.0866   20.9946 C   0  0  0  0  0  0
  -25.2560  -13.8171   20.5688 C   0  0  0  0  0  0
  -24.1829  -13.0435   20.9194 C   0  0  0  0  0  0
  -24.6398  -11.6906   20.8740 C   0  0  0  0  0  0
  -23.9065  -10.4290   21.0406 C   0  0  0  0  0  0
  -24.3617   -9.4206   21.9184 C   0  0  0  0  0  0
  -23.6291   -8.2241   22.0754 C   0  0  0  0  0  0
  -22.4274   -8.0281   21.3544 C   0  0  0  0  0  0
  -21.9909   -9.0255   20.4646 C   0  0  0  0  0  0
  -22.7238  -10.2133   20.3055 C   0  0  0  0  0  0
  -21.6852   -6.0736   22.5279 C   0  0  0  0  0  0
  -21.4014   -6.5640   23.8212 C   0  0  0  0  0  0
  -21.3660   -5.6794   24.9175 C   0  0  0  0  0  0
  -21.6045   -4.3056   24.7225 C   0  0  0  0  0  0
  -21.8819   -3.8147   23.4347 C   0  0  0  0  0  0
  -21.9192   -4.6964   22.3403 C   0  0  0  0  0  0
  -22.7851  -13.5229   21.1856 C   0  0  0  0  0  0
  -22.1661   -4.2149   21.0980 F   0  0  0  0  0  0
  -21.5630   -3.4539   25.7738 F   0  0  0  0  0  0
  -30.0087  -13.4480   20.4322 N   0  0  0  0  0  0
  -26.2987  -12.9352   20.3317 N   0  0  0  0  0  0
  -25.9327  -11.6505   20.5755 N   0  0  0  0  0  0
  -22.0493  -12.8219   22.0411 N   0  0  0  0  0  0
  -25.4271  -15.1893   20.4098 N   0  0  0  0  0  0
  -31.7550  -14.8613   20.1051 O   0  0  0  0  0  0
  -21.6638   -6.8879   21.4242 O   0  0  0  0  0  0
  -22.3538  -14.5537   20.6706 O   0  0  0  0  0  0
  -24.6279  -31.8578   23.2009 C   0  0  0  0  0  0
  -25.9118  -32.4770   23.8347 C   0  0  1  0  0  0
  -27.2264  -27.2987   20.1273 C   0  0  0  0  0  0
  -25.5927  -33.8572   24.2274 N   0  0  0  0  0  0
  -23.4239  -30.4798   21.5432 C   0  0  2  0  0  0
  -24.8734  -28.9303   20.1121 C   0  0  0  0  0  0
  -22.7487  -29.4611   22.4925 C   0  0  0  0  0  0
  -18.0289  -28.1387   22.8487 C   0  0  0  0  0  0
  -24.1489  -36.7289   23.2639 C   0  0  0  0  0  0
  -25.9664  -30.7817   21.3766 C   0  0  0  0  0  0
  -26.0423  -29.4057   20.7220 C   0  0  0  0  0  0
  -27.2230  -28.6004   20.7223 C   0  0  0  0  0  0
  -26.0392  -26.8837   19.4857 C   0  0  0  0  0  0
  -24.8741  -27.6746   19.4847 C   0  0  0  0  0  0
  -23.6417  -29.8127   20.1595 C   0  0  0  0  0  0
  -25.4115  -36.3079   24.0329 C   0  0  1  0  0  0
  -20.5891  -28.3694   23.1278 C   0  0  2  0  0  0
  -20.6777  -26.9414   22.5411 C   0  0  0  0  0  0
  -19.5753  -26.6385   21.5213 C   0  0  0  0  0  0
  -18.1933  -26.7929   22.1624 C   0  0  0  0  0  0
  -19.1542  -28.8857   23.2877 C   0  0  0  0  0  0
  -18.9464  -30.1458   23.8894 C   0  0  0  0  0  0
  -17.6463  -30.6588   24.0563 C   0  0  0  0  0  0
  -25.9052  -34.9448   23.5102 C   0  0  0  0  0  0
  -16.5354  -29.9086   23.6331 C   0  0  0  0  0  0
  -16.7276  -28.6504   23.0352 C   0  0  0  0  0  0
  -26.4499  -31.6585   25.0723 C   0  0  0  0  0  0
  -25.3729  -31.3724   26.1447 C   0  0  0  0  0  0
  -27.0346  -30.3007   24.6188 C   0  0  0  0  0  0
  -27.6055  -32.4322   25.7497 C   0  0  0  0  0  0
  -27.5579  -37.1803   24.8466 C   0  0  0  0  0  0
  -21.4198  -29.3042   22.3668 N   0  0  0  0  0  0
  -26.4293  -37.3774   23.9406 N   0  0  0  0  0  0
  -24.6915  -31.0570   22.0971 N   0  0  0  0  0  0
  -23.4197  -28.8154   23.3018 O   0  0  0  0  0  0
  -28.3198  -26.4135   20.1506 O   0  0  0  0  0  0
  -26.5621  -34.8917   22.4669 O   0  0  0  0  0  0
  -23.5437  -32.1385   23.7322 O   0  0  0  0  0  0
  -28.5905  -19.3803   21.0203 C   0  0  0  0  0  0
  -28.6827  -17.9598   21.1609 C   0  0  0  0  0  0
  -30.8073  -17.9700   20.0774 C   0  0  0  0  0  0
  -29.6000  -20.1731   20.3961 C   0  0  0  0  0  0
  -29.7882  -17.1965   20.6945 C   0  0  0  0  0  0
  -30.7194  -19.3960   19.9330 C   0  0  0  0  0  0
  -28.8643  -23.9436   20.2331 C   0  0  0  0  0  0
  -28.5291  -22.5520   20.6384 C   0  0  0  0  0  0
  -28.0831  -25.0550   20.4896 C   0  0  0  0  0  0
  -30.1714  -23.9152   19.5072 C   0  0  0  0  0  0
  -30.5658  -22.4233   19.5345 C   0  0  0  0  0  0
  -29.5082  -21.6643   20.2292 N   0  0  0  0  0  0
  -29.7664  -15.7280   20.8618 N   0  0  0  0  0  0
  -27.5107  -22.2347   21.2600 O   0  0  0  0  0  0
  -31.7643  -20.0014   19.3207 F   0  0  0  0  0  0
  -31.4839  -12.5620   19.1563 H   0  0  0  0  0  0
  -30.3954  -11.4299   19.9093 H   0  0  0  0  0  0
  -29.7852  -11.7590   17.4923 H   0  0  0  0  0  0
  -29.6448  -13.4809   17.7406 H   0  0  0  0  0  0
  -27.8808  -11.2897   18.8798 H   0  0  0  0  0  0
  -27.3804  -12.5622   17.7980 H   0  0  0  0  0  0
  -27.6656  -14.2510   19.5150 H   0  0  0  0  0  0
  -28.7208  -12.0653   21.3780 H   0  0  0  0  0  0
  -28.4339  -13.7158   21.8460 H   0  0  0  0  0  0
  -25.2763   -9.5681   22.4755 H   0  0  0  0  0  0
  -24.0002   -7.4633   22.7474 H   0  0  0  0  0  0
  -21.0841   -8.8773   19.8952 H   0  0  0  0  0  0
  -22.3698  -10.9672   19.6164 H   0  0  0  0  0  0
  -21.2006   -7.6148   23.9715 H   0  0  0  0  0  0
  -21.1483   -6.0524   25.9078 H   0  0  0  0  0  0
  -22.0598   -2.7609   23.2847 H   0  0  0  0  0  0
  -22.4109  -11.9879   22.4795 H   0  0  0  0  0  0
  -21.1112  -13.1247   22.2620 H   0  0  0  0  0  0
  -24.6557  -15.8402   20.5101 H   0  0  0  0  0  0
  -26.2671  -15.6256   20.0520 H   0  0  0  0  0  0
  -26.7185  -32.5439   23.1095 H   0  0  0  0  0  0
  -25.0078  -33.9715   25.0421 H   0  0  0  0  0  0
  -22.7188  -31.3007   21.3976 H   0  0  0  0  0  0
  -23.3751  -35.9623   23.3310 H   0  0  0  0  0  0
  -24.3577  -36.8901   22.2052 H   0  0  0  0  0  0
  -23.7244  -37.6494   23.6656 H   0  0  0  0  0  0
  -26.0992  -31.5427   20.6063 H   0  0  0  0  0  0
  -26.8461  -30.8331   22.0065 H   0  0  0  0  0  0
  -28.1197  -28.9574   21.2091 H   0  0  0  0  0  0
  -26.0035  -25.9200   18.9976 H   0  0  0  0  0  0
  -23.9800  -27.3054   19.0013 H   0  0  0  0  0  0
  -23.7629  -30.5884   19.4025 H   0  0  0  0  0  0
  -22.7618  -29.2426   19.8561 H   0  0  0  0  0  0
  -25.1298  -36.1932   25.0822 H   0  0  0  0  0  0
  -20.9983  -28.3270   24.1399 H   0  0  0  0  0  0
  -20.5680  -26.2302   23.3612 H   0  0  0  0  0  0
  -21.6645  -26.7440   22.1205 H   0  0  0  0  0  0
  -19.6914  -25.6295   21.1244 H   0  0  0  0  0  0
  -19.6692  -27.3194   20.6742 H   0  0  0  0  0  0
  -17.4203  -26.6678   21.4026 H   0  0  0  0  0  0
  -18.0332  -26.0071   22.9021 H   0  0  0  0  0  0
  -19.7939  -30.7276   24.2261 H   0  0  0  0  0  0
  -17.5017  -31.6268   24.5166 H   0  0  0  0  0  0
  -15.5355  -30.2987   23.7657 H   0  0  0  0  0  0
  -15.8676  -28.0822   22.7069 H   0  0  0  0  0  0
  -24.5911  -30.7065   25.7776 H   0  0  0  0  0  0
  -24.8913  -32.2889   26.4863 H   0  0  0  0  0  0
  -25.8054  -30.8911   27.0227 H   0  0  0  0  0  0
  -26.2924  -29.6754   24.1210 H   0  0  0  0  0  0
  -27.4037  -29.7266   25.4697 H   0  0  0  0  0  0
  -27.8796  -30.4290   23.9420 H   0  0  0  0  0  0
  -27.2664  -33.3625   26.2067 H   0  0  0  0  0  0
  -28.3872  -32.6875   25.0331 H   0  0  0  0  0  0
  -28.0715  -31.8450   26.5421 H   0  0  0  0  0  0
  -28.2602  -38.0094   24.7506 H   0  0  0  0  0  0
  -28.1070  -36.2625   24.6306 H   0  0  0  0  0  0
  -27.2294  -37.1468   25.8869 H   0  0  0  0  0  0
  -20.9379  -29.8761   21.6873 H   0  0  0  0  0  0
  -26.0175  -38.2851   24.1402 H   0  0  0  0  0  0
  -27.6986  -19.8446   21.4103 H   0  0  0  0  0  0
  -27.8606  -17.4497   21.6438 H   0  0  0  0  0  0
  -31.6859  -17.4757   19.6904 H   0  0  0  0  0  0
  -27.1538  -24.9464   21.0344 H   0  0  0  0  0  0
  -30.9057  -24.5398   20.0174 H   0  0  0  0  0  0
  -30.0467  -24.2830   18.4881 H   0  0  0  0  0  0
  -31.5150  -22.3012   20.0578 H   0  0  0  0  0  0
  -30.6882  -22.0501   18.5169 H   0  0  0  0  0  0
  -28.8941  -15.3781   21.2276 H   0  0  0  0  0  0
  1 25  1  0  0  0
  1 30  2  0  0  0
  1 83  1  0  0  0
  2  3  1  0  0  0
  2 25  1  0  0  0
  2 86  1  0  0  0
  2 87  1  0  0  0
  3  4  1  0  0  0
  3 88  1  0  0  0
  3 89  1  0  0  0
  4  5  1  0  0  0
  4 90  1  0  0  0
  4 91  1  0  0  0
  5  6  1  0  0  0
  5 26  1  0  0  0
  5 92  1  0  0  0
  6 25  1  0  0  0
  6 93  1  0  0  0
  6 94  1  0  0  0
  7  8  2  0  0  0
  7 26  1  0  0  0
  7 29  1  0  0  0
  8  9  1  0  0  0
  8 22  1  0  0  0
  9 10  1  0  0  0
  9 27  2  0  0  0
 10 11  2  0  0  0
 10 15  1  0  0  0
 11 12  1  0  0  0
 11 95  1  0  0  0
 12 13  2  0  0  0
 12 96  1  0  0  0
 13 14  1  0  0  0
 13 31  1  0  0  0
 14 15  2  0  0  0
 14 97  1  0  0  0
 15 98  1  0  0  0
 16 17  2  0  0  0
 16 21  1  0  0  0
 16 31  1  0  0  0
 17 18  1  0  0  0
 17 99  1  0  0  0
 18 19  2  0  0  0
 18100  1  0  0  0
 19 20  1  0  0  0
 19 24  1  0  0  0
 20 21  2  0  0  0
 20101  1  0  0  0
 21 23  1  0  0  0
 22 28  1  0  0  0
 22 32  2  0  0  0
 26 27  1  0  0  0
 28102  1  0  0  0
 28103  1  0  0  0
 29104  1  0  0  0
 29105  1  0  0  0
 33 34  1  0  0  0
 33 66  1  0  0  0
 33 70  2  0  0  0
 34 36  1  0  0  0
 34 59  1  0  0  0
 34106  1  0  0  0
 35 44  2  0  0  0
 35 45  1  0  0  0
 35 68  1  0  0  0
 36 56  1  0  0  0
 36107  1  0  0  0
 37 39  1  0  0  0
 37 47  1  0  0  0
 37 66  1  0  0  0
 37108  1  0  0  0
 38 43  2  0  0  0
 38 46  1  0  0  0
 38 47  1  0  0  0
 39 64  1  0  0  0
 39 67  2  0  0  0
 40 52  1  0  0  0
 40 53  2  0  0  0
 40 58  1  0  0  0
 41109  1  0  0  0
 41110  1  0  0  0
 41111  1  0  0  0
 41 48  1  0  0  0
 42 43  1  0  0  0
 42 66  1  0  0  0
 42112  1  0  0  0
 42113  1  0  0  0
 43 44  1  0  0  0
 44114  1  0  0  0
 45 46  2  0  0  0
 45115  1  0  0  0
 46116  1  0  0  0
 47117  1  0  0  0
 47118  1  0  0  0
 48 56  1  0  0  0
 48 65  1  0  0  0
 48119  1  0  0  0
 49 50  1  0  0  0
 49 53  1  0  0  0
 49 64  1  0  0  0
 49120  1  0  0  0
 50 51  1  0  0  0
 50121  1  0  0  0
 50122  1  0  0  0
 51 52  1  0  0  0
 51123  1  0  0  0
 51124  1  0  0  0
 52125  1  0  0  0
 52126  1  0  0  0
 53 54  1  0  0  0
 54 55  2  0  0  0
 54127  1  0  0  0
 55 57  1  0  0  0
 55128  1  0  0  0
 56 69  2  0  0  0
 57 58  2  0  0  0
 57129  1  0  0  0
 58130  1  0  0  0
 59 60  1  0  0  0
 59 61  1  0  0  0
 59 62  1  0  0  0
 60131  1  0  0  0
 60132  1  0  0  0
 60133  1  0  0  0
 61134  1  0  0  0
 61135  1  0  0  0
 61136  1  0  0  0
 62137  1  0  0  0
 62138  1  0  0  0
 62139  1  0  0  0
 63 65  1  0  0  0
 63140  1  0  0  0
 63141  1  0  0  0
 63142  1  0  0  0
 64143  1  0  0  0
 65144  1  0  0  0
 68 79  1  0  0  0
 71 72  2  0  0  0
 71 74  1  0  0  0
 71145  1  0  0  0
 72 75  1  0  0  0
 72146  1  0  0  0
 73 75  2  0  0  0
 73 76  1  0  0  0
 73147  1  0  0  0
 74 76  2  0  0  0
 74 82  1  0  0  0
 75 83  1  0  0  0
 76 85  1  0  0  0
 77 78  1  0  0  0
 77 79  2  0  0  0
 77 80  1  0  0  0
 78 82  1  0  0  0
 78 84  2  0  0  0
 79148  1  0  0  0
 80 81  1  0  0  0
 80149  1  0  0  0
 80150  1  0  0  0
 81 82  1  0  0  0
 81151  1  0  0  0
 81152  1  0  0  0
 83153  1  0  0  0
M  ISO  4   1 100  68 101  79 101  83 100
M  END
> <chiral flag>
0

> <version>
0

> <s_m_source_file>
/data/baiqing/PycharmProjects/Reinvent-master-3.2/result/LINK_invent/BTK/process_docking_weight1_custom_product_contain_oxygen_bond_distance_aromatic_linkinvent_7_9_3/rearranged_h_0086.sdf

> <i_m_source_file_index>
16

> <r_mmod_Potential_Energy-OPLS-2005>
178.937393188477

> <r_mmod_Stretch_Energy-OPLS-2005>
97.4976806640625

> <r_mmod_Bend_Energy-OPLS-2005>
173.273834228516

> <r_mmod_Torsional_Energy-OPLS-2005>
249.628494262695

> <r_mmod_Improper_Torsional_Energy-OPLS-2005>
3.72030401229858

> <r_mmod_Van_der_Waal_Energy-OPLS-2005>
146.315933227539

> <r_mmod_Electrostatic_Energy-OPLS-2005>
-347.910522460938

> <r_mmod_Solvation_Energy-OPLS-2005>
-206.900238037109

> <b_mmod_Minimization_Converged-OPLS-2005>
0

> <r_mmod_RMS_Derivative-OPLS-2005>
0.183930769562721

$$$$
16
                    3D
 Structure written by MMmdl.
157166  0  0  1  0            999 V2000
  -30.5856  -14.6756   20.5928 C   0  0  0  0  0  0
  -30.4567  -12.4408   19.4765 C   0  0  0  0  0  0
  -29.5260  -12.5315   18.2420 C   0  0  0  0  0  0
  -28.0457  -12.3367   18.6369 C   0  0  0  0  0  0
  -27.6570  -13.1950   19.8697 C   0  0  2  0  0  0
  -28.6879  -12.9725   20.9920 C   0  0  0  0  0  0
  -25.2580  -13.8091   20.5628 C   0  0  0  0  0  0
  -24.1835  -13.0416   20.9150 C   0  0  0  0  0  0
  -24.6355  -11.6861   20.8707 C   0  0  0  0  0  0
  -23.9025  -10.4274   21.0394 C   0  0  0  0  0  0
  -24.3593   -9.4206   21.9176 C   0  0  0  0  0  0
  -23.6271   -8.2245   22.0754 C   0  0  0  0  0  0
  -22.4258   -8.0271   21.3544 C   0  0  0  0  0  0
  -21.9881   -9.0234   20.4645 C   0  0  0  0  0  0
  -22.7193  -10.2121   20.3042 C   0  0  0  0  0  0
  -21.6845   -6.0723   22.5278 C   0  0  0  0  0  0
  -21.4000   -6.5629   23.8215 C   0  0  0  0  0  0
  -21.3659   -5.6787   24.9180 C   0  0  0  0  0  0
  -21.6050   -4.3048   24.7235 C   0  0  0  0  0  0
  -21.8817   -3.8145   23.4351 C   0  0  0  0  0  0
  -21.9183   -4.6958   22.3401 C   0  0  0  0  0  0
  -22.7865  -13.5230   21.1832 C   0  0  0  0  0  0
  -22.1660   -4.2143   21.0983 F   0  0  0  0  0  0
  -21.5638   -3.4539   25.7746 F   0  0  0  0  0  0
  -29.9980  -13.4256   20.4841 N   0  0  0  0  0  0
  -26.2981  -12.9232   20.3239 N   0  0  0  0  0  0
  -25.9265  -11.6411   20.5667 N   0  0  0  0  0  0
  -22.0518  -12.8232   22.0393 N   0  0  0  0  0  0
  -25.4322  -15.1815   20.4044 N   0  0  0  0  0  0
  -31.6850  -14.8930   20.0655 O   0  0  0  0  0  0
  -21.6621   -6.8869   21.4235 O   0  0  0  0  0  0
  -22.3574  -14.5562   20.6697 O   0  0  0  0  0  0
  -24.6259  -31.8635   23.2007 C   0  0  0  0  0  0
  -25.9113  -32.4803   23.8352 C   0  0  1  0  0  0
  -27.2358  -27.3531   20.1426 C   0  0  0  0  0  0
  -25.5961  -33.8595   24.2313 N   0  0  0  0  0  0
  -23.4174  -30.4842   21.5421 C   0  0  2  0  0  0
  -24.8709  -28.9401   20.1081 C   0  0  0  0  0  0
  -22.7497  -29.4637   22.4961 C   0  0  0  0  0  0
  -18.0287  -28.1399   22.8469 C   0  0  0  0  0  0
  -24.1484  -36.7278   23.2632 C   0  0  0  0  0  0
  -25.9492  -30.8117   21.3551 C   0  0  0  0  0  0
  -26.0341  -29.4349   20.7156 C   0  0  0  0  0  0
  -27.2265  -28.6564   20.7180 C   0  0  0  0  0  0
  -26.0617  -26.8979   19.5125 C   0  0  0  0  0  0
  -24.8906  -27.6806   19.4857 C   0  0  0  0  0  0
  -23.6310  -29.8151   20.1566 C   0  0  0  0  0  0
  -25.4109  -36.3101   24.0344 C   0  0  1  0  0  0
  -20.5872  -28.3718   23.1276 C   0  0  2  0  0  0
  -20.6760  -26.9451   22.5395 C   0  0  0  0  0  0
  -19.5740  -26.6421   21.5190 C   0  0  0  0  0  0
  -18.1920  -26.7944   22.1596 C   0  0  0  0  0  0
  -19.1534  -28.8874   23.2860 C   0  0  0  0  0  0
  -18.9459  -30.1457   23.8912 C   0  0  0  0  0  0
  -17.6456  -30.6590   24.0570 C   0  0  0  0  0  0
  -25.9070  -34.9479   23.5135 C   0  0  0  0  0  0
  -16.5349  -29.9093   23.6323 C   0  0  0  0  0  0
  -16.7271  -28.6502   23.0362 C   0  0  0  0  0  0
  -26.4532  -31.6563   25.0682 C   0  0  0  0  0  0
  -25.3792  -31.3599   26.1401 C   0  0  0  0  0  0
  -27.0369  -30.3043   24.5988 C   0  0  0  0  0  0
  -27.6170  -32.4258   25.7384 C   0  0  0  0  0  0
  -27.5619  -37.1749   24.8459 C   0  0  0  0  0  0
  -21.4214  -29.3070   22.3711 N   0  0  0  0  0  0
  -26.4282  -37.3832   23.9479 N   0  0  0  0  0  0
  -24.6826  -31.0698   22.0918 N   0  0  0  0  0  0
  -23.4220  -28.8205   23.3055 O   0  0  0  0  0  0
  -28.3405  -26.5034   20.1689 O   0  0  0  0  0  0
  -26.5634  -34.8952   22.4692 O   0  0  0  0  0  0
  -23.5437  -32.1401   23.7374 O   0  0  0  0  0  0
  -30.8903  -18.1383   20.6091 C   0  0  0  0  0  0
  -28.5360  -18.0152   21.0297 C   0  0  0  0  0  0
  -30.7607  -19.5549   20.3978 C   0  0  0  0  0  0
  -28.4061  -19.4197   20.8266 C   0  0  0  0  0  0
  -29.4289  -23.7092   19.2372 C   0  0  0  0  0  0
  -29.7757  -17.3137   20.9402 C   0  0  0  0  0  0
  -28.7415  -23.9274   20.4625 C   0  0  0  0  0  0
  -29.5115  -20.2430   20.5131 C   0  0  0  0  0  0
  -28.6994  -22.6735   21.0777 C   0  0  0  0  0  0
  -29.7595  -22.3832   19.1576 C   0  0  0  0  0  0
  -29.8277  -15.8313   21.3897 C   0  0  0  0  0  0
  -28.0944  -22.3291   22.4061 C   0  0  0  0  0  0
  -28.1711  -25.2864   20.9799 C   0  0  0  0  0  0
  -29.2163  -15.5805   22.4730 N   0  0  0  0  0  0
  -29.3395  -21.6851   20.2833 N   0  0  0  0  0  0
  -30.4066  -21.7420   18.1516 O   0  0  0  0  0  0
  -31.4948  -12.6069   19.1866 H   0  0  0  0  0  0
  -30.4362  -11.4357   19.8999 H   0  0  0  0  0  0
  -29.8204  -11.7846   17.5037 H   0  0  0  0  0  0
  -29.6478  -13.5044   17.7634 H   0  0  0  0  0  0
  -27.9082  -11.2798   18.8716 H   0  0  0  0  0  0
  -27.3894  -12.5467   17.7910 H   0  0  0  0  0  0
  -27.6945  -14.2396   19.5626 H   0  0  0  0  0  0
  -28.7303  -11.9081   21.2357 H   0  0  0  0  0  0
  -28.3673  -13.4174   21.9274 H   0  0  0  0  0  0
  -25.2743   -9.5693   22.4732 H   0  0  0  0  0  0
  -23.9989   -7.4644   22.7472 H   0  0  0  0  0  0
  -21.0821   -8.8747   19.8941 H   0  0  0  0  0  0
  -22.3653  -10.9661   19.6151 H   0  0  0  0  0  0
  -21.1988   -7.6139   23.9710 H   0  0  0  0  0  0
  -21.1483   -6.0520   25.9079 H   0  0  0  0  0  0
  -22.0595   -2.7598   23.2854 H   0  0  0  0  0  0
  -22.4131  -11.9878   22.4758 H   0  0  0  0  0  0
  -21.1145  -13.1274   22.2629 H   0  0  0  0  0  0
  -24.6703  -15.8392   20.5285 H   0  0  0  0  0  0
  -26.2863  -15.6190   20.0844 H   0  0  0  0  0  0
  -26.7200  -32.5501   23.1132 H   0  0  0  0  0  0
  -25.0184  -33.9733   25.0516 H   0  0  0  0  0  0
  -22.7042  -31.2984   21.3996 H   0  0  0  0  0  0
  -23.3810  -35.9529   23.3195 H   0  0  0  0  0  0
  -24.3619  -36.9009   22.2069 H   0  0  0  0  0  0
  -23.7112  -37.6407   23.6698 H   0  0  0  0  0  0
  -26.0521  -31.5561   20.5639 H   0  0  0  0  0  0
  -26.8380  -30.8839   21.9672 H   0  0  0  0  0  0
  -28.1221  -29.0371   21.1898 H   0  0  0  0  0  0
  -26.0603  -25.9166   19.0564 H   0  0  0  0  0  0
  -24.0092  -27.3049   18.9871 H   0  0  0  0  0  0
  -23.7471  -30.5869   19.3930 H   0  0  0  0  0  0
  -22.7448  -29.2468   19.8658 H   0  0  0  0  0  0
  -25.1247  -36.1969   25.0828 H   0  0  0  0  0  0
  -20.9953  -28.3304   24.1404 H   0  0  0  0  0  0
  -20.5666  -26.2361   23.3607 H   0  0  0  0  0  0
  -21.6639  -26.7493   22.1206 H   0  0  0  0  0  0
  -19.6916  -25.6338   21.1242 H   0  0  0  0  0  0
  -19.6656  -27.3217   20.6702 H   0  0  0  0  0  0
  -17.4201  -26.6705   21.3979 H   0  0  0  0  0  0
  -18.0289  -26.0069   22.8974 H   0  0  0  0  0  0
  -19.7936  -30.7246   24.2330 H   0  0  0  0  0  0
  -17.5013  -31.6265   24.5189 H   0  0  0  0  0  0
  -15.5349  -30.3006   23.7629 H   0  0  0  0  0  0
  -15.8663  -28.0823   22.7104 H   0  0  0  0  0  0
  -24.5986  -30.6966   25.7662 H   0  0  0  0  0  0
  -24.8932  -32.2703   26.4912 H   0  0  0  0  0  0
  -25.8108  -30.8681   27.0127 H   0  0  0  0  0  0
  -26.2873  -29.6750   24.1185 H   0  0  0  0  0  0
  -27.4389  -29.7321   25.4356 H   0  0  0  0  0  0
  -27.8578  -30.4449   23.8957 H   0  0  0  0  0  0
  -27.2956  -33.3670   26.1847 H   0  0  0  0  0  0
  -28.3971  -32.6627   25.0139 H   0  0  0  0  0  0
  -28.0828  -31.8430   26.5345 H   0  0  0  0  0  0
  -28.2526  -38.0175   24.7786 H   0  0  0  0  0  0
  -28.1249  -36.2742   24.5952 H   0  0  0  0  0  0
  -27.2379  -37.0991   25.8862 H   0  0  0  0  0  0
  -20.9435  -29.8867   21.6959 H   0  0  0  0  0  0
  -26.0174  -38.2877   24.1639 H   0  0  0  0  0  0
  -31.8768  -17.6943   20.5647 H   0  0  0  0  0  0
  -27.6414  -17.4718   21.3036 H   0  0  0  0  0  0
  -31.6488  -20.1221   20.1566 H   0  0  0  0  0  0
  -27.4331  -19.8810   20.9220 H   0  0  0  0  0  0
  -29.6519  -24.4665   18.4961 H   0  0  0  0  0  0
  -28.3162  -23.0988   23.1468 H   0  0  0  0  0  0
  -28.4895  -21.3962   22.8041 H   0  0  0  0  0  0
  -27.0105  -22.2300   22.3312 H   0  0  0  0  0  0
  -28.6623  -25.4803   21.9334 H   0  0  0  0  0  0
  -27.1241  -25.1272   21.2350 H   0  0  0  0  0  0
  -28.7780  -16.4081   22.8606 H   0  0  0  0  0  0
  -30.6428  -22.4026   17.5110 H   0  0  0  0  0  0
  1 25  1  0  0  0
  1 30  2  0  0  0
  1 81  1  0  0  0
  2  3  1  0  0  0
  2 25  1  0  0  0
  2 87  1  0  0  0
  2 88  1  0  0  0
  3  4  1  0  0  0
  3 89  1  0  0  0
  3 90  1  0  0  0
  4  5  1  0  0  0
  4 91  1  0  0  0
  4 92  1  0  0  0
  5  6  1  0  0  0
  5 26  1  0  0  0
  5 93  1  0  0  0
  6 25  1  0  0  0
  6 94  1  0  0  0
  6 95  1  0  0  0
  7  8  2  0  0  0
  7 26  1  0  0  0
  7 29  1  0  0  0
  8  9  1  0  0  0
  8 22  1  0  0  0
  9 10  1  0  0  0
  9 27  2  0  0  0
 10 11  2  0  0  0
 10 15  1  0  0  0
 11 12  1  0  0  0
 11 96  1  0  0  0
 12 13  2  0  0  0
 12 97  1  0  0  0
 13 14  1  0  0  0
 13 31  1  0  0  0
 14 15  2  0  0  0
 14 98  1  0  0  0
 15 99  1  0  0  0
 16 17  2  0  0  0
 16 21  1  0  0  0
 16 31  1  0  0  0
 17 18  1  0  0  0
 17100  1  0  0  0
 18 19  2  0  0  0
 18101  1  0  0  0
 19 20  1  0  0  0
 19 24  1  0  0  0
 20 21  2  0  0  0
 20102  1  0  0  0
 21 23  1  0  0  0
 22 28  1  0  0  0
 22 32  2  0  0  0
 26 27  1  0  0  0
 28103  1  0  0  0
 28104  1  0  0  0
 29105  1  0  0  0
 29106  1  0  0  0
 33 34  1  0  0  0
 33 66  1  0  0  0
 33 70  2  0  0  0
 34 36  1  0  0  0
 34 59  1  0  0  0
 34107  1  0  0  0
 35 44  2  0  0  0
 35 45  1  0  0  0
 35 68  1  0  0  0
 36 56  1  0  0  0
 36108  1  0  0  0
 37 39  1  0  0  0
 37 47  1  0  0  0
 37 66  1  0  0  0
 37109  1  0  0  0
 38 43  2  0  0  0
 38 46  1  0  0  0
 38 47  1  0  0  0
 39 64  1  0  0  0
 39 67  2  0  0  0
 40 52  1  0  0  0
 40 53  2  0  0  0
 40 58  1  0  0  0
 41110  1  0  0  0
 41111  1  0  0  0
 41112  1  0  0  0
 41 48  1  0  0  0
 42 43  1  0  0  0
 42 66  1  0  0  0
 42113  1  0  0  0
 42114  1  0  0  0
 43 44  1  0  0  0
 44115  1  0  0  0
 45 46  2  0  0  0
 45116  1  0  0  0
 46117  1  0  0  0
 47118  1  0  0  0
 47119  1  0  0  0
 48 56  1  0  0  0
 48 65  1  0  0  0
 48120  1  0  0  0
 49 50  1  0  0  0
 49 53  1  0  0  0
 49 64  1  0  0  0
 49121  1  0  0  0
 50 51  1  0  0  0
 50122  1  0  0  0
 50123  1  0  0  0
 51 52  1  0  0  0
 51124  1  0  0  0
 51125  1  0  0  0
 52126  1  0  0  0
 52127  1  0  0  0
 53 54  1  0  0  0
 54 55  2  0  0  0
 54128  1  0  0  0
 55 57  1  0  0  0
 55129  1  0  0  0
 56 69  2  0  0  0
 57 58  2  0  0  0
 57130  1  0  0  0
 58131  1  0  0  0
 59 60  1  0  0  0
 59 61  1  0  0  0
 59 62  1  0  0  0
 60132  1  0  0  0
 60133  1  0  0  0
 60134  1  0  0  0
 61135  1  0  0  0
 61136  1  0  0  0
 61137  1  0  0  0
 62138  1  0  0  0
 62139  1  0  0  0
 62140  1  0  0  0
 63 65  1  0  0  0
 63141  1  0  0  0
 63142  1  0  0  0
 63143  1  0  0  0
 64144  1  0  0  0
 65145  1  0  0  0
 68 83  1  0  0  0
 71 73  2  0  0  0
 71 76  1  0  0  0
 71146  1  0  0  0
 72 74  1  0  0  0
 72 76  2  0  0  0
 72147  1  0  0  0
 73 78  1  0  0  0
 73148  1  0  0  0
 74 78  2  0  0  0
 74149  1  0  0  0
 75 77  1  0  0  0
 75 80  2  0  0  0
 75150  1  0  0  0
 76 81  1  0  0  0
 77 79  2  0  0  0
 77 83  1  0  0  0
 78 85  1  0  0  0
 79 82  1  0  0  0
 79 85  1  0  0  0
 80 85  1  0  0  0
 80 86  1  0  0  0
 81 84  2  0  0  0
 82151  1  0  0  0
 82152  1  0  0  0
 82153  1  0  0  0
 83154  1  0  0  0
 83155  1  0  0  0
 84156  1  0  0  0
 86157  1  0  0  0
M  ISO  4   1 100  68 101  81 100  83 101
M  END
> <chiral flag>
0

> <version>
0

> <s_m_source_file>
/data/baiqing/PycharmProjects/Reinvent-master-3.2/result/LINK_invent/BTK/process_docking_weight1_custom_product_contain_oxygen_bond_distance_aromatic_linkinvent_7_9_3/rearranged_h_0086.sdf

> <i_m_source_file_index>
17

> <r_mmod_Potential_Energy-OPLS-2005>
246.764678955078

> <r_mmod_Stretch_Energy-OPLS-2005>
92.565071105957

> <r_mmod_Bend_Energy-OPLS-2005>
148.62370300293

> <r_mmod_Torsional_Energy-OPLS-2005>
241.57666015625

> <r_mmod_Improper_Torsional_Energy-OPLS-2005>
3.0403254032135

> <r_mmod_Van_der_Waal_Energy-OPLS-2005>
143.395492553711

> <r_mmod_Electrostatic_Energy-OPLS-2005>
-225.826034545898

> <r_mmod_Solvation_Energy-OPLS-2005>
-207.090026855469

> <b_mmod_Minimization_Converged-OPLS-2005>
0

> <r_mmod_RMS_Derivative-OPLS-2005>
4.72629451751709

$$$$
17
                    3D
 Structure written by MMmdl.
153161  0  0  1  0            999 V2000
  -30.5723  -14.7937   20.4350 C   0  0  0  0  0  0
  -30.4426  -12.4747   19.4947 C   0  0  0  0  0  0
  -29.5226  -12.4944   18.2508 C   0  0  0  0  0  0
  -28.0453  -12.3220   18.6605 C   0  0  0  0  0  0
  -27.6440  -13.2307   19.8528 C   0  0  2  0  0  0
  -28.6851  -13.1761   20.9924 C   0  0  0  0  0  0
  -25.2519  -13.8204   20.5705 C   0  0  0  0  0  0
  -24.1800  -13.0454   20.9208 C   0  0  0  0  0  0
  -24.6389  -11.6930   20.8748 C   0  0  0  0  0  0
  -23.9076  -10.4300   21.0405 C   0  0  0  0  0  0
  -24.3625   -9.4214   21.9186 C   0  0  0  0  0  0
  -23.6282   -8.2254   22.0750 C   0  0  0  0  0  0
  -22.4257   -8.0298   21.3548 C   0  0  0  0  0  0
  -21.9902   -9.0273   20.4653 C   0  0  0  0  0  0
  -22.7244  -10.2143   20.3060 C   0  0  0  0  0  0
  -21.6856   -6.0746   22.5277 C   0  0  0  0  0  0
  -21.4034   -6.5646   23.8218 C   0  0  0  0  0  0
  -21.3650   -5.6792   24.9172 C   0  0  0  0  0  0
  -21.6024   -4.3055   24.7217 C   0  0  0  0  0  0
  -21.8818   -3.8156   23.4338 C   0  0  0  0  0  0
  -21.9185   -4.6973   22.3393 C   0  0  0  0  0  0
  -22.7818  -13.5233   21.1845 C   0  0  0  0  0  0
  -22.1661   -4.2166   21.0962 F   0  0  0  0  0  0
  -21.5605   -3.4535   25.7725 F   0  0  0  0  0  0
  -29.9837  -13.5445   20.4138 N   0  0  0  0  0  0
  -26.2944  -12.9413   20.3282 N   0  0  0  0  0  0
  -25.9322  -11.6561   20.5754 N   0  0  0  0  0  0
  -22.0455  -12.8242   22.0407 N   0  0  0  0  0  0
  -25.4233  -15.1921   20.4136 N   0  0  0  0  0  0
  -31.7582  -14.8996   20.1067 O   0  0  0  0  0  0
  -21.6630   -6.8887   21.4234 O   0  0  0  0  0  0
  -22.3516  -14.5535   20.6682 O   0  0  0  0  0  0
  -24.6332  -31.8533   23.1948 C   0  0  0  0  0  0
  -25.9149  -32.4745   23.8309 C   0  0  1  0  0  0
  -27.2238  -27.2372   20.1565 C   0  0  0  0  0  0
  -25.5953  -33.8553   24.2241 N   0  0  0  0  0  0
  -23.4332  -30.4719   21.5380 C   0  0  2  0  0  0
  -24.8848  -28.9098   20.1159 C   0  0  0  0  0  0
  -22.7524  -29.4587   22.4901 C   0  0  0  0  0  0
  -18.0301  -28.1376   22.8478 C   0  0  0  0  0  0
  -24.1501  -36.7273   23.2634 C   0  0  0  0  0  0
  -25.9809  -30.7586   21.3798 C   0  0  0  0  0  0
  -26.0570  -29.3780   20.7240 C   0  0  0  0  0  0
  -27.2327  -28.5570   20.7276 C   0  0  0  0  0  0
  -26.0303  -26.8374   19.5204 C   0  0  0  0  0  0
  -24.8760  -27.6461   19.5038 C   0  0  0  0  0  0
  -23.6561  -29.7989   20.1576 C   0  0  0  0  0  0
  -25.4123  -36.3067   24.0328 C   0  0  1  0  0  0
  -20.5911  -28.3690   23.1255 C   0  0  2  0  0  0
  -20.6795  -26.9401   22.5401 C   0  0  0  0  0  0
  -19.5766  -26.6363   21.5210 C   0  0  0  0  0  0
  -18.1945  -26.7915   22.1617 C   0  0  0  0  0  0
  -19.1559  -28.8850   23.2859 C   0  0  0  0  0  0
  -18.9471  -30.1457   23.8870 C   0  0  0  0  0  0
  -17.6467  -30.6576   24.0554 C   0  0  0  0  0  0
  -25.9068  -34.9432   23.5083 C   0  0  0  0  0  0
  -16.5360  -29.9065   23.6339 C   0  0  0  0  0  0
  -16.7282  -28.6490   23.0344 C   0  0  0  0  0  0
  -26.4503  -31.6590   25.0721 C   0  0  0  0  0  0
  -25.3712  -31.3762   26.1440 C   0  0  0  0  0  0
  -27.0356  -30.2996   24.6240 C   0  0  0  0  0  0
  -27.6048  -32.4341   25.7496 C   0  0  0  0  0  0
  -27.5587  -37.1798   24.8467 C   0  0  0  0  0  0
  -21.4230  -29.3038   22.3645 N   0  0  0  0  0  0
  -26.4297  -37.3762   23.9412 N   0  0  0  0  0  0
  -24.7015  -31.0466   22.0941 N   0  0  0  0  0  0
  -23.4208  -28.8131   23.3016 O   0  0  0  0  0  0
  -28.3015  -26.3172   20.1744 O   0  0  0  0  0  0
  -26.5617  -34.8909   22.4646 O   0  0  0  0  0  0
  -23.5481  -32.1368   23.7227 O   0  0  0  0  0  0
  -29.2943  -18.3897   20.9349 C   0  0  0  0  0  0
  -29.8461  -20.0275   19.2676 C   0  0  0  0  0  0
  -29.2780  -19.8313   20.4652 C   0  0  0  0  0  0
  -29.8583  -17.3186   20.2453 C   0  0  0  0  0  0
  -30.4266  -17.6475   18.9172 C   0  0  0  0  0  0
  -28.4580  -22.1953   21.2737 C   0  0  0  0  0  0
  -27.8145  -22.6136   22.5877 C   0  0  0  0  0  0
  -28.6637  -23.4877   20.3051 C   0  0  0  0  0  0
  -28.0831  -24.9568   20.8055 C   0  0  0  0  0  0
  -28.6993  -20.8830   21.2709 N   0  0  0  0  0  0
  -30.4016  -18.9545   18.5439 N   0  0  0  0  0  0
  -29.7584  -15.9071   20.6683 N   0  0  0  0  0  0
  -30.8715  -16.8181   18.1220 O   0  0  0  0  0  0
  -31.4841  -12.6067   19.1970 H   0  0  0  0  0  0
  -30.4020  -11.5066   19.9955 H   0  0  0  0  0  0
  -29.8129  -11.7033   17.5576 H   0  0  0  0  0  0
  -29.6489  -13.4348   17.7128 H   0  0  0  0  0  0
  -27.8984  -11.2747   18.9305 H   0  0  0  0  0  0
  -27.3914  -12.5104   17.8073 H   0  0  0  0  0  0
  -27.6372  -14.2482   19.4614 H   0  0  0  0  0  0
  -28.7277  -12.1793   21.4322 H   0  0  0  0  0  0
  -28.4119  -13.8521   21.8046 H   0  0  0  0  0  0
  -25.2778   -9.5680   22.4764 H   0  0  0  0  0  0
  -23.9995   -7.4635   22.7462 H   0  0  0  0  0  0
  -21.0835   -8.8803   19.8956 H   0  0  0  0  0  0
  -22.3718  -10.9685   19.6169 H   0  0  0  0  0  0
  -21.2079   -7.6165   23.9736 H   0  0  0  0  0  0
  -21.1454   -6.0516   25.9069 H   0  0  0  0  0  0
  -22.0606   -2.7626   23.2824 H   0  0  0  0  0  0
  -22.4083  -11.9935   22.4845 H   0  0  0  0  0  0
  -21.1073  -13.1287   22.2584 H   0  0  0  0  0  0
  -24.6586  -15.8473   20.5318 H   0  0  0  0  0  0
  -26.2621  -15.6276   20.0520 H   0  0  0  0  0  0
  -26.7218  -32.5385   23.1048 H   0  0  0  0  0  0
  -25.0161  -33.9696   25.0429 H   0  0  0  0  0  0
  -22.7288  -31.2930   21.3858 H   0  0  0  0  0  0
  -23.3776  -35.9599   23.3300 H   0  0  0  0  0  0
  -24.3582  -36.8877   22.2047 H   0  0  0  0  0  0
  -23.7246  -37.6470   23.6654 H   0  0  0  0  0  0
  -26.1249  -31.5173   20.6091 H   0  0  0  0  0  0
  -26.8555  -30.8071   22.0177 H   0  0  0  0  0  0
  -28.1299  -28.9127   21.2151 H   0  0  0  0  0  0
  -25.9807  -25.8621   19.0558 H   0  0  0  0  0  0
  -23.9770  -27.2753   19.0315 H   0  0  0  0  0  0
  -23.7841  -30.5715   19.3980 H   0  0  0  0  0  0
  -22.7758  -29.2306   19.8525 H   0  0  0  0  0  0
  -25.1309  -36.1909   25.0819 H   0  0  0  0  0  0
  -20.9992  -28.3262   24.1378 H   0  0  0  0  0  0
  -20.5697  -26.2292   23.3603 H   0  0  0  0  0  0
  -21.6660  -26.7421   22.1190 H   0  0  0  0  0  0
  -19.6930  -25.6269   21.1249 H   0  0  0  0  0  0
  -19.6704  -27.3163   20.6729 H   0  0  0  0  0  0
  -17.4215  -26.6656   21.4022 H   0  0  0  0  0  0
  -18.0341  -26.0063   22.9016 H   0  0  0  0  0  0
  -19.7949  -30.7297   24.2203 H   0  0  0  0  0  0
  -17.5016  -31.6252   24.5157 H   0  0  0  0  0  0
  -15.5360  -30.2944   23.7684 H   0  0  0  0  0  0
  -15.8685  -28.0805   22.7043 H   0  0  0  0  0  0
  -24.5880  -30.7117   25.7768 H   0  0  0  0  0  0
  -24.8928  -32.2950   26.4849 H   0  0  0  0  0  0
  -25.8027  -30.8947   27.0225 H   0  0  0  0  0  0
  -26.2955  -29.6729   24.1252 H   0  0  0  0  0  0
  -27.3997  -29.7275   25.4783 H   0  0  0  0  0  0
  -27.8847  -30.4247   23.9515 H   0  0  0  0  0  0
  -27.2644  -33.3639   26.2058 H   0  0  0  0  0  0
  -28.3867  -32.6897   25.0336 H   0  0  0  0  0  0
  -28.0709  -31.8484   26.5424 H   0  0  0  0  0  0
  -28.2606  -38.0092   24.7513 H   0  0  0  0  0  0
  -28.1080  -36.2624   24.6304 H   0  0  0  0  0  0
  -27.2303  -37.1452   25.8865 H   0  0  0  0  0  0
  -20.9415  -29.8759   21.6845 H   0  0  0  0  0  0
  -26.0181  -38.2841   24.1395 H   0  0  0  0  0  0
  -28.8133  -18.1757   21.8786 H   0  0  0  0  0  0
  -29.9209  -20.9852   18.7686 H   0  0  0  0  0  0
  -28.5035  -23.2320   23.1626 H   0  0  0  0  0  0
  -27.5663  -21.7490   23.2055 H   0  0  0  0  0  0
  -26.8817  -23.1511   22.4253 H   0  0  0  0  0  0
  -28.2138  -23.2542   19.3390 H   0  0  0  0  0  0
  -29.7324  -23.5855   20.1172 H   0  0  0  0  0  0
  -28.4844  -25.1151   21.8055 H   0  0  0  0  0  0
  -27.0126  -24.8335   20.9628 H   0  0  0  0  0  0
  -30.7900  -19.1709   17.6377 H   0  0  0  0  0  0
  -28.8707  -15.6750   21.0856 H   0  0  0  0  0  0
  1 25  1  0  0  0
  1 30  2  0  0  0
  1 82  1  0  0  0
  2  3  1  0  0  0
  2 25  1  0  0  0
  2 84  1  0  0  0
  2 85  1  0  0  0
  3  4  1  0  0  0
  3 86  1  0  0  0
  3 87  1  0  0  0
  4  5  1  0  0  0
  4 88  1  0  0  0
  4 89  1  0  0  0
  5  6  1  0  0  0
  5 26  1  0  0  0
  5 90  1  0  0  0
  6 25  1  0  0  0
  6 91  1  0  0  0
  6 92  1  0  0  0
  7  8  2  0  0  0
  7 26  1  0  0  0
  7 29  1  0  0  0
  8  9  1  0  0  0
  8 22  1  0  0  0
  9 10  1  0  0  0
  9 27  2  0  0  0
 10 11  2  0  0  0
 10 15  1  0  0  0
 11 12  1  0  0  0
 11 93  1  0  0  0
 12 13  2  0  0  0
 12 94  1  0  0  0
 13 14  1  0  0  0
 13 31  1  0  0  0
 14 15  2  0  0  0
 14 95  1  0  0  0
 15 96  1  0  0  0
 16 17  2  0  0  0
 16 21  1  0  0  0
 16 31  1  0  0  0
 17 18  1  0  0  0
 17 97  1  0  0  0
 18 19  2  0  0  0
 18 98  1  0  0  0
 19 20  1  0  0  0
 19 24  1  0  0  0
 20 21  2  0  0  0
 20 99  1  0  0  0
 21 23  1  0  0  0
 22 28  1  0  0  0
 22 32  2  0  0  0
 26 27  1  0  0  0
 28100  1  0  0  0
 28101  1  0  0  0
 29102  1  0  0  0
 29103  1  0  0  0
 33 34  1  0  0  0
 33 66  1  0  0  0
 33 70  2  0  0  0
 34 36  1  0  0  0
 34 59  1  0  0  0
 34104  1  0  0  0
 35 44  2  0  0  0
 35 45  1  0  0  0
 35 68  1  0  0  0
 36 56  1  0  0  0
 36105  1  0  0  0
 37 39  1  0  0  0
 37 47  1  0  0  0
 37 66  1  0  0  0
 37106  1  0  0  0
 38 43  2  0  0  0
 38 46  1  0  0  0
 38 47  1  0  0  0
 39 64  1  0  0  0
 39 67  2  0  0  0
 40 52  1  0  0  0
 40 53  2  0  0  0
 40 58  1  0  0  0
 41107  1  0  0  0
 41108  1  0  0  0
 41109  1  0  0  0
 41 48  1  0  0  0
 42 43  1  0  0  0
 42 66  1  0  0  0
 42110  1  0  0  0
 42111  1  0  0  0
 43 44  1  0  0  0
 44112  1  0  0  0
 45 46  2  0  0  0
 45113  1  0  0  0
 46114  1  0  0  0
 47115  1  0  0  0
 47116  1  0  0  0
 48 56  1  0  0  0
 48 65  1  0  0  0
 48117  1  0  0  0
 49 50  1  0  0  0
 49 53  1  0  0  0
 49 64  1  0  0  0
 49118  1  0  0  0
 50 51  1  0  0  0
 50119  1  0  0  0
 50120  1  0  0  0
 51 52  1  0  0  0
 51121  1  0  0  0
 51122  1  0  0  0
 52123  1  0  0  0
 52124  1  0  0  0
 53 54  1  0  0  0
 54 55  2  0  0  0
 54125  1  0  0  0
 55 57  1  0  0  0
 55126  1  0  0  0
 56 69  2  0  0  0
 57 58  2  0  0  0
 57127  1  0  0  0
 58128  1  0  0  0
 59 60  1  0  0  0
 59 61  1  0  0  0
 59 62  1  0  0  0
 60129  1  0  0  0
 60130  1  0  0  0
 60131  1  0  0  0
 61132  1  0  0  0
 61133  1  0  0  0
 61134  1  0  0  0
 62135  1  0  0  0
 62136  1  0  0  0
 62137  1  0  0  0
 63 65  1  0  0  0
 63138  1  0  0  0
 63139  1  0  0  0
 63140  1  0  0  0
 64141  1  0  0  0
 65142  1  0  0  0
 68 79  1  0  0  0
 71 73  1  0  0  0
 71 74  2  0  0  0
 71143  1  0  0  0
 72 73  2  0  0  0
 72 81  1  0  0  0
 72144  1  0  0  0
 73 80  1  0  0  0
 74 75  1  0  0  0
 74 82  1  0  0  0
 75 81  1  0  0  0
 75 83  2  0  0  0
 76 77  1  0  0  0
 76 78  1  0  0  0
 76 80  2  0  0  0
 77145  1  0  0  0
 77146  1  0  0  0
 77147  1  0  0  0
 78 79  1  0  0  0
 78148  1  0  0  0
 78149  1  0  0  0
 79150  1  0  0  0
 79151  1  0  0  0
 81152  1  0  0  0
 82153  1  0  0  0
M  ISO  4   1 100  68 101  79 101  82 100
M  END
> <chiral flag>
0

> <version>
0

> <s_m_source_file>
/data/baiqing/PycharmProjects/Reinvent-master-3.2/result/LINK_invent/BTK/process_docking_weight1_custom_product_contain_oxygen_bond_distance_aromatic_linkinvent_7_9_3/rearranged_h_0086.sdf

> <i_m_source_file_index>
18

> <r_mmod_Potential_Energy-OPLS-2005>
170.981307983398

> <r_mmod_Stretch_Energy-OPLS-2005>
155.87939453125

> <r_mmod_Bend_Energy-OPLS-2005>
267.626068115234

> <r_mmod_Torsional_Energy-OPLS-2005>
246.375457763672

> <r_mmod_Improper_Torsional_Energy-OPLS-2005>
4.4107232093811

> <r_mmod_Van_der_Waal_Energy-OPLS-2005>
146.679718017578

> <r_mmod_Electrostatic_Energy-OPLS-2005>
-509.633483886719

> <r_mmod_Solvation_Energy-OPLS-2005>
-245.805725097656

> <b_mmod_Minimization_Converged-OPLS-2005>
0

> <r_mmod_RMS_Derivative-OPLS-2005>
2.84735822677612

$$$$
18
                    3D
 Structure written by MMmdl.
149157  0  0  1  0            999 V2000
  -30.6255  -14.7713   20.4474 C   0  0  0  0  0  0
  -30.4317  -12.4411   19.4999 C   0  0  0  0  0  0
  -29.5215  -12.5124   18.2527 C   0  0  0  0  0  0
  -28.0436  -12.3393   18.6526 C   0  0  0  0  0  0
  -27.6401  -13.2419   19.8499 C   0  0  2  0  0  0
  -28.6696  -13.1890   20.9971 C   0  0  0  0  0  0
  -25.2495  -13.8228   20.5687 C   0  0  0  0  0  0
  -24.1793  -13.0455   20.9184 C   0  0  0  0  0  0
  -24.6395  -11.6936   20.8720 C   0  0  0  0  0  0
  -23.9078  -10.4304   21.0392 C   0  0  0  0  0  0
  -24.3629   -9.4221   21.9173 C   0  0  0  0  0  0
  -23.6302   -8.2256   22.0750 C   0  0  0  0  0  0
  -22.4283   -8.0287   21.3544 C   0  0  0  0  0  0
  -21.9918   -9.0258   20.4645 C   0  0  0  0  0  0
  -22.7247  -10.2138   20.3048 C   0  0  0  0  0  0
  -21.6859   -6.0740   22.5280 C   0  0  0  0  0  0
  -21.4019   -6.5642   23.8213 C   0  0  0  0  0  0
  -21.3661   -5.6793   24.9175 C   0  0  0  0  0  0
  -21.6045   -4.3056   24.7223 C   0  0  0  0  0  0
  -21.8820   -3.8148   23.4344 C   0  0  0  0  0  0
  -21.9197   -4.6968   22.3402 C   0  0  0  0  0  0
  -22.7817  -13.5224   21.1861 C   0  0  0  0  0  0
  -22.1665   -4.2154   21.0980 F   0  0  0  0  0  0
  -21.5626   -3.4539   25.7736 F   0  0  0  0  0  0
  -29.9865  -13.4960   20.4376 N   0  0  0  0  0  0
  -26.2918  -12.9451   20.3236 N   0  0  0  0  0  0
  -25.9324  -11.6582   20.5706 N   0  0  0  0  0  0
  -22.0478  -12.8202   22.0421 N   0  0  0  0  0  0
  -25.4206  -15.1955   20.4167 N   0  0  0  0  0  0
  -31.7889  -14.9056   20.0606 O   0  0  0  0  0  0
  -21.6648   -6.8884   21.4243 O   0  0  0  0  0  0
  -22.3490  -14.5528   20.6715 O   0  0  0  0  0  0
  -24.6342  -31.8528   23.1977 C   0  0  0  0  0  0
  -25.9157  -32.4740   23.8327 C   0  0  1  0  0  0
  -27.2143  -27.2284   20.1315 C   0  0  0  0  0  0
  -25.5943  -33.8546   24.2243 N   0  0  0  0  0  0
  -23.4323  -30.4763   21.5413 C   0  0  2  0  0  0
  -24.8800  -28.9235   20.1065 C   0  0  0  0  0  0
  -22.7519  -29.4590   22.4897 C   0  0  0  0  0  0
  -18.0295  -28.1389   22.8482 C   0  0  0  0  0  0
  -24.1489  -36.7276   23.2640 C   0  0  0  0  0  0
  -25.9819  -30.7536   21.3863 C   0  0  0  0  0  0
  -26.0521  -29.3748   20.7261 C   0  0  0  0  0  0
  -27.2190  -28.5384   20.7317 C   0  0  0  0  0  0
  -26.0254  -26.8708   19.4539 C   0  0  0  0  0  0
  -24.8745  -27.6813   19.4580 C   0  0  0  0  0  0
  -23.6522  -29.8130   20.1567 C   0  0  0  0  0  0
  -25.4118  -36.3060   24.0323 C   0  0  1  0  0  0
  -20.5902  -28.3705   23.1256 C   0  0  2  0  0  0
  -20.6780  -26.9418   22.5406 C   0  0  0  0  0  0
  -19.5754  -26.6382   21.5211 C   0  0  0  0  0  0
  -18.1936  -26.7929   22.1624 C   0  0  0  0  0  0
  -19.1550  -28.8865   23.2862 C   0  0  0  0  0  0
  -18.9469  -30.1465   23.8883 C   0  0  0  0  0  0
  -17.6467  -30.6588   24.0561 C   0  0  0  0  0  0
  -25.9063  -34.9433   23.5086 C   0  0  0  0  0  0
  -16.5358  -29.9082   23.6334 C   0  0  0  0  0  0
  -16.7281  -28.6500   23.0355 C   0  0  0  0  0  0
  -26.4509  -31.6582   25.0735 C   0  0  0  0  0  0
  -25.3718  -31.3749   26.1444 C   0  0  0  0  0  0
  -27.0369  -30.2990   24.6268 C   0  0  0  0  0  0
  -27.6050  -32.4337   25.7513 C   0  0  0  0  0  0
  -27.5579  -37.1793   24.8463 C   0  0  0  0  0  0
  -21.4222  -29.3046   22.3640 N   0  0  0  0  0  0
  -26.4289  -37.3765   23.9409 N   0  0  0  0  0  0
  -24.7018  -31.0465   22.0971 N   0  0  0  0  0  0
  -23.4203  -28.8127   23.3006 O   0  0  0  0  0  0
  -28.2877  -26.2978   20.2285 O   0  0  0  0  0  0
  -26.5638  -34.8912   22.4658 O   0  0  0  0  0  0
  -23.5485  -32.1368   23.7253 O   0  0  0  0  0  0
  -30.2900  -18.6231   18.1897 C   0  0  0  0  0  0
  -29.9510  -19.8204   18.8554 C   0  0  0  0  0  0
  -30.2467  -17.3696   18.8375 C   0  0  0  0  0  0
  -29.5177  -18.4994   20.8532 C   0  0  0  0  0  0
  -29.5476  -19.8175   20.2078 C   0  0  0  0  0  0
  -29.8608  -17.2383   20.1924 C   0  0  0  0  0  0
  -29.3099  -21.1883   20.9352 C   0  0  0  0  0  0
  -28.8605  -23.6829   20.6939 C   0  0  0  0  0  0
  -28.0809  -24.8302   19.8732 C   0  0  0  0  0  0
  -28.9102  -22.3484   20.2630 N   0  0  0  0  0  0
  -29.4856  -21.1816   22.1579 O   0  0  0  0  0  0
  -29.3980  -24.0427   21.7478 O   0  0  0  0  0  0
  -29.7605  -15.9222   20.7669 O   0  0  0  0  0  0
  -31.4779  -12.5618   19.2134 H   0  0  0  0  0  0
  -30.3607  -11.4610   19.9743 H   0  0  0  0  0  0
  -29.8060  -11.7460   17.5305 H   0  0  0  0  0  0
  -29.6577  -13.4719   17.7509 H   0  0  0  0  0  0
  -27.8952  -11.2907   18.9125 H   0  0  0  0  0  0
  -27.3951  -12.5345   17.7978 H   0  0  0  0  0  0
  -27.6349  -14.2633   19.4679 H   0  0  0  0  0  0
  -28.6813  -12.2028   21.4631 H   0  0  0  0  0  0
  -28.4064  -13.8992   21.7825 H   0  0  0  0  0  0
  -25.2779   -9.5699   22.4743 H   0  0  0  0  0  0
  -24.0017   -7.4649   22.7469 H   0  0  0  0  0  0
  -21.0851   -8.8774   19.8947 H   0  0  0  0  0  0
  -22.3704  -10.9672   19.6153 H   0  0  0  0  0  0
  -21.2012   -7.6150   23.9717 H   0  0  0  0  0  0
  -21.1481   -6.0524   25.9077 H   0  0  0  0  0  0
  -22.0598   -2.7611   23.2843 H   0  0  0  0  0  0
  -22.4112  -11.9870   22.4808 H   0  0  0  0  0  0
  -21.1091  -13.1206   22.2630 H   0  0  0  0  0  0
  -24.6607  -15.8556   20.5409 H   0  0  0  0  0  0
  -26.2861  -15.6364   20.1302 H   0  0  0  0  0  0
  -26.7222  -32.5376   23.1063 H   0  0  0  0  0  0
  -25.0080  -33.9679   25.0382 H   0  0  0  0  0  0
  -22.7305  -31.3000   21.3954 H   0  0  0  0  0  0
  -23.3756  -35.9603   23.3292 H   0  0  0  0  0  0
  -24.3576  -36.8914   22.2056 H   0  0  0  0  0  0
  -23.7238  -37.6470   23.6675 H   0  0  0  0  0  0
  -26.1302  -31.5141   20.6184 H   0  0  0  0  0  0
  -26.8560  -30.7986   22.0246 H   0  0  0  0  0  0
  -28.1098  -28.8739   21.2438 H   0  0  0  0  0  0
  -25.9424  -25.9387   18.9171 H   0  0  0  0  0  0
  -23.9828  -27.3372   18.9523 H   0  0  0  0  0  0
  -23.7783  -30.5906   19.4026 H   0  0  0  0  0  0
  -22.7696  -29.2487   19.8499 H   0  0  0  0  0  0
  -25.1301  -36.1902   25.0815 H   0  0  0  0  0  0
  -20.9996  -28.3288   24.1376 H   0  0  0  0  0  0
  -20.5675  -26.2318   23.3616 H   0  0  0  0  0  0
  -21.6646  -26.7431   22.1203 H   0  0  0  0  0  0
  -19.6913  -25.6290   21.1248 H   0  0  0  0  0  0
  -19.6689  -27.3186   20.6736 H   0  0  0  0  0  0
  -17.4203  -26.6677   21.4027 H   0  0  0  0  0  0
  -18.0335  -26.0073   22.9023 H   0  0  0  0  0  0
  -19.7945  -30.7286   24.2241 H   0  0  0  0  0  0
  -17.5020  -31.6266   24.5167 H   0  0  0  0  0  0
  -15.5357  -30.2979   23.7667 H   0  0  0  0  0  0
  -15.8682  -28.0816   22.7076 H   0  0  0  0  0  0
  -24.5895  -30.7095   25.7769 H   0  0  0  0  0  0
  -24.8905  -32.2925   26.4839 H   0  0  0  0  0  0
  -25.8019  -30.8943   27.0241 H   0  0  0  0  0  0
  -26.2975  -29.6723   24.1268 H   0  0  0  0  0  0
  -27.3997  -29.7271   25.4820 H   0  0  0  0  0  0
  -27.8874  -30.4243   23.9564 H   0  0  0  0  0  0
  -27.2645  -33.3645   26.2063 H   0  0  0  0  0  0
  -28.3874  -32.6890   25.0352 H   0  0  0  0  0  0
  -28.0704  -31.8484   26.5454 H   0  0  0  0  0  0
  -28.2586  -38.0101   24.7523 H   0  0  0  0  0  0
  -28.1087  -36.2633   24.6272 H   0  0  0  0  0  0
  -27.2298  -37.1421   25.8865 H   0  0  0  0  0  0
  -20.9414  -29.8772   21.6843 H   0  0  0  0  0  0
  -26.0162  -38.2835   24.1420 H   0  0  0  0  0  0
  -30.5967  -18.6663   17.1535 H   0  0  0  0  0  0
  -30.0343  -20.7529   18.3139 H   0  0  0  0  0  0
  -30.5014  -16.4936   18.2581 H   0  0  0  0  0  0
  -29.2235  -18.4578   21.8925 H   0  0  0  0  0  0
  -27.0399  -24.5526   20.0285 H   0  0  0  0  0  0
  -28.2850  -24.6987   18.8107 H   0  0  0  0  0  0
  -28.5940  -22.1938   19.3192 H   0  0  0  0  0  0
  1 25  1  0  0  0
  1 30  2  0  0  0
  1 83  1  0  0  0
  2  3  1  0  0  0
  2 25  1  0  0  0
  2 84  1  0  0  0
  2 85  1  0  0  0
  3  4  1  0  0  0
  3 86  1  0  0  0
  3 87  1  0  0  0
  4  5  1  0  0  0
  4 88  1  0  0  0
  4 89  1  0  0  0
  5  6  1  0  0  0
  5 26  1  0  0  0
  5 90  1  0  0  0
  6 25  1  0  0  0
  6 91  1  0  0  0
  6 92  1  0  0  0
  7  8  2  0  0  0
  7 26  1  0  0  0
  7 29  1  0  0  0
  8  9  1  0  0  0
  8 22  1  0  0  0
  9 10  1  0  0  0
  9 27  2  0  0  0
 10 11  2  0  0  0
 10 15  1  0  0  0
 11 12  1  0  0  0
 11 93  1  0  0  0
 12 13  2  0  0  0
 12 94  1  0  0  0
 13 14  1  0  0  0
 13 31  1  0  0  0
 14 15  2  0  0  0
 14 95  1  0  0  0
 15 96  1  0  0  0
 16 17  2  0  0  0
 16 21  1  0  0  0
 16 31  1  0  0  0
 17 18  1  0  0  0
 17 97  1  0  0  0
 18 19  2  0  0  0
 18 98  1  0  0  0
 19 20  1  0  0  0
 19 24  1  0  0  0
 20 21  2  0  0  0
 20 99  1  0  0  0
 21 23  1  0  0  0
 22 28  1  0  0  0
 22 32  2  0  0  0
 26 27  1  0  0  0
 28100  1  0  0  0
 28101  1  0  0  0
 29102  1  0  0  0
 29103  1  0  0  0
 33 34  1  0  0  0
 33 66  1  0  0  0
 33 70  2  0  0  0
 34 36  1  0  0  0
 34 59  1  0  0  0
 34104  1  0  0  0
 35 44  2  0  0  0
 35 45  1  0  0  0
 35 68  1  0  0  0
 36 56  1  0  0  0
 36105  1  0  0  0
 37 39  1  0  0  0
 37 47  1  0  0  0
 37 66  1  0  0  0
 37106  1  0  0  0
 38 43  2  0  0  0
 38 46  1  0  0  0
 38 47  1  0  0  0
 39 64  1  0  0  0
 39 67  2  0  0  0
 40 52  1  0  0  0
 40 53  2  0  0  0
 40 58  1  0  0  0
 41107  1  0  0  0
 41108  1  0  0  0
 41109  1  0  0  0
 41 48  1  0  0  0
 42 43  1  0  0  0
 42 66  1  0  0  0
 42110  1  0  0  0
 42111  1  0  0  0
 43 44  1  0  0  0
 44112  1  0  0  0
 45 46  2  0  0  0
 45113  1  0  0  0
 46114  1  0  0  0
 47115  1  0  0  0
 47116  1  0  0  0
 48 56  1  0  0  0
 48 65  1  0  0  0
 48117  1  0  0  0
 49 50  1  0  0  0
 49 53  1  0  0  0
 49 64  1  0  0  0
 49118  1  0  0  0
 50 51  1  0  0  0
 50119  1  0  0  0
 50120  1  0  0  0
 51 52  1  0  0  0
 51121  1  0  0  0
 51122  1  0  0  0
 52123  1  0  0  0
 52124  1  0  0  0
 53 54  1  0  0  0
 54 55  2  0  0  0
 54125  1  0  0  0
 55 57  1  0  0  0
 55126  1  0  0  0
 56 69  2  0  0  0
 57 58  2  0  0  0
 57127  1  0  0  0
 58128  1  0  0  0
 59 60  1  0  0  0
 59 61  1  0  0  0
 59 62  1  0  0  0
 60129  1  0  0  0
 60130  1  0  0  0
 60131  1  0  0  0
 61132  1  0  0  0
 61133  1  0  0  0
 61134  1  0  0  0
 62135  1  0  0  0
 62136  1  0  0  0
 62137  1  0  0  0
 63 65  1  0  0  0
 63138  1  0  0  0
 63139  1  0  0  0
 63140  1  0  0  0
 64141  1  0  0  0
 65142  1  0  0  0
 68 79  1  0  0  0
 71 72  2  0  0  0
 71 73  1  0  0  0
 71143  1  0  0  0
 72 75  1  0  0  0
 72144  1  0  0  0
 73 76  2  0  0  0
 73145  1  0  0  0
 74 75  2  0  0  0
 74 76  1  0  0  0
 74146  1  0  0  0
 75 77  1  0  0  0
 76 83  1  0  0  0
 77 80  1  0  0  0
 77 81  2  0  0  0
 78 79  1  0  0  0
 78 80  1  0  0  0
 78 82  2  0  0  0
 79147  1  0  0  0
 79148  1  0  0  0
 80149  1  0  0  0
M  ISO  4   1 100  68 101  79 101  83 100
M  END
> <chiral flag>
0

> <version>
0

> <s_m_source_file>
/data/baiqing/PycharmProjects/Reinvent-master-3.2/result/LINK_invent/BTK/process_docking_weight1_custom_product_contain_oxygen_bond_distance_aromatic_linkinvent_7_9_3/rearranged_h_0086.sdf

> <i_m_source_file_index>
19

> <r_mmod_Potential_Energy-OPLS-2005>
86.224739074707

> <r_mmod_Stretch_Energy-OPLS-2005>
151.736907958984

> <r_mmod_Bend_Energy-OPLS-2005>
168.418731689453

> <r_mmod_Torsional_Energy-OPLS-2005>
190.841690063477

> <r_mmod_Improper_Torsional_Energy-OPLS-2005>
4.44486236572266

> <r_mmod_Van_der_Waal_Energy-OPLS-2005>
142.26741027832

> <r_mmod_Electrostatic_Energy-OPLS-2005>
-395.638092041016

> <r_mmod_Solvation_Energy-OPLS-2005>
-277.582580566406

> <b_mmod_Minimization_Converged-OPLS-2005>
0

> <r_mmod_RMS_Derivative-OPLS-2005>
0.404075384140015

$$$$
19
                    3D
 Structure written by MMmdl.
158166  0  0  1  0            999 V2000
  -29.4943  -15.5147   20.7353 C   0  0  0  0  0  0
  -30.3010  -13.1190   19.6951 C   0  0  0  0  0  0
  -29.5156  -12.7063   18.3995 C   0  0  0  0  0  0
  -28.0711  -12.2907   18.7308 C   0  0  0  0  0  0
  -27.5084  -13.2139   19.8295 C   0  0  2  0  0  0
  -28.4032  -13.2647   21.0624 C   0  0  0  0  0  0
  -25.1837  -13.8025   20.5564 C   0  0  0  0  0  0
  -24.1295  -13.0289   20.9270 C   0  0  0  0  0  0
  -24.5916  -11.6764   20.8744 C   0  0  0  0  0  0
  -23.8757  -10.4177   21.0463 C   0  0  0  0  0  0
  -24.3452   -9.4135   21.9205 C   0  0  0  0  0  0
  -23.6203   -8.2143   22.0742 C   0  0  0  0  0  0
  -22.4189   -8.0167   21.3533 C   0  0  0  0  0  0
  -21.9749   -9.0105   20.4645 C   0  0  0  0  0  0
  -22.6989  -10.2008   20.3071 C   0  0  0  0  0  0
  -21.6811   -6.0672   22.5294 C   0  0  0  0  0  0
  -21.3979   -6.5608   23.8214 C   0  0  0  0  0  0
  -21.3643   -5.6780   24.9190 C   0  0  0  0  0  0
  -21.6035   -4.3040   24.7252 C   0  0  0  0  0  0
  -21.8826   -3.8115   23.4384 C   0  0  0  0  0  0
  -21.9178   -4.6913   22.3428 C   0  0  0  0  0  0
  -22.7422  -13.5128   21.2043 C   0  0  0  0  0  0
  -22.1662   -4.2108   21.1002 F   0  0  0  0  0  0
  -21.5630   -3.4529   25.7768 F   0  0  0  0  0  0
  -29.4806  -14.0750   20.5947 N   0  0  0  0  0  0
  -26.1904  -12.9088   20.2662 N   0  0  0  0  0  0
  -25.8674  -11.6284   20.5383 N   0  0  0  0  0  0
  -22.0146  -12.8116   22.0622 N   0  0  0  0  0  0
  -25.3585  -15.1783   20.4185 N   0  0  0  0  0  0
  -30.6687  -15.8311   20.3725 O   0  0  0  0  0  0
  -21.6577   -6.8773   21.4238 O   0  0  0  0  0  0
  -22.3148  -14.5459   20.6890 O   0  0  0  0  0  0
  -24.6508  -31.9338   23.2317 C   0  0  0  0  0  0
  -25.9415  -32.5082   23.8670 C   0  0  1  0  0  0
  -26.1849  -27.2326   20.3589 C   0  0  0  0  0  0
  -25.6278  -33.8838   24.2603 N   0  0  0  0  0  0
  -23.4573  -30.5760   21.5939 C   0  0  2  0  0  0
  -24.8712  -29.3548   19.7910 C   0  0  0  0  0  0
  -23.0856  -29.4608   22.6108 C   0  0  0  0  0  0
  -18.6707  -27.6512   22.4613 C   0  0  0  0  0  0
  -24.1500  -36.7367   23.2603 C   0  0  0  0  0  0
  -25.9861  -30.8434   21.4320 C   0  0  0  0  0  0
  -25.9338  -29.5404   20.6729 C   0  0  0  0  0  0
  -26.7840  -28.4352   20.8582 C   0  0  0  0  0  0
  -25.9094  -27.2784   19.0232 C   0  0  0  0  0  0
  -25.0010  -28.3311   18.8046 C   0  0  0  0  0  0
  -23.6133  -30.1466   20.0864 C   0  0  0  0  0  0
  -25.4117  -36.3227   24.0343 C   0  0  1  0  0  0
  -21.3896  -27.9551   23.5076 C   0  0  2  0  0  0
  -22.3472  -26.2724   22.7143 C   0  0  0  0  0  0
  -20.8081  -25.2719   21.2129 C   0  0  0  0  0  0
  -19.0249  -26.2725   21.3783 C   0  0  0  0  0  0
  -19.6976  -28.3697   23.3031 C   0  0  0  0  0  0
  -19.2520  -29.6226   23.9264 C   0  0  0  0  0  0
  -17.9339  -30.1560   23.9311 C   0  0  0  0  0  0
  -25.9112  -34.9612   23.5192 C   0  0  0  0  0  0
  -16.9320  -29.3965   23.3160 C   0  0  0  0  0  0
  -17.3073  -28.1984   22.6144 C   0  0  0  0  0  0
  -26.4566  -31.6706   25.0987 C   0  0  0  0  0  0
  -25.3692  -31.3849   26.1606 C   0  0  0  0  0  0
  -27.0376  -30.3116   24.6457 C   0  0  0  0  0  0
  -27.6129  -32.4329   25.7821 C   0  0  0  0  0  0
  -27.5611  -37.1872   24.8456 C   0  0  0  0  0  0
  -21.8485  -29.2677   22.9780 N   0  0  0  0  0  0
  -26.4297  -37.3918   23.9437 N   0  0  0  0  0  0
  -24.7118  -31.1821   22.1036 N   0  0  0  0  0  0
  -23.9283  -28.7804   23.1755 O   0  0  0  0  0  0
  -24.8795  -26.9373   20.9269 O   0  0  0  0  0  0
  -26.5510  -34.9006   22.4655 O   0  0  0  0  0  0
  -23.5682  -32.1941   23.7777 O   0  0  0  0  0  0
  -26.8363  -20.0051   19.8110 C   0  0  0  0  0  0
  -25.8227  -20.6491   20.6029 C   0  0  0  0  0  0
  -27.5455  -18.7836   20.0864 C   0  0  0  0  0  0
  -26.1621  -18.7662   22.0374 C   0  0  0  0  0  0
  -25.3155  -20.1676   21.8347 C   0  0  0  0  0  0
  -27.3399  -17.9525   21.2167 C   0  0  0  0  0  0
  -23.9573  -21.2721   22.6564 C   0  0  0  0  0  0
  -21.2207  -27.4575   21.2097 C   0  0  0  0  0  0
  -23.1135  -27.1469   20.4903 C   0  0  0  0  0  0
  -20.3233  -25.7173   23.3285 C   0  0  0  0  0  0
  -23.1617  -22.5165   22.4659 N   0  0  0  0  0  0
  -23.7138  -20.6142   23.8409 N   0  0  0  0  0  0
  -28.2616  -16.4276   21.2397 N   0  0  0  0  0  0
  -20.4744  -22.5624   23.2998 O   0  0  0  0  0  0
  -22.0981  -23.5739   24.8579 O   0  0  0  0  0  0
  -21.5912  -23.5058   23.4767 S   0  0  0  0  0  0
  -31.2447  -13.5863   19.4136 H   0  0  0  0  0  0
  -30.5831  -12.2271   20.2550 H   0  0  0  0  0  0
  -30.0335  -11.9083   17.8680 H   0  0  0  0  0  0
  -29.4803  -13.5591   17.7190 H   0  0  0  0  0  0
  -28.0793  -11.2593   19.0912 H   0  0  0  0  0  0
  -27.4435  -12.3047   17.8378 H   0  0  0  0  0  0
  -27.4382  -14.1961   19.3587 H   0  0  0  0  0  0
  -28.6981  -12.2705   21.3985 H   0  0  0  0  0  0
  -27.9061  -13.7437   21.9070 H   0  0  0  0  0  0
  -25.2593   -9.5664   22.4764 H   0  0  0  0  0  0
  -23.9940   -7.4517   22.7426 H   0  0  0  0  0  0
  -21.0682   -8.8568   19.8961 H   0  0  0  0  0  0
  -22.3413  -10.9546   19.6199 H   0  0  0  0  0  0
  -21.1967   -7.6118   23.9701 H   0  0  0  0  0  0
  -21.1455   -6.0521   25.9088 H   0  0  0  0  0  0
  -22.0622   -2.7577   23.2898 H   0  0  0  0  0  0
  -22.3805  -11.9790   22.4997 H   0  0  0  0  0  0
  -21.0754  -13.1084   22.2840 H   0  0  0  0  0  0
  -24.5766  -15.8041   20.5750 H   0  0  0  0  0  0
  -26.1284  -15.6251   19.9363 H   0  0  0  0  0  0
  -26.7507  -32.5608   23.1422 H   0  0  0  0  0  0
  -25.0559  -34.0019   25.0841 H   0  0  0  0  0  0
  -22.6577  -31.3186   21.6157 H   0  0  0  0  0  0
  -23.3808  -35.9654   23.3230 H   0  0  0  0  0  0
  -24.3632  -36.9000   22.2030 H   0  0  0  0  0  0
  -23.7168  -37.6541   23.6598 H   0  0  0  0  0  0
  -26.2221  -31.6429   20.7275 H   0  0  0  0  0  0
  -26.8387  -30.7612   22.0940 H   0  0  0  0  0  0
  -27.5340  -28.4265   21.6379 H   0  0  0  0  0  0
  -25.7882  -26.3882   18.4209 H   0  0  0  0  0  0
  -24.3088  -28.2666   17.9770 H   0  0  0  0  0  0
  -23.6830  -31.0534   19.4865 H   0  0  0  0  0  0
  -22.7153  -29.6516   19.7241 H   0  0  0  0  0  0
  -25.1255  -36.2119   25.0829 H   0  0  0  0  0  0
  -21.6100  -27.9860   24.5759 H   0  0  0  0  0  0
  -22.5991  -25.7286   23.6223 H   0  0  0  0  0  0
  -23.4161  -26.2950   22.5474 H   0  0  0  0  0  0
  -20.6260  -24.2065   21.3033 H   0  0  0  0  0  0
  -21.1355  -25.2542   20.1688 H   0  0  0  0  0  0
  -18.7180  -26.5901   20.3796 H   0  0  0  0  0  0
  -18.2593  -25.5227   21.5922 H   0  0  0  0  0  0
  -19.9850  -30.1887   24.4854 H   0  0  0  0  0  0
  -17.7038  -31.0787   24.4485 H   0  0  0  0  0  0
  -15.9032  -29.7273   23.3296 H   0  0  0  0  0  0
  -16.5156  -27.6780   22.0934 H   0  0  0  0  0  0
  -24.5886  -30.7216   25.7865 H   0  0  0  0  0  0
  -24.8872  -32.3019   26.5006 H   0  0  0  0  0  0
  -25.7937  -30.9017   27.0413 H   0  0  0  0  0  0
  -26.2992  -29.6936   24.1349 H   0  0  0  0  0  0
  -27.3884  -29.7320   25.5004 H   0  0  0  0  0  0
  -27.8973  -30.4390   23.9873 H   0  0  0  0  0  0
  -27.2783  -33.3609   26.2463 H   0  0  0  0  0  0
  -28.3975  -32.6892   25.0691 H   0  0  0  0  0  0
  -28.0728  -31.8364   26.5703 H   0  0  0  0  0  0
  -28.2574  -38.0232   24.7637 H   0  0  0  0  0  0
  -28.1169  -36.2782   24.6104 H   0  0  0  0  0  0
  -27.2363  -37.1311   25.8865 H   0  0  0  0  0  0
  -21.1334  -29.9081   22.6646 H   0  0  0  0  0  0
  -26.0194  -38.2989   24.1509 H   0  0  0  0  0  0
  -27.0908  -20.4970   18.8814 H   0  0  0  0  0  0
  -25.4076  -21.5715   20.2165 H   0  0  0  0  0  0
  -28.2628  -18.4561   19.3487 H   0  0  0  0  0  0
  -25.8606  -18.2508   22.9383 H   0  0  0  0  0  0
  -20.7421  -27.3373   20.2295 H   0  0  0  0  0  0
  -20.8586  -28.4785   21.1216 H   0  0  0  0  0  0
  -22.9599  -27.4951   19.4793 H   0  0  0  0  0  0
  -23.0484  -26.0962   20.2219 H   0  0  0  0  0  0
  -20.4197  -26.0588   24.3628 H   0  0  0  0  0  0
  -19.2836  -25.4123   23.4619 H   0  0  0  0  0  0
  -24.1646  -19.7499   24.1132 H   0  0  0  0  0  0
  -23.1899  -20.9974   24.6193 H   0  0  0  0  0  0
  -27.6832  -15.7698   21.7442 H   0  0  0  0  0  0
  1 25  1  0  0  0
  1 30  2  0  0  0
  1 83  1  0  0  0
  2  3  1  0  0  0
  2 25  1  0  0  0
  2 87  1  0  0  0
  2 88  1  0  0  0
  3  4  1  0  0  0
  3 89  1  0  0  0
  3 90  1  0  0  0
  4  5  1  0  0  0
  4 91  1  0  0  0
  4 92  1  0  0  0
  5  6  1  0  0  0
  5 26  1  0  0  0
  5 93  1  0  0  0
  6 25  1  0  0  0
  6 94  1  0  0  0
  6 95  1  0  0  0
  7  8  2  0  0  0
  7 26  1  0  0  0
  7 29  1  0  0  0
  8  9  1  0  0  0
  8 22  1  0  0  0
  9 10  1  0  0  0
  9 27  2  0  0  0
 10 11  2  0  0  0
 10 15  1  0  0  0
 11 12  1  0  0  0
 11 96  1  0  0  0
 12 13  2  0  0  0
 12 97  1  0  0  0
 13 14  1  0  0  0
 13 31  1  0  0  0
 14 15  2  0  0  0
 14 98  1  0  0  0
 15 99  1  0  0  0
 16 17  2  0  0  0
 16 21  1  0  0  0
 16 31  1  0  0  0
 17 18  1  0  0  0
 17100  1  0  0  0
 18 19  2  0  0  0
 18101  1  0  0  0
 19 20  1  0  0  0
 19 24  1  0  0  0
 20 21  2  0  0  0
 20102  1  0  0  0
 21 23  1  0  0  0
 22 28  1  0  0  0
 22 32  2  0  0  0
 26 27  1  0  0  0
 28103  1  0  0  0
 28104  1  0  0  0
 29105  1  0  0  0
 29106  1  0  0  0
 33 34  1  0  0  0
 33 66  1  0  0  0
 33 70  2  0  0  0
 34 36  1  0  0  0
 34 59  1  0  0  0
 34107  1  0  0  0
 35 44  2  0  0  0
 35 45  1  0  0  0
 35 68  1  0  0  0
 36 56  1  0  0  0
 36108  1  0  0  0
 37 39  1  0  0  0
 37 47  1  0  0  0
 37 66  1  0  0  0
 37109  1  0  0  0
 38 43  2  0  0  0
 38 46  1  0  0  0
 38 47  1  0  0  0
 39 64  1  0  0  0
 39 67  2  0  0  0
 40 52  1  0  0  0
 40 53  2  0  0  0
 40 58  1  0  0  0
 41110  1  0  0  0
 41111  1  0  0  0
 41112  1  0  0  0
 41 48  1  0  0  0
 42 43  1  0  0  0
 42 66  1  0  0  0
 42113  1  0  0  0
 42114  1  0  0  0
 43 44  1  0  0  0
 44115  1  0  0  0
 45 46  2  0  0  0
 45116  1  0  0  0
 46117  1  0  0  0
 47118  1  0  0  0
 47119  1  0  0  0
 48 56  1  0  0  0
 48 65  1  0  0  0
 48120  1  0  0  0
 49 50  1  0  0  0
 49 53  1  0  0  0
 49 64  1  0  0  0
 49121  1  0  0  0
 50 51  1  0  0  0
 50122  1  0  0  0
 50123  1  0  0  0
 51 52  1  0  0  0
 51124  1  0  0  0
 51125  1  0  0  0
 52126  1  0  0  0
 52127  1  0  0  0
 53 54  1  0  0  0
 54 55  2  0  0  0
 54128  1  0  0  0
 55 57  1  0  0  0
 55129  1  0  0  0
 56 69  2  0  0  0
 57 58  2  0  0  0
 57130  1  0  0  0
 58131  1  0  0  0
 59 60  1  0  0  0
 59 61  1  0  0  0
 59 62  1  0  0  0
 60132  1  0  0  0
 60133  1  0  0  0
 60134  1  0  0  0
 61135  1  0  0  0
 61136  1  0  0  0
 61137  1  0  0  0
 62138  1  0  0  0
 62139  1  0  0  0
 62140  1  0  0  0
 63 65  1  0  0  0
 63141  1  0  0  0
 63142  1  0  0  0
 63143  1  0  0  0
 64144  1  0  0  0
 65145  1  0  0  0
 68 79  1  0  0  0
 71 72  2  0  0  0
 71 73  1  0  0  0
 71146  1  0  0  0
 72 75  1  0  0  0
 72147  1  0  0  0
 73 76  2  0  0  0
 73148  1  0  0  0
 74 75  2  0  0  0
 74 76  1  0  0  0
 74149  1  0  0  0
 75 77  1  0  0  0
 76 83  1  0  0  0
 77 81  2  0  0  0
 77 82  1  0  0  0
 78 79  1  0  0  0
 78 80  1  0  0  0
 78150  1  0  0  0
 78151  1  0  0  0
 79152  1  0  0  0
 79153  1  0  0  0
 80154  1  0  0  0
 80155  1  0  0  0
 80 86  1  0  0  0
 81 86  1  0  0  0
 82156  1  0  0  0
 82157  1  0  0  0
 83158  1  0  0  0
 84 86  2  0  0  0
 85 86  2  0  0  0
M  ISO  4   1 100  68 101  79 101  83 100
M  END
> <chiral flag>
0

> <version>
0

> <s_m_source_file>
/data/baiqing/PycharmProjects/Reinvent-master-3.2/result/LINK_invent/BTK/process_docking_weight1_custom_product_contain_oxygen_bond_distance_aromatic_linkinvent_7_9_3/rearranged_h_0086.sdf

> <i_m_source_file_index>
20

> <r_mmod_Potential_Energy-OPLS-2005>
12886.404296875

> <r_mmod_Stretch_Energy-OPLS-2005>
6066.33349609375

> <r_mmod_Bend_Energy-OPLS-2005>
1323.30883789062

> <r_mmod_Torsional_Energy-OPLS-2005>
517.409423828125

> <r_mmod_Improper_Torsional_Energy-OPLS-2005>
37.0112915039062

> <r_mmod_Van_der_Waal_Energy-OPLS-2005>
1885.31677246094

> <r_mmod_Electrostatic_Energy-OPLS-2005>
-516.5966796875

> <r_mmod_Solvation_Energy-OPLS-2005>
-261.200408935547

> <b_mmod_Minimization_Converged-OPLS-2005>
0

> <r_mmod_RMS_Derivative-OPLS-2005>
6.00779914855957

$$$$
20
                    3D
 Structure written by MMmdl.
152161  0  0  1  0            999 V2000
  -30.7293  -14.5210   20.5792 C   0  0  0  0  0  0
  -30.4073  -12.3447   19.4401 C   0  0  0  0  0  0
  -29.4961  -12.5086   18.2105 C   0  0  0  0  0  0
  -28.0160  -12.3690   18.6159 C   0  0  0  0  0  0
  -27.6478  -13.2256   19.8581 C   0  0  2  0  0  0
  -28.6881  -13.0703   20.9889 C   0  0  0  0  0  0
  -25.2508  -13.8197   20.5649 C   0  0  0  0  0  0
  -24.1800  -13.0448   20.9165 C   0  0  0  0  0  0
  -24.6393  -11.6914   20.8730 C   0  0  0  0  0  0
  -23.9085  -10.4284   21.0388 C   0  0  0  0  0  0
  -24.3634   -9.4190   21.9155 C   0  0  0  0  0  0
  -23.6295   -8.2237   22.0740 C   0  0  0  0  0  0
  -22.4270   -8.0289   21.3549 C   0  0  0  0  0  0
  -21.9905   -9.0259   20.4652 C   0  0  0  0  0  0
  -22.7250  -10.2123   20.3045 C   0  0  0  0  0  0
  -21.6852   -6.0744   22.5284 C   0  0  0  0  0  0
  -21.4023   -6.5640   23.8223 C   0  0  0  0  0  0
  -21.3653   -5.6786   24.9180 C   0  0  0  0  0  0
  -21.6035   -4.3055   24.7224 C   0  0  0  0  0  0
  -21.8825   -3.8148   23.4351 C   0  0  0  0  0  0
  -21.9189   -4.6968   22.3402 C   0  0  0  0  0  0
  -22.7823  -13.5207   21.1846 C   0  0  0  0  0  0
  -22.1658   -4.2158   21.0977 F   0  0  0  0  0  0
  -21.5624   -3.4544   25.7731 F   0  0  0  0  0  0
  -30.0093  -13.3729   20.4222 N   0  0  0  0  0  0
  -26.2947  -12.9409   20.3272 N   0  0  0  0  0  0
  -25.9319  -11.6549   20.5709 N   0  0  0  0  0  0
  -22.0482  -12.8203   22.0418 N   0  0  0  0  0  0
  -25.4185  -15.1932   20.4074 N   0  0  0  0  0  0
  -31.8892  -14.5805   20.1606 O   0  0  0  0  0  0
  -21.6648   -6.8880   21.4247 O   0  0  0  0  0  0
  -22.3474  -14.5477   20.6654 O   0  0  0  0  0  0
  -24.6161  -31.8684   23.2088 C   0  0  0  0  0  0
  -25.9047  -32.4823   23.8376 C   0  0  1  0  0  0
  -27.2129  -27.4104   20.1106 C   0  0  0  0  0  0
  -25.5894  -33.8613   24.2311 N   0  0  0  0  0  0
  -23.4044  -30.4937   21.5508 C   0  0  2  0  0  0
  -24.8522  -28.9673   20.1033 C   0  0  0  0  0  0
  -22.7416  -29.4646   22.4962 C   0  0  0  0  0  0
  -18.0285  -28.1373   22.8490 C   0  0  0  0  0  0
  -24.1493  -36.7306   23.2628 C   0  0  0  0  0  0
  -25.9364  -30.8312   21.3660 C   0  0  0  0  0  0
  -26.0158  -29.4674   20.7045 C   0  0  0  0  0  0
  -27.2058  -28.6978   20.7043 C   0  0  0  0  0  0
  -26.0412  -26.9401   19.4849 C   0  0  0  0  0  0
  -24.8625  -27.7073   19.4815 C   0  0  0  0  0  0
  -23.6118  -29.8322   20.1625 C   0  0  0  0  0  0
  -25.4112  -36.3101   24.0330 C   0  0  1  0  0  0
  -20.5869  -28.3651   23.1327 C   0  0  2  0  0  0
  -20.6767  -26.9387   22.5424 C   0  0  0  0  0  0
  -19.5738  -26.6375   21.5219 C   0  0  0  0  0  0
  -18.1919  -26.7919   22.1634 C   0  0  0  0  0  0
  -19.1536  -28.8829   23.2910 C   0  0  0  0  0  0
  -18.9452  -30.1440   23.8920 C   0  0  0  0  0  0
  -17.6445  -30.6564   24.0566 C   0  0  0  0  0  0
  -25.9039  -34.9465   23.5121 C   0  0  0  0  0  0
  -16.5342  -29.9060   23.6321 C   0  0  0  0  0  0
  -16.7265  -28.6481   23.0335 C   0  0  0  0  0  0
  -26.4443  -31.6599   25.0717 C   0  0  0  0  0  0
  -25.3693  -31.3791   26.1460 C   0  0  0  0  0  0
  -27.0218  -30.2993   24.6131 C   0  0  0  0  0  0
  -27.6036  -32.4294   25.7469 C   0  0  0  0  0  0
  -27.5590  -37.1816   24.8445 C   0  0  0  0  0  0
  -21.4127  -29.3017   22.3725 N   0  0  0  0  0  0
  -26.4294  -37.3783   23.9398 N   0  0  0  0  0  0
  -24.6700  -31.0782   22.0999 N   0  0  0  0  0  0
  -23.4209  -28.8182   23.2994 O   0  0  0  0  0  0
  -28.2826  -26.5427   20.2028 O   0  0  0  0  0  0
  -26.5598  -34.8931   22.4687 O   0  0  0  0  0  0
  -23.5345  -32.1442   23.7467 O   0  0  0  0  0  0
  -30.7170  -19.2131   20.5839 C   0  0  0  0  0  0
  -28.6718  -18.4342   21.6002 C   0  0  0  0  0  0
  -30.1812  -20.5148   20.4727 C   0  0  0  0  0  0
  -28.1567  -19.7588   21.5105 C   0  0  0  0  0  0
  -29.9800  -18.1426   21.1460 C   0  0  0  0  0  0
  -28.8902  -20.8500   20.9553 C   0  0  0  0  0  0
  -28.2767  -24.1999   20.9865 C   0  0  0  0  0  0
  -28.0253  -23.1200   21.9126 C   0  0  0  0  0  0
  -28.0781  -25.5354   21.1360 C   0  0  0  0  0  0
  -30.6847  -16.8077   21.3430 C   0  0  0  0  0  0
  -28.8004  -23.2238   19.9514 C   0  0  0  0  0  0
  -28.3656  -22.1927   20.9243 N   0  0  0  0  0  0
  -30.0755  -15.6350   21.0182 N   0  0  0  0  0  0
  -27.7658  -23.1134   23.0987 O   0  0  0  0  0  0
  -31.8532  -16.8648   21.7528 O   0  0  0  0  0  0
  -31.4540  -12.4218   19.1419 H   0  0  0  0  0  0
  -30.3009  -11.3478   19.8713 H   0  0  0  0  0  0
  -29.7483  -11.7666   17.4523 H   0  0  0  0  0  0
  -29.6689  -13.4843   17.7548 H   0  0  0  0  0  0
  -27.8295  -11.3157   18.8207 H   0  0  0  0  0  0
  -27.3726  -12.6304   17.7747 H   0  0  0  0  0  0
  -27.6693  -14.2666   19.5322 H   0  0  0  0  0  0
  -28.6730  -12.0523   21.3788 H   0  0  0  0  0  0
  -28.4455  -13.7167   21.8329 H   0  0  0  0  0  0
  -25.2807   -9.5658   22.4709 H   0  0  0  0  0  0
  -24.0031   -7.4618   22.7447 H   0  0  0  0  0  0
  -21.0839   -8.8776   19.8949 H   0  0  0  0  0  0
  -22.3728  -10.9659   19.6146 H   0  0  0  0  0  0
  -21.2035   -7.6159   23.9731 H   0  0  0  0  0  0
  -21.1456   -6.0522   25.9082 H   0  0  0  0  0  0
  -22.0607   -2.7614   23.2860 H   0  0  0  0  0  0
  -22.4099  -11.9916   22.4891 H   0  0  0  0  0  0
  -21.1082  -13.1205   22.2563 H   0  0  0  0  0  0
  -24.6469  -15.8436   20.5066 H   0  0  0  0  0  0
  -26.2609  -15.6386   20.0683 H   0  0  0  0  0  0
  -26.7121  -32.5532   23.1156 H   0  0  0  0  0  0
  -25.0028  -33.9773   25.0439 H   0  0  0  0  0  0
  -22.6911  -31.3091   21.4184 H   0  0  0  0  0  0
  -23.3725  -35.9673   23.3328 H   0  0  0  0  0  0
  -24.3583  -36.8858   22.2032 H   0  0  0  0  0  0
  -23.7298  -37.6549   23.6609 H   0  0  0  0  0  0
  -26.0558  -31.6040   20.6048 H   0  0  0  0  0  0
  -26.8200  -30.8750   21.9902 H   0  0  0  0  0  0
  -28.0948  -29.0653   21.1962 H   0  0  0  0  0  0
  -26.0326  -25.9594   19.0321 H   0  0  0  0  0  0
  -23.9664  -27.3170   19.0182 H   0  0  0  0  0  0
  -23.7083  -30.6125   19.4060 H   0  0  0  0  0  0
  -22.7344  -29.2494   19.8722 H   0  0  0  0  0  0
  -25.1281  -36.1961   25.0820 H   0  0  0  0  0  0
  -20.9981  -28.3231   24.1439 H   0  0  0  0  0  0
  -20.5642  -26.2252   23.3612 H   0  0  0  0  0  0
  -21.6641  -26.7408   22.1241 H   0  0  0  0  0  0
  -19.6891  -25.6285   21.1238 H   0  0  0  0  0  0
  -19.6678  -27.3203   20.6770 H   0  0  0  0  0  0
  -17.4189  -26.6649   21.4030 H   0  0  0  0  0  0
  -18.0319  -26.0057   22.9024 H   0  0  0  0  0  0
  -19.7926  -30.7253   24.2273 H   0  0  0  0  0  0
  -17.4996  -31.6236   24.5161 H   0  0  0  0  0  0
  -15.5351  -30.2970   23.7601 H   0  0  0  0  0  0
  -15.8674  -28.0808   22.7029 H   0  0  0  0  0  0
  -24.5823  -30.7178   25.7813 H   0  0  0  0  0  0
  -24.8961  -32.3003   26.4858 H   0  0  0  0  0  0
  -25.7983  -30.8974   27.0254 H   0  0  0  0  0  0
  -26.2775  -29.6843   24.1049 H   0  0  0  0  0  0
  -27.3776  -29.7135   25.4624 H   0  0  0  0  0  0
  -27.8719  -30.4230   23.9416 H   0  0  0  0  0  0
  -27.2646  -33.3571   26.2085 H   0  0  0  0  0  0
  -28.3818  -32.6872   25.0277 H   0  0  0  0  0  0
  -28.0731  -31.8400   26.5359 H   0  0  0  0  0  0
  -28.2620  -38.0096   24.7472 H   0  0  0  0  0  0
  -28.1081  -36.2641   24.6285 H   0  0  0  0  0  0
  -27.2310  -37.1475   25.8843 H   0  0  0  0  0  0
  -20.9277  -29.8763   21.6975 H   0  0  0  0  0  0
  -26.0182  -38.2864   24.1385 H   0  0  0  0  0  0
  -31.7333  -19.0429   20.2504 H   0  0  0  0  0  0
  -28.0715  -17.6617   22.0654 H   0  0  0  0  0  0
  -30.8213  -21.2749   20.0460 H   0  0  0  0  0  0
  -27.1598  -19.9313   21.9051 H   0  0  0  0  0  0
  -27.6708  -25.9284   22.0590 H   0  0  0  0  0  0
  -29.8767  -23.2546   19.7754 H   0  0  0  0  0  0
  -28.2585  -23.1555   19.0060 H   0  0  0  0  0  0
  -29.0700  -15.6234   20.9971 H   0  0  0  0  0  0
  1 25  1  0  0  0
  1 30  2  0  0  0
  1 83  1  0  0  0
  2  3  1  0  0  0
  2 25  1  0  0  0
  2 86  1  0  0  0
  2 87  1  0  0  0
  3  4  1  0  0  0
  3 88  1  0  0  0
  3 89  1  0  0  0
  4  5  1  0  0  0
  4 90  1  0  0  0
  4 91  1  0  0  0
  5  6  1  0  0  0
  5 26  1  0  0  0
  5 92  1  0  0  0
  6 25  1  0  0  0
  6 93  1  0  0  0
  6 94  1  0  0  0
  7  8  2  0  0  0
  7 26  1  0  0  0
  7 29  1  0  0  0
  8  9  1  0  0  0
  8 22  1  0  0  0
  9 10  1  0  0  0
  9 27  2  0  0  0
 10 11  2  0  0  0
 10 15  1  0  0  0
 11 12  1  0  0  0
 11 95  1  0  0  0
 12 13  2  0  0  0
 12 96  1  0  0  0
 13 14  1  0  0  0
 13 31  1  0  0  0
 14 15  2  0  0  0
 14 97  1  0  0  0
 15 98  1  0  0  0
 16 17  2  0  0  0
 16 21  1  0  0  0
 16 31  1  0  0  0
 17 18  1  0  0  0
 17 99  1  0  0  0
 18 19  2  0  0  0
 18100  1  0  0  0
 19 20  1  0  0  0
 19 24  1  0  0  0
 20 21  2  0  0  0
 20101  1  0  0  0
 21 23  1  0  0  0
 22 28  1  0  0  0
 22 32  2  0  0  0
 26 27  1  0  0  0
 28102  1  0  0  0
 28103  1  0  0  0
 29104  1  0  0  0
 29105  1  0  0  0
 33 34  1  0  0  0
 33 66  1  0  0  0
 33 70  2  0  0  0
 34 36  1  0  0  0
 34 59  1  0  0  0
 34106  1  0  0  0
 35 44  2  0  0  0
 35 45  1  0  0  0
 35 68  1  0  0  0
 36 56  1  0  0  0
 36107  1  0  0  0
 37 39  1  0  0  0
 37 47  1  0  0  0
 37 66  1  0  0  0
 37108  1  0  0  0
 38 43  2  0  0  0
 38 46  1  0  0  0
 38 47  1  0  0  0
 39 64  1  0  0  0
 39 67  2  0  0  0
 40 52  1  0  0  0
 40 53  2  0  0  0
 40 58  1  0  0  0
 41109  1  0  0  0
 41110  1  0  0  0
 41111  1  0  0  0
 41 48  1  0  0  0
 42 43  1  0  0  0
 42 66  1  0  0  0
 42112  1  0  0  0
 42113  1  0  0  0
 43 44  1  0  0  0
 44114  1  0  0  0
 45 46  2  0  0  0
 45115  1  0  0  0
 46116  1  0  0  0
 47117  1  0  0  0
 47118  1  0  0  0
 48 56  1  0  0  0
 48 65  1  0  0  0
 48119  1  0  0  0
 49 50  1  0  0  0
 49 53  1  0  0  0
 49 64  1  0  0  0
 49120  1  0  0  0
 50 51  1  0  0  0
 50121  1  0  0  0
 50122  1  0  0  0
 51 52  1  0  0  0
 51123  1  0  0  0
 51124  1  0  0  0
 52125  1  0  0  0
 52126  1  0  0  0
 53 54  1  0  0  0
 54 55  2  0  0  0
 54127  1  0  0  0
 55 57  1  0  0  0
 55128  1  0  0  0
 56 69  2  0  0  0
 57 58  2  0  0  0
 57129  1  0  0  0
 58130  1  0  0  0
 59 60  1  0  0  0
 59 61  1  0  0  0
 59 62  1  0  0  0
 60131  1  0  0  0
 60132  1  0  0  0
 60133  1  0  0  0
 61134  1  0  0  0
 61135  1  0  0  0
 61136  1  0  0  0
 62137  1  0  0  0
 62138  1  0  0  0
 62139  1  0  0  0
 63 65  1  0  0  0
 63140  1  0  0  0
 63141  1  0  0  0
 63142  1  0  0  0
 64143  1  0  0  0
 65144  1  0  0  0
 68 79  1  0  0  0
 71 73  2  0  0  0
 71 75  1  0  0  0
 71145  1  0  0  0
 72 74  1  0  0  0
 72 75  2  0  0  0
 72146  1  0  0  0
 73 76  1  0  0  0
 73147  1  0  0  0
 74 76  2  0  0  0
 74148  1  0  0  0
 75 80  1  0  0  0
 76 82  1  0  0  0
 77 78  1  0  0  0
 77 79  2  0  0  0
 77 81  1  0  0  0
 78 82  1  0  0  0
 78 84  2  0  0  0
 79149  1  0  0  0
 80 83  1  0  0  0
 80 85  2  0  0  0
 81 82  1  0  0  0
 81150  1  0  0  0
 81151  1  0  0  0
 83152  1  0  0  0
M  ISO  4   1 100  68 101  79 101  83 100
M  END
> <chiral flag>
0

> <version>
0

> <s_m_source_file>
/data/baiqing/PycharmProjects/Reinvent-master-3.2/result/LINK_invent/BTK/process_docking_weight1_custom_product_contain_oxygen_bond_distance_aromatic_linkinvent_7_9_3/rearranged_h_0086.sdf

> <i_m_source_file_index>
21

> <r_mmod_Potential_Energy-OPLS-2005>
24.8535251617432

> <r_mmod_Stretch_Energy-OPLS-2005>
46.4953651428223

> <r_mmod_Bend_Energy-OPLS-2005>
178.622421264648

> <r_mmod_Torsional_Energy-OPLS-2005>
273.555725097656

> <r_mmod_Improper_Torsional_Energy-OPLS-2005>
9.22615814208984

> <r_mmod_Van_der_Waal_Energy-OPLS-2005>
151.069976806641

> <r_mmod_Electrostatic_Energy-OPLS-2005>
-429.060485839844

> <r_mmod_Solvation_Energy-OPLS-2005>
-234.706481933594

> <b_mmod_Minimization_Converged-OPLS-2005>
0

> <r_mmod_RMS_Derivative-OPLS-2005>
3.90416979789734

$$$$
21
                    3D
 Structure written by MMmdl.
147155  0  0  1  0            999 V2000
  -30.3770  -15.4186   20.3845 C   0  0  0  0  0  0
  -30.4323  -12.9145   19.5547 C   0  0  0  0  0  0
  -29.5463  -12.6251   18.3122 C   0  0  0  0  0  0
  -28.1005  -12.3124   18.7289 C   0  0  0  0  0  0
  -27.6072  -13.2871   19.8234 C   0  0  2  0  0  0
  -28.6275  -13.4928   20.9624 C   0  0  0  0  0  0
  -25.2374  -13.8260   20.5758 C   0  0  0  0  0  0
  -24.1733  -13.0431   20.9236 C   0  0  0  0  0  0
  -24.6403  -11.6933   20.8729 C   0  0  0  0  0  0
  -23.9096  -10.4291   21.0383 C   0  0  0  0  0  0
  -24.3635   -9.4213   21.9170 C   0  0  0  0  0  0
  -23.6299   -8.2253   22.0744 C   0  0  0  0  0  0
  -22.4281   -8.0288   21.3538 C   0  0  0  0  0  0
  -21.9920   -9.0260   20.4638 C   0  0  0  0  0  0
  -22.7257  -10.2134   20.3042 C   0  0  0  0  0  0
  -21.6862   -6.0732   22.5272 C   0  0  0  0  0  0
  -21.4024   -6.5636   23.8205 C   0  0  0  0  0  0
  -21.3665   -5.6791   24.9167 C   0  0  0  0  0  0
  -21.6048   -4.3049   24.7222 C   0  0  0  0  0  0
  -21.8820   -3.8141   23.4343 C   0  0  0  0  0  0
  -21.9195   -4.6958   22.3397 C   0  0  0  0  0  0
  -22.7756  -13.5178   21.1898 C   0  0  0  0  0  0
  -22.1657   -4.2140   21.0972 F   0  0  0  0  0  0
  -21.5629   -3.4534   25.7736 F   0  0  0  0  0  0
  -29.8481  -14.0708   20.3579 N   0  0  0  0  0  0
  -26.2793  -12.9547   20.3190 N   0  0  0  0  0  0
  -25.9343  -11.6640   20.5674 N   0  0  0  0  0  0
  -22.0434  -12.8151   22.0457 N   0  0  0  0  0  0
  -25.4038  -15.2006   20.4287 N   0  0  0  0  0  0
  -31.5669  -15.4134   20.0218 O   0  0  0  0  0  0
  -21.6652   -6.8881   21.4233 O   0  0  0  0  0  0
  -22.3431  -14.5484   20.6751 O   0  0  0  0  0  0
  -24.6718  -31.8116   23.1608 C   0  0  0  0  0  0
  -25.9357  -32.4520   23.8108 C   0  0  1  0  0  0
  -27.2251  -26.8255   20.1984 C   0  0  0  0  0  0
  -25.5989  -33.8344   24.2007 N   0  0  0  0  0  0
  -23.4914  -30.4167   21.5115 C   0  0  2  0  0  0
  -24.9470  -28.7802   20.1106 C   0  0  0  0  0  0
  -22.7708  -29.4365   22.4744 C   0  0  0  0  0  0
  -18.0327  -28.1419   22.8467 C   0  0  0  0  0  0
  -24.1492  -36.7180   23.2650 C   0  0  0  0  0  0
  -26.0636  -30.5831   21.4070 C   0  0  0  0  0  0
  -26.1288  -29.1603   20.7574 C   0  0  0  0  0  0
  -27.2527  -28.2034   20.7793 C   0  0  0  0  0  0
  -26.0175  -26.6236   19.4900 C   0  0  0  0  0  0
  -24.9218  -27.5350   19.4563 C   0  0  0  0  0  0
  -23.7378  -29.7212   20.1411 C   0  0  0  0  0  0
  -25.4136  -36.2927   24.0288 C   0  0  1  0  0  0
  -20.5957  -28.3769   23.1176 C   0  0  2  0  0  0
  -20.6800  -26.9441   22.5410 C   0  0  0  0  0  0
  -19.5772  -26.6379   21.5223 C   0  0  0  0  0  0
  -18.1954  -26.7949   22.1627 C   0  0  0  0  0  0
  -19.1590  -28.8917   23.2806 C   0  0  0  0  0  0
  -18.9500  -30.1506   23.8845 C   0  0  0  0  0  0
  -17.6492  -30.6606   24.0557 C   0  0  0  0  0  0
  -25.9110  -34.9314   23.4974 C   0  0  0  0  0  0
  -16.5384  -29.9089   23.6350 C   0  0  0  0  0  0
  -16.7309  -28.6511   23.0368 C   0  0  0  0  0  0
  -26.4579  -31.6516   25.0685 C   0  0  0  0  0  0
  -25.3679  -31.3806   26.1324 C   0  0  0  0  0  0
  -27.0489  -30.2868   24.6491 C   0  0  0  0  0  0
  -27.6044  -32.4357   25.7494 C   0  0  0  0  0  0
  -27.5557  -37.1749   24.8469 C   0  0  0  0  0  0
  -21.4369  -29.3034   22.3505 N   0  0  0  0  0  0
  -26.4269  -37.3675   23.9406 N   0  0  0  0  0  0
  -24.7641  -30.9674   22.0799 N   0  0  0  0  0  0
  -23.4203  -28.7950   23.3037 O   0  0  0  0  0  0
  -28.2332  -25.6938   20.2988 O   0  0  0  0  0  0
  -26.5732  -34.8868   22.4578 O   0  0  0  0  0  0
  -23.5767  -32.1135   23.6645 O   0  0  0  0  0  0
  -29.1749  -18.8577   19.1615 C   0  0  0  0  0  0
  -28.8543  -20.3550   19.0718 C   0  0  0  0  0  0
  -28.8994  -21.2050   20.2068 C   0  0  0  0  0  0
  -29.4959  -18.1935   20.3670 C   0  0  0  0  0  0
  -28.7340  -22.9135   20.4496 C   0  0  0  0  0  0
  -28.4996  -20.9485   17.7403 C   0  0  0  0  0  0
  -29.2195  -16.5838   22.1728 C   0  0  0  0  0  0
  -27.9869  -24.0613   20.0008 N   0  0  0  0  0  0
  -29.6678  -16.7138   20.7797 N   0  0  0  0  0  0
  -29.3735  -19.8020   21.4123 S   0  0  0  0  0  0
  -31.4475  -13.1303   19.2208 H   0  0  0  0  0  0
  -30.5269  -12.0202   20.1723 H   0  0  0  0  0  0
  -29.9585  -11.7988   17.7316 H   0  0  0  0  0  0
  -29.5549  -13.4959   17.6539 H   0  0  0  0  0  0
  -28.0764  -11.2910   19.1108 H   0  0  0  0  0  0
  -27.4369  -12.3350   17.8633 H   0  0  0  0  0  0
  -27.5103  -14.2480   19.3167 H   0  0  0  0  0  0
  -28.8270  -12.5603   21.4922 H   0  0  0  0  0  0
  -28.2037  -14.1692   21.7005 H   0  0  0  0  0  0
  -25.2779   -9.5695   22.4747 H   0  0  0  0  0  0
  -24.0006   -7.4656   22.7473 H   0  0  0  0  0  0
  -21.0842   -8.8783   19.8954 H   0  0  0  0  0  0
  -22.3707  -10.9670   19.6152 H   0  0  0  0  0  0
  -21.2021   -7.6145   23.9702 H   0  0  0  0  0  0
  -21.1485   -6.0521   25.9069 H   0  0  0  0  0  0
  -22.0596   -2.7602   23.2845 H   0  0  0  0  0  0
  -22.4072  -11.9813   22.4830 H   0  0  0  0  0  0
  -21.1055  -13.1162   22.2684 H   0  0  0  0  0  0
  -24.6410  -15.8555   20.5598 H   0  0  0  0  0  0
  -26.2647  -15.6479   20.1398 H   0  0  0  0  0  0
  -26.7432  -32.5017   23.0817 H   0  0  0  0  0  0
  -25.0090  -33.9409   25.0127 H   0  0  0  0  0  0
  -22.8106  -31.2510   21.3307 H   0  0  0  0  0  0
  -23.3756  -35.9509   23.3288 H   0  0  0  0  0  0
  -24.3558  -36.8856   22.2068 H   0  0  0  0  0  0
  -23.7250  -37.6357   23.6734 H   0  0  0  0  0  0
  -26.2529  -31.3158   20.6211 H   0  0  0  0  0  0
  -26.9212  -30.6469   22.0647 H   0  0  0  0  0  0
  -28.1440  -28.4915   21.3191 H   0  0  0  0  0  0
  -25.8865  -25.6741   18.9911 H   0  0  0  0  0  0
  -24.0278  -27.2387   18.9245 H   0  0  0  0  0  0
  -23.9026  -30.4856   19.3807 H   0  0  0  0  0  0
  -22.8455  -29.1810   19.8209 H   0  0  0  0  0  0
  -25.1339  -36.1700   25.0779 H   0  0  0  0  0  0
  -21.0049  -28.3388   24.1298 H   0  0  0  0  0  0
  -20.5687  -26.2390   23.3659 H   0  0  0  0  0  0
  -21.6660  -26.7410   22.1211 H   0  0  0  0  0  0
  -19.6934  -25.6273   21.1292 H   0  0  0  0  0  0
  -19.6710  -27.3161   20.6729 H   0  0  0  0  0  0
  -17.4225  -26.6709   21.4028 H   0  0  0  0  0  0
  -18.0340  -26.0096   22.9029 H   0  0  0  0  0  0
  -19.7976  -30.7342   24.2189 H   0  0  0  0  0  0
  -17.5039  -31.6278   24.5173 H   0  0  0  0  0  0
  -15.5381  -30.2977   23.7697 H   0  0  0  0  0  0
  -15.8712  -28.0812   22.7117 H   0  0  0  0  0  0
  -24.5882  -30.7133   25.7630 H   0  0  0  0  0  0
  -24.8851  -32.3025   26.4582 H   0  0  0  0  0  0
  -25.7888  -30.9081   27.0209 H   0  0  0  0  0  0
  -26.3181  -29.6512   24.1482 H   0  0  0  0  0  0
  -27.3963  -29.7270   25.5183 H   0  0  0  0  0  0
  -27.9140  -30.4015   23.9957 H   0  0  0  0  0  0
  -27.2601  -33.3718   26.1897 H   0  0  0  0  0  0
  -28.3947  -32.6821   25.0395 H   0  0  0  0  0  0
  -28.0611  -31.8605   26.5555 H   0  0  0  0  0  0
  -28.2561  -38.0055   24.7489 H   0  0  0  0  0  0
  -28.1066  -36.2577   24.6328 H   0  0  0  0  0  0
  -27.2274  -37.1425   25.8872 H   0  0  0  0  0  0
  -20.9646  -29.8699   21.6598 H   0  0  0  0  0  0
  -26.0102  -38.2728   24.1408 H   0  0  0  0  0  0
  -29.1031  -18.2811   18.2497 H   0  0  0  0  0  0
  -29.4862  -23.1956   21.1906 H   0  0  0  0  0  0
  -28.4873  -20.1995   16.9485 H   0  0  0  0  0  0
  -29.2134  -21.7184   17.4459 H   0  0  0  0  0  0
  -27.5109  -21.4074   17.7646 H   0  0  0  0  0  0
  -28.1333  -16.6676   22.2248 H   0  0  0  0  0  0
  -29.6460  -17.3698   22.7960 H   0  0  0  0  0  0
  -29.5070  -15.6548   22.6685 H   0  0  0  0  0  0
  1 25  1  0  0  0
  1 30  2  0  0  0
  1 79  1  0  0  0
  2  3  1  0  0  0
  2 25  1  0  0  0
  2 81  1  0  0  0
  2 82  1  0  0  0
  3  4  1  0  0  0
  3 83  1  0  0  0
  3 84  1  0  0  0
  4  5  1  0  0  0
  4 85  1  0  0  0
  4 86  1  0  0  0
  5  6  1  0  0  0
  5 26  1  0  0  0
  5 87  1  0  0  0
  6 25  1  0  0  0
  6 88  1  0  0  0
  6 89  1  0  0  0
  7  8  2  0  0  0
  7 26  1  0  0  0
  7 29  1  0  0  0
  8  9  1  0  0  0
  8 22  1  0  0  0
  9 10  1  0  0  0
  9 27  2  0  0  0
 10 11  2  0  0  0
 10 15  1  0  0  0
 11 12  1  0  0  0
 11 90  1  0  0  0
 12 13  2  0  0  0
 12 91  1  0  0  0
 13 14  1  0  0  0
 13 31  1  0  0  0
 14 15  2  0  0  0
 14 92  1  0  0  0
 15 93  1  0  0  0
 16 17  2  0  0  0
 16 21  1  0  0  0
 16 31  1  0  0  0
 17 18  1  0  0  0
 17 94  1  0  0  0
 18 19  2  0  0  0
 18 95  1  0  0  0
 19 20  1  0  0  0
 19 24  1  0  0  0
 20 21  2  0  0  0
 20 96  1  0  0  0
 21 23  1  0  0  0
 22 28  1  0  0  0
 22 32  2  0  0  0
 26 27  1  0  0  0
 28 97  1  0  0  0
 28 98  1  0  0  0
 29 99  1  0  0  0
 29100  1  0  0  0
 33 34  1  0  0  0
 33 66  1  0  0  0
 33 70  2  0  0  0
 34 36  1  0  0  0
 34 59  1  0  0  0
 34101  1  0  0  0
 35 44  2  0  0  0
 35 45  1  0  0  0
 35 68  1  0  0  0
 36 56  1  0  0  0
 36102  1  0  0  0
 37 39  1  0  0  0
 37 47  1  0  0  0
 37 66  1  0  0  0
 37103  1  0  0  0
 38 43  2  0  0  0
 38 46  1  0  0  0
 38 47  1  0  0  0
 39 64  1  0  0  0
 39 67  2  0  0  0
 40 52  1  0  0  0
 40 53  2  0  0  0
 40 58  1  0  0  0
 41104  1  0  0  0
 41105  1  0  0  0
 41106  1  0  0  0
 41 48  1  0  0  0
 42 43  1  0  0  0
 42 66  1  0  0  0
 42107  1  0  0  0
 42108  1  0  0  0
 43 44  1  0  0  0
 44109  1  0  0  0
 45 46  2  0  0  0
 45110  1  0  0  0
 46111  1  0  0  0
 47112  1  0  0  0
 47113  1  0  0  0
 48 56  1  0  0  0
 48 65  1  0  0  0
 48114  1  0  0  0
 49 50  1  0  0  0
 49 53  1  0  0  0
 49 64  1  0  0  0
 49115  1  0  0  0
 50 51  1  0  0  0
 50116  1  0  0  0
 50117  1  0  0  0
 51 52  1  0  0  0
 51118  1  0  0  0
 51119  1  0  0  0
 52120  1  0  0  0
 52121  1  0  0  0
 53 54  1  0  0  0
 54 55  2  0  0  0
 54122  1  0  0  0
 55 57  1  0  0  0
 55123  1  0  0  0
 56 69  2  0  0  0
 57 58  2  0  0  0
 57124  1  0  0  0
 58125  1  0  0  0
 59 60  1  0  0  0
 59 61  1  0  0  0
 59 62  1  0  0  0
 60126  1  0  0  0
 60127  1  0  0  0
 60128  1  0  0  0
 61129  1  0  0  0
 61130  1  0  0  0
 61131  1  0  0  0
 62132  1  0  0  0
 62133  1  0  0  0
 62134  1  0  0  0
 63 65  1  0  0  0
 63135  1  0  0  0
 63136  1  0  0  0
 63137  1  0  0  0
 64138  1  0  0  0
 65139  1  0  0  0
 68 78  1  0  0  0
 71 72  1  0  0  0
 71 74  2  0  0  0
 71140  1  0  0  0
 72 73  2  0  0  0
 72 76  1  0  0  0
 73 75  1  0  0  0
 73 80  1  0  0  0
 74 79  1  0  0  0
 74 80  1  0  0  0
 75 78  2  0  0  0
 75141  1  0  0  0
 76142  1  0  0  0
 76143  1  0  0  0
 76144  1  0  0  0
 77 79  1  0  0  0
 77145  1  0  0  0
 77146  1  0  0  0
 77147  1  0  0  0
M  ISO  4   1 100  68 101  78 101  79 100
M  END
> <chiral flag>
0

> <version>
0

> <s_m_source_file>
/data/baiqing/PycharmProjects/Reinvent-master-3.2/result/LINK_invent/BTK/process_docking_weight1_custom_product_contain_oxygen_bond_distance_aromatic_linkinvent_7_9_3/rearranged_h_0086.sdf

> <i_m_source_file_index>
22

> <r_mmod_Potential_Energy-OPLS-2005>
1764.56494140625

> <r_mmod_Stretch_Energy-OPLS-2005>
696.217712402344

> <r_mmod_Bend_Energy-OPLS-2005>
532.29248046875

> <r_mmod_Torsional_Energy-OPLS-2005>
284.369445800781

> <r_mmod_Improper_Torsional_Energy-OPLS-2005>
2.99841976165771

> <r_mmod_Van_der_Waal_Energy-OPLS-2005>
112.850479125977

> <r_mmod_Electrostatic_Energy-OPLS-2005>
-275.599700927734

> <r_mmod_Solvation_Energy-OPLS-2005>
-208.359817504883

> <b_mmod_Minimization_Converged-OPLS-2005>
0

> <r_mmod_RMS_Derivative-OPLS-2005>
1.06115615367889

$$$$
22
                    3D
 Structure written by MMmdl.
153162  0  0  1  0            999 V2000
  -30.5683  -14.7667   20.4376 C   0  0  0  0  0  0
  -30.4463  -12.4630   19.4614 C   0  0  0  0  0  0
  -29.5113  -12.5102   18.2304 C   0  0  0  0  0  0
  -28.0372  -12.3265   18.6464 C   0  0  0  0  0  0
  -27.6431  -13.2179   19.8531 C   0  0  2  0  0  0
  -28.6963  -13.1418   20.9809 C   0  0  0  0  0  0
  -25.2528  -13.8135   20.5755 C   0  0  0  0  0  0
  -24.1801  -13.0403   20.9224 C   0  0  0  0  0  0
  -24.6384  -11.6881   20.8759 C   0  0  0  0  0  0
  -23.9051  -10.4270   21.0412 C   0  0  0  0  0  0
  -24.3609   -9.4196   21.9193 C   0  0  0  0  0  0
  -23.6285   -8.2231   22.0762 C   0  0  0  0  0  0
  -22.4272   -8.0269   21.3545 C   0  0  0  0  0  0
  -21.9903   -9.0238   20.4648 C   0  0  0  0  0  0
  -22.7227  -10.2118   20.3057 C   0  0  0  0  0  0
  -21.6850   -6.0727   22.5273 C   0  0  0  0  0  0
  -21.4009   -6.5634   23.8205 C   0  0  0  0  0  0
  -21.3659   -5.6790   24.9168 C   0  0  0  0  0  0
  -21.6041   -4.3050   24.7223 C   0  0  0  0  0  0
  -21.8820   -3.8139   23.4347 C   0  0  0  0  0  0
  -21.9195   -4.6953   22.3405 C   0  0  0  0  0  0
  -22.7824  -13.5202   21.1870 C   0  0  0  0  0  0
  -22.1662   -4.2138   21.0982 F   0  0  0  0  0  0
  -21.5626   -3.4534   25.7739 F   0  0  0  0  0  0
  -29.9944  -13.5141   20.3982 N   0  0  0  0  0  0
  -26.2944  -12.9320   20.3314 N   0  0  0  0  0  0
  -25.9311  -11.6474   20.5759 N   0  0  0  0  0  0
  -22.0460  -12.8199   22.0418 N   0  0  0  0  0  0
  -25.4218  -15.1853   20.4268 N   0  0  0  0  0  0
  -31.7623  -14.9158   20.1588 O   0  0  0  0  0  0
  -21.6637   -6.8867   21.4237 O   0  0  0  0  0  0
  -22.3520  -14.5509   20.6710 O   0  0  0  0  0  0
  -24.6308  -31.8547   23.1995 C   0  0  0  0  0  0
  -25.9127  -32.4756   23.8345 C   0  0  1  0  0  0
  -27.2286  -27.2708   20.1294 C   0  0  0  0  0  0
  -25.5921  -33.8556   24.2261 N   0  0  0  0  0  0
  -23.4301  -30.4763   21.5412 C   0  0  2  0  0  0
  -24.8821  -28.9259   20.1103 C   0  0  0  0  0  0
  -22.7511  -29.4587   22.4900 C   0  0  0  0  0  0
  -18.0294  -28.1385   22.8483 C   0  0  0  0  0  0
  -24.1483  -36.7282   23.2642 C   0  0  0  0  0  0
  -25.9759  -30.7701   21.3802 C   0  0  0  0  0  0
  -26.0531  -29.3929   20.7230 C   0  0  0  0  0  0
  -27.2316  -28.5761   20.7261 C   0  0  0  0  0  0
  -26.0378  -26.8744   19.4816 C   0  0  0  0  0  0
  -24.8785  -27.6728   19.4790 C   0  0  0  0  0  0
  -23.6512  -29.8112   20.1570 C   0  0  0  0  0  0
  -25.4111  -36.3066   24.0327 C   0  0  1  0  0  0
  -20.5898  -28.3694   23.1264 C   0  0  2  0  0  0
  -20.6778  -26.9411   22.5406 C   0  0  0  0  0  0
  -19.5753  -26.6378   21.5211 C   0  0  0  0  0  0
  -18.1935  -26.7925   22.1624 C   0  0  0  0  0  0
  -19.1549  -28.8858   23.2867 C   0  0  0  0  0  0
  -18.9469  -30.1459   23.8889 C   0  0  0  0  0  0
  -17.6467  -30.6585   24.0565 C   0  0  0  0  0  0
  -25.9054  -34.9440   23.5099 C   0  0  0  0  0  0
  -16.5356  -29.9084   23.6330 C   0  0  0  0  0  0
  -16.7281  -28.6500   23.0354 C   0  0  0  0  0  0
  -26.4493  -31.6579   25.0733 C   0  0  0  0  0  0
  -25.3713  -31.3737   26.1452 C   0  0  0  0  0  0
  -27.0337  -30.2992   24.6223 C   0  0  0  0  0  0
  -27.6043  -32.4321   25.7506 C   0  0  0  0  0  0
  -27.5574  -37.1799   24.8464 C   0  0  0  0  0  0
  -21.4217  -29.3035   22.3648 N   0  0  0  0  0  0
  -26.4286  -37.3764   23.9408 N   0  0  0  0  0  0
  -24.6976  -31.0512   22.0967 N   0  0  0  0  0  0
  -23.4206  -28.8126   23.3004 O   0  0  0  0  0  0
  -28.2850  -26.3304   20.1769 O   0  0  0  0  0  0
  -26.5630  -34.8912   22.4671 O   0  0  0  0  0  0
  -23.5452  -32.1361   23.7284 O   0  0  0  0  0  0
  -30.4587  -19.6081   21.1575 C   0  0  0  0  0  0
  -30.6225  -18.1752   21.1292 C   0  0  0  0  0  0
  -28.5767  -19.4494   19.7606 C   0  0  0  0  0  0
  -28.7292  -18.0229   19.6921 C   0  0  0  0  0  0
  -29.3982  -20.3319   20.5198 C   0  0  0  0  0  0
  -29.7362  -17.3128   20.4230 C   0  0  0  0  0  0
  -28.4908  -23.7550   20.5623 C   0  0  0  0  0  0
  -27.9874  -22.5207   21.1551 C   0  0  0  0  0  0
  -27.9593  -25.0390   20.6890 C   0  0  0  0  0  0
  -29.6066  -22.9147   19.8819 C   0  0  0  0  0  0
  -27.7501  -17.2829   18.7967 C   0  0  0  0  0  0
  -29.1067  -21.7795   20.7183 N   0  0  0  0  0  0
  -29.6837  -15.8291   20.5620 N   0  0  0  0  0  0
  -26.9377  -22.2831   21.7168 O   0  0  0  0  0  0
  -31.4832  -12.6100   19.1545 H   0  0  0  0  0  0
  -30.4078  -11.4828   19.9402 H   0  0  0  0  0  0
  -29.7931  -11.7391   17.5124 H   0  0  0  0  0  0
  -29.6280  -13.4663   17.7169 H   0  0  0  0  0  0
  -27.8977  -11.2759   18.9028 H   0  0  0  0  0  0
  -27.3773  -12.5218   17.7998 H   0  0  0  0  0  0
  -27.6309  -14.2374   19.4747 H   0  0  0  0  0  0
  -28.7408  -12.1366   21.4029 H   0  0  0  0  0  0
  -28.4326  -13.8060   21.8056 H   0  0  0  0  0  0
  -25.2763   -9.5673   22.4756 H   0  0  0  0  0  0
  -23.9989   -7.4626   22.7494 H   0  0  0  0  0  0
  -21.0829   -8.8763   19.8958 H   0  0  0  0  0  0
  -22.3700  -10.9658   19.6155 H   0  0  0  0  0  0
  -21.1997   -7.6143   23.9705 H   0  0  0  0  0  0
  -21.1481   -6.0523   25.9071 H   0  0  0  0  0  0
  -22.0604   -2.7599   23.2856 H   0  0  0  0  0  0
  -22.4063  -11.9849   22.4798 H   0  0  0  0  0  0
  -21.1075  -13.1219   22.2611 H   0  0  0  0  0  0
  -24.6568  -15.8397   20.5531 H   0  0  0  0  0  0
  -26.2720  -15.6288   20.1114 H   0  0  0  0  0  0
  -26.7201  -32.5414   23.1098 H   0  0  0  0  0  0
  -25.0045  -33.9690   25.0389 H   0  0  0  0  0  0
  -22.7264  -31.2986   21.3955 H   0  0  0  0  0  0
  -23.3736  -35.9624   23.3308 H   0  0  0  0  0  0
  -24.3572  -36.8902   22.2056 H   0  0  0  0  0  0
  -23.7241  -37.6487   23.6662 H   0  0  0  0  0  0
  -26.1136  -31.5303   20.6101 H   0  0  0  0  0  0
  -26.8529  -30.8200   22.0130 H   0  0  0  0  0  0
  -28.1254  -28.9216   21.2266 H   0  0  0  0  0  0
  -25.9923  -25.9080   19.0000 H   0  0  0  0  0  0
  -23.9824  -27.3081   18.9954 H   0  0  0  0  0  0
  -23.7780  -30.5895   19.4036 H   0  0  0  0  0  0
  -22.7699  -29.2460   19.8478 H   0  0  0  0  0  0
  -25.1290  -36.1921   25.0818 H   0  0  0  0  0  0
  -20.9989  -28.3269   24.1386 H   0  0  0  0  0  0
  -20.5672  -26.2303   23.3609 H   0  0  0  0  0  0
  -21.6650  -26.7425   22.1211 H   0  0  0  0  0  0
  -19.6915  -25.6289   21.1241 H   0  0  0  0  0  0
  -19.6696  -27.3188   20.6741 H   0  0  0  0  0  0
  -17.4205  -26.6671   21.4026 H   0  0  0  0  0  0
  -18.0342  -26.0069   22.9024 H   0  0  0  0  0  0
  -19.7946  -30.7276   24.2255 H   0  0  0  0  0  0
  -17.5021  -31.6264   24.5174 H   0  0  0  0  0  0
  -15.5357  -30.2988   23.7658 H   0  0  0  0  0  0
  -15.8680  -28.0818   22.7071 H   0  0  0  0  0  0
  -24.5883  -30.7097   25.7775 H   0  0  0  0  0  0
  -24.8920  -32.2916   26.4865 H   0  0  0  0  0  0
  -25.8023  -30.8915   27.0235 H   0  0  0  0  0  0
  -26.2925  -29.6743   24.1228 H   0  0  0  0  0  0
  -27.3991  -29.7254   25.4749 H   0  0  0  0  0  0
  -27.8814  -30.4263   23.9487 H   0  0  0  0  0  0
  -27.2643  -33.3622   26.2071 H   0  0  0  0  0  0
  -28.3859  -32.6878   25.0339 H   0  0  0  0  0  0
  -28.0701  -31.8457   26.5436 H   0  0  0  0  0  0
  -28.2596  -38.0091   24.7495 H   0  0  0  0  0  0
  -28.1061  -36.2621   24.6303 H   0  0  0  0  0  0
  -27.2290  -37.1465   25.8867 H   0  0  0  0  0  0
  -20.9405  -29.8762   21.6855 H   0  0  0  0  0  0
  -26.0160  -38.2834   24.1406 H   0  0  0  0  0  0
  -31.1535  -20.1699   21.7658 H   0  0  0  0  0  0
  -31.4162  -17.7379   21.7181 H   0  0  0  0  0  0
  -27.7505  -19.8899   19.2205 H   0  0  0  0  0  0
  -27.0914  -25.1267   21.3301 H   0  0  0  0  0  0
  -30.6450  -23.1590   20.1109 H   0  0  0  0  0  0
  -29.4912  -22.7109   18.8155 H   0  0  0  0  0  0
  -27.6330  -17.8146   17.8516 H   0  0  0  0  0  0
  -26.7688  -17.2284   19.2654 H   0  0  0  0  0  0
  -28.0867  -16.2792   18.5467 H   0  0  0  0  0  0
  -28.7434  -15.4809   20.6557 H   0  0  0  0  0  0
  1 25  1  0  0  0
  1 30  2  0  0  0
  1 83  1  0  0  0
  2  3  1  0  0  0
  2 25  1  0  0  0
  2 85  1  0  0  0
  2 86  1  0  0  0
  3  4  1  0  0  0
  3 87  1  0  0  0
  3 88  1  0  0  0
  4  5  1  0  0  0
  4 89  1  0  0  0
  4 90  1  0  0  0
  5  6  1  0  0  0
  5 26  1  0  0  0
  5 91  1  0  0  0
  6 25  1  0  0  0
  6 92  1  0  0  0
  6 93  1  0  0  0
  7  8  2  0  0  0
  7 26  1  0  0  0
  7 29  1  0  0  0
  8  9  1  0  0  0
  8 22  1  0  0  0
  9 10  1  0  0  0
  9 27  2  0  0  0
 10 11  2  0  0  0
 10 15  1  0  0  0
 11 12  1  0  0  0
 11 94  1  0  0  0
 12 13  2  0  0  0
 12 95  1  0  0  0
 13 14  1  0  0  0
 13 31  1  0  0  0
 14 15  2  0  0  0
 14 96  1  0  0  0
 15 97  1  0  0  0
 16 17  2  0  0  0
 16 21  1  0  0  0
 16 31  1  0  0  0
 17 18  1  0  0  0
 17 98  1  0  0  0
 18 19  2  0  0  0
 18 99  1  0  0  0
 19 20  1  0  0  0
 19 24  1  0  0  0
 20 21  2  0  0  0
 20100  1  0  0  0
 21 23  1  0  0  0
 22 28  1  0  0  0
 22 32  2  0  0  0
 26 27  1  0  0  0
 28101  1  0  0  0
 28102  1  0  0  0
 29103  1  0  0  0
 29104  1  0  0  0
 33 34  1  0  0  0
 33 66  1  0  0  0
 33 70  2  0  0  0
 34 36  1  0  0  0
 34 59  1  0  0  0
 34105  1  0  0  0
 35 44  2  0  0  0
 35 45  1  0  0  0
 35 68  1  0  0  0
 36 56  1  0  0  0
 36106  1  0  0  0
 37 39  1  0  0  0
 37 47  1  0  0  0
 37 66  1  0  0  0
 37107  1  0  0  0
 38 43  2  0  0  0
 38 46  1  0  0  0
 38 47  1  0  0  0
 39 64  1  0  0  0
 39 67  2  0  0  0
 40 52  1  0  0  0
 40 53  2  0  0  0
 40 58  1  0  0  0
 41108  1  0  0  0
 41109  1  0  0  0
 41110  1  0  0  0
 41 48  1  0  0  0
 42 43  1  0  0  0
 42 66  1  0  0  0
 42111  1  0  0  0
 42112  1  0  0  0
 43 44  1  0  0  0
 44113  1  0  0  0
 45 46  2  0  0  0
 45114  1  0  0  0
 46115  1  0  0  0
 47116  1  0  0  0
 47117  1  0  0  0
 48 56  1  0  0  0
 48 65  1  0  0  0
 48118  1  0  0  0
 49 50  1  0  0  0
 49 53  1  0  0  0
 49 64  1  0  0  0
 49119  1  0  0  0
 50 51  1  0  0  0
 50120  1  0  0  0
 50121  1  0  0  0
 51 52  1  0  0  0
 51122  1  0  0  0
 51123  1  0  0  0
 52124  1  0  0  0
 52125  1  0  0  0
 53 54  1  0  0  0
 54 55  2  0  0  0
 54126  1  0  0  0
 55 57  1  0  0  0
 55127  1  0  0  0
 56 69  2  0  0  0
 57 58  2  0  0  0
 57128  1  0  0  0
 58129  1  0  0  0
 59 60  1  0  0  0
 59 61  1  0  0  0
 59 62  1  0  0  0
 60130  1  0  0  0
 60131  1  0  0  0
 60132  1  0  0  0
 61133  1  0  0  0
 61134  1  0  0  0
 61135  1  0  0  0
 62136  1  0  0  0
 62137  1  0  0  0
 62138  1  0  0  0
 63 65  1  0  0  0
 63139  1  0  0  0
 63140  1  0  0  0
 63141  1  0  0  0
 64142  1  0  0  0
 65143  1  0  0  0
 68 79  1  0  0  0
 71 72  2  0  0  0
 71 75  1  0  0  0
 71144  1  0  0  0
 72 76  1  0  0  0
 72145  1  0  0  0
 73 74  1  0  0  0
 73 75  2  0  0  0
 73146  1  0  0  0
 74 76  2  0  0  0
 74 81  1  0  0  0
 75 82  1  0  0  0
 76 83  1  0  0  0
 77 78  1  0  0  0
 77 79  2  0  0  0
 77 80  1  0  0  0
 78 82  1  0  0  0
 78 84  2  0  0  0
 79147  1  0  0  0
 80 82  1  0  0  0
 80148  1  0  0  0
 80149  1  0  0  0
 81150  1  0  0  0
 81151  1  0  0  0
 81152  1  0  0  0
 83153  1  0  0  0
M  ISO  4   1 100  68 101  79 101  83 100
M  END
> <chiral flag>
0

> <version>
0

> <s_m_source_file>
/data/baiqing/PycharmProjects/Reinvent-master-3.2/result/LINK_invent/BTK/process_docking_weight1_custom_product_contain_oxygen_bond_distance_aromatic_linkinvent_7_9_3/rearranged_h_0086.sdf

> <i_m_source_file_index>
23

> <r_mmod_Potential_Energy-OPLS-2005>
245.265686035156

> <r_mmod_Stretch_Energy-OPLS-2005>
105.772804260254

> <r_mmod_Bend_Energy-OPLS-2005>
247.651306152344

> <r_mmod_Torsional_Energy-OPLS-2005>
273.66845703125

> <r_mmod_Improper_Torsional_Energy-OPLS-2005>
9.6321268081665

> <r_mmod_Van_der_Waal_Energy-OPLS-2005>
130.62712097168

> <r_mmod_Electrostatic_Energy-OPLS-2005>
-396.904266357422

> <r_mmod_Solvation_Energy-OPLS-2005>
-219.487243652344

> <b_mmod_Minimization_Converged-OPLS-2005>
0

> <r_mmod_RMS_Derivative-OPLS-2005>
1.35622990131378

$$$$
23
                    3D
 Structure written by MMmdl.
156165  0  0  1  0            999 V2000
  -30.6471  -14.7178   20.3826 C   0  0  0  0  0  0
  -30.4443  -12.4138   19.4622 C   0  0  0  0  0  0
  -29.5042  -12.3913   18.2362 C   0  0  0  0  0  0
  -28.0257  -12.2913   18.6600 C   0  0  0  0  0  0
  -27.6423  -13.2188   19.8457 C   0  0  2  0  0  0
  -28.7039  -13.1867   20.9660 C   0  0  0  0  0  0
  -25.2554  -13.8162   20.5747 C   0  0  0  0  0  0
  -24.1820  -13.0431   20.9232 C   0  0  0  0  0  0
  -24.6392  -11.6903   20.8801 C   0  0  0  0  0  0
  -23.9060  -10.4289   21.0442 C   0  0  0  0  0  0
  -24.3610   -9.4200   21.9217 C   0  0  0  0  0  0
  -23.6282   -8.2235   22.0774 C   0  0  0  0  0  0
  -22.4267   -8.0287   21.3557 C   0  0  0  0  0  0
  -21.9914   -9.0262   20.4663 C   0  0  0  0  0  0
  -22.7239  -10.2141   20.3077 C   0  0  0  0  0  0
  -21.6848   -6.0743   22.5289 C   0  0  0  0  0  0
  -21.4009   -6.5649   23.8222 C   0  0  0  0  0  0
  -21.3651   -5.6804   24.9184 C   0  0  0  0  0  0
  -21.6035   -4.3066   24.7234 C   0  0  0  0  0  0
  -21.8812   -3.8155   23.4356 C   0  0  0  0  0  0
  -21.9188   -4.6970   22.3412 C   0  0  0  0  0  0
  -22.7839  -13.5233   21.1856 C   0  0  0  0  0  0
  -22.1664   -4.2150   21.0993 F   0  0  0  0  0  0
  -21.5618   -3.4558   25.7750 F   0  0  0  0  0  0
  -29.9983  -13.5053   20.3502 N   0  0  0  0  0  0
  -26.2977  -12.9345   20.3374 N   0  0  0  0  0  0
  -25.9328  -11.6509   20.5870 N   0  0  0  0  0  0
  -22.0460  -12.8239   22.0399 N   0  0  0  0  0  0
  -25.4268  -15.1881   20.4162 N   0  0  0  0  0  0
  -31.8765  -14.7639   20.2814 O   0  0  0  0  0  0
  -21.6633   -6.8883   21.4247 O   0  0  0  0  0  0
  -22.3538  -14.5535   20.6686 O   0  0  0  0  0  0
  -24.6269  -31.8628   23.2059 C   0  0  0  0  0  0
  -25.9119  -32.4795   23.8388 C   0  0  1  0  0  0
  -27.2120  -27.3073   20.1215 C   0  0  0  0  0  0
  -25.5955  -33.8596   24.2304 N   0  0  0  0  0  0
  -23.4203  -30.4900   21.5491 C   0  0  2  0  0  0
  -24.8652  -28.9547   20.1078 C   0  0  0  0  0  0
  -22.7492  -29.4626   22.4926 C   0  0  0  0  0  0
  -18.0290  -28.1373   22.8492 C   0  0  0  0  0  0
  -24.1487  -36.7304   23.2639 C   0  0  0  0  0  0
  -25.9642  -30.7896   21.3810 C   0  0  0  0  0  0
  -26.0352  -29.4178   20.7230 C   0  0  0  0  0  0
  -27.2091  -28.6029   20.7282 C   0  0  0  0  0  0
  -26.0236  -26.9252   19.4487 C   0  0  0  0  0  0
  -24.8635  -27.7144   19.4595 C   0  0  0  0  0  0
  -23.6351  -29.8355   20.1610 C   0  0  0  0  0  0
  -25.4106  -36.3093   24.0334 C   0  0  1  0  0  0
  -20.5895  -28.3681   23.1280 C   0  0  2  0  0  0
  -20.6776  -26.9394   22.5420 C   0  0  0  0  0  0
  -19.5747  -26.6370   21.5232 C   0  0  0  0  0  0
  -18.1925  -26.7926   22.1630 C   0  0  0  0  0  0
  -19.1545  -28.8842   23.2891 C   0  0  0  0  0  0
  -18.9470  -30.1443   23.8895 C   0  0  0  0  0  0
  -17.6471  -30.6574   24.0561 C   0  0  0  0  0  0
  -25.9057  -34.9466   23.5114 C   0  0  0  0  0  0
  -16.5361  -29.9064   23.6339 C   0  0  0  0  0  0
  -16.7283  -28.6491   23.0353 C   0  0  0  0  0  0
  -26.4488  -31.6602   25.0763 C   0  0  0  0  0  0
  -25.3726  -31.3762   26.1509 C   0  0  0  0  0  0
  -27.0321  -30.3026   24.6208 C   0  0  0  0  0  0
  -27.6053  -32.4333   25.7528 C   0  0  0  0  0  0
  -27.5568  -37.1807   24.8462 C   0  0  0  0  0  0
  -21.4208  -29.3052   22.3686 N   0  0  0  0  0  0
  -26.4277  -37.3797   23.9415 N   0  0  0  0  0  0
  -24.6895  -31.0636   22.1018 N   0  0  0  0  0  0
  -23.4227  -28.8150   23.2987 O   0  0  0  0  0  0
  -28.2958  -26.4084   20.2193 O   0  0  0  0  0  0
  -26.5614  -34.8920   22.4666 O   0  0  0  0  0  0
  -23.5433  -32.1436   23.7372 O   0  0  0  0  0  0
  -28.5488  -19.3374   20.3077 C   0  0  0  0  0  0
  -30.8308  -19.3744   21.0394 C   0  0  0  0  0  0
  -28.6365  -17.9240   20.1393 C   0  0  0  0  0  0
  -30.9207  -17.9530   20.8768 C   0  0  0  0  0  0
  -29.8779  -23.7733   21.4495 C   0  0  0  0  0  0
  -28.7121  -22.4487   20.1047 C   0  0  0  0  0  0
  -28.8579  -23.7905   20.4548 C   0  0  0  0  0  0
  -29.6513  -20.1214   20.7399 C   0  0  0  0  0  0
  -29.8270  -17.1835   20.3932 C   0  0  0  0  0  0
  -30.2715  -22.4718   21.6569 C   0  0  0  0  0  0
  -29.7988  -15.7936   18.4249 C   0  0  0  0  0  0
  -28.0006  -24.9844   19.9159 C   0  0  0  0  0  0
  -29.5625  -21.5909   20.8335 N   0  0  0  0  0  0
  -29.9221  -15.7995   19.8965 N   0  0  0  0  0  0
  -31.1960  -22.0247   22.5494 O   0  0  0  0  0  0
  -31.4773  -12.5473   19.1363 H   0  0  0  0  0  0
  -30.4171  -11.4605   19.9919 H   0  0  0  0  0  0
  -29.7550  -11.5415   17.6006 H   0  0  0  0  0  0
  -29.6520  -13.2622   17.6057 H   0  0  0  0  0  0
  -27.8544  -11.2531   18.9476 H   0  0  0  0  0  0
  -27.3729  -12.4758   17.8056 H   0  0  0  0  0  0
  -27.6144  -14.2301   19.4496 H   0  0  0  0  0  0
  -28.7374  -12.2071   21.4434 H   0  0  0  0  0  0
  -28.4625  -13.9112   21.7452 H   0  0  0  0  0  0
  -25.2744   -9.5673   22.4817 H   0  0  0  0  0  0
  -23.9983   -7.4619   22.7498 H   0  0  0  0  0  0
  -21.0849   -8.8765   19.8975 H   0  0  0  0  0  0
  -22.3686  -10.9681   19.6197 H   0  0  0  0  0  0
  -21.2003   -7.6162   23.9721 H   0  0  0  0  0  0
  -21.1479   -6.0548   25.9084 H   0  0  0  0  0  0
  -22.0593   -2.7619   23.2858 H   0  0  0  0  0  0
  -22.4054  -11.9883   22.4775 H   0  0  0  0  0  0
  -21.1086  -13.1296   22.2600 H   0  0  0  0  0  0
  -24.6646  -15.8480   20.5237 H   0  0  0  0  0  0
  -26.2951  -15.6218   20.1316 H   0  0  0  0  0  0
  -26.7184  -32.5466   23.1136 H   0  0  0  0  0  0
  -25.0138  -33.9753   25.0472 H   0  0  0  0  0  0
  -22.7152  -31.3115   21.4081 H   0  0  0  0  0  0
  -23.3758  -35.9629   23.3301 H   0  0  0  0  0  0
  -24.3600  -36.8942   22.2059 H   0  0  0  0  0  0
  -23.7230  -37.6497   23.6664 H   0  0  0  0  0  0
  -26.0966  -31.5494   20.6099 H   0  0  0  0  0  0
  -26.8466  -30.8416   22.0069 H   0  0  0  0  0  0
  -28.0967  -28.9460   21.2418 H   0  0  0  0  0  0
  -25.9434  -25.9909   18.9151 H   0  0  0  0  0  0
  -23.9728  -27.3592   18.9590 H   0  0  0  0  0  0
  -23.7522  -30.6173   19.4097 H   0  0  0  0  0  0
  -22.7549  -29.2693   19.8531 H   0  0  0  0  0  0
  -25.1273  -36.1958   25.0831 H   0  0  0  0  0  0
  -20.9994  -28.3253   24.1401 H   0  0  0  0  0  0
  -20.5708  -26.2281   23.3625 H   0  0  0  0  0  0
  -21.6630  -26.7433   22.1177 H   0  0  0  0  0  0
  -19.6915  -25.6294   21.1229 H   0  0  0  0  0  0
  -19.6672  -27.3199   20.6780 H   0  0  0  0  0  0
  -17.4201  -26.6706   21.4016 H   0  0  0  0  0  0
  -18.0280  -26.0056   22.9006 H   0  0  0  0  0  0
  -19.7950  -30.7258   24.2247 H   0  0  0  0  0  0
  -17.5027  -31.6252   24.5161 H   0  0  0  0  0  0
  -15.5362  -30.2958   23.7663 H   0  0  0  0  0  0
  -15.8692  -28.0804   22.7060 H   0  0  0  0  0  0
  -24.5877  -30.7120   25.7868 H   0  0  0  0  0  0
  -24.8927  -32.2930   26.4941 H   0  0  0  0  0  0
  -25.8052  -30.8946   27.0291 H   0  0  0  0  0  0
  -26.2882  -29.6801   24.1221 H   0  0  0  0  0  0
  -27.4016  -29.7259   25.4704 H   0  0  0  0  0  0
  -27.8758  -30.4321   23.9429 H   0  0  0  0  0  0
  -27.2673  -33.3665   26.2046 H   0  0  0  0  0  0
  -28.3884  -32.6859   25.0366 H   0  0  0  0  0  0
  -28.0682  -31.8499   26.5499 H   0  0  0  0  0  0
  -28.2580  -38.0107   24.7517 H   0  0  0  0  0  0
  -28.1060  -36.2644   24.6252 H   0  0  0  0  0  0
  -27.2304  -37.1428   25.8870 H   0  0  0  0  0  0
  -20.9372  -29.8827   21.6949 H   0  0  0  0  0  0
  -26.0168  -38.2874   24.1428 H   0  0  0  0  0  0
  -27.6157  -19.8252   20.0654 H   0  0  0  0  0  0
  -31.7152  -19.9019   21.3628 H   0  0  0  0  0  0
  -27.7744  -17.4104   19.7373 H   0  0  0  0  0  0
  -31.8738  -17.4742   21.0536 H   0  0  0  0  0  0
  -30.2582  -24.6348   21.9826 H   0  0  0  0  0  0
  -28.0348  -22.0150   19.3817 H   0  0  0  0  0  0
  -28.8300  -15.4183   18.1025 H   0  0  0  0  0  0
  -30.5784  -15.2053   17.9362 H   0  0  0  0  0  0
  -29.9040  -16.7931   17.9996 H   0  0  0  0  0  0
  -27.0118  -24.7398   20.3075 H   0  0  0  0  0  0
  -27.9482  -24.8779   18.8315 H   0  0  0  0  0  0
  -31.5475  -22.7841   23.0055 H   0  0  0  0  0  0
  1 25  1  0  0  0
  1 30  2  0  0  0
  1 84  1  0  0  0
  2  3  1  0  0  0
  2 25  1  0  0  0
  2 86  1  0  0  0
  2 87  1  0  0  0
  3  4  1  0  0  0
  3 88  1  0  0  0
  3 89  1  0  0  0
  4  5  1  0  0  0
  4 90  1  0  0  0
  4 91  1  0  0  0
  5  6  1  0  0  0
  5 26  1  0  0  0
  5 92  1  0  0  0
  6 25  1  0  0  0
  6 93  1  0  0  0
  6 94  1  0  0  0
  7  8  2  0  0  0
  7 26  1  0  0  0
  7 29  1  0  0  0
  8  9  1  0  0  0
  8 22  1  0  0  0
  9 10  1  0  0  0
  9 27  2  0  0  0
 10 11  2  0  0  0
 10 15  1  0  0  0
 11 12  1  0  0  0
 11 95  1  0  0  0
 12 13  2  0  0  0
 12 96  1  0  0  0
 13 14  1  0  0  0
 13 31  1  0  0  0
 14 15  2  0  0  0
 14 97  1  0  0  0
 15 98  1  0  0  0
 16 17  2  0  0  0
 16 21  1  0  0  0
 16 31  1  0  0  0
 17 18  1  0  0  0
 17 99  1  0  0  0
 18 19  2  0  0  0
 18100  1  0  0  0
 19 20  1  0  0  0
 19 24  1  0  0  0
 20 21  2  0  0  0
 20101  1  0  0  0
 21 23  1  0  0  0
 22 28  1  0  0  0
 22 32  2  0  0  0
 26 27  1  0  0  0
 28102  1  0  0  0
 28103  1  0  0  0
 29104  1  0  0  0
 29105  1  0  0  0
 33 34  1  0  0  0
 33 66  1  0  0  0
 33 70  2  0  0  0
 34 36  1  0  0  0
 34 59  1  0  0  0
 34106  1  0  0  0
 35 44  2  0  0  0
 35 45  1  0  0  0
 35 68  1  0  0  0
 36 56  1  0  0  0
 36107  1  0  0  0
 37 39  1  0  0  0
 37 47  1  0  0  0
 37 66  1  0  0  0
 37108  1  0  0  0
 38 43  2  0  0  0
 38 46  1  0  0  0
 38 47  1  0  0  0
 39 64  1  0  0  0
 39 67  2  0  0  0
 40 52  1  0  0  0
 40 53  2  0  0  0
 40 58  1  0  0  0
 41109  1  0  0  0
 41110  1  0  0  0
 41111  1  0  0  0
 41 48  1  0  0  0
 42 43  1  0  0  0
 42 66  1  0  0  0
 42112  1  0  0  0
 42113  1  0  0  0
 43 44  1  0  0  0
 44114  1  0  0  0
 45 46  2  0  0  0
 45115  1  0  0  0
 46116  1  0  0  0
 47117  1  0  0  0
 47118  1  0  0  0
 48 56  1  0  0  0
 48 65  1  0  0  0
 48119  1  0  0  0
 49 50  1  0  0  0
 49 53  1  0  0  0
 49 64  1  0  0  0
 49120  1  0  0  0
 50 51  1  0  0  0
 50121  1  0  0  0
 50122  1  0  0  0
 51 52  1  0  0  0
 51123  1  0  0  0
 51124  1  0  0  0
 52125  1  0  0  0
 52126  1  0  0  0
 53 54  1  0  0  0
 54 55  2  0  0  0
 54127  1  0  0  0
 55 57  1  0  0  0
 55128  1  0  0  0
 56 69  2  0  0  0
 57 58  2  0  0  0
 57129  1  0  0  0
 58130  1  0  0  0
 59 60  1  0  0  0
 59 61  1  0  0  0
 59 62  1  0  0  0
 60131  1  0  0  0
 60132  1  0  0  0
 60133  1  0  0  0
 61134  1  0  0  0
 61135  1  0  0  0
 61136  1  0  0  0
 62137  1  0  0  0
 62138  1  0  0  0
 62139  1  0  0  0
 63 65  1  0  0  0
 63140  1  0  0  0
 63141  1  0  0  0
 63142  1  0  0  0
 64143  1  0  0  0
 65144  1  0  0  0
 68 82  1  0  0  0
 71 73  2  0  0  0
 71 78  1  0  0  0
 71145  1  0  0  0
 72 74  1  0  0  0
 72 78  2  0  0  0
 72146  1  0  0  0
 73 79  1  0  0  0
 73147  1  0  0  0
 74 79  2  0  0  0
 74148  1  0  0  0
 75 77  1  0  0  0
 75 80  2  0  0  0
 75149  1  0  0  0
 76 77  2  0  0  0
 76 83  1  0  0  0
 76150  1  0  0  0
 77 82  1  0  0  0
 78 83  1  0  0  0
 79 84  1  0  0  0
 80 83  1  0  0  0
 80 85  1  0  0  0
 81 84  1  0  0  0
 81151  1  0  0  0
 81152  1  0  0  0
 81153  1  0  0  0
 82154  1  0  0  0
 82155  1  0  0  0
 85156  1  0  0  0
M  ISO  4   1 100  68 101  82 101  84 100
M  END
> <chiral flag>
0

> <version>
0

> <s_m_source_file>
/data/baiqing/PycharmProjects/Reinvent-master-3.2/result/LINK_invent/BTK/process_docking_weight1_custom_product_contain_oxygen_bond_distance_aromatic_linkinvent_7_9_3/rearranged_h_0086.sdf

> <i_m_source_file_index>
24

> <r_mmod_Potential_Energy-OPLS-2005>
321.858917236328

> <r_mmod_Stretch_Energy-OPLS-2005>
87.2153396606445

> <r_mmod_Bend_Energy-OPLS-2005>
156.380706787109

> <r_mmod_Torsional_Energy-OPLS-2005>
329.926727294922

> <r_mmod_Improper_Torsional_Energy-OPLS-2005>
26.9327201843262

> <r_mmod_Van_der_Waal_Energy-OPLS-2005>
153.093109130859

> <r_mmod_Electrostatic_Energy-OPLS-2005>
-307.444915771484

> <r_mmod_Solvation_Energy-OPLS-2005>
-209.173965454102

> <b_mmod_Minimization_Converged-OPLS-2005>
0

> <r_mmod_RMS_Derivative-OPLS-2005>
2.07761335372925

$$$$
24
                    3D
 Structure written by MMmdl.
151160  0  0  1  0            999 V2000
  -30.5064  -15.0600   20.3376 C   0  0  0  0  0  0
  -30.4466  -12.6509   19.4822 C   0  0  0  0  0  0
  -29.5156  -12.4605   18.2591 C   0  0  0  0  0  0
  -28.0507  -12.2719   18.6945 C   0  0  0  0  0  0
  -27.6185  -13.2406   19.8261 C   0  0  2  0  0  0
  -28.6735  -13.3495   20.9443 C   0  0  0  0  0  0
  -25.2460  -13.8198   20.5773 C   0  0  0  0  0  0
  -24.1758  -13.0434   20.9256 C   0  0  0  0  0  0
  -24.6365  -11.6914   20.8796 C   0  0  0  0  0  0
  -23.9052  -10.4289   21.0431 C   0  0  0  0  0  0
  -24.3609   -9.4201   21.9200 C   0  0  0  0  0  0
  -23.6289   -8.2234   22.0758 C   0  0  0  0  0  0
  -22.4274   -8.0274   21.3544 C   0  0  0  0  0  0
  -21.9908   -9.0249   20.4648 C   0  0  0  0  0  0
  -22.7232  -10.2132   20.3068 C   0  0  0  0  0  0
  -21.6851   -6.0732   22.5278 C   0  0  0  0  0  0
  -21.4013   -6.5638   23.8211 C   0  0  0  0  0  0
  -21.3659   -5.6792   24.9174 C   0  0  0  0  0  0
  -21.6044   -4.3055   24.7226 C   0  0  0  0  0  0
  -21.8818   -3.8145   23.4348 C   0  0  0  0  0  0
  -21.9192   -4.6960   22.3403 C   0  0  0  0  0  0
  -22.7781  -13.5213   21.1891 C   0  0  0  0  0  0
  -22.1661   -4.2145   21.0982 F   0  0  0  0  0  0
  -21.5628   -3.4540   25.7740 F   0  0  0  0  0  0
  -29.9191  -13.7848   20.2973 N   0  0  0  0  0  0
  -26.2859  -12.9399   20.3308 N   0  0  0  0  0  0
  -25.9297  -11.6544   20.5819 N   0  0  0  0  0  0
  -22.0423  -12.8203   22.0441 N   0  0  0  0  0  0
  -25.4171  -15.1928   20.4223 N   0  0  0  0  0  0
  -31.7435  -15.0749   20.2897 O   0  0  0  0  0  0
  -21.6638   -6.8873   21.4239 O   0  0  0  0  0  0
  -22.3472  -14.5518   20.6729 O   0  0  0  0  0  0
  -24.6476  -31.8391   23.1828 C   0  0  0  0  0  0
  -25.9225  -32.4670   23.8241 C   0  0  1  0  0  0
  -27.2207  -27.0894   20.1683 C   0  0  0  0  0  0
  -25.5954  -33.8477   24.2157 N   0  0  0  0  0  0
  -23.4542  -30.4552   21.5294 C   0  0  2  0  0  0
  -24.9057  -28.8682   20.1147 C   0  0  0  0  0  0
  -22.7589  -29.4521   22.4845 C   0  0  0  0  0  0
  -18.0309  -28.1397   22.8476 C   0  0  0  0  0  0
  -24.1494  -36.7244   23.2645 C   0  0  0  0  0  0
  -26.0128  -30.6989   21.3873 C   0  0  0  0  0  0
  -26.0853  -29.3039   20.7323 C   0  0  0  0  0  0
  -27.2453  -28.4337   20.7345 C   0  0  0  0  0  0
  -26.0140  -26.7601   19.5164 C   0  0  0  0  0  0
  -24.8856  -27.6116   19.4890 C   0  0  0  0  0  0
  -23.6843  -29.7768   20.1522 C   0  0  0  0  0  0
  -25.4128  -36.3017   24.0312 C   0  0  1  0  0  0
  -20.5924  -28.3728   23.1227 C   0  0  2  0  0  0
  -20.6792  -26.9427   22.5405 C   0  0  0  0  0  0
  -19.5766  -26.6380   21.5214 C   0  0  0  0  0  0
  -18.1947  -26.7935   22.1624 C   0  0  0  0  0  0
  -19.1566  -28.8882   23.2842 C   0  0  0  0  0  0
  -18.9481  -30.1477   23.8869 C   0  0  0  0  0  0
  -17.6476  -30.6593   24.0558 C   0  0  0  0  0  0
  -25.9081  -34.9394   23.5048 C   0  0  0  0  0  0
  -16.5367  -29.9083   23.6338 C   0  0  0  0  0  0
  -16.7293  -28.6502   23.0359 C   0  0  0  0  0  0
  -26.4531  -31.6557   25.0704 C   0  0  0  0  0  0
  -25.3703  -31.3755   26.1390 C   0  0  0  0  0  0
  -27.0407  -30.2948   24.6318 C   0  0  0  0  0  0
  -27.6048  -32.4337   25.7496 C   0  0  0  0  0  0
  -27.5576  -37.1779   24.8466 C   0  0  0  0  0  0
  -21.4277  -29.3045   22.3593 N   0  0  0  0  0  0
  -26.4287  -37.3736   23.9407 N   0  0  0  0  0  0
  -24.7250  -31.0204   22.0881 N   0  0  0  0  0  0
  -23.4210  -28.8079   23.3021 O   0  0  0  0  0  0
  -28.2657  -26.0821   20.2068 O   0  0  0  0  0  0
  -26.5675  -34.8901   22.4632 O   0  0  0  0  0  0
  -23.5584  -32.1285   23.7022 O   0  0  0  0  0  0
  -30.0058  -20.1203   21.0362 C   0  0  0  0  0  0
  -28.3029  -19.9277   19.5142 C   0  0  0  0  0  0
  -30.2641  -18.6655   20.9741 C   0  0  0  0  0  0
  -28.5307  -18.4889   19.4498 C   0  0  0  0  0  0
  -29.0174  -20.9040   20.2987 C   0  0  0  0  0  0
  -29.5476  -17.7277   20.1420 C   0  0  0  0  0  0
  -29.1454  -23.5950   21.0817 C   0  0  0  0  0  0
  -28.0598  -23.3873   19.4251 C   0  0  0  0  0  0
  -27.9684  -24.5573   20.5298 C   0  0  0  0  0  0
  -29.5850  -16.0039   18.3692 C   0  0  0  0  0  0
  -28.7150  -22.4426   20.3161 N   0  0  0  0  0  0
  -29.7749  -16.2042   19.8225 N   0  0  0  0  0  0
  -30.0608  -23.7106   21.8748 O   0  0  0  0  0  0
  -27.6948  -23.2548   18.2720 O   0  0  0  0  0  0
  -31.4651  -12.8439   19.1416 H   0  0  0  0  0  0
  -30.4955  -11.7391   20.0794 H   0  0  0  0  0  0
  -29.8393  -11.5953   17.6787 H   0  0  0  0  0  0
  -29.5843  -13.3053   17.5787 H   0  0  0  0  0  0
  -27.9545  -11.2436   19.0441 H   0  0  0  0  0  0
  -27.3823  -12.3627   17.8374 H   0  0  0  0  0  0
  -27.5449  -14.2190   19.3599 H   0  0  0  0  0  0
  -28.8007  -12.4017   21.4692 H   0  0  0  0  0  0
  -28.3639  -14.0855   21.6883 H   0  0  0  0  0  0
  -25.2749   -9.5681   22.4782 H   0  0  0  0  0  0
  -23.9997   -7.4624   22.7476 H   0  0  0  0  0  0
  -21.0840   -8.8770   19.8953 H   0  0  0  0  0  0
  -22.3689  -10.9677   19.6185 H   0  0  0  0  0  0
  -21.2006   -7.6146   23.9713 H   0  0  0  0  0  0
  -21.1481   -6.0524   25.9076 H   0  0  0  0  0  0
  -22.0598   -2.7608   23.2851 H   0  0  0  0  0  0
  -22.4041  -11.9868   22.4835 H   0  0  0  0  0  0
  -21.1040  -13.1227   22.2644 H   0  0  0  0  0  0
  -24.6574  -15.8522   20.5508 H   0  0  0  0  0  0
  -26.2824  -15.6351   20.1398 H   0  0  0  0  0  0
  -26.7291  -32.5263   23.0967 H   0  0  0  0  0  0
  -25.0067  -33.9581   25.0282 H   0  0  0  0  0  0
  -22.7592  -31.2821   21.3690 H   0  0  0  0  0  0
  -23.3763  -35.9568   23.3288 H   0  0  0  0  0  0
  -24.3577  -36.8899   22.2063 H   0  0  0  0  0  0
  -23.7241  -37.6429   23.6699 H   0  0  0  0  0  0
  -26.1727  -31.4496   20.6124 H   0  0  0  0  0  0
  -26.8810  -30.7529   22.0323 H   0  0  0  0  0  0
  -28.1459  -28.7664   21.2315 H   0  0  0  0  0  0
  -25.9239  -25.7964   19.0360 H   0  0  0  0  0  0
  -23.9858  -27.2726   18.9943 H   0  0  0  0  0  0
  -23.8254  -30.5474   19.3935 H   0  0  0  0  0  0
  -22.7982  -29.2205   19.8414 H   0  0  0  0  0  0
  -25.1320  -36.1837   25.0804 H   0  0  0  0  0  0
  -21.0014  -28.3322   24.1349 H   0  0  0  0  0  0
  -20.5682  -26.2343   23.3628 H   0  0  0  0  0  0
  -21.6657  -26.7426   22.1205 H   0  0  0  0  0  0
  -19.6927  -25.6284   21.1261 H   0  0  0  0  0  0
  -19.6703  -27.3175   20.6732 H   0  0  0  0  0  0
  -17.4216  -26.6679   21.4028 H   0  0  0  0  0  0
  -18.0346  -26.0083   22.9026 H   0  0  0  0  0  0
  -19.7956  -30.7301   24.2225 H   0  0  0  0  0  0
  -17.5028  -31.6270   24.5164 H   0  0  0  0  0  0
  -15.5366  -30.2975   23.7678 H   0  0  0  0  0  0
  -15.8694  -28.0809   22.7091 H   0  0  0  0  0  0
  -24.5893  -30.7093   25.7705 H   0  0  0  0  0  0
  -24.8879  -32.2940   26.4745 H   0  0  0  0  0  0
  -25.7976  -30.8973   27.0213 H   0  0  0  0  0  0
  -26.3036  -29.6657   24.1314 H   0  0  0  0  0  0
  -27.3994  -29.7265   25.4909 H   0  0  0  0  0  0
  -27.8953  -30.4173   23.9662 H   0  0  0  0  0  0
  -27.2631  -33.3662   26.1999 H   0  0  0  0  0  0
  -28.3898  -32.6858   25.0354 H   0  0  0  0  0  0
  -28.0674  -31.8512   26.5474 H   0  0  0  0  0  0
  -28.2582  -38.0085   24.7514 H   0  0  0  0  0  0
  -28.1084  -36.2614   24.6295 H   0  0  0  0  0  0
  -27.2292  -37.1425   25.8868 H   0  0  0  0  0  0
  -20.9499  -29.8744   21.6751 H   0  0  0  0  0  0
  -26.0151  -38.2802   24.1408 H   0  0  0  0  0  0
  -30.6489  -20.6785   21.7017 H   0  0  0  0  0  0
  -27.4980  -20.3020   18.8977 H   0  0  0  0  0  0
  -31.0792  -18.2811   21.5705 H   0  0  0  0  0  0
  -27.8708  -17.9502   18.7853 H   0  0  0  0  0  0
  -27.0680  -24.4892   21.1392 H   0  0  0  0  0  0
  -28.5741  -15.6770   18.1338 H   0  0  0  0  0  0
  -30.2901  -15.3016   17.9221 H   0  0  0  0  0  0
  -29.7661  -16.9188   17.8043 H   0  0  0  0  0  0
  1 25  1  0  0  0
  1 30  2  0  0  0
  1 82  1  0  0  0
  2  3  1  0  0  0
  2 25  1  0  0  0
  2 85  1  0  0  0
  2 86  1  0  0  0
  3  4  1  0  0  0
  3 87  1  0  0  0
  3 88  1  0  0  0
  4  5  1  0  0  0
  4 89  1  0  0  0
  4 90  1  0  0  0
  5  6  1  0  0  0
  5 26  1  0  0  0
  5 91  1  0  0  0
  6 25  1  0  0  0
  6 92  1  0  0  0
  6 93  1  0  0  0
  7  8  2  0  0  0
  7 26  1  0  0  0
  7 29  1  0  0  0
  8  9  1  0  0  0
  8 22  1  0  0  0
  9 10  1  0  0  0
  9 27  2  0  0  0
 10 11  2  0  0  0
 10 15  1  0  0  0
 11 12  1  0  0  0
 11 94  1  0  0  0
 12 13  2  0  0  0
 12 95  1  0  0  0
 13 14  1  0  0  0
 13 31  1  0  0  0
 14 15  2  0  0  0
 14 96  1  0  0  0
 15 97  1  0  0  0
 16 17  2  0  0  0
 16 21  1  0  0  0
 16 31  1  0  0  0
 17 18  1  0  0  0
 17 98  1  0  0  0
 18 19  2  0  0  0
 18 99  1  0  0  0
 19 20  1  0  0  0
 19 24  1  0  0  0
 20 21  2  0  0  0
 20100  1  0  0  0
 21 23  1  0  0  0
 22 28  1  0  0  0
 22 32  2  0  0  0
 26 27  1  0  0  0
 28101  1  0  0  0
 28102  1  0  0  0
 29103  1  0  0  0
 29104  1  0  0  0
 33 34  1  0  0  0
 33 66  1  0  0  0
 33 70  2  0  0  0
 34 36  1  0  0  0
 34 59  1  0  0  0
 34105  1  0  0  0
 35 44  2  0  0  0
 35 45  1  0  0  0
 35 68  1  0  0  0
 36 56  1  0  0  0
 36106  1  0  0  0
 37 39  1  0  0  0
 37 47  1  0  0  0
 37 66  1  0  0  0
 37107  1  0  0  0
 38 43  2  0  0  0
 38 46  1  0  0  0
 38 47  1  0  0  0
 39 64  1  0  0  0
 39 67  2  0  0  0
 40 52  1  0  0  0
 40 53  2  0  0  0
 40 58  1  0  0  0
 41108  1  0  0  0
 41109  1  0  0  0
 41110  1  0  0  0
 41 48  1  0  0  0
 42 43  1  0  0  0
 42 66  1  0  0  0
 42111  1  0  0  0
 42112  1  0  0  0
 43 44  1  0  0  0
 44113  1  0  0  0
 45 46  2  0  0  0
 45114  1  0  0  0
 46115  1  0  0  0
 47116  1  0  0  0
 47117  1  0  0  0
 48 56  1  0  0  0
 48 65  1  0  0  0
 48118  1  0  0  0
 49 50  1  0  0  0
 49 53  1  0  0  0
 49 64  1  0  0  0
 49119  1  0  0  0
 50 51  1  0  0  0
 50120  1  0  0  0
 50121  1  0  0  0
 51 52  1  0  0  0
 51122  1  0  0  0
 51123  1  0  0  0
 52124  1  0  0  0
 52125  1  0  0  0
 53 54  1  0  0  0
 54 55  2  0  0  0
 54126  1  0  0  0
 55 57  1  0  0  0
 55127  1  0  0  0
 56 69  2  0  0  0
 57 58  2  0  0  0
 57128  1  0  0  0
 58129  1  0  0  0
 59 60  1  0  0  0
 59 61  1  0  0  0
 59 62  1  0  0  0
 60130  1  0  0  0
 60131  1  0  0  0
 60132  1  0  0  0
 61133  1  0  0  0
 61134  1  0  0  0
 61135  1  0  0  0
 62136  1  0  0  0
 62137  1  0  0  0
 62138  1  0  0  0
 63 65  1  0  0  0
 63139  1  0  0  0
 63140  1  0  0  0
 63141  1  0  0  0
 64142  1  0  0  0
 65143  1  0  0  0
 68 79  1  0  0  0
 71 73  2  0  0  0
 71 75  1  0  0  0
 71144  1  0  0  0
 72 74  1  0  0  0
 72 75  2  0  0  0
 72145  1  0  0  0
 73 76  1  0  0  0
 73146  1  0  0  0
 74 76  2  0  0  0
 74147  1  0  0  0
 75 81  1  0  0  0
 76 82  1  0  0  0
 77 79  1  0  0  0
 77 81  1  0  0  0
 77 83  2  0  0  0
 78 79  1  0  0  0
 78 81  1  0  0  0
 78 84  2  0  0  0
 79148  1  0  0  0
 80 82  1  0  0  0
 80149  1  0  0  0
 80150  1  0  0  0
 80151  1  0  0  0
M  ISO  4   1 100  68 101  79 101  82 100
M  END
> <chiral flag>
0

> <version>
0

> <s_m_source_file>
/data/baiqing/PycharmProjects/Reinvent-master-3.2/result/LINK_invent/BTK/process_docking_weight1_custom_product_contain_oxygen_bond_distance_aromatic_linkinvent_7_9_3/rearranged_h_0086.sdf

> <i_m_source_file_index>
25

> <r_mmod_Potential_Energy-OPLS-2005>
816.536254882812

> <r_mmod_Stretch_Energy-OPLS-2005>
288.342498779297

> <r_mmod_Bend_Energy-OPLS-2005>
332.014831542969

> <r_mmod_Torsional_Energy-OPLS-2005>
308.259918212891

> <r_mmod_Improper_Torsional_Energy-OPLS-2005>
24.9314823150635

> <r_mmod_Van_der_Waal_Energy-OPLS-2005>
135.181594848633

> <r_mmod_Electrostatic_Energy-OPLS-2005>
-316.206390380859

> <r_mmod_Solvation_Energy-OPLS-2005>
-222.598831176758

> <b_mmod_Minimization_Converged-OPLS-2005>
0

> <r_mmod_RMS_Derivative-OPLS-2005>
0.283742517232895

$$$$
25
                    3D
 Structure written by MMmdl.
153161  0  0  1  0            999 V2000
  -30.6467  -14.5350   20.5595 C   0  0  0  0  0  0
  -30.4439  -12.3413   19.4269 C   0  0  0  0  0  0
  -29.5080  -12.4965   18.2066 C   0  0  0  0  0  0
  -28.0261  -12.3525   18.6160 C   0  0  0  0  0  0
  -27.6639  -13.1994   19.8656 C   0  0  2  0  0  0
  -28.7038  -12.9831   20.9884 C   0  0  0  0  0  0
  -25.2620  -13.8130   20.5639 C   0  0  0  0  0  0
  -24.1856  -13.0433   20.9124 C   0  0  0  0  0  0
  -24.6380  -11.6885   20.8674 C   0  0  0  0  0  0
  -23.9031  -10.4283   21.0367 C   0  0  0  0  0  0
  -24.3578   -9.4208   21.9162 C   0  0  0  0  0  0
  -23.6257   -8.2247   22.0744 C   0  0  0  0  0  0
  -22.4243   -8.0276   21.3543 C   0  0  0  0  0  0
  -21.9874   -9.0251   20.4653 C   0  0  0  0  0  0
  -22.7186  -10.2132   20.3041 C   0  0  0  0  0  0
  -21.6871   -6.0708   22.5255 C   0  0  0  0  0  0
  -21.4028   -6.5613   23.8183 C   0  0  0  0  0  0
  -21.3649   -5.6770   24.9150 C   0  0  0  0  0  0
  -21.6042   -4.3030   24.7213 C   0  0  0  0  0  0
  -21.8830   -3.8119   23.4336 C   0  0  0  0  0  0
  -21.9205   -4.6936   22.3390 C   0  0  0  0  0  0
  -22.7888  -13.5260   21.1783 C   0  0  0  0  0  0
  -22.1673   -4.2115   21.0976 F   0  0  0  0  0  0
  -21.5619   -3.4527   25.7735 F   0  0  0  0  0  0
  -30.0313  -13.3231   20.4443 N   0  0  0  0  0  0
  -26.3032  -12.9271   20.3270 N   0  0  0  0  0  0
  -25.9303  -11.6445   20.5687 N   0  0  0  0  0  0
  -22.0515  -12.8302   22.0373 N   0  0  0  0  0  0
  -25.4402  -15.1839   20.4049 N   0  0  0  0  0  0
  -31.7743  -14.7464   20.0992 O   0  0  0  0  0  0
  -21.6637   -6.8854   21.4220 O   0  0  0  0  0  0
  -22.3581  -14.5566   20.6625 O   0  0  0  0  0  0
  -24.6169  -31.8611   23.2047 C   0  0  0  0  0  0
  -25.9041  -32.4800   23.8344 C   0  0  1  0  0  0
  -27.2496  -27.3891   20.1095 C   0  0  0  0  0  0
  -25.5857  -33.8600   24.2246 N   0  0  0  0  0  0
  -23.4097  -30.4765   21.5476 C   0  0  2  0  0  0
  -24.8602  -28.9246   20.1289 C   0  0  0  0  0  0
  -22.7435  -29.4583   22.5013 C   0  0  0  0  0  0
  -18.0268  -28.1390   22.8499 C   0  0  0  0  0  0
  -24.1465  -36.7297   23.2609 C   0  0  0  0  0  0
  -25.9401  -30.8095   21.3665 C   0  0  0  0  0  0
  -26.0193  -29.4358   20.7229 C   0  0  0  0  0  0
  -27.2160  -28.6756   20.7060 C   0  0  0  0  0  0
  -26.0670  -26.8908   19.5215 C   0  0  0  0  0  0
  -24.8786  -27.6518   19.5259 C   0  0  0  0  0  0
  -23.6223  -29.7954   20.1683 C   0  0  0  0  0  0
  -25.4066  -36.3085   24.0329 C   0  0  1  0  0  0
  -20.5861  -28.3645   23.1345 C   0  0  2  0  0  0
  -20.6755  -26.9380   22.5436 C   0  0  0  0  0  0
  -19.5731  -26.6389   21.5228 C   0  0  0  0  0  0
  -18.1910  -26.7931   22.1642 C   0  0  0  0  0  0
  -19.1520  -28.8842   23.2913 C   0  0  0  0  0  0
  -18.9448  -30.1457   23.8912 C   0  0  0  0  0  0
  -17.6449  -30.6602   24.0561 C   0  0  0  0  0  0
  -25.9036  -34.9475   23.5095 C   0  0  0  0  0  0
  -16.5337  -29.9092   23.6344 C   0  0  0  0  0  0
  -16.7256  -28.6509   23.0358 C   0  0  0  0  0  0
  -26.4461  -31.6638   25.0718 C   0  0  0  0  0  0
  -25.3703  -31.3820   26.1464 C   0  0  0  0  0  0
  -27.0303  -30.3068   24.6157 C   0  0  0  0  0  0
  -27.6001  -32.4415   25.7467 C   0  0  0  0  0  0
  -27.5652  -37.1648   24.8355 C   0  0  0  0  0  0
  -21.4161  -29.3002   22.3764 N   0  0  0  0  0  0
  -26.4191  -37.3848   23.9573 N   0  0  0  0  0  0
  -24.6735  -31.0656   22.0975 N   0  0  0  0  0  0
  -23.4181  -28.8130   23.3078 O   0  0  0  0  0  0
  -28.4430  -26.6964   19.9931 O   0  0  0  0  0  0
  -26.5650  -34.8949   22.4691 O   0  0  0  0  0  0
  -23.5350  -32.1374   23.7422 O   0  0  0  0  0  0
  -28.7882  -19.0593   21.6823 C   0  0  0  0  0  0
  -30.8954  -19.1343   20.4897 C   0  0  0  0  0  0
  -28.8224  -17.6433   21.6361 C   0  0  0  0  0  0
  -30.9336  -17.7144   20.4482 C   0  0  0  0  0  0
  -29.8422  -19.8267   21.1397 C   0  0  0  0  0  0
  -29.9069  -16.9423   21.0503 C   0  0  0  0  0  0
  -29.5738  -24.6057   19.8128 C   0  0  0  0  0  0
  -28.5924  -25.3664   20.3674 C   0  0  0  0  0  0
  -29.9739  -21.3044   21.4587 C   0  0  0  0  0  0
  -30.0864  -23.2471   20.2146 C   0  0  0  0  0  0
  -31.6077  -23.1087   19.9964 C   0  0  0  0  0  0
  -29.3449  -22.2896   20.6801 N   0  0  0  0  0  0
  -29.8811  -15.5004   21.1267 N   0  0  0  0  0  0
  -30.6886  -21.5671   22.4298 O   0  0  0  0  0  0
  -31.4838  -12.4767   19.1203 H   0  0  0  0  0  0
  -30.3829  -11.3298   19.8300 H   0  0  0  0  0  0
  -29.7567  -11.7530   17.4481 H   0  0  0  0  0  0
  -29.6703  -13.4707   17.7407 H   0  0  0  0  0  0
  -27.8369  -11.2960   18.8184 H   0  0  0  0  0  0
  -27.3830  -12.6231   17.7778 H   0  0  0  0  0  0
  -27.7096  -14.2439   19.5560 H   0  0  0  0  0  0
  -28.6984  -11.9427   21.3121 H   0  0  0  0  0  0
  -28.4476  -13.5589   21.8788 H   0  0  0  0  0  0
  -25.2725   -9.5718   22.4727 H   0  0  0  0  0  0
  -23.9971   -7.4662   22.7479 H   0  0  0  0  0  0
  -21.0788   -8.8768   19.8981 H   0  0  0  0  0  0
  -22.3616  -10.9666   19.6158 H   0  0  0  0  0  0
  -21.2032   -7.6130   23.9682 H   0  0  0  0  0  0
  -21.1455   -6.0497   25.9052 H   0  0  0  0  0  0
  -22.0629   -2.7581   23.2849 H   0  0  0  0  0  0
  -22.4108  -11.9984   22.4803 H   0  0  0  0  0  0
  -21.1143  -13.1369   22.2548 H   0  0  0  0  0  0
  -24.6749  -15.8409   20.5072 H   0  0  0  0  0  0
  -26.2872  -15.6176   20.0582 H   0  0  0  0  0  0
  -26.7102  -32.5492   23.1088 H   0  0  0  0  0  0
  -24.9916  -33.9738   25.0331 H   0  0  0  0  0  0
  -22.6990  -31.2924   21.4016 H   0  0  0  0  0  0
  -23.3823  -35.9514   23.2993 H   0  0  0  0  0  0
  -24.3642  -36.9213   22.2092 H   0  0  0  0  0  0
  -23.7054  -37.6337   23.6812 H   0  0  0  0  0  0
  -26.0567  -31.5700   20.5944 H   0  0  0  0  0  0
  -26.8255  -30.8671   21.9871 H   0  0  0  0  0  0
  -28.1199  -29.0769   21.1428 H   0  0  0  0  0  0
  -26.0744  -25.9236   19.0402 H   0  0  0  0  0  0
  -23.9879  -27.2533   19.0624 H   0  0  0  0  0  0
  -23.7315  -30.5608   19.3995 H   0  0  0  0  0  0
  -22.7476  -29.2106   19.8798 H   0  0  0  0  0  0
  -25.1183  -36.1852   25.0796 H   0  0  0  0  0  0
  -20.9925  -28.3191   24.1474 H   0  0  0  0  0  0
  -20.5677  -26.2221   23.3602 H   0  0  0  0  0  0
  -21.6622  -26.7432   22.1209 H   0  0  0  0  0  0
  -19.6874  -25.6303   21.1245 H   0  0  0  0  0  0
  -19.6683  -27.3215   20.6771 H   0  0  0  0  0  0
  -17.4170  -26.6672   21.4059 H   0  0  0  0  0  0
  -18.0314  -26.0090   22.9057 H   0  0  0  0  0  0
  -19.7922  -30.7287   24.2268 H   0  0  0  0  0  0
  -17.5000  -31.6281   24.5155 H   0  0  0  0  0  0
  -15.5337  -30.2989   23.7688 H   0  0  0  0  0  0
  -15.8648  -28.0845   22.7059 H   0  0  0  0  0  0
  -24.5776  -30.7282   25.7811 H   0  0  0  0  0  0
  -24.9011  -32.3029   26.4938 H   0  0  0  0  0  0
  -25.8007  -30.8935   27.0209 H   0  0  0  0  0  0
  -26.2880  -29.6836   24.1150 H   0  0  0  0  0  0
  -27.3986  -29.7317   25.4663 H   0  0  0  0  0  0
  -27.8747  -30.4382   23.9383 H   0  0  0  0  0  0
  -27.2533  -33.3636   26.2141 H   0  0  0  0  0  0
  -28.3716  -32.7133   25.0256 H   0  0  0  0  0  0
  -28.0775  -31.8523   26.5300 H   0  0  0  0  0  0
  -28.2217  -38.0356   24.8125 H   0  0  0  0  0  0
  -28.1574  -36.3025   24.5244 H   0  0  0  0  0  0
  -27.2537  -37.0137   25.8705 H   0  0  0  0  0  0
  -20.9336  -29.8676   21.6943 H   0  0  0  0  0  0
  -26.0034  -38.2791   24.2044 H   0  0  0  0  0  0
  -27.9790  -19.5537   22.2040 H   0  0  0  0  0  0
  -31.7288  -19.6900   20.0825 H   0  0  0  0  0  0
  -28.0150  -17.0936   22.1012 H   0  0  0  0  0  0
  -31.7875  -17.2411   19.9839 H   0  0  0  0  0  0
  -30.1411  -25.0555   19.0098 H   0  0  0  0  0  0
  -27.9208  -25.0527   21.1555 H   0  0  0  0  0  0
  -31.9962  -23.8488   19.2963 H   0  0  0  0  0  0
  -31.8550  -22.1347   19.5727 H   0  0  0  0  0  0
  -32.1560  -23.2257   20.9314 H   0  0  0  0  0  0
  -29.0489  -15.1231   21.5555 H   0  0  0  0  0  0
  1 25  1  0  0  0
  1 30  2  0  0  0
  1 83  1  0  0  0
  2  3  1  0  0  0
  2 25  1  0  0  0
  2 85  1  0  0  0
  2 86  1  0  0  0
  3  4  1  0  0  0
  3 87  1  0  0  0
  3 88  1  0  0  0
  4  5  1  0  0  0
  4 89  1  0  0  0
  4 90  1  0  0  0
  5  6  1  0  0  0
  5 26  1  0  0  0
  5 91  1  0  0  0
  6 25  1  0  0  0
  6 92  1  0  0  0
  6 93  1  0  0  0
  7  8  2  0  0  0
  7 26  1  0  0  0
  7 29  1  0  0  0
  8  9  1  0  0  0
  8 22  1  0  0  0
  9 10  1  0  0  0
  9 27  2  0  0  0
 10 11  2  0  0  0
 10 15  1  0  0  0
 11 12  1  0  0  0
 11 94  1  0  0  0
 12 13  2  0  0  0
 12 95  1  0  0  0
 13 14  1  0  0  0
 13 31  1  0  0  0
 14 15  2  0  0  0
 14 96  1  0  0  0
 15 97  1  0  0  0
 16 17  2  0  0  0
 16 21  1  0  0  0
 16 31  1  0  0  0
 17 18  1  0  0  0
 17 98  1  0  0  0
 18 19  2  0  0  0
 18 99  1  0  0  0
 19 20  1  0  0  0
 19 24  1  0  0  0
 20 21  2  0  0  0
 20100  1  0  0  0
 21 23  1  0  0  0
 22 28  1  0  0  0
 22 32  2  0  0  0
 26 27  1  0  0  0
 28101  1  0  0  0
 28102  1  0  0  0
 29103  1  0  0  0
 29104  1  0  0  0
 33 34  1  0  0  0
 33 66  1  0  0  0
 33 70  2  0  0  0
 34 36  1  0  0  0
 34 59  1  0  0  0
 34105  1  0  0  0
 35 44  2  0  0  0
 35 45  1  0  0  0
 35 68  1  0  0  0
 36 56  1  0  0  0
 36106  1  0  0  0
 37 39  1  0  0  0
 37 47  1  0  0  0
 37 66  1  0  0  0
 37107  1  0  0  0
 38 43  2  0  0  0
 38 46  1  0  0  0
 38 47  1  0  0  0
 39 64  1  0  0  0
 39 67  2  0  0  0
 40 52  1  0  0  0
 40 53  2  0  0  0
 40 58  1  0  0  0
 41108  1  0  0  0
 41109  1  0  0  0
 41110  1  0  0  0
 41 48  1  0  0  0
 42 43  1  0  0  0
 42 66  1  0  0  0
 42111  1  0  0  0
 42112  1  0  0  0
 43 44  1  0  0  0
 44113  1  0  0  0
 45 46  2  0  0  0
 45114  1  0  0  0
 46115  1  0  0  0
 47116  1  0  0  0
 47117  1  0  0  0
 48 56  1  0  0  0
 48 65  1  0  0  0
 48118  1  0  0  0
 49 50  1  0  0  0
 49 53  1  0  0  0
 49 64  1  0  0  0
 49119  1  0  0  0
 50 51  1  0  0  0
 50120  1  0  0  0
 50121  1  0  0  0
 51 52  1  0  0  0
 51122  1  0  0  0
 51123  1  0  0  0
 52124  1  0  0  0
 52125  1  0  0  0
 53 54  1  0  0  0
 54 55  2  0  0  0
 54126  1  0  0  0
 55 57  1  0  0  0
 55127  1  0  0  0
 56 69  2  0  0  0
 57 58  2  0  0  0
 57128  1  0  0  0
 58129  1  0  0  0
 59 60  1  0  0  0
 59 61  1  0  0  0
 59 62  1  0  0  0
 60130  1  0  0  0
 60131  1  0  0  0
 60132  1  0  0  0
 61133  1  0  0  0
 61134  1  0  0  0
 61135  1  0  0  0
 62136  1  0  0  0
 62137  1  0  0  0
 62138  1  0  0  0
 63 65  1  0  0  0
 63139  1  0  0  0
 63140  1  0  0  0
 63141  1  0  0  0
 64142  1  0  0  0
 65143  1  0  0  0
 68 78  1  0  0  0
 71 73  2  0  0  0
 71 75  1  0  0  0
 71144  1  0  0  0
 72 74  1  0  0  0
 72 75  2  0  0  0
 72145  1  0  0  0
 73 76  1  0  0  0
 73146  1  0  0  0
 74 76  2  0  0  0
 74147  1  0  0  0
 75 79  1  0  0  0
 76 83  1  0  0  0
 77 78  2  0  0  0
 77 80  1  0  0  0
 77148  1  0  0  0
 78149  1  0  0  0
 79 82  1  0  0  0
 79 84  2  0  0  0
 80 81  1  0  0  0
 80 82  2  0  0  0
 81150  1  0  0  0
 81151  1  0  0  0
 81152  1  0  0  0
 83153  1  0  0  0
M  ISO  4   1 100  68 101  78 101  83 100
M  END
> <chiral flag>
0

> <version>
0

> <s_m_source_file>
/data/baiqing/PycharmProjects/Reinvent-master-3.2/result/LINK_invent/BTK/process_docking_weight1_custom_product_contain_oxygen_bond_distance_aromatic_linkinvent_7_9_3/rearranged_h_0086.sdf

> <i_m_source_file_index>
26

> <r_mmod_Potential_Energy-OPLS-2005>
43.9821891784668

> <r_mmod_Stretch_Energy-OPLS-2005>
51.9203796386719

> <r_mmod_Bend_Energy-OPLS-2005>
130.046585083008

> <r_mmod_Torsional_Energy-OPLS-2005>
274.089813232422

> <r_mmod_Improper_Torsional_Energy-OPLS-2005>
6.51161003112793

> <r_mmod_Van_der_Waal_Energy-OPLS-2005>
155.895172119141

> <r_mmod_Electrostatic_Energy-OPLS-2005>
-390.928924560547

> <r_mmod_Solvation_Energy-OPLS-2005>
-204.012420654297

> <b_mmod_Minimization_Converged-OPLS-2005>
0

> <r_mmod_RMS_Derivative-OPLS-2005>
3.26250290870667

$$$$
26
                    3D
 Structure written by MMmdl.
150159  0  0  1  0            999 V2000
  -30.5693  -14.7932   20.4519 C   0  0  0  0  0  0
  -30.4456  -12.4846   19.4732 C   0  0  0  0  0  0
  -29.5146  -12.5109   18.2390 C   0  0  0  0  0  0
  -28.0423  -12.3222   18.6558 C   0  0  0  0  0  0
  -27.6417  -13.2274   19.8501 C   0  0  2  0  0  0
  -28.6884  -13.1681   20.9840 C   0  0  0  0  0  0
  -25.2520  -13.8181   20.5697 C   0  0  0  0  0  0
  -24.1811  -13.0433   20.9222 C   0  0  0  0  0  0
  -24.6395  -11.6909   20.8759 C   0  0  0  0  0  0
  -23.9066  -10.4290   21.0417 C   0  0  0  0  0  0
  -24.3614   -9.4203   21.9193 C   0  0  0  0  0  0
  -23.6291   -8.2238   22.0754 C   0  0  0  0  0  0
  -22.4275   -8.0279   21.3539 C   0  0  0  0  0  0
  -21.9910   -9.0255   20.4645 C   0  0  0  0  0  0
  -22.7239  -10.2136   20.3065 C   0  0  0  0  0  0
  -21.6851   -6.0742   22.5283 C   0  0  0  0  0  0
  -21.4015   -6.5647   23.8216 C   0  0  0  0  0  0
  -21.3658   -5.6798   24.9176 C   0  0  0  0  0  0
  -21.6040   -4.3060   24.7226 C   0  0  0  0  0  0
  -21.8815   -3.8153   23.4346 C   0  0  0  0  0  0
  -21.9191   -4.6971   22.3404 C   0  0  0  0  0  0
  -22.7833  -13.5223   21.1876 C   0  0  0  0  0  0
  -22.1660   -4.2157   21.0981 F   0  0  0  0  0  0
  -21.5622   -3.4541   25.7737 F   0  0  0  0  0  0
  -29.9842  -13.5436   20.4008 N   0  0  0  0  0  0
  -26.2938  -12.9376   20.3279 N   0  0  0  0  0  0
  -25.9323  -11.6523   20.5759 N   0  0  0  0  0  0
  -22.0472  -12.8216   22.0427 N   0  0  0  0  0  0
  -25.4192  -15.1909   20.4097 N   0  0  0  0  0  0
  -31.7655  -14.9203   20.1693 O   0  0  0  0  0  0
  -21.6635   -6.8881   21.4240 O   0  0  0  0  0  0
  -22.3526  -14.5532   20.6723 O   0  0  0  0  0  0
  -24.6366  -31.8523   23.1974 C   0  0  0  0  0  0
  -25.9173  -32.4738   23.8329 C   0  0  1  0  0  0
  -27.2206  -27.2257   20.1165 C   0  0  0  0  0  0
  -25.5951  -33.8541   24.2245 N   0  0  0  0  0  0
  -23.4349  -30.4779   21.5420 C   0  0  2  0  0  0
  -24.8815  -28.9255   20.1095 C   0  0  0  0  0  0
  -22.7533  -29.4594   22.4891 C   0  0  0  0  0  0
  -18.0295  -28.1392   22.8480 C   0  0  0  0  0  0
  -24.1488  -36.7274   23.2641 C   0  0  0  0  0  0
  -25.9873  -30.7543   21.3835 C   0  0  0  0  0  0
  -26.0594  -29.3758   20.7191 C   0  0  0  0  0  0
  -27.2303  -28.5397   20.7125 C   0  0  0  0  0  0
  -26.0009  -26.8501   19.5007 C   0  0  0  0  0  0
  -24.8590  -27.6706   19.4905 C   0  0  0  0  0  0
  -23.6562  -29.8185   20.1568 C   0  0  0  0  0  0
  -25.4118  -36.3058   24.0322 C   0  0  1  0  0  0
  -20.5905  -28.3712   23.1252 C   0  0  2  0  0  0
  -20.6779  -26.9423   22.5404 C   0  0  0  0  0  0
  -19.5753  -26.6384   21.5212 C   0  0  0  0  0  0
  -18.1935  -26.7930   22.1627 C   0  0  0  0  0  0
  -19.1551  -28.8869   23.2861 C   0  0  0  0  0  0
  -18.9470  -30.1466   23.8887 C   0  0  0  0  0  0
  -17.6469  -30.6591   24.0561 C   0  0  0  0  0  0
  -25.9063  -34.9429   23.5085 C   0  0  0  0  0  0
  -16.5359  -29.9087   23.6332 C   0  0  0  0  0  0
  -16.7280  -28.6505   23.0353 C   0  0  0  0  0  0
  -26.4523  -31.6575   25.0733 C   0  0  0  0  0  0
  -25.3732  -31.3741   26.1445 C   0  0  0  0  0  0
  -27.0376  -30.2980   24.6257 C   0  0  0  0  0  0
  -27.6059  -32.4333   25.7519 C   0  0  0  0  0  0
  -27.5574  -37.1799   24.8469 C   0  0  0  0  0  0
  -21.4232  -29.3055   22.3638 N   0  0  0  0  0  0
  -26.4291  -37.3760   23.9405 N   0  0  0  0  0  0
  -24.7057  -31.0463   22.0967 N   0  0  0  0  0  0
  -23.4214  -28.8122   23.2995 O   0  0  0  0  0  0
  -28.2814  -26.2699   20.1880 O   0  0  0  0  0  0
  -26.5636  -34.8908   22.4655 O   0  0  0  0  0  0
  -23.5504  -32.1364   23.7243 O   0  0  0  0  0  0
  -30.6221  -19.5831   20.7933 C   0  0  0  0  0  0
  -30.8706  -18.1460   20.9334 C   0  0  0  0  0  0
  -29.4215  -19.9583   20.2139 C   0  0  0  0  0  0
  -29.8567  -17.2943   20.5269 C   0  0  0  0  0  0
  -28.5136  -23.7277   19.4403 C   0  0  0  0  0  0
  -28.4600  -21.4233   18.5552 C   0  0  0  0  0  0
  -28.2378  -25.1035   19.3623 C   0  0  0  0  0  0
  -28.1993  -22.8879   18.2280 C   0  0  0  0  0  0
  -29.0533  -22.6293   20.4523 C   0  0  0  0  0  0
  -28.9601  -21.2379   19.7948 N   0  0  0  0  0  0
  -29.7145  -15.8872   20.5884 N   0  0  0  0  0  0
  -28.2339  -20.5442   17.7187 O   0  0  0  0  0  0
  -28.5579  -18.3937   19.9546 S   0  0  0  0  0  0
  -31.4816  -12.6360   19.1652 H   0  0  0  0  0  0
  -30.4157  -11.5095   19.9619 H   0  0  0  0  0  0
  -29.8039  -11.7332   17.5309 H   0  0  0  0  0  0
  -29.6279  -13.4606   17.7144 H   0  0  0  0  0  0
  -27.9111  -11.2748   18.9294 H   0  0  0  0  0  0
  -27.3807  -12.4988   17.8068 H   0  0  0  0  0  0
  -27.6294  -14.2452   19.4603 H   0  0  0  0  0  0
  -28.7371  -12.1682   21.4175 H   0  0  0  0  0  0
  -28.4158  -13.8400   21.7998 H   0  0  0  0  0  0
  -25.2754   -9.5682   22.4774 H   0  0  0  0  0  0
  -23.9999   -7.4629   22.7474 H   0  0  0  0  0  0
  -21.0838   -8.8778   19.8953 H   0  0  0  0  0  0
  -22.3694  -10.9680   19.6182 H   0  0  0  0  0  0
  -21.2013   -7.6156   23.9722 H   0  0  0  0  0  0
  -21.1482   -6.0529   25.9080 H   0  0  0  0  0  0
  -22.0594   -2.7616   23.2844 H   0  0  0  0  0  0
  -22.4083  -11.9882   22.4825 H   0  0  0  0  0  0
  -21.1094  -13.1254   22.2631 H   0  0  0  0  0  0
  -24.6423  -15.8354   20.5116 H   0  0  0  0  0  0
  -26.2491  -15.6325   20.0362 H   0  0  0  0  0  0
  -26.7237  -32.5371   23.1066 H   0  0  0  0  0  0
  -25.0083  -33.9674   25.0380 H   0  0  0  0  0  0
  -22.7332  -31.3020   21.3970 H   0  0  0  0  0  0
  -23.3748  -35.9610   23.3310 H   0  0  0  0  0  0
  -24.3573  -36.8892   22.2055 H   0  0  0  0  0  0
  -23.7249  -37.6477   23.6665 H   0  0  0  0  0  0
  -26.1340  -31.5170   20.6174 H   0  0  0  0  0  0
  -26.8609  -30.7993   22.0220 H   0  0  0  0  0  0
  -28.1291  -28.8797   21.2080 H   0  0  0  0  0  0
  -25.8770  -25.8773   19.0499 H   0  0  0  0  0  0
  -23.9529  -27.3119   19.0222 H   0  0  0  0  0  0
  -23.7889  -30.5991   19.4070 H   0  0  0  0  0  0
  -22.7717  -29.2605   19.8444 H   0  0  0  0  0  0
  -25.1303  -36.1902   25.0815 H   0  0  0  0  0  0
  -20.9996  -28.3291   24.1374 H   0  0  0  0  0  0
  -20.5675  -26.2325   23.3613 H   0  0  0  0  0  0
  -21.6646  -26.7432   22.1202 H   0  0  0  0  0  0
  -19.6913  -25.6292   21.1246 H   0  0  0  0  0  0
  -19.6684  -27.3189   20.6736 H   0  0  0  0  0  0
  -17.4199  -26.6671   21.4033 H   0  0  0  0  0  0
  -18.0341  -26.0078   22.9032 H   0  0  0  0  0  0
  -19.7947  -30.7284   24.2251 H   0  0  0  0  0  0
  -17.5023  -31.6268   24.5168 H   0  0  0  0  0  0
  -15.5360  -30.2987   23.7663 H   0  0  0  0  0  0
  -15.8679  -28.0822   22.7073 H   0  0  0  0  0  0
  -24.5919  -30.7073   25.7782 H   0  0  0  0  0  0
  -24.8912  -32.2912   26.4838 H   0  0  0  0  0  0
  -25.8044  -30.8950   27.0243 H   0  0  0  0  0  0
  -26.2974  -29.6722   24.1256 H   0  0  0  0  0  0
  -27.4005  -29.7256   25.4805 H   0  0  0  0  0  0
  -27.8876  -30.4235   23.9547 H   0  0  0  0  0  0
  -27.2645  -33.3639   26.2069 H   0  0  0  0  0  0
  -28.3888  -32.6889   25.0366 H   0  0  0  0  0  0
  -28.0704  -31.8478   26.5465 H   0  0  0  0  0  0
  -28.2601  -38.0086   24.7493 H   0  0  0  0  0  0
  -28.1058  -36.2614   24.6323 H   0  0  0  0  0  0
  -27.2285  -37.1480   25.8872 H   0  0  0  0  0  0
  -20.9421  -29.8799   21.6855 H   0  0  0  0  0  0
  -26.0162  -38.2832   24.1402 H   0  0  0  0  0  0
  -31.3818  -20.2949   21.0830 H   0  0  0  0  0  0
  -31.8026  -17.7963   21.3543 H   0  0  0  0  0  0
  -27.8899  -25.4238   18.3896 H   0  0  0  0  0  0
  -28.8287  -23.1890   17.3903 H   0  0  0  0  0  0
  -27.1573  -23.0196   17.9359 H   0  0  0  0  0  0
  -28.4604  -22.6473   21.3673 H   0  0  0  0  0  0
  -30.0877  -22.8482   20.7185 H   0  0  0  0  0  0
  -28.7553  -15.5863   20.6654 H   0  0  0  0  0  0
  1 25  1  0  0  0
  1 30  2  0  0  0
  1 81  1  0  0  0
  2  3  1  0  0  0
  2 25  1  0  0  0
  2 84  1  0  0  0
  2 85  1  0  0  0
  3  4  1  0  0  0
  3 86  1  0  0  0
  3 87  1  0  0  0
  4  5  1  0  0  0
  4 88  1  0  0  0
  4 89  1  0  0  0
  5  6  1  0  0  0
  5 26  1  0  0  0
  5 90  1  0  0  0
  6 25  1  0  0  0
  6 91  1  0  0  0
  6 92  1  0  0  0
  7  8  2  0  0  0
  7 26  1  0  0  0
  7 29  1  0  0  0
  8  9  1  0  0  0
  8 22  1  0  0  0
  9 10  1  0  0  0
  9 27  2  0  0  0
 10 11  2  0  0  0
 10 15  1  0  0  0
 11 12  1  0  0  0
 11 93  1  0  0  0
 12 13  2  0  0  0
 12 94  1  0  0  0
 13 14  1  0  0  0
 13 31  1  0  0  0
 14 15  2  0  0  0
 14 95  1  0  0  0
 15 96  1  0  0  0
 16 17  2  0  0  0
 16 21  1  0  0  0
 16 31  1  0  0  0
 17 18  1  0  0  0
 17 97  1  0  0  0
 18 19  2  0  0  0
 18 98  1  0  0  0
 19 20  1  0  0  0
 19 24  1  0  0  0
 20 21  2  0  0  0
 20 99  1  0  0  0
 21 23  1  0  0  0
 22 28  1  0  0  0
 22 32  2  0  0  0
 26 27  1  0  0  0
 28100  1  0  0  0
 28101  1  0  0  0
 29102  1  0  0  0
 29103  1  0  0  0
 33 34  1  0  0  0
 33 66  1  0  0  0
 33 70  2  0  0  0
 34 36  1  0  0  0
 34 59  1  0  0  0
 34104  1  0  0  0
 35 44  2  0  0  0
 35 45  1  0  0  0
 35 68  1  0  0  0
 36 56  1  0  0  0
 36105  1  0  0  0
 37 39  1  0  0  0
 37 47  1  0  0  0
 37 66  1  0  0  0
 37106  1  0  0  0
 38 43  2  0  0  0
 38 46  1  0  0  0
 38 47  1  0  0  0
 39 64  1  0  0  0
 39 67  2  0  0  0
 40 52  1  0  0  0
 40 53  2  0  0  0
 40 58  1  0  0  0
 41107  1  0  0  0
 41108  1  0  0  0
 41109  1  0  0  0
 41 48  1  0  0  0
 42 43  1  0  0  0
 42 66  1  0  0  0
 42110  1  0  0  0
 42111  1  0  0  0
 43 44  1  0  0  0
 44112  1  0  0  0
 45 46  2  0  0  0
 45113  1  0  0  0
 46114  1  0  0  0
 47115  1  0  0  0
 47116  1  0  0  0
 48 56  1  0  0  0
 48 65  1  0  0  0
 48117  1  0  0  0
 49 50  1  0  0  0
 49 53  1  0  0  0
 49 64  1  0  0  0
 49118  1  0  0  0
 50 51  1  0  0  0
 50119  1  0  0  0
 50120  1  0  0  0
 51 52  1  0  0  0
 51121  1  0  0  0
 51122  1  0  0  0
 52123  1  0  0  0
 52124  1  0  0  0
 53 54  1  0  0  0
 54 55  2  0  0  0
 54125  1  0  0  0
 55 57  1  0  0  0
 55126  1  0  0  0
 56 69  2  0  0  0
 57 58  2  0  0  0
 57127  1  0  0  0
 58128  1  0  0  0
 59 60  1  0  0  0
 59 61  1  0  0  0
 59 62  1  0  0  0
 60129  1  0  0  0
 60130  1  0  0  0
 60131  1  0  0  0
 61132  1  0  0  0
 61133  1  0  0  0
 61134  1  0  0  0
 62135  1  0  0  0
 62136  1  0  0  0
 62137  1  0  0  0
 63 65  1  0  0  0
 63138  1  0  0  0
 63139  1  0  0  0
 63140  1  0  0  0
 64141  1  0  0  0
 65142  1  0  0  0
 68 77  1  0  0  0
 71 72  1  0  0  0
 71 73  2  0  0  0
 71143  1  0  0  0
 72 74  2  0  0  0
 72144  1  0  0  0
 73 80  1  0  0  0
 73 83  1  0  0  0
 74 81  1  0  0  0
 74 83  1  0  0  0
 75 77  2  0  0  0
 75 78  1  0  0  0
 75 79  1  0  0  0
 76 78  1  0  0  0
 76 80  1  0  0  0
 76 82  2  0  0  0
 77145  1  0  0  0
 78146  1  0  0  0
 78147  1  0  0  0
 79 80  1  0  0  0
 79148  1  0  0  0
 79149  1  0  0  0
 81150  1  0  0  0
M  ISO  4   1 100  68 101  77 101  81 100
M  END
> <chiral flag>
0

> <version>
0

> <s_m_source_file>
/data/baiqing/PycharmProjects/Reinvent-master-3.2/result/LINK_invent/BTK/process_docking_weight1_custom_product_contain_oxygen_bond_distance_aromatic_linkinvent_7_9_3/rearranged_h_0086.sdf

> <i_m_source_file_index>
27

> <r_mmod_Potential_Energy-OPLS-2005>
310.982299804688

> <r_mmod_Stretch_Energy-OPLS-2005>
129.161087036133

> <r_mmod_Bend_Energy-OPLS-2005>
263.437652587891

> <r_mmod_Torsional_Energy-OPLS-2005>
262.438110351562

> <r_mmod_Improper_Torsional_Energy-OPLS-2005>
6.50660181045532

> <r_mmod_Van_der_Waal_Energy-OPLS-2005>
121.728210449219

> <r_mmod_Electrostatic_Energy-OPLS-2005>
-366.054138183594

> <r_mmod_Solvation_Energy-OPLS-2005>
-219.141326904297

> <b_mmod_Minimization_Converged-OPLS-2005>
0

> <r_mmod_RMS_Derivative-OPLS-2005>
0.742206156253815

$$$$
27
                    3D
 Structure written by MMmdl.
156165  0  0  1  0            999 V2000
  -30.5588  -14.8651   20.3351 C   0  0  0  0  0  0
  -30.4303  -12.4901   19.5002 C   0  0  0  0  0  0
  -29.5324  -12.5370   18.2431 C   0  0  0  0  0  0
  -28.0427  -12.3911   18.6284 C   0  0  0  0  0  0
  -27.6471  -13.2638   19.8507 C   0  0  2  0  0  0
  -28.7007  -13.2286   20.9836 C   0  0  0  0  0  0
  -25.2542  -13.8198   20.5707 C   0  0  0  0  0  0
  -24.1854  -13.0410   20.9162 C   0  0  0  0  0  0
  -24.6500  -11.6928   20.8759 C   0  0  0  0  0  0
  -23.9157  -10.4276   21.0363 C   0  0  0  0  0  0
  -24.3700   -9.4174   21.9147 C   0  0  0  0  0  0
  -23.6334   -8.2233   22.0751 C   0  0  0  0  0  0
  -22.4294   -8.0279   21.3566 C   0  0  0  0  0  0
  -21.9938   -9.0245   20.4680 C   0  0  0  0  0  0
  -22.7296  -10.2109   20.3047 C   0  0  0  0  0  0
  -21.6867   -6.0737   22.5270 C   0  0  0  0  0  0
  -21.4028   -6.5649   23.8204 C   0  0  0  0  0  0
  -21.3678   -5.6807   24.9175 C   0  0  0  0  0  0
  -21.6035   -4.3058   24.7220 C   0  0  0  0  0  0
  -21.8824   -3.8145   23.4353 C   0  0  0  0  0  0
  -21.9212   -4.6968   22.3403 C   0  0  0  0  0  0
  -22.7887  -13.5180   21.1843 C   0  0  0  0  0  0
  -22.1689   -4.2140   21.0984 F   0  0  0  0  0  0
  -21.5638   -3.4549   25.7744 F   0  0  0  0  0  0
  -29.9886  -13.6031   20.3859 N   0  0  0  0  0  0
  -26.3045  -12.9495   20.3329 N   0  0  0  0  0  0
  -25.9459  -11.6607   20.5770 N   0  0  0  0  0  0
  -22.0596  -12.8114   22.0411 N   0  0  0  0  0  0
  -25.4103  -15.1923   20.4198 N   0  0  0  0  0  0
  -31.7421  -14.9592   19.9893 O   0  0  0  0  0  0
  -21.6680   -6.8869   21.4225 O   0  0  0  0  0  0
  -22.3525  -14.5475   20.6697 O   0  0  0  0  0  0
  -24.6315  -31.8560   23.1976 C   0  0  0  0  0  0
  -25.9116  -32.4753   23.8320 C   0  0  1  0  0  0
  -27.2248  -27.2650   20.1335 C   0  0  0  0  0  0
  -25.5925  -33.8516   24.2256 N   0  0  0  0  0  0
  -23.4254  -30.4751   21.5432 C   0  0  2  0  0  0
  -24.8737  -28.9045   20.1323 C   0  0  0  0  0  0
  -22.7488  -29.4581   22.4964 C   0  0  0  0  0  0
  -18.0274  -28.1366   22.8599 C   0  0  0  0  0  0
  -24.1487  -36.7300   23.2625 C   0  0  0  0  0  0
  -25.9723  -30.7667   21.3747 C   0  0  0  0  0  0
  -26.0467  -29.3797   20.7349 C   0  0  0  0  0  0
  -27.2304  -28.5726   20.7237 C   0  0  0  0  0  0
  -26.0331  -26.8480   19.5153 C   0  0  0  0  0  0
  -24.8682  -27.6427   19.5141 C   0  0  0  0  0  0
  -23.6475  -29.7969   20.1624 C   0  0  0  0  0  0
  -25.4122  -36.3034   24.0305 C   0  0  1  0  0  0
  -20.5892  -28.3620   23.1329 C   0  0  2  0  0  0
  -20.6771  -26.9364   22.5428 C   0  0  0  0  0  0
  -19.5707  -26.6379   21.5288 C   0  0  0  0  0  0
  -18.1899  -26.7884   22.1787 C   0  0  0  0  0  0
  -19.1546  -28.8793   23.2980 C   0  0  0  0  0  0
  -18.9481  -30.1399   23.8992 C   0  0  0  0  0  0
  -17.6496  -30.6611   24.0556 C   0  0  0  0  0  0
  -25.9088  -34.9422   23.5101 C   0  0  0  0  0  0
  -16.5377  -29.9078   23.6405 C   0  0  0  0  0  0
  -16.7252  -28.6497   23.0532 C   0  0  0  0  0  0
  -26.4520  -31.6541   25.0695 C   0  0  0  0  0  0
  -25.3771  -31.3704   26.1452 C   0  0  0  0  0  0
  -27.0348  -30.2947   24.6141 C   0  0  0  0  0  0
  -27.6085  -32.4277   25.7495 C   0  0  0  0  0  0
  -27.5577  -37.1791   24.8455 C   0  0  0  0  0  0
  -21.4200  -29.3109   22.3821 N   0  0  0  0  0  0
  -26.4280  -37.3757   23.9422 N   0  0  0  0  0  0
  -24.6951  -31.0532   22.0952 N   0  0  0  0  0  0
  -23.4256  -28.8106   23.2963 O   0  0  0  0  0  0
  -28.3416  -26.4168   20.0130 O   0  0  0  0  0  0
  -26.5624  -34.8893   22.4651 O   0  0  0  0  0  0
  -23.5467  -32.1403   23.7240 O   0  0  0  0  0  0
  -30.2886  -18.8832   17.9995 C   0  0  0  0  0  0
  -29.8365  -20.0498   18.6635 C   0  0  0  0  0  0
  -30.2697  -17.6074   18.6178 C   0  0  0  0  0  0
  -29.2413  -18.6431   20.5522 C   0  0  0  0  0  0
  -29.2737  -19.9914   19.9527 C   0  0  0  0  0  0
  -29.7818  -17.4145   19.9396 C   0  0  0  0  0  0
  -29.0956  -22.6339   20.3420 C   0  0  0  0  0  0
  -28.2189  -23.7091   20.4720 C   0  0  0  0  0  0
  -26.6057  -22.1848   21.5625 C   0  0  0  0  0  0
  -26.7488  -23.3504   20.5695 C   0  0  0  0  0  0
  -27.5294  -20.9649   21.3366 C   0  0  0  0  0  0
  -28.5432  -25.2252   20.8884 C   0  0  0  0  0  0
  -28.7159  -21.2354   20.5065 N   0  0  0  0  0  0
  -29.7668  -16.0196   20.5418 N   0  0  0  0  0  0
  -25.7998  -22.2330   22.4953 O   0  0  0  0  0  0
  -31.4889  -12.5634   19.2458 H   0  0  0  0  0  0
  -30.3090  -11.5229   19.9892 H   0  0  0  0  0  0
  -29.8087  -11.7559   17.5338 H   0  0  0  0  0  0
  -29.6933  -13.4898   17.7356 H   0  0  0  0  0  0
  -27.8596  -11.3368   18.8423 H   0  0  0  0  0  0
  -27.4114  -12.6437   17.7749 H   0  0  0  0  0  0
  -27.6224  -14.2873   19.4790 H   0  0  0  0  0  0
  -28.7587  -12.2430   21.4504 H   0  0  0  0  0  0
  -28.4442  -13.9269   21.7824 H   0  0  0  0  0  0
  -25.2841   -9.5650   22.4725 H   0  0  0  0  0  0
  -24.0041   -7.4649   22.7490 H   0  0  0  0  0  0
  -21.0839   -8.8755   19.9046 H   0  0  0  0  0  0
  -22.3687  -10.9654   19.6182 H   0  0  0  0  0  0
  -21.2012   -7.6158   23.9673 H   0  0  0  0  0  0
  -21.1511   -6.0564   25.9068 H   0  0  0  0  0  0
  -22.0587   -2.7597   23.2841 H   0  0  0  0  0  0
  -22.4301  -11.9758   22.4707 H   0  0  0  0  0  0
  -21.1258  -13.1129   22.2850 H   0  0  0  0  0  0
  -24.6167  -15.8154   20.5274 H   0  0  0  0  0  0
  -26.2148  -15.6469   20.0050 H   0  0  0  0  0  0
  -26.7208  -32.5421   23.1091 H   0  0  0  0  0  0
  -25.0074  -33.9673   25.0390 H   0  0  0  0  0  0
  -22.7234  -31.2982   21.3909 H   0  0  0  0  0  0
  -23.3724  -35.9651   23.3252 H   0  0  0  0  0  0
  -24.3588  -36.8969   22.2050 H   0  0  0  0  0  0
  -23.7282  -37.6498   23.6702 H   0  0  0  0  0  0
  -26.0988  -31.5125   20.5874 H   0  0  0  0  0  0
  -26.8591  -30.8419   21.9903 H   0  0  0  0  0  0
  -28.1360  -28.9376   21.1809 H   0  0  0  0  0  0
  -26.0139  -25.8869   19.0135 H   0  0  0  0  0  0
  -23.9747  -27.2666   19.0354 H   0  0  0  0  0  0
  -23.7869  -30.5712   19.4095 H   0  0  0  0  0  0
  -22.7684  -29.2343   19.8405 H   0  0  0  0  0  0
  -25.1296  -36.1880   25.0794 H   0  0  0  0  0  0
  -21.0075  -28.3143   24.1435 H   0  0  0  0  0  0
  -20.5640  -26.2310   23.3669 H   0  0  0  0  0  0
  -21.6605  -26.7369   22.1097 H   0  0  0  0  0  0
  -19.6816  -25.6213   21.1458 H   0  0  0  0  0  0
  -19.6606  -27.3219   20.6792 H   0  0  0  0  0  0
  -17.4166  -26.6492   21.4203 H   0  0  0  0  0  0
  -18.0494  -26.0076   22.9250 H   0  0  0  0  0  0
  -19.7938  -30.7207   24.2413 H   0  0  0  0  0  0
  -17.5007  -31.6358   24.5028 H   0  0  0  0  0  0
  -15.5406  -30.3050   23.7676 H   0  0  0  0  0  0
  -15.8632  -28.0807   22.7283 H   0  0  0  0  0  0
  -24.5998  -30.6979   25.7837 H   0  0  0  0  0  0
  -24.8905  -32.2861   26.4795 H   0  0  0  0  0  0
  -25.8127  -30.8997   27.0270 H   0  0  0  0  0  0
  -26.2896  -29.6742   24.1169 H   0  0  0  0  0  0
  -27.4061  -29.7170   25.4612 H   0  0  0  0  0  0
  -27.8765  -30.4235   23.9345 H   0  0  0  0  0  0
  -27.2699  -33.3610   26.2012 H   0  0  0  0  0  0
  -28.3940  -32.6777   25.0350 H   0  0  0  0  0  0
  -28.0703  -31.8429   26.5469 H   0  0  0  0  0  0
  -28.2565  -38.0104   24.7491 H   0  0  0  0  0  0
  -28.1093  -36.2636   24.6280 H   0  0  0  0  0  0
  -27.2290  -37.1435   25.8846 H   0  0  0  0  0  0
  -20.9348  -29.9033   21.7212 H   0  0  0  0  0  0
  -26.0138  -38.2814   24.1431 H   0  0  0  0  0  0
  -30.6640  -18.9818   16.9822 H   0  0  0  0  0  0
  -29.8926  -21.0025   18.1477 H   0  0  0  0  0  0
  -30.6189  -16.7680   18.0311 H   0  0  0  0  0  0
  -28.8032  -18.5514   21.5378 H   0  0  0  0  0  0
  -30.1645  -22.8145   20.4105 H   0  0  0  0  0  0
  -26.3851  -23.0515   19.5867 H   0  0  0  0  0  0
  -26.1668  -24.2030   20.9165 H   0  0  0  0  0  0
  -26.9211  -20.1782   20.8987 H   0  0  0  0  0  0
  -27.8593  -20.5975   22.3141 H   0  0  0  0  0  0
  -29.6000  -25.2443   21.1660 H   0  0  0  0  0  0
  -28.0151  -25.4215   21.8225 H   0  0  0  0  0  0
  -28.9735  -15.8330   21.1376 H   0  0  0  0  0  0
  1 25  1  0  0  0
  1 30  2  0  0  0
  1 84  1  0  0  0
  2  3  1  0  0  0
  2 25  1  0  0  0
  2 86  1  0  0  0
  2 87  1  0  0  0
  3  4  1  0  0  0
  3 88  1  0  0  0
  3 89  1  0  0  0
  4  5  1  0  0  0
  4 90  1  0  0  0
  4 91  1  0  0  0
  5  6  1  0  0  0
  5 26  1  0  0  0
  5 92  1  0  0  0
  6 25  1  0  0  0
  6 93  1  0  0  0
  6 94  1  0  0  0
  7  8  2  0  0  0
  7 26  1  0  0  0
  7 29  1  0  0  0
  8  9  1  0  0  0
  8 22  1  0  0  0
  9 10  1  0  0  0
  9 27  2  0  0  0
 10 11  2  0  0  0
 10 15  1  0  0  0
 11 12  1  0  0  0
 11 95  1  0  0  0
 12 13  2  0  0  0
 12 96  1  0  0  0
 13 14  1  0  0  0
 13 31  1  0  0  0
 14 15  2  0  0  0
 14 97  1  0  0  0
 15 98  1  0  0  0
 16 17  2  0  0  0
 16 21  1  0  0  0
 16 31  1  0  0  0
 17 18  1  0  0  0
 17 99  1  0  0  0
 18 19  2  0  0  0
 18100  1  0  0  0
 19 20  1  0  0  0
 19 24  1  0  0  0
 20 21  2  0  0  0
 20101  1  0  0  0
 21 23  1  0  0  0
 22 28  1  0  0  0
 22 32  2  0  0  0
 26 27  1  0  0  0
 28102  1  0  0  0
 28103  1  0  0  0
 29104  1  0  0  0
 29105  1  0  0  0
 33 34  1  0  0  0
 33 66  1  0  0  0
 33 70  2  0  0  0
 34 36  1  0  0  0
 34 59  1  0  0  0
 34106  1  0  0  0
 35 44  2  0  0  0
 35 45  1  0  0  0
 35 68  1  0  0  0
 36 56  1  0  0  0
 36107  1  0  0  0
 37 39  1  0  0  0
 37 47  1  0  0  0
 37 66  1  0  0  0
 37108  1  0  0  0
 38 43  2  0  0  0
 38 46  1  0  0  0
 38 47  1  0  0  0
 39 64  1  0  0  0
 39 67  2  0  0  0
 40 52  1  0  0  0
 40 53  2  0  0  0
 40 58  1  0  0  0
 41109  1  0  0  0
 41110  1  0  0  0
 41111  1  0  0  0
 41 48  1  0  0  0
 42 43  1  0  0  0
 42 66  1  0  0  0
 42112  1  0  0  0
 42113  1  0  0  0
 43 44  1  0  0  0
 44114  1  0  0  0
 45 46  2  0  0  0
 45115  1  0  0  0
 46116  1  0  0  0
 47117  1  0  0  0
 47118  1  0  0  0
 48 56  1  0  0  0
 48 65  1  0  0  0
 48119  1  0  0  0
 49 50  1  0  0  0
 49 53  1  0  0  0
 49 64  1  0  0  0
 49120  1  0  0  0
 50 51  1  0  0  0
 50121  1  0  0  0
 50122  1  0  0  0
 51 52  1  0  0  0
 51123  1  0  0  0
 51124  1  0  0  0
 52125  1  0  0  0
 52126  1  0  0  0
 53 54  1  0  0  0
 54 55  2  0  0  0
 54127  1  0  0  0
 55 57  1  0  0  0
 55128  1  0  0  0
 56 69  2  0  0  0
 57 58  2  0  0  0
 57129  1  0  0  0
 58130  1  0  0  0
 59 60  1  0  0  0
 59 61  1  0  0  0
 59 62  1  0  0  0
 60131  1  0  0  0
 60132  1  0  0  0
 60133  1  0  0  0
 61134  1  0  0  0
 61135  1  0  0  0
 61136  1  0  0  0
 62137  1  0  0  0
 62138  1  0  0  0
 62139  1  0  0  0
 63 65  1  0  0  0
 63140  1  0  0  0
 63141  1  0  0  0
 63142  1  0  0  0
 64143  1  0  0  0
 65144  1  0  0  0
 68 82  1  0  0  0
 71 72  2  0  0  0
 71 73  1  0  0  0
 71145  1  0  0  0
 72 75  1  0  0  0
 72146  1  0  0  0
 73 76  2  0  0  0
 73147  1  0  0  0
 74 75  2  0  0  0
 74 76  1  0  0  0
 74148  1  0  0  0
 75 83  1  0  0  0
 76 84  1  0  0  0
 77 78  2  0  0  0
 77 83  1  0  0  0
 77149  1  0  0  0
 78 80  1  0  0  0
 78 82  1  0  0  0
 79 80  1  0  0  0
 79 81  1  0  0  0
 79 85  2  0  0  0
 80150  1  0  0  0
 80151  1  0  0  0
 81 83  1  0  0  0
 81152  1  0  0  0
 81153  1  0  0  0
 82154  1  0  0  0
 82155  1  0  0  0
 84156  1  0  0  0
M  ISO  4   1 100  68 101  82 101  84 100
M  END
> <chiral flag>
0

> <version>
0

> <s_m_source_file>
/data/baiqing/PycharmProjects/Reinvent-master-3.2/result/LINK_invent/BTK/process_docking_weight1_custom_product_contain_oxygen_bond_distance_aromatic_linkinvent_7_9_3/rearranged_h_0086.sdf

> <i_m_source_file_index>
28

> <r_mmod_Potential_Energy-OPLS-2005>
339.555145263672

> <r_mmod_Stretch_Energy-OPLS-2005>
157.085723876953

> <r_mmod_Bend_Energy-OPLS-2005>
192.475128173828

> <r_mmod_Torsional_Energy-OPLS-2005>
286.816192626953

> <r_mmod_Improper_Torsional_Energy-OPLS-2005>
5.97578001022339

> <r_mmod_Van_der_Waal_Energy-OPLS-2005>
141.064926147461

> <r_mmod_Electrostatic_Energy-OPLS-2005>
-333.064239501953

> <r_mmod_Solvation_Energy-OPLS-2005>
-225.771438598633

> <b_mmod_Minimization_Converged-OPLS-2005>
0

> <r_mmod_RMS_Derivative-OPLS-2005>
10.5443639755249

$$$$
28
                    3D
 Structure written by MMmdl.
150159  0  0  1  0            999 V2000
  -30.5681  -14.8785   20.3985 C   0  0  0  0  0  0
  -30.4287  -12.5361   19.4919 C   0  0  0  0  0  0
  -29.5139  -12.5226   18.2462 C   0  0  0  0  0  0
  -28.0436  -12.3271   18.6574 C   0  0  0  0  0  0
  -27.6300  -13.2459   19.8376 C   0  0  2  0  0  0
  -28.6708  -13.2520   20.9771 C   0  0  0  0  0  0
  -25.2489  -13.8231   20.5725 C   0  0  0  0  0  0
  -24.1791  -13.0459   20.9224 C   0  0  0  0  0  0
  -24.6401  -11.6938   20.8770 C   0  0  0  0  0  0
  -23.9086  -10.4313   21.0428 C   0  0  0  0  0  0
  -24.3649   -9.4216   21.9188 C   0  0  0  0  0  0
  -23.6316   -8.2250   22.0743 C   0  0  0  0  0  0
  -22.4291   -8.0300   21.3540 C   0  0  0  0  0  0
  -21.9943   -9.0275   20.4638 C   0  0  0  0  0  0
  -22.7274  -10.2149   20.3063 C   0  0  0  0  0  0
  -21.6859   -6.0753   22.5284 C   0  0  0  0  0  0
  -21.4017   -6.5651   23.8219 C   0  0  0  0  0  0
  -21.3654   -5.6798   24.9176 C   0  0  0  0  0  0
  -21.6045   -4.3061   24.7219 C   0  0  0  0  0  0
  -21.8820   -3.8155   23.4339 C   0  0  0  0  0  0
  -21.9197   -4.6980   22.3402 C   0  0  0  0  0  0
  -22.7818  -13.5228   21.1889 C   0  0  0  0  0  0
  -22.1665   -4.2171   21.0973 F   0  0  0  0  0  0
  -21.5618   -3.4537   25.7723 F   0  0  0  0  0  0
  -29.9574  -13.6315   20.3833 N   0  0  0  0  0  0
  -26.2890  -12.9448   20.3238 N   0  0  0  0  0  0
  -25.9327  -11.6577   20.5741 N   0  0  0  0  0  0
  -22.0463  -12.8204   22.0432 N   0  0  0  0  0  0
  -25.4202  -15.1957   20.4199 N   0  0  0  0  0  0
  -31.7745  -14.9153   20.1365 O   0  0  0  0  0  0
  -21.6643   -6.8904   21.4242 O   0  0  0  0  0  0
  -22.3496  -14.5534   20.6735 O   0  0  0  0  0  0
  -24.6385  -31.8492   23.1906 C   0  0  0  0  0  0
  -25.9174  -32.4714   23.8295 C   0  0  1  0  0  0
  -27.2111  -27.1860   20.1493 C   0  0  0  0  0  0
  -25.5943  -33.8521   24.2224 N   0  0  0  0  0  0
  -23.4395  -30.4726   21.5338 C   0  0  2  0  0  0
  -24.8923  -28.9099   20.1062 C   0  0  0  0  0  0
  -22.7546  -29.4582   22.4839 C   0  0  0  0  0  0
  -18.0304  -28.1392   22.8483 C   0  0  0  0  0  0
  -24.1496  -36.7283   23.2637 C   0  0  0  0  0  0
  -25.9935  -30.7393   21.3854 C   0  0  0  0  0  0
  -26.0665  -29.3539   20.7300 C   0  0  0  0  0  0
  -27.2318  -28.5060   20.7397 C   0  0  0  0  0  0
  -26.0197  -26.8340   19.4816 C   0  0  0  0  0  0
  -24.8796  -27.6620   19.4641 C   0  0  0  0  0  0
  -23.6653  -29.8050   20.1511 C   0  0  0  0  0  0
  -25.4116  -36.3054   24.0329 C   0  0  1  0  0  0
  -20.5913  -28.3719   23.1234 C   0  0  2  0  0  0
  -20.6794  -26.9423   22.5400 C   0  0  0  0  0  0
  -19.5762  -26.6375   21.5209 C   0  0  0  0  0  0
  -18.1943  -26.7928   22.1631 C   0  0  0  0  0  0
  -19.1563  -28.8865   23.2855 C   0  0  0  0  0  0
  -18.9476  -30.1457   23.8891 C   0  0  0  0  0  0
  -17.6472  -30.6583   24.0566 C   0  0  0  0  0  0
  -25.9055  -34.9423   23.5080 C   0  0  0  0  0  0
  -16.5365  -29.9092   23.6328 C   0  0  0  0  0  0
  -16.7287  -28.6512   23.0351 C   0  0  0  0  0  0
  -26.4518  -31.6544   25.0702 C   0  0  0  0  0  0
  -25.3714  -31.3735   26.1401 C   0  0  0  0  0  0
  -27.0361  -30.2935   24.6243 C   0  0  0  0  0  0
  -27.6069  -32.4283   25.7487 C   0  0  0  0  0  0
  -27.5585  -37.1795   24.8460 C   0  0  0  0  0  0
  -21.4238  -29.3064   22.3602 N   0  0  0  0  0  0
  -26.4288  -37.3759   23.9397 N   0  0  0  0  0  0
  -24.7102  -31.0396   22.0926 N   0  0  0  0  0  0
  -23.4214  -28.8118   23.2961 O   0  0  0  0  0  0
  -28.2435  -26.1967   20.1771 O   0  0  0  0  0  0
  -26.5644  -34.8916   22.4656 O   0  0  0  0  0  0
  -23.5513  -32.1356   23.7135 O   0  0  0  0  0  0
  -31.3814  -18.9816   18.6294 C   0  0  0  0  0  0
  -30.6771  -20.1288   19.0307 C   0  0  0  0  0  0
  -31.0793  -17.7074   19.1299 C   0  0  0  0  0  0
  -29.3345  -18.7531   20.4579 C   0  0  0  0  0  0
  -29.6074  -20.1341   19.9618 C   0  0  0  0  0  0
  -30.0594  -17.5054   20.0838 C   0  0  0  0  0  0
  -28.4307  -23.5553   20.3951 C   0  0  0  0  0  0
  -28.0335  -22.2399   20.9595 C   0  0  0  0  0  0
  -27.9214  -24.8539   20.6280 C   0  0  0  0  0  0
  -29.5073  -22.7999   19.5743 C   0  0  0  0  0  0
  -29.0171  -21.5247   20.2108 N   0  0  0  0  0  0
  -29.8036  -16.0682   20.5323 N   0  0  0  0  0  0
  -27.1784  -21.9578   21.7724 O   0  0  0  0  0  0
  -31.4654  -12.6732   19.1795 H   0  0  0  0  0  0
  -30.3973  -11.5783   20.0144 H   0  0  0  0  0  0
  -29.8190  -11.7321   17.5591 H   0  0  0  0  0  0
  -29.6206  -13.4635   17.7027 H   0  0  0  0  0  0
  -27.9186  -11.2814   18.9401 H   0  0  0  0  0  0
  -27.3869  -12.4886   17.8022 H   0  0  0  0  0  0
  -27.6003  -14.2553   19.4258 H   0  0  0  0  0  0
  -28.7329  -12.2750   21.4580 H   0  0  0  0  0  0
  -28.3820  -13.9621   21.7538 H   0  0  0  0  0  0
  -25.2800   -9.5676   22.4760 H   0  0  0  0  0  0
  -24.0017   -7.4635   22.7465 H   0  0  0  0  0  0
  -21.0875   -8.8818   19.8952 H   0  0  0  0  0  0
  -22.3754  -10.9696   19.6177 H   0  0  0  0  0  0
  -21.2012   -7.6162   23.9739 H   0  0  0  0  0  0
  -21.1470   -6.0518   25.9081 H   0  0  0  0  0  0
  -22.0606   -2.7618   23.2835 H   0  0  0  0  0  0
  -22.4083  -11.9849   22.4806 H   0  0  0  0  0  0
  -21.1086  -13.1230   22.2667 H   0  0  0  0  0  0
  -24.6637  -15.8587   20.5497 H   0  0  0  0  0  0
  -26.2722  -15.6312   20.0923 H   0  0  0  0  0  0
  -26.7241  -32.5362   23.1030 H   0  0  0  0  0  0
  -25.0081  -33.9635   25.0362 H   0  0  0  0  0  0
  -22.7404  -31.2979   21.3810 H   0  0  0  0  0  0
  -23.3763  -35.9612   23.3285 H   0  0  0  0  0  0
  -24.3593  -36.8912   22.2055 H   0  0  0  0  0  0
  -23.7241  -37.6477   23.6676 H   0  0  0  0  0  0
  -26.1410  -31.4964   20.6135 H   0  0  0  0  0  0
  -26.8676  -30.7932   22.0239 H   0  0  0  0  0  0
  -28.1267  -28.8388   21.2466 H   0  0  0  0  0  0
  -25.9586  -25.8748   18.9870 H   0  0  0  0  0  0
  -23.9877  -27.3251   18.9542 H   0  0  0  0  0  0
  -23.7964  -30.5826   19.3978 H   0  0  0  0  0  0
  -22.7837  -29.2420   19.8392 H   0  0  0  0  0  0
  -25.1287  -36.1912   25.0827 H   0  0  0  0  0  0
  -21.0020  -28.3329   24.1349 H   0  0  0  0  0  0
  -20.5675  -26.2345   23.3626 H   0  0  0  0  0  0
  -21.6661  -26.7426   22.1199 H   0  0  0  0  0  0
  -19.6937  -25.6278   21.1251 H   0  0  0  0  0  0
  -19.6694  -27.3184   20.6734 H   0  0  0  0  0  0
  -17.4206  -26.6661   21.4044 H   0  0  0  0  0  0
  -18.0363  -26.0060   22.9025 H   0  0  0  0  0  0
  -19.7942  -30.7268   24.2281 H   0  0  0  0  0  0
  -17.5022  -31.6260   24.5165 H   0  0  0  0  0  0
  -15.5362  -30.3000   23.7619 H   0  0  0  0  0  0
  -15.8695  -28.0813   22.7079 H   0  0  0  0  0  0
  -24.5894  -30.7082   25.7721 H   0  0  0  0  0  0
  -24.8919  -32.2934   26.4774 H   0  0  0  0  0  0
  -25.8006  -30.8938   27.0206 H   0  0  0  0  0  0
  -26.2966  -29.6670   24.1253 H   0  0  0  0  0  0
  -27.3986  -29.7207   25.4787 H   0  0  0  0  0  0
  -27.8874  -30.4152   23.9537 H   0  0  0  0  0  0
  -27.2672  -33.3586   26.2049 H   0  0  0  0  0  0
  -28.3908  -32.6818   25.0337 H   0  0  0  0  0  0
  -28.0718  -31.8412   26.5415 H   0  0  0  0  0  0
  -28.2579  -38.0111   24.7499 H   0  0  0  0  0  0
  -28.1096  -36.2638   24.6284 H   0  0  0  0  0  0
  -27.2301  -37.1426   25.8860 H   0  0  0  0  0  0
  -20.9432  -29.8812   21.6821 H   0  0  0  0  0  0
  -26.0176  -38.2837   24.1382 H   0  0  0  0  0  0
  -32.1729  -19.0848   17.9006 H   0  0  0  0  0  0
  -31.0014  -21.0461   18.5646 H   0  0  0  0  0  0
  -31.6543  -16.8849   18.7370 H   0  0  0  0  0  0
  -28.5254  -18.6497   21.1657 H   0  0  0  0  0  0
  -27.1059  -24.9220   21.3349 H   0  0  0  0  0  0
  -30.5481  -23.0094   19.8262 H   0  0  0  0  0  0
  -29.3760  -22.7846   18.4907 H   0  0  0  0  0  0
  -28.8732  -15.9045   20.8888 H   0  0  0  0  0  0
  1 25  1  0  0  0
  1 30  2  0  0  0
  1 82  1  0  0  0
  2  3  1  0  0  0
  2 25  1  0  0  0
  2 84  1  0  0  0
  2 85  1  0  0  0
  3  4  1  0  0  0
  3 86  1  0  0  0
  3 87  1  0  0  0
  4  5  1  0  0  0
  4 88  1  0  0  0
  4 89  1  0  0  0
  5  6  1  0  0  0
  5 26  1  0  0  0
  5 90  1  0  0  0
  6 25  1  0  0  0
  6 91  1  0  0  0
  6 92  1  0  0  0
  7  8  2  0  0  0
  7 26  1  0  0  0
  7 29  1  0  0  0
  8  9  1  0  0  0
  8 22  1  0  0  0
  9 10  1  0  0  0
  9 27  2  0  0  0
 10 11  2  0  0  0
 10 15  1  0  0  0
 11 12  1  0  0  0
 11 93  1  0  0  0
 12 13  2  0  0  0
 12 94  1  0  0  0
 13 14  1  0  0  0
 13 31  1  0  0  0
 14 15  2  0  0  0
 14 95  1  0  0  0
 15 96  1  0  0  0
 16 17  2  0  0  0
 16 21  1  0  0  0
 16 31  1  0  0  0
 17 18  1  0  0  0
 17 97  1  0  0  0
 18 19  2  0  0  0
 18 98  1  0  0  0
 19 20  1  0  0  0
 19 24  1  0  0  0
 20 21  2  0  0  0
 20 99  1  0  0  0
 21 23  1  0  0  0
 22 28  1  0  0  0
 22 32  2  0  0  0
 26 27  1  0  0  0
 28100  1  0  0  0
 28101  1  0  0  0
 29102  1  0  0  0
 29103  1  0  0  0
 33 34  1  0  0  0
 33 66  1  0  0  0
 33 70  2  0  0  0
 34 36  1  0  0  0
 34 59  1  0  0  0
 34104  1  0  0  0
 35 44  2  0  0  0
 35 45  1  0  0  0
 35 68  1  0  0  0
 36 56  1  0  0  0
 36105  1  0  0  0
 37 39  1  0  0  0
 37 47  1  0  0  0
 37 66  1  0  0  0
 37106  1  0  0  0
 38 43  2  0  0  0
 38 46  1  0  0  0
 38 47  1  0  0  0
 39 64  1  0  0  0
 39 67  2  0  0  0
 40 52  1  0  0  0
 40 53  2  0  0  0
 40 58  1  0  0  0
 41107  1  0  0  0
 41108  1  0  0  0
 41109  1  0  0  0
 41 48  1  0  0  0
 42 43  1  0  0  0
 42 66  1  0  0  0
 42110  1  0  0  0
 42111  1  0  0  0
 43 44  1  0  0  0
 44112  1  0  0  0
 45 46  2  0  0  0
 45113  1  0  0  0
 46114  1  0  0  0
 47115  1  0  0  0
 47116  1  0  0  0
 48 56  1  0  0  0
 48 65  1  0  0  0
 48117  1  0  0  0
 49 50  1  0  0  0
 49 53  1  0  0  0
 49 64  1  0  0  0
 49118  1  0  0  0
 50 51  1  0  0  0
 50119  1  0  0  0
 50120  1  0  0  0
 51 52  1  0  0  0
 51121  1  0  0  0
 51122  1  0  0  0
 52123  1  0  0  0
 52124  1  0  0  0
 53 54  1  0  0  0
 54 55  2  0  0  0
 54125  1  0  0  0
 55 57  1  0  0  0
 55126  1  0  0  0
 56 69  2  0  0  0
 57 58  2  0  0  0
 57127  1  0  0  0
 58128  1  0  0  0
 59 60  1  0  0  0
 59 61  1  0  0  0
 59 62  1  0  0  0
 60129  1  0  0  0
 60130  1  0  0  0
 60131  1  0  0  0
 61132  1  0  0  0
 61133  1  0  0  0
 61134  1  0  0  0
 62135  1  0  0  0
 62136  1  0  0  0
 62137  1  0  0  0
 63 65  1  0  0  0
 63138  1  0  0  0
 63139  1  0  0  0
 63140  1  0  0  0
 64141  1  0  0  0
 65142  1  0  0  0
 68 79  1  0  0  0
 71 72  2  0  0  0
 71 73  1  0  0  0
 71143  1  0  0  0
 72 75  1  0  0  0
 72144  1  0  0  0
 73 76  2  0  0  0
 73145  1  0  0  0
 74 75  2  0  0  0
 74 76  1  0  0  0
 74146  1  0  0  0
 75 81  1  0  0  0
 76 82  1  0  0  0
 77 78  1  0  0  0
 77 79  2  0  0  0
 77 80  1  0  0  0
 78 81  1  0  0  0
 78 83  2  0  0  0
 79147  1  0  0  0
 80 81  1  0  0  0
 80148  1  0  0  0
 80149  1  0  0  0
 82150  1  0  0  0
M  ISO  4   1 100  68 101  79 101  82 100
M  END
> <chiral flag>
0

> <version>
0

> <s_m_source_file>
/data/baiqing/PycharmProjects/Reinvent-master-3.2/result/LINK_invent/BTK/process_docking_weight1_custom_product_contain_oxygen_bond_distance_aromatic_linkinvent_7_9_3/rearranged_h_0086.sdf

> <i_m_source_file_index>
29

> <r_mmod_Potential_Energy-OPLS-2005>
425.725402832031

> <r_mmod_Stretch_Energy-OPLS-2005>
189.669448852539

> <r_mmod_Bend_Energy-OPLS-2005>
286.754455566406

> <r_mmod_Torsional_Energy-OPLS-2005>
228.405700683594

> <r_mmod_Improper_Torsional_Energy-OPLS-2005>
3.88542342185974

> <r_mmod_Van_der_Waal_Energy-OPLS-2005>
138.61311340332

> <r_mmod_Electrostatic_Energy-OPLS-2005>
-353.397705078125

> <r_mmod_Solvation_Energy-OPLS-2005>
-220.498596191406

> <b_mmod_Minimization_Converged-OPLS-2005>
0

> <r_mmod_RMS_Derivative-OPLS-2005>
2.75652432441711

$$$$
29
                    3D
 Structure written by MMmdl.
157167  0  0  1  0            999 V2000
  -30.6797  -14.4855   20.5739 C   0  0  0  0  0  0
  -30.4328  -12.3147   19.4221 C   0  0  0  0  0  0
  -29.4989  -12.5089   18.2081 C   0  0  0  0  0  0
  -28.0197  -12.3664   18.6195 C   0  0  0  0  0  0
  -27.6653  -13.2031   19.8774 C   0  0  2  0  0  0
  -28.7061  -12.9688   20.9960 C   0  0  0  0  0  0
  -25.2613  -13.8151   20.5682 C   0  0  0  0  0  0
  -24.1852  -13.0437   20.9171 C   0  0  0  0  0  0
  -24.6395  -11.6902   20.8724 C   0  0  0  0  0  0
  -23.9057  -10.4292   21.0399 C   0  0  0  0  0  0
  -24.3610   -9.4210   21.9179 C   0  0  0  0  0  0
  -23.6288   -8.2245   22.0752 C   0  0  0  0  0  0
  -22.4268   -8.0282   21.3544 C   0  0  0  0  0  0
  -21.9901   -9.0254   20.4646 C   0  0  0  0  0  0
  -22.7228  -10.2134   20.3052 C   0  0  0  0  0  0
  -21.6852   -6.0735   22.5279 C   0  0  0  0  0  0
  -21.4013   -6.5639   23.8211 C   0  0  0  0  0  0
  -21.3660   -5.6791   24.9174 C   0  0  0  0  0  0
  -21.6043   -4.3055   24.7226 C   0  0  0  0  0  0
  -21.8820   -3.8147   23.4346 C   0  0  0  0  0  0
  -21.9193   -4.6962   22.3402 C   0  0  0  0  0  0
  -22.7876  -13.5244   21.1837 C   0  0  0  0  0  0
  -22.1663   -4.2148   21.0978 F   0  0  0  0  0  0
  -21.5628   -3.4539   25.7740 F   0  0  0  0  0  0
  -30.0401  -13.2886   20.4532 N   0  0  0  0  0  0
  -26.3044  -12.9312   20.3366 N   0  0  0  0  0  0
  -25.9321  -11.6474   20.5754 N   0  0  0  0  0  0
  -22.0512  -12.8243   22.0395 N   0  0  0  0  0  0
  -25.4360  -15.1869   20.4103 N   0  0  0  0  0  0
  -31.7943  -14.6960   20.0856 O   0  0  0  0  0  0
  -21.6636   -6.8877   21.4239 O   0  0  0  0  0  0
  -22.3563  -14.5552   20.6689 O   0  0  0  0  0  0
  -24.6157  -31.8675   23.2093 C   0  0  0  0  0  0
  -25.9044  -32.4822   23.8398 C   0  0  1  0  0  0
  -27.2357  -27.4274   20.1038 C   0  0  0  0  0  0
  -25.5893  -33.8621   24.2328 N   0  0  0  0  0  0
  -23.4049  -30.4910   21.5493 C   0  0  2  0  0  0
  -24.8535  -28.9563   20.1146 C   0  0  0  0  0  0
  -22.7418  -29.4662   22.4978 C   0  0  0  0  0  0
  -18.0276  -28.1387   22.8498 C   0  0  0  0  0  0
  -24.1486  -36.7318   23.2638 C   0  0  0  0  0  0
  -25.9348  -30.8319   21.3634 C   0  0  0  0  0  0
  -26.0145  -29.4657   20.7111 C   0  0  0  0  0  0
  -27.2115  -28.7104   20.6995 C   0  0  0  0  0  0
  -26.0611  -26.9397   19.4911 C   0  0  0  0  0  0
  -24.8724  -27.6928   19.4998 C   0  0  0  0  0  0
  -23.6147  -29.8225   20.1645 C   0  0  0  0  0  0
  -25.4106  -36.3112   24.0339 C   0  0  1  0  0  0
  -20.5868  -28.3678   23.1312 C   0  0  2  0  0  0
  -20.6766  -26.9412   22.5415 C   0  0  0  0  0  0
  -19.5740  -26.6392   21.5217 C   0  0  0  0  0  0
  -18.1921  -26.7935   22.1633 C   0  0  0  0  0  0
  -19.1526  -28.8850   23.2904 C   0  0  0  0  0  0
  -18.9454  -30.1455   23.8917 C   0  0  0  0  0  0
  -17.6455  -30.6593   24.0572 C   0  0  0  0  0  0
  -25.9032  -34.9476   23.5132 C   0  0  0  0  0  0
  -16.5347  -29.9098   23.6325 C   0  0  0  0  0  0
  -16.7265  -28.6513   23.0350 C   0  0  0  0  0  0
  -26.4472  -31.6599   25.0725 C   0  0  0  0  0  0
  -25.3742  -31.3707   26.1478 C   0  0  0  0  0  0
  -27.0302  -30.3039   24.6105 C   0  0  0  0  0  0
  -27.6052  -32.4314   25.7483 C   0  0  0  0  0  0
  -27.5580  -37.1812   24.8466 C   0  0  0  0  0  0
  -21.4143  -29.3044   22.3718 N   0  0  0  0  0  0
  -26.4292  -37.3793   23.9409 N   0  0  0  0  0  0
  -24.6699  -31.0776   22.0992 N   0  0  0  0  0  0
  -23.4182  -28.8202   23.3023 O   0  0  0  0  0  0
  -28.3812  -26.6565   20.1138 O   0  0  0  0  0  0
  -26.5597  -34.8926   22.4697 O   0  0  0  0  0  0
  -23.5347  -32.1424   23.7486 O   0  0  0  0  0  0
  -30.7732  -19.0202   20.1851 C   0  0  0  0  0  0
  -28.6764  -18.9510   21.3344 C   0  0  0  0  0  0
  -30.9264  -17.6218   20.3528 C   0  0  0  0  0  0
  -28.8122  -17.5571   21.5126 C   0  0  0  0  0  0
  -29.6401  -19.7364   20.6516 C   0  0  0  0  0  0
  -29.9314  -16.8618   21.0119 C   0  0  0  0  0  0
  -30.3382  -22.1654   18.3904 C   0  0  0  0  0  0
  -30.1739  -22.1128   19.7180 C   0  0  0  0  0  0
  -28.3721  -22.0018   20.5642 C   0  0  0  0  0  0
  -29.1770  -23.1453   18.2457 C   0  0  0  0  0  0
  -29.0972  -23.1599   19.8001 C   0  0  2  0  0  0
  -29.4305  -24.4252   20.6225 C   0  0  0  0  0  0
  -28.2342  -25.3973   20.8008 C   0  0  0  0  0  0
  -29.4919  -21.1475   20.4284 N   0  0  0  0  0  0
  -29.9601  -15.4403   21.2011 N   0  0  0  0  0  0
  -27.2804  -21.8393   21.0706 O   0  0  0  0  0  0
  -31.4751  -12.4269   19.1187 H   0  0  0  0  0  0
  -30.3460  -11.3006   19.8149 H   0  0  0  0  0  0
  -29.7398  -11.7842   17.4290 H   0  0  0  0  0  0
  -29.6644  -13.4947   17.7700 H   0  0  0  0  0  0
  -27.8314  -11.3099   18.8144 H   0  0  0  0  0  0
  -27.3687  -12.6414   17.7886 H   0  0  0  0  0  0
  -27.7137  -14.2525   19.5857 H   0  0  0  0  0  0
  -28.6860  -11.9260   21.3162 H   0  0  0  0  0  0
  -28.4573  -13.5440   21.8883 H   0  0  0  0  0  0
  -25.2755   -9.5685   22.4749 H   0  0  0  0  0  0
  -23.9999   -7.4636   22.7468 H   0  0  0  0  0  0
  -21.0833   -8.8771   19.8952 H   0  0  0  0  0  0
  -22.3687  -10.9671   19.6160 H   0  0  0  0  0  0
  -21.2005   -7.6146   23.9716 H   0  0  0  0  0  0
  -21.1479   -6.0521   25.9076 H   0  0  0  0  0  0
  -22.0599   -2.7608   23.2849 H   0  0  0  0  0  0
  -22.4125  -11.9904   22.4786 H   0  0  0  0  0  0
  -21.1131  -13.1274   22.2600 H   0  0  0  0  0  0
  -24.6705  -15.8438   20.5147 H   0  0  0  0  0  0
  -26.2897  -15.6225   20.0843 H   0  0  0  0  0  0
  -26.7119  -32.5538   23.1168 H   0  0  0  0  0  0
  -25.0044  -33.9786   25.0474 H   0  0  0  0  0  0
  -22.6937  -31.3075   21.4090 H   0  0  0  0  0  0
  -23.3736  -35.9664   23.3323 H   0  0  0  0  0  0
  -24.3574  -36.8909   22.2046 H   0  0  0  0  0  0
  -23.7253  -37.6538   23.6637 H   0  0  0  0  0  0
  -26.0471  -31.5968   20.5936 H   0  0  0  0  0  0
  -26.8227  -30.8874   21.9819 H   0  0  0  0  0  0
  -28.1071  -29.0985   21.1644 H   0  0  0  0  0  0
  -26.0608  -25.9744   19.0050 H   0  0  0  0  0  0
  -23.9820  -27.2964   19.0311 H   0  0  0  0  0  0
  -23.7228  -30.5961   19.4034 H   0  0  0  0  0  0
  -22.7393  -29.2410   19.8693 H   0  0  0  0  0  0
  -25.1278  -36.1982   25.0830 H   0  0  0  0  0  0
  -20.9971  -28.3251   24.1429 H   0  0  0  0  0  0
  -20.5678  -26.2285   23.3603 H   0  0  0  0  0  0
  -21.6636  -26.7457   22.1203 H   0  0  0  0  0  0
  -19.6896  -25.6307   21.1236 H   0  0  0  0  0  0
  -19.6673  -27.3211   20.6755 H   0  0  0  0  0  0
  -17.4186  -26.6686   21.4039 H   0  0  0  0  0  0
  -18.0321  -26.0074   22.9027 H   0  0  0  0  0  0
  -19.7930  -30.7269   24.2290 H   0  0  0  0  0  0
  -17.5011  -31.6272   24.5174 H   0  0  0  0  0  0
  -15.5349  -30.3008   23.7641 H   0  0  0  0  0  0
  -15.8662  -28.0841   22.7055 H   0  0  0  0  0  0
  -24.5894  -30.7083   25.7811 H   0  0  0  0  0  0
  -24.8964  -32.2869   26.4958 H   0  0  0  0  0  0
  -25.8094  -30.8841   27.0216 H   0  0  0  0  0  0
  -26.2849  -29.6800   24.1157 H   0  0  0  0  0  0
  -27.4067  -29.7275   25.4565 H   0  0  0  0  0  0
  -27.8686  -30.4354   23.9260 H   0  0  0  0  0  0
  -27.2675  -33.3596   26.2105 H   0  0  0  0  0  0
  -28.3838  -32.6903   25.0295 H   0  0  0  0  0  0
  -28.0750  -31.8413   26.5362 H   0  0  0  0  0  0
  -28.2608  -38.0100   24.7503 H   0  0  0  0  0  0
  -28.1065  -36.2632   24.6300 H   0  0  0  0  0  0
  -27.2299  -37.1479   25.8870 H   0  0  0  0  0  0
  -20.9299  -29.8772   21.6947 H   0  0  0  0  0  0
  -26.0185  -38.2875   24.1400 H   0  0  0  0  0  0
  -31.5534  -19.5563   19.6638 H   0  0  0  0  0  0
  -27.7871  -19.4173   21.7321 H   0  0  0  0  0  0
  -31.8159  -17.1554   19.9559 H   0  0  0  0  0  0
  -28.0274  -17.0233   22.0305 H   0  0  0  0  0  0
  -30.7751  -21.4815   17.6667 H   0  0  0  0  0  0
  -28.2612  -22.7669   17.7889 H   0  0  0  0  0  0
  -29.4097  -24.1281   17.8346 H   0  0  0  0  0  0
  -30.2747  -24.9563   20.1829 H   0  0  0  0  0  0
  -29.7730  -24.1274   21.6147 H   0  0  0  0  0  0
  -28.1259  -25.6238   21.8631 H   0  0  0  0  0  0
  -27.3151  -24.8832   20.5200 H   0  0  0  0  0  0
  -29.1454  -15.0636   21.6611 H   0  0  0  0  0  0
  1 25  1  0  0  0
  1 30  2  0  0  0
  1 85  1  0  0  0
  2  3  1  0  0  0
  2 25  1  0  0  0
  2 87  1  0  0  0
  2 88  1  0  0  0
  3  4  1  0  0  0
  3 89  1  0  0  0
  3 90  1  0  0  0
  4  5  1  0  0  0
  4 91  1  0  0  0
  4 92  1  0  0  0
  5  6  1  0  0  0
  5 26  1  0  0  0
  5 93  1  0  0  0
  6 25  1  0  0  0
  6 94  1  0  0  0
  6 95  1  0  0  0
  7  8  2  0  0  0
  7 26  1  0  0  0
  7 29  1  0  0  0
  8  9  1  0  0  0
  8 22  1  0  0  0
  9 10  1  0  0  0
  9 27  2  0  0  0
 10 11  2  0  0  0
 10 15  1  0  0  0
 11 12  1  0  0  0
 11 96  1  0  0  0
 12 13  2  0  0  0
 12 97  1  0  0  0
 13 14  1  0  0  0
 13 31  1  0  0  0
 14 15  2  0  0  0
 14 98  1  0  0  0
 15 99  1  0  0  0
 16 17  2  0  0  0
 16 21  1  0  0  0
 16 31  1  0  0  0
 17 18  1  0  0  0
 17100  1  0  0  0
 18 19  2  0  0  0
 18101  1  0  0  0
 19 20  1  0  0  0
 19 24  1  0  0  0
 20 21  2  0  0  0
 20102  1  0  0  0
 21 23  1  0  0  0
 22 28  1  0  0  0
 22 32  2  0  0  0
 26 27  1  0  0  0
 28103  1  0  0  0
 28104  1  0  0  0
 29105  1  0  0  0
 29106  1  0  0  0
 33 34  1  0  0  0
 33 66  1  0  0  0
 33 70  2  0  0  0
 34 36  1  0  0  0
 34 59  1  0  0  0
 34107  1  0  0  0
 35 44  2  0  0  0
 35 45  1  0  0  0
 35 68  1  0  0  0
 36 56  1  0  0  0
 36108  1  0  0  0
 37 39  1  0  0  0
 37 47  1  0  0  0
 37 66  1  0  0  0
 37109  1  0  0  0
 38 43  2  0  0  0
 38 46  1  0  0  0
 38 47  1  0  0  0
 39 64  1  0  0  0
 39 67  2  0  0  0
 40 52  1  0  0  0
 40 53  2  0  0  0
 40 58  1  0  0  0
 41110  1  0  0  0
 41111  1  0  0  0
 41112  1  0  0  0
 41 48  1  0  0  0
 42 43  1  0  0  0
 42 66  1  0  0  0
 42113  1  0  0  0
 42114  1  0  0  0
 43 44  1  0  0  0
 44115  1  0  0  0
 45 46  2  0  0  0
 45116  1  0  0  0
 46117  1  0  0  0
 47118  1  0  0  0
 47119  1  0  0  0
 48 56  1  0  0  0
 48 65  1  0  0  0
 48120  1  0  0  0
 49 50  1  0  0  0
 49 53  1  0  0  0
 49 64  1  0  0  0
 49121  1  0  0  0
 50 51  1  0  0  0
 50122  1  0  0  0
 50123  1  0  0  0
 51 52  1  0  0  0
 51124  1  0  0  0
 51125  1  0  0  0
 52126  1  0  0  0
 52127  1  0  0  0
 53 54  1  0  0  0
 54 55  2  0  0  0
 54128  1  0  0  0
 55 57  1  0  0  0
 55129  1  0  0  0
 56 69  2  0  0  0
 57 58  2  0  0  0
 57130  1  0  0  0
 58131  1  0  0  0
 59 60  1  0  0  0
 59 61  1  0  0  0
 59 62  1  0  0  0
 60132  1  0  0  0
 60133  1  0  0  0
 60134  1  0  0  0
 61135  1  0  0  0
 61136  1  0  0  0
 61137  1  0  0  0
 62138  1  0  0  0
 62139  1  0  0  0
 62140  1  0  0  0
 63 65  1  0  0  0
 63141  1  0  0  0
 63142  1  0  0  0
 63143  1  0  0  0
 64144  1  0  0  0
 65145  1  0  0  0
 68 83  1  0  0  0
 71 73  2  0  0  0
 71 75  1  0  0  0
 71146  1  0  0  0
 72 74  1  0  0  0
 72 75  2  0  0  0
 72147  1  0  0  0
 73 76  1  0  0  0
 73148  1  0  0  0
 74 76  2  0  0  0
 74149  1  0  0  0
 75 84  1  0  0  0
 76 85  1  0  0  0
 77 78  2  0  0  0
 77 80  1  0  0  0
 77150  1  0  0  0
 78 81  1  0  0  0
 78 84  1  0  0  0
 79 81  1  0  0  0
 79 84  1  0  0  0
 79 86  2  0  0  0
 80 81  1  0  0  0
 80151  1  0  0  0
 80152  1  0  0  0
 81 82  1  0  0  0
 82 83  1  0  0  0
 82153  1  0  0  0
 82154  1  0  0  0
 83155  1  0  0  0
 83156  1  0  0  0
 85157  1  0  0  0
M  ISO  4   1 100  68 101  83 101  85 100
M  END
> <chiral flag>
0

> <version>
0

> <s_m_source_file>
/data/baiqing/PycharmProjects/Reinvent-master-3.2/result/LINK_invent/BTK/process_docking_weight1_custom_product_contain_oxygen_bond_distance_aromatic_linkinvent_7_9_3/rearranged_h_0086.sdf

> <i_m_source_file_index>
30

> <r_mmod_Potential_Energy-OPLS-2005>
82.5303421020508

> <r_mmod_Stretch_Energy-OPLS-2005>
42.7523803710938

> <r_mmod_Bend_Energy-OPLS-2005>
129.746322631836

> <r_mmod_Torsional_Energy-OPLS-2005>
351.282012939453

> <r_mmod_Improper_Torsional_Energy-OPLS-2005>
15.4130268096924

> <r_mmod_Van_der_Waal_Energy-OPLS-2005>
154.138534545898

> <r_mmod_Electrostatic_Energy-OPLS-2005>
-413.521270751953

> <r_mmod_Solvation_Energy-OPLS-2005>
-210.96435546875

> <b_mmod_Minimization_Converged-OPLS-2005>
0

> <r_mmod_RMS_Derivative-OPLS-2005>
0.690946877002716

$$$$
30
                    3D
 Structure written by MMmdl.
156165  0  0  1  0            999 V2000
  -30.6054  -14.8411   20.4958 C   0  0  0  0  0  0
  -30.4336  -12.5310   19.4894 C   0  0  0  0  0  0
  -29.5160  -12.5362   18.2456 C   0  0  0  0  0  0
  -28.0443  -12.3355   18.6527 C   0  0  0  0  0  0
  -27.6363  -13.2390   19.8446 C   0  0  2  0  0  0
  -28.6747  -13.1918   20.9814 C   0  0  0  0  0  0
  -25.2496  -13.8209   20.5701 C   0  0  0  0  0  0
  -24.1792  -13.0441   20.9193 C   0  0  0  0  0  0
  -24.6389  -11.6921   20.8727 C   0  0  0  0  0  0
  -23.9067  -10.4296   21.0393 C   0  0  0  0  0  0
  -24.3623   -9.4214   21.9172 C   0  0  0  0  0  0
  -23.6298   -8.2249   22.0749 C   0  0  0  0  0  0
  -22.4278   -8.0285   21.3542 C   0  0  0  0  0  0
  -21.9912   -9.0254   20.4643 C   0  0  0  0  0  0
  -22.7239  -10.2132   20.3048 C   0  0  0  0  0  0
  -21.6857   -6.0735   22.5278 C   0  0  0  0  0  0
  -21.4017   -6.5637   23.8212 C   0  0  0  0  0  0
  -21.3660   -5.6791   24.9173 C   0  0  0  0  0  0
  -21.6047   -4.3053   24.7228 C   0  0  0  0  0  0
  -21.8820   -3.8148   23.4349 C   0  0  0  0  0  0
  -21.9196   -4.6963   22.3404 C   0  0  0  0  0  0
  -22.7821  -13.5221   21.1870 C   0  0  0  0  0  0
  -22.1661   -4.2146   21.0981 F   0  0  0  0  0  0
  -21.5629   -3.4539   25.7741 F   0  0  0  0  0  0
  -29.9680  -13.6050   20.4121 N   0  0  0  0  0  0
  -26.2908  -12.9419   20.3235 N   0  0  0  0  0  0
  -25.9318  -11.6551   20.5712 N   0  0  0  0  0  0
  -22.0476  -12.8201   22.0430 N   0  0  0  0  0  0
  -25.4213  -15.1939   20.4174 N   0  0  0  0  0  0
  -31.7718  -14.9056   20.0915 O   0  0  0  0  0  0
  -21.6644   -6.8880   21.4242 O   0  0  0  0  0  0
  -22.3495  -14.5527   20.6728 O   0  0  0  0  0  0
  -24.6373  -31.8502   23.1941 C   0  0  0  0  0  0
  -25.9171  -32.4732   23.8309 C   0  0  1  0  0  0
  -27.2201  -27.2089   20.1408 C   0  0  0  0  0  0
  -25.5941  -33.8537   24.2222 N   0  0  0  0  0  0
  -23.4391  -30.4702   21.5382 C   0  0  2  0  0  0
  -24.8907  -28.9091   20.1105 C   0  0  0  0  0  0
  -22.7539  -29.4578   22.4892 C   0  0  0  0  0  0
  -18.0298  -28.1397   22.8489 C   0  0  0  0  0  0
  -24.1480  -36.7268   23.2642 C   0  0  0  0  0  0
  -25.9901  -30.7460   21.3837 C   0  0  0  0  0  0
  -26.0655  -29.3631   20.7266 C   0  0  0  0  0  0
  -27.2362  -28.5251   20.7327 C   0  0  0  0  0  0
  -26.0267  -26.8393   19.4886 C   0  0  0  0  0  0
  -24.8788  -27.6564   19.4786 C   0  0  0  0  0  0
  -23.6625  -29.8011   20.1565 C   0  0  0  0  0  0
  -25.4115  -36.3058   24.0315 C   0  0  1  0  0  0
  -20.5908  -28.3719   23.1258 C   0  0  2  0  0  0
  -20.6780  -26.9423   22.5430 C   0  0  0  0  0  0
  -19.5758  -26.6385   21.5229 C   0  0  0  0  0  0
  -18.1929  -26.7943   22.1615 C   0  0  0  0  0  0
  -19.1554  -28.8874   23.2863 C   0  0  0  0  0  0
  -18.9473  -30.1476   23.8877 C   0  0  0  0  0  0
  -17.6471  -30.6593   24.0572 C   0  0  0  0  0  0
  -25.9064  -34.9430   23.5074 C   0  0  0  0  0  0
  -16.5361  -29.9091   23.6341 C   0  0  0  0  0  0
  -16.7285  -28.6513   23.0357 C   0  0  0  0  0  0
  -26.4506  -31.6588   25.0731 C   0  0  0  0  0  0
  -25.3693  -31.3768   26.1429 C   0  0  0  0  0  0
  -27.0373  -30.2994   24.6280 C   0  0  0  0  0  0
  -27.6044  -32.4350   25.7505 C   0  0  0  0  0  0
  -27.5580  -37.1787   24.8456 C   0  0  0  0  0  0
  -21.4238  -29.3051   22.3632 N   0  0  0  0  0  0
  -26.4281  -37.3772   23.9412 N   0  0  0  0  0  0
  -24.7080  -31.0415   22.0944 N   0  0  0  0  0  0
  -23.4206  -28.8121   23.3017 O   0  0  0  0  0  0
  -28.2412  -26.2144   20.1849 O   0  0  0  0  0  0
  -26.5649  -34.8915   22.4652 O   0  0  0  0  0  0
  -23.5505  -32.1347   23.7197 O   0  0  0  0  0  0
  -30.4845  -18.7193   18.2237 C   0  0  0  0  0  0
  -30.0185  -19.9273   18.7828 C   0  0  0  0  0  0
  -30.4303  -17.4924   18.9160 C   0  0  0  0  0  0
  -29.4508  -19.9881   20.0771 C   0  0  0  0  0  0
  -29.9176  -17.3931   20.2303 C   0  0  0  0  0  0
  -29.4111  -18.6807   20.7749 C   0  0  0  0  0  0
  -28.2204  -23.6286   20.9197 C   0  0  0  0  0  0
  -29.0174  -22.6549   20.0896 C   0  0  0  0  0  0
  -27.9339  -25.0136   20.9144 C   0  0  0  0  0  0
  -27.6011  -22.7880   22.0087 C   0  0  0  0  0  0
  -28.1153  -21.3543   21.8050 C   0  0  0  0  0  0
  -29.5654  -16.0221   22.3292 C   0  0  0  0  0  0
  -28.9209  -21.3302   20.5849 N   0  0  0  0  0  0
  -29.9295  -16.0204   20.9069 N   0  0  0  0  0  0
  -29.6828  -22.9789   19.1024 O   0  0  0  0  0  0
  -28.8557  -18.6664   22.0093 F   0  0  0  0  0  0
  -31.4717  -12.6652   19.1821 H   0  0  0  0  0  0
  -30.4026  -11.5611   19.9870 H   0  0  0  0  0  0
  -29.8214  -11.7578   17.5450 H   0  0  0  0  0  0
  -29.6243  -13.4847   17.7165 H   0  0  0  0  0  0
  -27.9169  -11.2869   18.9239 H   0  0  0  0  0  0
  -27.3871  -12.5116   17.8005 H   0  0  0  0  0  0
  -27.6242  -14.2594   19.4603 H   0  0  0  0  0  0
  -28.7414  -12.1884   21.4051 H   0  0  0  0  0  0
  -28.3495  -13.8314   21.7970 H   0  0  0  0  0  0
  -25.2765   -9.5698   22.4745 H   0  0  0  0  0  0
  -24.0012   -7.4645   22.7469 H   0  0  0  0  0  0
  -21.0844   -8.8773   19.8951 H   0  0  0  0  0  0
  -22.3690  -10.9672   19.6164 H   0  0  0  0  0  0
  -21.2005   -7.6145   23.9713 H   0  0  0  0  0  0
  -21.1482   -6.0520   25.9074 H   0  0  0  0  0  0
  -22.0596   -2.7610   23.2853 H   0  0  0  0  0  0
  -22.4104  -11.9866   22.4811 H   0  0  0  0  0  0
  -21.1096  -13.1221   22.2650 H   0  0  0  0  0  0
  -24.6630  -15.8553   20.5447 H   0  0  0  0  0  0
  -26.2882  -15.6336   20.1346 H   0  0  0  0  0  0
  -26.7245  -32.5363   23.1055 H   0  0  0  0  0  0
  -25.0079  -33.9662   25.0362 H   0  0  0  0  0  0
  -22.7390  -31.2945   21.3867 H   0  0  0  0  0  0
  -23.3759  -35.9584   23.3286 H   0  0  0  0  0  0
  -24.3565  -36.8927   22.2064 H   0  0  0  0  0  0
  -23.7213  -37.6444   23.6694 H   0  0  0  0  0  0
  -26.1357  -31.5021   20.6110 H   0  0  0  0  0  0
  -26.8645  -30.7979   22.0214 H   0  0  0  0  0  0
  -28.1310  -28.8598   21.2386 H   0  0  0  0  0  0
  -25.9704  -25.8700   19.0132 H   0  0  0  0  0  0
  -23.9809  -27.3019   18.9912 H   0  0  0  0  0  0
  -23.7891  -30.5743   19.3980 H   0  0  0  0  0  0
  -22.7803  -29.2358   19.8515 H   0  0  0  0  0  0
  -25.1298  -36.1896   25.0807 H   0  0  0  0  0  0
  -21.0000  -28.3317   24.1381 H   0  0  0  0  0  0
  -20.5678  -26.2334   23.3645 H   0  0  0  0  0  0
  -21.6647  -26.7430   22.1238 H   0  0  0  0  0  0
  -19.6918  -25.6296   21.1263 H   0  0  0  0  0  0
  -19.6700  -27.3191   20.6755 H   0  0  0  0  0  0
  -17.4216  -26.6738   21.3989 H   0  0  0  0  0  0
  -18.0279  -26.0075   22.8990 H   0  0  0  0  0  0
  -19.7943  -30.7311   24.2224 H   0  0  0  0  0  0
  -17.5019  -31.6257   24.5199 H   0  0  0  0  0  0
  -15.5359  -30.2992   23.7673 H   0  0  0  0  0  0
  -15.8688  -28.0837   22.7070 H   0  0  0  0  0  0
  -24.5959  -30.6989   25.7795 H   0  0  0  0  0  0
  -24.8754  -32.2928   26.4681 H   0  0  0  0  0  0
  -25.7997  -30.9126   27.0312 H   0  0  0  0  0  0
  -26.2993  -29.6727   24.1261 H   0  0  0  0  0  0
  -27.3984  -29.7280   25.4844 H   0  0  0  0  0  0
  -27.8894  -30.4253   23.9596 H   0  0  0  0  0  0
  -27.2650  -33.3685   26.2007 H   0  0  0  0  0  0
  -28.3884  -32.6857   25.0347 H   0  0  0  0  0  0
  -28.0674  -31.8522   26.5480 H   0  0  0  0  0  0
  -28.2586  -38.0096   24.7530 H   0  0  0  0  0  0
  -28.1085  -36.2629   24.6242 H   0  0  0  0  0  0
  -27.2303  -37.1396   25.8860 H   0  0  0  0  0  0
  -20.9440  -29.8772   21.6823 H   0  0  0  0  0  0
  -26.0150  -38.2835   24.1450 H   0  0  0  0  0  0
  -30.8961  -18.7345   17.2237 H   0  0  0  0  0  0
  -30.0902  -20.8090   18.1653 H   0  0  0  0  0  0
  -30.8070  -16.6205   18.4020 H   0  0  0  0  0  0
  -27.2826  -25.3172   21.7236 H   0  0  0  0  0  0
  -26.5137  -22.8255   21.9315 H   0  0  0  0  0  0
  -27.8797  -23.1697   22.9920 H   0  0  0  0  0  0
  -27.2812  -20.6562   21.7234 H   0  0  0  0  0  0
  -28.7281  -21.0509   22.6552 H   0  0  0  0  0  0
  -30.0963  -16.8153   22.8567 H   0  0  0  0  0  0
  -29.8293  -15.1033   22.8565 H   0  0  0  0  0  0
  -28.4930  -16.1815   22.4492 H   0  0  0  0  0  0
  1 25  1  0  0  0
  1 30  2  0  0  0
  1 84  1  0  0  0
  2  3  1  0  0  0
  2 25  1  0  0  0
  2 87  1  0  0  0
  2 88  1  0  0  0
  3  4  1  0  0  0
  3 89  1  0  0  0
  3 90  1  0  0  0
  4  5  1  0  0  0
  4 91  1  0  0  0
  4 92  1  0  0  0
  5  6  1  0  0  0
  5 26  1  0  0  0
  5 93  1  0  0  0
  6 25  1  0  0  0
  6 94  1  0  0  0
  6 95  1  0  0  0
  7  8  2  0  0  0
  7 26  1  0  0  0
  7 29  1  0  0  0
  8  9  1  0  0  0
  8 22  1  0  0  0
  9 10  1  0  0  0
  9 27  2  0  0  0
 10 11  2  0  0  0
 10 15  1  0  0  0
 11 12  1  0  0  0
 11 96  1  0  0  0
 12 13  2  0  0  0
 12 97  1  0  0  0
 13 14  1  0  0  0
 13 31  1  0  0  0
 14 15  2  0  0  0
 14 98  1  0  0  0
 15 99  1  0  0  0
 16 17  2  0  0  0
 16 21  1  0  0  0
 16 31  1  0  0  0
 17 18  1  0  0  0
 17100  1  0  0  0
 18 19  2  0  0  0
 18101  1  0  0  0
 19 20  1  0  0  0
 19 24  1  0  0  0
 20 21  2  0  0  0
 20102  1  0  0  0
 21 23  1  0  0  0
 22 28  1  0  0  0
 22 32  2  0  0  0
 26 27  1  0  0  0
 28103  1  0  0  0
 28104  1  0  0  0
 29105  1  0  0  0
 29106  1  0  0  0
 33 34  1  0  0  0
 33 66  1  0  0  0
 33 70  2  0  0  0
 34 36  1  0  0  0
 34 59  1  0  0  0
 34107  1  0  0  0
 35 44  2  0  0  0
 35 45  1  0  0  0
 35 68  1  0  0  0
 36 56  1  0  0  0
 36108  1  0  0  0
 37 39  1  0  0  0
 37 47  1  0  0  0
 37 66  1  0  0  0
 37109  1  0  0  0
 38 43  2  0  0  0
 38 46  1  0  0  0
 38 47  1  0  0  0
 39 64  1  0  0  0
 39 67  2  0  0  0
 40 52  1  0  0  0
 40 53  2  0  0  0
 40 58  1  0  0  0
 41110  1  0  0  0
 41111  1  0  0  0
 41112  1  0  0  0
 41 48  1  0  0  0
 42 43  1  0  0  0
 42 66  1  0  0  0
 42113  1  0  0  0
 42114  1  0  0  0
 43 44  1  0  0  0
 44115  1  0  0  0
 45 46  2  0  0  0
 45116  1  0  0  0
 46117  1  0  0  0
 47118  1  0  0  0
 47119  1  0  0  0
 48 56  1  0  0  0
 48 65  1  0  0  0
 48120  1  0  0  0
 49 50  1  0  0  0
 49 53  1  0  0  0
 49 64  1  0  0  0
 49121  1  0  0  0
 50 51  1  0  0  0
 50122  1  0  0  0
 50123  1  0  0  0
 51 52  1  0  0  0
 51124  1  0  0  0
 51125  1  0  0  0
 52126  1  0  0  0
 52127  1  0  0  0
 53 54  1  0  0  0
 54 55  2  0  0  0
 54128  1  0  0  0
 55 57  1  0  0  0
 55129  1  0  0  0
 56 69  2  0  0  0
 57 58  2  0  0  0
 57130  1  0  0  0
 58131  1  0  0  0
 59 60  1  0  0  0
 59 61  1  0  0  0
 59 62  1  0  0  0
 60132  1  0  0  0
 60133  1  0  0  0
 60134  1  0  0  0
 61135  1  0  0  0
 61136  1  0  0  0
 61137  1  0  0  0
 62138  1  0  0  0
 62139  1  0  0  0
 62140  1  0  0  0
 63 65  1  0  0  0
 63141  1  0  0  0
 63142  1  0  0  0
 63143  1  0  0  0
 64144  1  0  0  0
 65145  1  0  0  0
 68 79  1  0  0  0
 71 72  2  0  0  0
 71 73  1  0  0  0
 71146  1  0  0  0
 72 74  1  0  0  0
 72147  1  0  0  0
 73 75  2  0  0  0
 73148  1  0  0  0
 74 76  2  0  0  0
 74 83  1  0  0  0
 75 76  1  0  0  0
 75 84  1  0  0  0
 76 86  1  0  0  0
 77 78  1  0  0  0
 77 79  2  0  0  0
 77 80  1  0  0  0
 78 83  1  0  0  0
 78 85  2  0  0  0
 79149  1  0  0  0
 80 81  1  0  0  0
 80150  1  0  0  0
 80151  1  0  0  0
 81 83  1  0  0  0
 81152  1  0  0  0
 81153  1  0  0  0
 82 84  1  0  0  0
 82154  1  0  0  0
 82155  1  0  0  0
 82156  1  0  0  0
M  ISO  4   1 100  68 101  79 101  84 100
M  END
> <chiral flag>
0

> <version>
0

> <s_m_source_file>
/data/baiqing/PycharmProjects/Reinvent-master-3.2/result/LINK_invent/BTK/process_docking_weight1_custom_product_contain_oxygen_bond_distance_aromatic_linkinvent_7_9_3/rearranged_h_0086.sdf

> <i_m_source_file_index>
31

> <r_mmod_Potential_Energy-OPLS-2005>
595.77880859375

> <r_mmod_Stretch_Energy-OPLS-2005>
190.275283813477

> <r_mmod_Bend_Energy-OPLS-2005>
275.148773193359

> <r_mmod_Torsional_Energy-OPLS-2005>
320.135223388672

> <r_mmod_Improper_Torsional_Energy-OPLS-2005>
3.56259608268738

> <r_mmod_Van_der_Waal_Energy-OPLS-2005>
148.399871826172

> <r_mmod_Electrostatic_Energy-OPLS-2005>
-276.916778564453

> <r_mmod_Solvation_Energy-OPLS-2005>
-195.161087036133

> <b_mmod_Minimization_Converged-OPLS-2005>
0

> <r_mmod_RMS_Derivative-OPLS-2005>
1.04954540729523

$$$$
31
                    3D
 Structure written by MMmdl.
158167  0  0  1  0            999 V2000
  -30.6165  -14.8061   20.4937 C   0  0  0  0  0  0
  -30.4323  -12.5156   19.4637 C   0  0  0  0  0  0
  -29.5061  -12.5316   18.2277 C   0  0  0  0  0  0
  -28.0311  -12.3444   18.6363 C   0  0  0  0  0  0
  -27.6362  -13.2317   19.8460 C   0  0  2  0  0  0
  -28.6821  -13.1285   20.9696 C   0  0  0  0  0  0
  -25.2489  -13.8190   20.5665 C   0  0  0  0  0  0
  -24.1787  -13.0432   20.9181 C   0  0  0  0  0  0
  -24.6382  -11.6910   20.8731 C   0  0  0  0  0  0
  -23.9056  -10.4295   21.0406 C   0  0  0  0  0  0
  -24.3611   -9.4215   21.9185 C   0  0  0  0  0  0
  -23.6287   -8.2250   22.0754 C   0  0  0  0  0  0
  -22.4270   -8.0281   21.3541 C   0  0  0  0  0  0
  -21.9907   -9.0254   20.4642 C   0  0  0  0  0  0
  -22.7232  -10.2135   20.3053 C   0  0  0  0  0  0
  -21.6858   -6.0730   22.5271 C   0  0  0  0  0  0
  -21.4015   -6.5636   23.8203 C   0  0  0  0  0  0
  -21.3664   -5.6791   24.9169 C   0  0  0  0  0  0
  -21.6056   -4.3053   24.7221 C   0  0  0  0  0  0
  -21.8822   -3.8140   23.4342 C   0  0  0  0  0  0
  -21.9192   -4.6957   22.3395 C   0  0  0  0  0  0
  -22.7815  -13.5217   21.1859 C   0  0  0  0  0  0
  -22.1656   -4.2141   21.0971 F   0  0  0  0  0  0
  -21.5634   -3.4539   25.7734 F   0  0  0  0  0  0
  -29.9639  -13.5783   20.3975 N   0  0  0  0  0  0
  -26.2903  -12.9390   20.3242 N   0  0  0  0  0  0
  -25.9303  -11.6532   20.5710 N   0  0  0  0  0  0
  -22.0472  -12.8201   22.0418 N   0  0  0  0  0  0
  -25.4191  -15.1911   20.4076 N   0  0  0  0  0  0
  -31.8103  -14.8110   20.1768 O   0  0  0  0  0  0
  -21.6642   -6.8871   21.4230 O   0  0  0  0  0  0
  -22.3490  -14.5531   20.6718 O   0  0  0  0  0  0
  -24.6364  -31.8537   23.1941 C   0  0  0  0  0  0
  -25.9181  -32.4746   23.8300 C   0  0  1  0  0  0
  -27.2164  -27.2388   20.1344 C   0  0  0  0  0  0
  -25.5971  -33.8545   24.2243 N   0  0  0  0  0  0
  -23.4330  -30.4767   21.5399 C   0  0  2  0  0  0
  -24.8781  -28.9153   20.1169 C   0  0  0  0  0  0
  -22.7517  -29.4615   22.4896 C   0  0  0  0  0  0
  -18.0295  -28.1390   22.8485 C   0  0  0  0  0  0
  -24.1489  -36.7260   23.2635 C   0  0  0  0  0  0
  -25.9807  -30.7627   21.3704 C   0  0  0  0  0  0
  -26.0554  -29.3811   20.7165 C   0  0  0  0  0  0
  -27.2344  -28.5617   20.7015 C   0  0  0  0  0  0
  -26.0079  -26.8357   19.5321 C   0  0  0  0  0  0
  -24.8597  -27.6492   19.5130 C   0  0  0  0  0  0
  -23.6527  -29.8090   20.1578 C   0  0  0  0  0  0
  -25.4114  -36.3055   24.0329 C   0  0  1  0  0  0
  -20.5907  -28.3716   23.1242 C   0  0  2  0  0  0
  -20.6787  -26.9432   22.5382 C   0  0  0  0  0  0
  -19.5750  -26.6392   21.5200 C   0  0  0  0  0  0
  -18.1936  -26.7933   22.1622 C   0  0  0  0  0  0
  -19.1553  -28.8868   23.2864 C   0  0  0  0  0  0
  -18.9483  -30.1471   23.8886 C   0  0  0  0  0  0
  -17.6483  -30.6597   24.0571 C   0  0  0  0  0  0
  -25.9066  -34.9432   23.5080 C   0  0  0  0  0  0
  -16.5371  -29.9098   23.6338 C   0  0  0  0  0  0
  -16.7285  -28.6514   23.0358 C   0  0  0  0  0  0
  -26.4539  -31.6574   25.0693 C   0  0  0  0  0  0
  -25.3760  -31.3715   26.1414 C   0  0  0  0  0  0
  -27.0409  -30.3003   24.6159 C   0  0  0  0  0  0
  -27.6068  -32.4335   25.7484 C   0  0  0  0  0  0
  -27.5568  -37.1786   24.8477 C   0  0  0  0  0  0
  -21.4220  -29.3077   22.3642 N   0  0  0  0  0  0
  -26.4276  -37.3769   23.9431 N   0  0  0  0  0  0
  -24.7034  -31.0485   22.0925 N   0  0  0  0  0  0
  -23.4202  -28.8143   23.3001 O   0  0  0  0  0  0
  -28.2994  -26.3244   20.1106 O   0  0  0  0  0  0
  -26.5618  -34.8918   22.4638 O   0  0  0  0  0  0
  -23.5507  -32.1364   23.7223 O   0  0  0  0  0  0
  -31.7322  -18.8778   18.8624 C   0  0  0  0  0  0
  -30.9763  -20.0293   19.1357 C   0  0  0  0  0  0
  -31.3528  -17.6098   19.3409 C   0  0  0  0  0  0
  -29.4176  -18.6375   20.3827 C   0  0  0  0  0  0
  -29.7744  -19.9693   19.8727 C   0  0  0  0  0  0
  -30.2127  -17.4102   20.1610 C   0  0  0  0  0  0
  -27.9812  -23.0670   18.9143 C   0  0  0  0  0  0
  -28.4573  -23.5535   20.0692 C   0  0  0  0  0  0
  -28.3038  -21.6470   18.7869 C   0  0  0  0  0  0
  -29.1410  -22.3727   20.6895 C   0  0  0  0  0  0
  -27.1312  -23.7890   17.8839 C   0  0  0  0  0  0
  -29.0707  -16.0783   21.9278 C   0  0  0  0  0  0
  -28.1267  -24.9690   20.7627 C   0  0  0  0  0  0
  -28.9922  -21.2564   19.8844 N   0  0  0  0  0  0
  -29.9272  -16.0308   20.7361 N   0  0  0  0  0  0
  -27.9838  -20.9046   17.8499 O   0  0  0  0  0  0
  -29.7360  -22.3611   21.7733 O   0  0  0  0  0  0
  -31.4663  -12.6572   19.1464 H   0  0  0  0  0  0
  -30.4106  -11.5364   19.9450 H   0  0  0  0  0  0
  -29.8029  -11.7510   17.5256 H   0  0  0  0  0  0
  -29.6202  -13.4790   17.6976 H   0  0  0  0  0  0
  -27.8896  -11.2921   18.8898 H   0  0  0  0  0  0
  -27.3759  -12.5433   17.7867 H   0  0  0  0  0  0
  -27.6368  -14.2619   19.4883 H   0  0  0  0  0  0
  -28.7571  -12.0971   21.3169 H   0  0  0  0  0  0
  -28.3662  -13.6758   21.8497 H   0  0  0  0  0  0
  -25.2759   -9.5700   22.4754 H   0  0  0  0  0  0
  -24.0004   -7.4651   22.7479 H   0  0  0  0  0  0
  -21.0842   -8.8766   19.8943 H   0  0  0  0  0  0
  -22.3692  -10.9668   19.6156 H   0  0  0  0  0  0
  -21.2000   -7.6144   23.9700 H   0  0  0  0  0  0
  -21.1484   -6.0521   25.9071 H   0  0  0  0  0  0
  -22.0596   -2.7600   23.2841 H   0  0  0  0  0  0
  -22.4087  -11.9843   22.4774 H   0  0  0  0  0  0
  -21.1094  -13.1224   22.2637 H   0  0  0  0  0  0
  -24.6549  -15.8490   20.5139 H   0  0  0  0  0  0
  -26.2746  -15.6270   20.0878 H   0  0  0  0  0  0
  -26.7242  -32.5394   23.1033 H   0  0  0  0  0  0
  -25.0217  -33.9680   25.0454 H   0  0  0  0  0  0
  -22.7327  -31.3018   21.3911 H   0  0  0  0  0  0
  -23.3764  -35.9580   23.3284 H   0  0  0  0  0  0
  -24.3576  -36.8882   22.2048 H   0  0  0  0  0  0
  -23.7215  -37.6448   23.6663 H   0  0  0  0  0  0
  -26.1132  -31.5171   20.5940 H   0  0  0  0  0  0
  -26.8619  -30.8207   21.9978 H   0  0  0  0  0  0
  -28.1435  -28.9243   21.1600 H   0  0  0  0  0  0
  -25.9301  -25.8584   19.0871 H   0  0  0  0  0  0
  -23.9563  -27.2787   19.0489 H   0  0  0  0  0  0
  -23.7847  -30.5847   19.4029 H   0  0  0  0  0  0
  -22.7696  -29.2482   19.8491 H   0  0  0  0  0  0
  -25.1284  -36.1887   25.0817 H   0  0  0  0  0  0
  -21.0013  -28.3294   24.1356 H   0  0  0  0  0  0
  -20.5687  -26.2334   23.3595 H   0  0  0  0  0  0
  -21.6654  -26.7448   22.1174 H   0  0  0  0  0  0
  -19.6917  -25.6305   21.1230 H   0  0  0  0  0  0
  -19.6669  -27.3206   20.6734 H   0  0  0  0  0  0
  -17.4203  -26.6686   21.4030 H   0  0  0  0  0  0
  -18.0342  -26.0064   22.9007 H   0  0  0  0  0  0
  -19.7964  -30.7289   24.2237 H   0  0  0  0  0  0
  -17.5047  -31.6275   24.5183 H   0  0  0  0  0  0
  -15.5380  -30.3009   23.7668 H   0  0  0  0  0  0
  -15.8677  -28.0839   22.7075 H   0  0  0  0  0  0
  -24.5932  -30.7069   25.7739 H   0  0  0  0  0  0
  -24.8963  -32.2887   26.4846 H   0  0  0  0  0  0
  -25.8079  -30.8879   27.0185 H   0  0  0  0  0  0
  -26.2996  -29.6726   24.1202 H   0  0  0  0  0  0
  -27.4152  -29.7274   25.4652 H   0  0  0  0  0  0
  -27.8835  -30.4302   23.9360 H   0  0  0  0  0  0
  -27.2656  -33.3646   26.2022 H   0  0  0  0  0  0
  -28.3909  -32.6890   25.0346 H   0  0  0  0  0  0
  -28.0714  -31.8489   26.5436 H   0  0  0  0  0  0
  -28.2592  -38.0083   24.7543 H   0  0  0  0  0  0
  -28.1059  -36.2614   24.6287 H   0  0  0  0  0  0
  -27.2282  -37.1403   25.8879 H   0  0  0  0  0  0
  -20.9413  -29.8826   21.6866 H   0  0  0  0  0  0
  -26.0140  -38.2830   24.1465 H   0  0  0  0  0  0
  -32.6235  -18.9649   18.2559 H   0  0  0  0  0  0
  -31.3052  -20.9705   18.7151 H   0  0  0  0  0  0
  -32.0045  -16.8012   19.0543 H   0  0  0  0  0  0
  -28.4951  -18.5603   20.9401 H   0  0  0  0  0  0
  -27.4129  -24.8393   17.8168 H   0  0  0  0  0  0
  -26.0753  -23.7074   18.1413 H   0  0  0  0  0  0
  -27.2715  -23.3546   16.8938 H   0  0  0  0  0  0
  -28.0265  -15.9091   21.6656 H   0  0  0  0  0  0
  -29.1334  -17.0372   22.4416 H   0  0  0  0  0  0
  -29.3797  -15.3558   22.6847 H   0  0  0  0  0  0
  -28.7465  -25.0138   21.6583 H   0  0  0  0  0  0
  -27.1098  -24.8862   21.1485 H   0  0  0  0  0  0
  1 25  1  0  0  0
  1 30  2  0  0  0
  1 85  1  0  0  0
  2  3  1  0  0  0
  2 25  1  0  0  0
  2 88  1  0  0  0
  2 89  1  0  0  0
  3  4  1  0  0  0
  3 90  1  0  0  0
  3 91  1  0  0  0
  4  5  1  0  0  0
  4 92  1  0  0  0
  4 93  1  0  0  0
  5  6  1  0  0  0
  5 26  1  0  0  0
  5 94  1  0  0  0
  6 25  1  0  0  0
  6 95  1  0  0  0
  6 96  1  0  0  0
  7  8  2  0  0  0
  7 26  1  0  0  0
  7 29  1  0  0  0
  8  9  1  0  0  0
  8 22  1  0  0  0
  9 10  1  0  0  0
  9 27  2  0  0  0
 10 11  2  0  0  0
 10 15  1  0  0  0
 11 12  1  0  0  0
 11 97  1  0  0  0
 12 13  2  0  0  0
 12 98  1  0  0  0
 13 14  1  0  0  0
 13 31  1  0  0  0
 14 15  2  0  0  0
 14 99  1  0  0  0
 15100  1  0  0  0
 16 17  2  0  0  0
 16 21  1  0  0  0
 16 31  1  0  0  0
 17 18  1  0  0  0
 17101  1  0  0  0
 18 19  2  0  0  0
 18102  1  0  0  0
 19 20  1  0  0  0
 19 24  1  0  0  0
 20 21  2  0  0  0
 20103  1  0  0  0
 21 23  1  0  0  0
 22 28  1  0  0  0
 22 32  2  0  0  0
 26 27  1  0  0  0
 28104  1  0  0  0
 28105  1  0  0  0
 29106  1  0  0  0
 29107  1  0  0  0
 33 34  1  0  0  0
 33 66  1  0  0  0
 33 70  2  0  0  0
 34 36  1  0  0  0
 34 59  1  0  0  0
 34108  1  0  0  0
 35 44  2  0  0  0
 35 45  1  0  0  0
 35 68  1  0  0  0
 36 56  1  0  0  0
 36109  1  0  0  0
 37 39  1  0  0  0
 37 47  1  0  0  0
 37 66  1  0  0  0
 37110  1  0  0  0
 38 43  2  0  0  0
 38 46  1  0  0  0
 38 47  1  0  0  0
 39 64  1  0  0  0
 39 67  2  0  0  0
 40 52  1  0  0  0
 40 53  2  0  0  0
 40 58  1  0  0  0
 41111  1  0  0  0
 41112  1  0  0  0
 41113  1  0  0  0
 41 48  1  0  0  0
 42 43  1  0  0  0
 42 66  1  0  0  0
 42114  1  0  0  0
 42115  1  0  0  0
 43 44  1  0  0  0
 44116  1  0  0  0
 45 46  2  0  0  0
 45117  1  0  0  0
 46118  1  0  0  0
 47119  1  0  0  0
 47120  1  0  0  0
 48 56  1  0  0  0
 48 65  1  0  0  0
 48121  1  0  0  0
 49 50  1  0  0  0
 49 53  1  0  0  0
 49 64  1  0  0  0
 49122  1  0  0  0
 50 51  1  0  0  0
 50123  1  0  0  0
 50124  1  0  0  0
 51 52  1  0  0  0
 51125  1  0  0  0
 51126  1  0  0  0
 52127  1  0  0  0
 52128  1  0  0  0
 53 54  1  0  0  0
 54 55  2  0  0  0
 54129  1  0  0  0
 55 57  1  0  0  0
 55130  1  0  0  0
 56 69  2  0  0  0
 57 58  2  0  0  0
 57131  1  0  0  0
 58132  1  0  0  0
 59 60  1  0  0  0
 59 61  1  0  0  0
 59 62  1  0  0  0
 60133  1  0  0  0
 60134  1  0  0  0
 60135  1  0  0  0
 61136  1  0  0  0
 61137  1  0  0  0
 61138  1  0  0  0
 62139  1  0  0  0
 62140  1  0  0  0
 62141  1  0  0  0
 63 65  1  0  0  0
 63142  1  0  0  0
 63143  1  0  0  0
 63144  1  0  0  0
 64145  1  0  0  0
 65146  1  0  0  0
 68 83  1  0  0  0
 71 72  2  0  0  0
 71 73  1  0  0  0
 71147  1  0  0  0
 72 75  1  0  0  0
 72148  1  0  0  0
 73 76  2  0  0  0
 73149  1  0  0  0
 74 75  2  0  0  0
 74 76  1  0  0  0
 74150  1  0  0  0
 75 84  1  0  0  0
 76 85  1  0  0  0
 77 78  2  0  0  0
 77 79  1  0  0  0
 77 81  1  0  0  0
 78 80  1  0  0  0
 78 83  1  0  0  0
 79 84  1  0  0  0
 79 86  2  0  0  0
 80 84  1  0  0  0
 80 87  2  0  0  0
 81151  1  0  0  0
 81152  1  0  0  0
 81153  1  0  0  0
 82 85  1  0  0  0
 82154  1  0  0  0
 82155  1  0  0  0
 82156  1  0  0  0
 83157  1  0  0  0
 83158  1  0  0  0
M  ISO  4   1 100  68 101  83 101  85 100
M  END
> <chiral flag>
0

> <version>
0

> <s_m_source_file>
/data/baiqing/PycharmProjects/Reinvent-master-3.2/result/LINK_invent/BTK/process_docking_weight1_custom_product_contain_oxygen_bond_distance_aromatic_linkinvent_7_9_3/rearranged_h_0086.sdf

> <i_m_source_file_index>
32

> <r_mmod_Potential_Energy-OPLS-2005>
515.075805664062

> <r_mmod_Stretch_Energy-OPLS-2005>
165.830490112305

> <r_mmod_Bend_Energy-OPLS-2005>
243.202545166016

> <r_mmod_Torsional_Energy-OPLS-2005>
342.842346191406

> <r_mmod_Improper_Torsional_Energy-OPLS-2005>
6.85632228851318

> <r_mmod_Van_der_Waal_Energy-OPLS-2005>
148.384918212891

> <r_mmod_Electrostatic_Energy-OPLS-2005>
-273.736236572266

> <r_mmod_Solvation_Energy-OPLS-2005>
-218.112319946289

> <b_mmod_Minimization_Converged-OPLS-2005>
0

> <r_mmod_RMS_Derivative-OPLS-2005>
1.42805802822113

$$$$
32
                    3D
 Structure written by MMmdl.
157166  0  0  1  0            999 V2000
  -30.6046  -14.7203   20.3243 C   0  0  0  0  0  0
  -30.4395  -12.3995   19.4420 C   0  0  0  0  0  0
  -29.4939  -12.3551   18.2180 C   0  0  0  0  0  0
  -28.0091  -12.2984   18.6318 C   0  0  0  0  0  0
  -27.6400  -13.2152   19.8319 C   0  0  2  0  0  0
  -28.7038  -13.1645   20.9473 C   0  0  0  0  0  0
  -25.2569  -13.8176   20.5711 C   0  0  0  0  0  0
  -24.1835  -13.0445   20.9200 C   0  0  0  0  0  0
  -24.6395  -11.6908   20.8774 C   0  0  0  0  0  0
  -23.9066  -10.4300   21.0426 C   0  0  0  0  0  0
  -24.3607   -9.4206   21.9193 C   0  0  0  0  0  0
  -23.6290   -8.2242   22.0753 C   0  0  0  0  0  0
  -22.4278   -8.0286   21.3539 C   0  0  0  0  0  0
  -21.9905   -9.0268   20.4647 C   0  0  0  0  0  0
  -22.7235  -10.2149   20.3072 C   0  0  0  0  0  0
  -21.6865   -6.0735   22.5277 C   0  0  0  0  0  0
  -21.4006   -6.5640   23.8206 C   0  0  0  0  0  0
  -21.3643   -5.6793   24.9172 C   0  0  0  0  0  0
  -21.6046   -4.3063   24.7232 C   0  0  0  0  0  0
  -21.8817   -3.8146   23.4358 C   0  0  0  0  0  0
  -21.9190   -4.6961   22.3404 C   0  0  0  0  0  0
  -22.7864  -13.5244   21.1850 C   0  0  0  0  0  0
  -22.1663   -4.2134   21.0985 F   0  0  0  0  0  0
  -21.5626   -3.4537   25.7745 F   0  0  0  0  0  0
  -29.9881  -13.4916   20.3240 N   0  0  0  0  0  0
  -26.2982  -12.9353   20.3318 N   0  0  0  0  0  0
  -25.9326  -11.6520   20.5841 N   0  0  0  0  0  0
  -22.0530  -12.8222   22.0395 N   0  0  0  0  0  0
  -25.4302  -15.1896   20.4123 N   0  0  0  0  0  0
  -31.8385  -14.7892   20.3213 O   0  0  0  0  0  0
  -21.6641   -6.8870   21.4240 O   0  0  0  0  0  0
  -22.3543  -14.5555   20.6696 O   0  0  0  0  0  0
  -24.6278  -31.8617   23.2014 C   0  0  0  0  0  0
  -25.9112  -32.4798   23.8362 C   0  0  1  0  0  0
  -27.2236  -27.2913   20.1280 C   0  0  0  0  0  0
  -25.5937  -33.8599   24.2281 N   0  0  0  0  0  0
  -23.4227  -30.4867   21.5401 C   0  0  2  0  0  0
  -24.8710  -28.9401   20.1073 C   0  0  0  0  0  0
  -22.7494  -29.4635   22.4867 C   0  0  0  0  0  0
  -18.0307  -28.1397   22.8481 C   0  0  0  0  0  0
  -24.1497  -36.7286   23.2637 C   0  0  0  0  0  0
  -25.9671  -30.7867   21.3750 C   0  0  0  0  0  0
  -26.0382  -29.4106   20.7180 C   0  0  0  0  0  0
  -27.2120  -28.5964   20.7224 C   0  0  0  0  0  0
  -26.0235  -26.8744   19.5059 C   0  0  0  0  0  0
  -24.8670  -27.6801   19.4925 C   0  0  0  0  0  0
  -23.6428  -29.8270   20.1526 C   0  0  0  0  0  0
  -25.4127  -36.3075   24.0313 C   0  0  1  0  0  0
  -20.5911  -28.3706   23.1268 C   0  0  2  0  0  0
  -20.6796  -26.9426   22.5399 C   0  0  0  0  0  0
  -19.5761  -26.6378   21.5213 C   0  0  0  0  0  0
  -18.1942  -26.7940   22.1620 C   0  0  0  0  0  0
  -19.1558  -28.8855   23.2892 C   0  0  0  0  0  0
  -18.9481  -30.1447   23.8915 C   0  0  0  0  0  0
  -17.6480  -30.6589   24.0557 C   0  0  0  0  0  0
  -25.9061  -34.9452   23.5079 C   0  0  0  0  0  0
  -16.5372  -29.9082   23.6330 C   0  0  0  0  0  0
  -16.7293  -28.6509   23.0344 C   0  0  0  0  0  0
  -26.4492  -31.6615   25.0733 C   0  0  0  0  0  0
  -25.3714  -31.3771   26.1454 C   0  0  0  0  0  0
  -27.0321  -30.3036   24.6171 C   0  0  0  0  0  0
  -27.6072  -32.4330   25.7509 C   0  0  0  0  0  0
  -27.5574  -37.1806   24.8461 C   0  0  0  0  0  0
  -21.4205  -29.3074   22.3650 N   0  0  0  0  0  0
  -26.4290  -37.3777   23.9401 N   0  0  0  0  0  0
  -24.6905  -31.0625   22.0958 N   0  0  0  0  0  0
  -23.4225  -28.8153   23.2915 O   0  0  0  0  0  0
  -28.3501  -26.4464   20.2220 O   0  0  0  0  0  0
  -26.5612  -34.8912   22.4637 O   0  0  0  0  0  0
  -23.5422  -32.1406   23.7308 O   0  0  0  0  0  0
  -28.5605  -19.3558   19.5217 C   0  0  0  0  0  0
  -29.9887  -19.2207   21.4388 C   0  0  0  0  0  0
  -28.7658  -17.9660   19.2913 C   0  0  0  0  0  0
  -30.2013  -17.8180   21.2085 C   0  0  0  0  0  0
  -28.7046  -23.5481   21.7483 C   0  0  0  0  0  0
  -28.8449  -22.4993   19.7993 C   0  0  0  0  0  0
  -28.6606  -23.7762   20.3385 C   0  0  0  0  0  0
  -29.1828  -20.0434   20.5919 C   0  0  0  0  0  0
  -29.6229  -17.1423   20.0968 C   0  0  0  0  0  0
  -28.8824  -22.2011   21.9781 C   0  0  0  0  0  0
  -30.9152  -15.8033   17.4711 C   0  0  0  0  0  0
  -29.8605  -15.6073   18.2879 C   0  0  0  0  0  0
  -28.4547  -25.1252   19.5406 C   0  0  0  0  0  0
  -28.9894  -21.4937   20.7821 N   0  0  0  0  0  0
  -29.8921  -15.7345   19.6897 N   0  0  0  0  0  0
  -28.9333  -21.5566   23.1754 O   0  0  0  0  0  0
  -31.4720  -12.5358   19.1122 H   0  0  0  0  0  0
  -30.4164  -11.4521   19.9823 H   0  0  0  0  0  0
  -29.7262  -11.4742   17.6183 H   0  0  0  0  0  0
  -29.6633  -13.1911   17.5473 H   0  0  0  0  0  0
  -27.7898  -11.2604   18.8814 H   0  0  0  0  0  0
  -27.3764  -12.5345   17.7770 H   0  0  0  0  0  0
  -27.6196  -14.2301   19.4395 H   0  0  0  0  0  0
  -28.7554  -12.1741   21.4024 H   0  0  0  0  0  0
  -28.4725  -13.8726   21.7448 H   0  0  0  0  0  0
  -25.2753   -9.5685   22.4762 H   0  0  0  0  0  0
  -24.0003   -7.4633   22.7486 H   0  0  0  0  0  0
  -21.0825   -8.8790   19.8962 H   0  0  0  0  0  0
  -22.3691  -10.9688   19.6183 H   0  0  0  0  0  0
  -21.1989   -7.6141   23.9707 H   0  0  0  0  0  0
  -21.1462   -6.0522   25.9069 H   0  0  0  0  0  0
  -22.0603   -2.7607   23.2864 H   0  0  0  0  0  0
  -22.4161  -11.9835   22.4679 H   0  0  0  0  0  0
  -21.1164  -13.1258   22.2675 H   0  0  0  0  0  0
  -24.6729  -15.8510   20.5413 H   0  0  0  0  0  0
  -26.2976  -15.6309   20.1322 H   0  0  0  0  0  0
  -26.7182  -32.5460   23.1117 H   0  0  0  0  0  0
  -25.0170  -33.9799   25.0475 H   0  0  0  0  0  0
  -22.7168  -31.3070   21.3932 H   0  0  0  0  0  0
  -23.3757  -35.9623   23.3306 H   0  0  0  0  0  0
  -24.3593  -36.8890   22.2049 H   0  0  0  0  0  0
  -23.7239  -37.6479   23.6668 H   0  0  0  0  0  0
  -26.0971  -31.5513   20.6070 H   0  0  0  0  0  0
  -26.8498  -30.8406   22.0019 H   0  0  0  0  0  0
  -28.1020  -28.9555   21.2188 H   0  0  0  0  0  0
  -25.9210  -25.9035   19.0514 H   0  0  0  0  0  0
  -23.9689  -27.3143   19.0139 H   0  0  0  0  0  0
  -23.7730  -30.6089   19.4023 H   0  0  0  0  0  0
  -22.7633  -29.2636   19.8358 H   0  0  0  0  0  0
  -25.1311  -36.1925   25.0802 H   0  0  0  0  0  0
  -21.0038  -28.3276   24.1374 H   0  0  0  0  0  0
  -20.5693  -26.2330   23.3614 H   0  0  0  0  0  0
  -21.6668  -26.7451   22.1183 H   0  0  0  0  0  0
  -19.6940  -25.6278   21.1261 H   0  0  0  0  0  0
  -19.6687  -27.3181   20.6734 H   0  0  0  0  0  0
  -17.4219  -26.6687   21.4018 H   0  0  0  0  0  0
  -18.0337  -26.0089   22.9019 H   0  0  0  0  0  0
  -19.7955  -30.7255   24.2308 H   0  0  0  0  0  0
  -17.5034  -31.6284   24.5133 H   0  0  0  0  0  0
  -15.5369  -30.2983   23.7646 H   0  0  0  0  0  0
  -15.8704  -28.0825   22.7045 H   0  0  0  0  0  0
  -24.5910  -30.7090   25.7789 H   0  0  0  0  0  0
  -24.8885  -32.2947   26.4840 H   0  0  0  0  0  0
  -25.8028  -30.8987   27.0257 H   0  0  0  0  0  0
  -26.2883  -29.6814   24.1177 H   0  0  0  0  0  0
  -27.4006  -29.7267   25.4667 H   0  0  0  0  0  0
  -27.8772  -30.4335   23.9401 H   0  0  0  0  0  0
  -27.2730  -33.3667   26.2064 H   0  0  0  0  0  0
  -28.3931  -32.6819   25.0357 H   0  0  0  0  0  0
  -28.0704  -31.8448   26.5448 H   0  0  0  0  0  0
  -28.2589  -38.0107   24.7508 H   0  0  0  0  0  0
  -28.1059  -36.2625   24.6292 H   0  0  0  0  0  0
  -27.2294  -37.1469   25.8866 H   0  0  0  0  0  0
  -20.9361  -29.8855   21.6931 H   0  0  0  0  0  0
  -26.0150  -38.2841   24.1408 H   0  0  0  0  0  0
  -27.9136  -19.8974   18.8465 H   0  0  0  0  0  0
  -30.4807  -19.6778   22.2873 H   0  0  0  0  0  0
  -28.2534  -17.5496   18.4350 H   0  0  0  0  0  0
  -30.8544  -17.2803   21.8828 H   0  0  0  0  0  0
  -28.6024  -24.3081   22.5120 H   0  0  0  0  0  0
  -28.8899  -22.2052   18.7597 H   0  0  0  0  0  0
  -30.8187  -15.6948   16.4008 H   0  0  0  0  0  0
  -31.8878  -16.0730   17.8567 H   0  0  0  0  0  0
  -28.8862  -15.3444   17.9012 H   0  0  0  0  0  0
  -29.3464  -25.2129   18.9186 H   0  0  0  0  0  0
  -27.6695  -24.9433   18.8147 H   0  0  0  0  0  0
  -28.7301  -22.1865   23.8604 H   0  0  0  0  0  0
  1 25  1  0  0  0
  1 30  2  0  0  0
  1 85  1  0  0  0
  2  3  1  0  0  0
  2 25  1  0  0  0
  2 87  1  0  0  0
  2 88  1  0  0  0
  3  4  1  0  0  0
  3 89  1  0  0  0
  3 90  1  0  0  0
  4  5  1  0  0  0
  4 91  1  0  0  0
  4 92  1  0  0  0
  5  6  1  0  0  0
  5 26  1  0  0  0
  5 93  1  0  0  0
  6 25  1  0  0  0
  6 94  1  0  0  0
  6 95  1  0  0  0
  7  8  2  0  0  0
  7 26  1  0  0  0
  7 29  1  0  0  0
  8  9  1  0  0  0
  8 22  1  0  0  0
  9 10  1  0  0  0
  9 27  2  0  0  0
 10 11  2  0  0  0
 10 15  1  0  0  0
 11 12  1  0  0  0
 11 96  1  0  0  0
 12 13  2  0  0  0
 12 97  1  0  0  0
 13 14  1  0  0  0
 13 31  1  0  0  0
 14 15  2  0  0  0
 14 98  1  0  0  0
 15 99  1  0  0  0
 16 17  2  0  0  0
 16 21  1  0  0  0
 16 31  1  0  0  0
 17 18  1  0  0  0
 17100  1  0  0  0
 18 19  2  0  0  0
 18101  1  0  0  0
 19 20  1  0  0  0
 19 24  1  0  0  0
 20 21  2  0  0  0
 20102  1  0  0  0
 21 23  1  0  0  0
 22 28  1  0  0  0
 22 32  2  0  0  0
 26 27  1  0  0  0
 28103  1  0  0  0
 28104  1  0  0  0
 29105  1  0  0  0
 29106  1  0  0  0
 33 34  1  0  0  0
 33 66  1  0  0  0
 33 70  2  0  0  0
 34 36  1  0  0  0
 34 59  1  0  0  0
 34107  1  0  0  0
 35 44  2  0  0  0
 35 45  1  0  0  0
 35 68  1  0  0  0
 36 56  1  0  0  0
 36108  1  0  0  0
 37 39  1  0  0  0
 37 47  1  0  0  0
 37 66  1  0  0  0
 37109  1  0  0  0
 38 43  2  0  0  0
 38 46  1  0  0  0
 38 47  1  0  0  0
 39 64  1  0  0  0
 39 67  2  0  0  0
 40 52  1  0  0  0
 40 53  2  0  0  0
 40 58  1  0  0  0
 41110  1  0  0  0
 41111  1  0  0  0
 41112  1  0  0  0
 41 48  1  0  0  0
 42 43  1  0  0  0
 42 66  1  0  0  0
 42113  1  0  0  0
 42114  1  0  0  0
 43 44  1  0  0  0
 44115  1  0  0  0
 45 46  2  0  0  0
 45116  1  0  0  0
 46117  1  0  0  0
 47118  1  0  0  0
 47119  1  0  0  0
 48 56  1  0  0  0
 48 65  1  0  0  0
 48120  1  0  0  0
 49 50  1  0  0  0
 49 53  1  0  0  0
 49 64  1  0  0  0
 49121  1  0  0  0
 50 51  1  0  0  0
 50122  1  0  0  0
 50123  1  0  0  0
 51 52  1  0  0  0
 51124  1  0  0  0
 51125  1  0  0  0
 52126  1  0  0  0
 52127  1  0  0  0
 53 54  1  0  0  0
 54 55  2  0  0  0
 54128  1  0  0  0
 55 57  1  0  0  0
 55129  1  0  0  0
 56 69  2  0  0  0
 57 58  2  0  0  0
 57130  1  0  0  0
 58131  1  0  0  0
 59 60  1  0  0  0
 59 61  1  0  0  0
 59 62  1  0  0  0
 60132  1  0  0  0
 60133  1  0  0  0
 60134  1  0  0  0
 61135  1  0  0  0
 61136  1  0  0  0
 61137  1  0  0  0
 62138  1  0  0  0
 62139  1  0  0  0
 62140  1  0  0  0
 63 65  1  0  0  0
 63141  1  0  0  0
 63142  1  0  0  0
 63143  1  0  0  0
 64144  1  0  0  0
 65145  1  0  0  0
 68 83  1  0  0  0
 71 73  2  0  0  0
 71 78  1  0  0  0
 71146  1  0  0  0
 72 74  1  0  0  0
 72 78  2  0  0  0
 72147  1  0  0  0
 73 79  1  0  0  0
 73148  1  0  0  0
 74 79  2  0  0  0
 74149  1  0  0  0
 75 77  1  0  0  0
 75 80  2  0  0  0
 75150  1  0  0  0
 76 77  2  0  0  0
 76 84  1  0  0  0
 76151  1  0  0  0
 77 83  1  0  0  0
 78 84  1  0  0  0
 79 85  1  0  0  0
 80 84  1  0  0  0
 80 86  1  0  0  0
 81 82  2  0  0  0
 81152  1  0  0  0
 81153  1  0  0  0
 82 85  1  0  0  0
 82154  1  0  0  0
 83155  1  0  0  0
 83156  1  0  0  0
 86157  1  0  0  0
M  ISO  4   1 100  68 101  83 101  85 100
M  END
> <chiral flag>
0

> <version>
0

> <s_m_source_file>
/data/baiqing/PycharmProjects/Reinvent-master-3.2/result/LINK_invent/BTK/process_docking_weight1_custom_product_contain_oxygen_bond_distance_aromatic_linkinvent_7_9_3/rearranged_h_0086.sdf

> <i_m_source_file_index>
33

> <r_mmod_Potential_Energy-OPLS-2005>
383.074890136719

> <r_mmod_Stretch_Energy-OPLS-2005>
98.4428405761719

> <r_mmod_Bend_Energy-OPLS-2005>
166.166625976562

> <r_mmod_Torsional_Energy-OPLS-2005>
357.761413574219

> <r_mmod_Improper_Torsional_Energy-OPLS-2005>
25.2367324829102

> <r_mmod_Van_der_Waal_Energy-OPLS-2005>
149.581878662109

> <r_mmod_Electrostatic_Energy-OPLS-2005>
-293.924560546875

> <r_mmod_Solvation_Energy-OPLS-2005>
-209.35969543457

> <b_mmod_Minimization_Converged-OPLS-2005>
0

> <r_mmod_RMS_Derivative-OPLS-2005>
3.64619445800781

$$$$
33
                    3D
 Structure written by MMmdl.
155164  0  0  1  0            999 V2000
  -30.6137  -14.8313   20.4233 C   0  0  0  0  0  0
  -30.4270  -12.5072   19.4912 C   0  0  0  0  0  0
  -29.5124  -12.5120   18.2470 C   0  0  0  0  0  0
  -28.0414  -12.3252   18.6617 C   0  0  0  0  0  0
  -27.6342  -13.2459   19.8431 C   0  0  2  0  0  0
  -28.6790  -13.2414   20.9800 C   0  0  0  0  0  0
  -25.2478  -13.8225   20.5713 C   0  0  0  0  0  0
  -24.1787  -13.0448   20.9220 C   0  0  0  0  0  0
  -24.6400  -11.6933   20.8756 C   0  0  0  0  0  0
  -23.9084  -10.4299   21.0411 C   0  0  0  0  0  0
  -24.3631   -9.4211   21.9186 C   0  0  0  0  0  0
  -23.6303   -8.2247   22.0756 C   0  0  0  0  0  0
  -22.4284   -8.0288   21.3546 C   0  0  0  0  0  0
  -21.9925   -9.0262   20.4646 C   0  0  0  0  0  0
  -22.7257  -10.2140   20.3058 C   0  0  0  0  0  0
  -21.6855   -6.0741   22.5279 C   0  0  0  0  0  0
  -21.4016   -6.5642   23.8213 C   0  0  0  0  0  0
  -21.3660   -5.6794   24.9175 C   0  0  0  0  0  0
  -21.6044   -4.3057   24.7224 C   0  0  0  0  0  0
  -21.8819   -3.8152   23.4345 C   0  0  0  0  0  0
  -21.9194   -4.6968   22.3401 C   0  0  0  0  0  0
  -22.7805  -13.5216   21.1877 C   0  0  0  0  0  0
  -22.1660   -4.2154   21.0978 F   0  0  0  0  0  0
  -21.5630   -3.4540   25.7736 F   0  0  0  0  0  0
  -29.9707  -13.6045   20.3853 N   0  0  0  0  0  0
  -26.2910  -12.9457   20.3275 N   0  0  0  0  0  0
  -25.9336  -11.6586   20.5760 N   0  0  0  0  0  0
  -22.0457  -12.8198   22.0429 N   0  0  0  0  0  0
  -25.4148  -15.1952   20.4140 N   0  0  0  0  0  0
  -31.8179  -14.8422   20.1592 O   0  0  0  0  0  0
  -21.6645   -6.8886   21.4242 O   0  0  0  0  0  0
  -22.3483  -14.5519   20.6726 O   0  0  0  0  0  0
  -24.6371  -31.8506   23.1952 C   0  0  0  0  0  0
  -25.9172  -32.4733   23.8316 C   0  0  1  0  0  0
  -27.2155  -27.2118   20.1391 C   0  0  0  0  0  0
  -25.5947  -33.8537   24.2233 N   0  0  0  0  0  0
  -23.4382  -30.4723   21.5385 C   0  0  2  0  0  0
  -24.8897  -28.9166   20.1056 C   0  0  0  0  0  0
  -22.7538  -29.4577   22.4880 C   0  0  0  0  0  0
  -18.0299  -28.1394   22.8486 C   0  0  0  0  0  0
  -24.1488  -36.7272   23.2640 C   0  0  0  0  0  0
  -25.9894  -30.7475   21.3853 C   0  0  0  0  0  0
  -26.0640  -29.3663   20.7257 C   0  0  0  0  0  0
  -27.2329  -28.5256   20.7352 C   0  0  0  0  0  0
  -26.0253  -26.8529   19.4721 C   0  0  0  0  0  0
  -24.8782  -27.6695   19.4646 C   0  0  0  0  0  0
  -23.6612  -29.8075   20.1548 C   0  0  0  0  0  0
  -25.4118  -36.3056   24.0320 C   0  0  1  0  0  0
  -20.5909  -28.3715   23.1250 C   0  0  2  0  0  0
  -20.6786  -26.9425   22.5406 C   0  0  0  0  0  0
  -19.5757  -26.6384   21.5217 C   0  0  0  0  0  0
  -18.1936  -26.7935   22.1626 C   0  0  0  0  0  0
  -19.1555  -28.8873   23.2860 C   0  0  0  0  0  0
  -18.9474  -30.1473   23.8881 C   0  0  0  0  0  0
  -17.6471  -30.6593   24.0564 C   0  0  0  0  0  0
  -25.9063  -34.9428   23.5079 C   0  0  0  0  0  0
  -16.5362  -29.9087   23.6337 C   0  0  0  0  0  0
  -16.7284  -28.6505   23.0360 C   0  0  0  0  0  0
  -26.4514  -31.6579   25.0729 C   0  0  0  0  0  0
  -25.3718  -31.3750   26.1438 C   0  0  0  0  0  0
  -27.0374  -30.2986   24.6264 C   0  0  0  0  0  0
  -27.6055  -32.4336   25.7508 C   0  0  0  0  0  0
  -27.5577  -37.1790   24.8462 C   0  0  0  0  0  0
  -21.4237  -29.3050   22.3628 N   0  0  0  0  0  0
  -26.4286  -37.3764   23.9411 N   0  0  0  0  0  0
  -24.7074  -31.0423   22.0953 N   0  0  0  0  0  0
  -23.4209  -28.8116   23.3002 O   0  0  0  0  0  0
  -28.2212  -26.2021   20.2130 O   0  0  0  0  0  0
  -26.5638  -34.8911   22.4650 O   0  0  0  0  0  0
  -23.5504  -32.1351   23.7209 O   0  0  0  0  0  0
  -31.0250  -20.2118   19.6566 C   0  0  0  0  0  0
  -31.4757  -17.7928   19.6777 C   0  0  0  0  0  0
  -29.7501  -20.0622   20.2509 C   0  0  0  0  0  0
  -31.8603  -19.1143   19.3750 C   0  0  0  0  0  0
  -30.2353  -17.4819   20.2868 C   0  0  0  0  0  0
  -29.3848  -18.6575   20.5577 C   0  0  0  0  0  0
  -28.1182  -23.5814   20.8124 C   0  0  0  0  0  0
  -29.1149  -22.6758   20.1446 C   0  0  0  0  0  0
  -27.8053  -24.9585   20.8086 C   0  0  0  0  0  0
  -27.2874  -22.6669   21.6800 C   0  0  0  0  0  0
  -27.7786  -21.2353   21.4097 C   0  0  0  0  0  0
  -28.9474  -21.3255   20.5387 N   0  0  0  0  0  0
  -33.1036  -19.3451   18.7878 N   0  0  0  0  0  0
  -29.8833  -16.0290   20.5662 N   0  0  0  0  0  0
  -29.9610  -23.0675   19.3361 O   0  0  0  0  0  0
  -28.1809  -18.4109   21.1265 F   0  0  0  0  0  0
  -31.4681  -12.6221   19.1852 H   0  0  0  0  0  0
  -30.3750  -11.5471   20.0071 H   0  0  0  0  0  0
  -29.8095  -11.7237   17.5539 H   0  0  0  0  0  0
  -29.6271  -13.4539   17.7085 H   0  0  0  0  0  0
  -27.9135  -11.2806   18.9475 H   0  0  0  0  0  0
  -27.3827  -12.4891   17.8081 H   0  0  0  0  0  0
  -27.6094  -14.2559   19.4330 H   0  0  0  0  0  0
  -28.7341  -12.2626   21.4585 H   0  0  0  0  0  0
  -28.4021  -13.9520   21.7605 H   0  0  0  0  0  0
  -25.2773   -9.5684   22.4764 H   0  0  0  0  0  0
  -24.0009   -7.4638   22.7475 H   0  0  0  0  0  0
  -21.0857   -8.8785   19.8949 H   0  0  0  0  0  0
  -22.3718  -10.9681   19.6168 H   0  0  0  0  0  0
  -21.2007   -7.6150   23.9719 H   0  0  0  0  0  0
  -21.1482   -6.0524   25.9078 H   0  0  0  0  0  0
  -22.0596   -2.7614   23.2844 H   0  0  0  0  0  0
  -22.4082  -11.9861   22.4812 H   0  0  0  0  0  0
  -21.1074  -13.1215   22.2640 H   0  0  0  0  0  0
  -24.6481  -15.8483   20.5332 H   0  0  0  0  0  0
  -26.2628  -15.6402   20.0876 H   0  0  0  0  0  0
  -26.7242  -32.5365   23.1057 H   0  0  0  0  0  0
  -25.0097  -33.9668   25.0381 H   0  0  0  0  0  0
  -22.7378  -31.2966   21.3892 H   0  0  0  0  0  0
  -23.3757  -35.9596   23.3286 H   0  0  0  0  0  0
  -24.3576  -36.8918   22.2058 H   0  0  0  0  0  0
  -23.7234  -37.6461   23.6682 H   0  0  0  0  0  0
  -26.1354  -31.5064   20.6154 H   0  0  0  0  0  0
  -26.8637  -30.7974   22.0226 H   0  0  0  0  0  0
  -28.1241  -28.8538   21.2511 H   0  0  0  0  0  0
  -25.9644  -25.8882   18.9883 H   0  0  0  0  0  0
  -23.9824  -27.3197   18.9700 H   0  0  0  0  0  0
  -23.7881  -30.5843   19.3999 H   0  0  0  0  0  0
  -22.7791  -29.2429   19.8472 H   0  0  0  0  0  0
  -25.1301  -36.1894   25.0811 H   0  0  0  0  0  0
  -21.0003  -28.3302   24.1369 H   0  0  0  0  0  0
  -20.5691  -26.2326   23.3618 H   0  0  0  0  0  0
  -21.6651  -26.7439   22.1198 H   0  0  0  0  0  0
  -19.6915  -25.6291   21.1257 H   0  0  0  0  0  0
  -19.6694  -27.3184   20.6739 H   0  0  0  0  0  0
  -17.4208  -26.6693   21.4026 H   0  0  0  0  0  0
  -18.0326  -26.0077   22.9022 H   0  0  0  0  0  0
  -19.7948  -30.7299   24.2236 H   0  0  0  0  0  0
  -17.5022  -31.6270   24.5171 H   0  0  0  0  0  0
  -15.5361  -30.2987   23.7668 H   0  0  0  0  0  0
  -15.8684  -28.0819   22.7086 H   0  0  0  0  0  0
  -24.5898  -30.7094   25.7765 H   0  0  0  0  0  0
  -24.8903  -32.2927   26.4826 H   0  0  0  0  0  0
  -25.8017  -30.8952   27.0239 H   0  0  0  0  0  0
  -26.2980  -29.6721   24.1262 H   0  0  0  0  0  0
  -27.4005  -29.7268   25.4815 H   0  0  0  0  0  0
  -27.8878  -30.4245   23.9559 H   0  0  0  0  0  0
  -27.2656  -33.3656   26.2036 H   0  0  0  0  0  0
  -28.3889  -32.6866   25.0351 H   0  0  0  0  0  0
  -28.0693  -31.8493   26.5465 H   0  0  0  0  0  0
  -28.2582  -38.0100   24.7523 H   0  0  0  0  0  0
  -28.1086  -36.2630   24.6272 H   0  0  0  0  0  0
  -27.2293  -37.1418   25.8864 H   0  0  0  0  0  0
  -20.9431  -29.8780   21.6833 H   0  0  0  0  0  0
  -26.0156  -38.2829   24.1429 H   0  0  0  0  0  0
  -31.4033  -21.1922   19.4169 H   0  0  0  0  0  0
  -32.1731  -17.0150   19.4169 H   0  0  0  0  0  0
  -26.9830  -25.1991   21.4699 H   0  0  0  0  0  0
  -26.2269  -22.7720   21.4462 H   0  0  0  0  0  0
  -27.4285  -22.9319   22.7287 H   0  0  0  0  0  0
  -27.0008  -20.6541   20.9126 H   0  0  0  0  0  0
  -28.0332  -20.7283   22.3412 H   0  0  0  0  0  0
  -33.2924  -20.2403   18.3457 H   0  0  0  0  0  0
  -33.6104  -18.5737   18.3632 H   0  0  0  0  0  0
  -28.9221  -15.8877   20.8375 H   0  0  0  0  0  0
  1 25  1  0  0  0
  1 30  2  0  0  0
  1 84  1  0  0  0
  2  3  1  0  0  0
  2 25  1  0  0  0
  2 87  1  0  0  0
  2 88  1  0  0  0
  3  4  1  0  0  0
  3 89  1  0  0  0
  3 90  1  0  0  0
  4  5  1  0  0  0
  4 91  1  0  0  0
  4 92  1  0  0  0
  5  6  1  0  0  0
  5 26  1  0  0  0
  5 93  1  0  0  0
  6 25  1  0  0  0
  6 94  1  0  0  0
  6 95  1  0  0  0
  7  8  2  0  0  0
  7 26  1  0  0  0
  7 29  1  0  0  0
  8  9  1  0  0  0
  8 22  1  0  0  0
  9 10  1  0  0  0
  9 27  2  0  0  0
 10 11  2  0  0  0
 10 15  1  0  0  0
 11 12  1  0  0  0
 11 96  1  0  0  0
 12 13  2  0  0  0
 12 97  1  0  0  0
 13 14  1  0  0  0
 13 31  1  0  0  0
 14 15  2  0  0  0
 14 98  1  0  0  0
 15 99  1  0  0  0
 16 17  2  0  0  0
 16 21  1  0  0  0
 16 31  1  0  0  0
 17 18  1  0  0  0
 17100  1  0  0  0
 18 19  2  0  0  0
 18101  1  0  0  0
 19 20  1  0  0  0
 19 24  1  0  0  0
 20 21  2  0  0  0
 20102  1  0  0  0
 21 23  1  0  0  0
 22 28  1  0  0  0
 22 32  2  0  0  0
 26 27  1  0  0  0
 28103  1  0  0  0
 28104  1  0  0  0
 29105  1  0  0  0
 29106  1  0  0  0
 33 34  1  0  0  0
 33 66  1  0  0  0
 33 70  2  0  0  0
 34 36  1  0  0  0
 34 59  1  0  0  0
 34107  1  0  0  0
 35 44  2  0  0  0
 35 45  1  0  0  0
 35 68  1  0  0  0
 36 56  1  0  0  0
 36108  1  0  0  0
 37 39  1  0  0  0
 37 47  1  0  0  0
 37 66  1  0  0  0
 37109  1  0  0  0
 38 43  2  0  0  0
 38 46  1  0  0  0
 38 47  1  0  0  0
 39 64  1  0  0  0
 39 67  2  0  0  0
 40 52  1  0  0  0
 40 53  2  0  0  0
 40 58  1  0  0  0
 41110  1  0  0  0
 41111  1  0  0  0
 41112  1  0  0  0
 41 48  1  0  0  0
 42 43  1  0  0  0
 42 66  1  0  0  0
 42113  1  0  0  0
 42114  1  0  0  0
 43 44  1  0  0  0
 44115  1  0  0  0
 45 46  2  0  0  0
 45116  1  0  0  0
 46117  1  0  0  0
 47118  1  0  0  0
 47119  1  0  0  0
 48 56  1  0  0  0
 48 65  1  0  0  0
 48120  1  0  0  0
 49 50  1  0  0  0
 49 53  1  0  0  0
 49 64  1  0  0  0
 49121  1  0  0  0
 50 51  1  0  0  0
 50122  1  0  0  0
 50123  1  0  0  0
 51 52  1  0  0  0
 51124  1  0  0  0
 51125  1  0  0  0
 52126  1  0  0  0
 52127  1  0  0  0
 53 54  1  0  0  0
 54 55  2  0  0  0
 54128  1  0  0  0
 55 57  1  0  0  0
 55129  1  0  0  0
 56 69  2  0  0  0
 57 58  2  0  0  0
 57130  1  0  0  0
 58131  1  0  0  0
 59 60  1  0  0  0
 59 61  1  0  0  0
 59 62  1  0  0  0
 60132  1  0  0  0
 60133  1  0  0  0
 60134  1  0  0  0
 61135  1  0  0  0
 61136  1  0  0  0
 61137  1  0  0  0
 62138  1  0  0  0
 62139  1  0  0  0
 62140  1  0  0  0
 63 65  1  0  0  0
 63141  1  0  0  0
 63142  1  0  0  0
 63143  1  0  0  0
 64144  1  0  0  0
 65145  1  0  0  0
 68 79  1  0  0  0
 71 73  2  0  0  0
 71 74  1  0  0  0
 71146  1  0  0  0
 72 74  2  0  0  0
 72 75  1  0  0  0
 72147  1  0  0  0
 73 76  1  0  0  0
 73 82  1  0  0  0
 74 83  1  0  0  0
 75 76  2  0  0  0
 75 84  1  0  0  0
 76 86  1  0  0  0
 77 78  1  0  0  0
 77 79  2  0  0  0
 77 80  1  0  0  0
 78 82  1  0  0  0
 78 85  2  0  0  0
 79148  1  0  0  0
 80 81  1  0  0  0
 80149  1  0  0  0
 80150  1  0  0  0
 81 82  1  0  0  0
 81151  1  0  0  0
 81152  1  0  0  0
 83153  1  0  0  0
 83154  1  0  0  0
 84155  1  0  0  0
M  ISO  4   1 100  68 101  79 101  84 100
M  END
> <chiral flag>
0

> <version>
0

> <s_m_source_file>
/data/baiqing/PycharmProjects/Reinvent-master-3.2/result/LINK_invent/BTK/process_docking_weight1_custom_product_contain_oxygen_bond_distance_aromatic_linkinvent_7_9_3/rearranged_h_0086.sdf

> <i_m_source_file_index>
34

> <r_mmod_Potential_Energy-OPLS-2005>
402.701904296875

> <r_mmod_Stretch_Energy-OPLS-2005>
174.285675048828

> <r_mmod_Bend_Energy-OPLS-2005>
268.423828125

> <r_mmod_Torsional_Energy-OPLS-2005>
264.010101318359

> <r_mmod_Improper_Torsional_Energy-OPLS-2005>
6.61572599411011

> <r_mmod_Van_der_Waal_Energy-OPLS-2005>
145.476577758789

> <r_mmod_Electrostatic_Energy-OPLS-2005>
-371.156616210938

> <r_mmod_Solvation_Energy-OPLS-2005>
-219.736801147461

> <b_mmod_Minimization_Converged-OPLS-2005>
0

> <r_mmod_RMS_Derivative-OPLS-2005>
0.332095056772232

$$$$
34
                    3D
 Structure written by MMmdl.
151159  0  0  1  0            999 V2000
  -30.6689  -14.5349   20.5259 C   0  0  0  0  0  0
  -30.4284  -12.3294   19.4411 C   0  0  0  0  0  0
  -29.5016  -12.4969   18.2171 C   0  0  0  0  0  0
  -28.0230  -12.3503   18.6286 C   0  0  0  0  0  0
  -27.6589  -13.2084   19.8698 C   0  0  2  0  0  0
  -28.7008  -13.0187   20.9958 C   0  0  0  0  0  0
  -25.2592  -13.8160   20.5698 C   0  0  0  0  0  0
  -24.1842  -13.0437   20.9186 C   0  0  0  0  0  0
  -24.6398  -11.6903   20.8743 C   0  0  0  0  0  0
  -23.9073  -10.4290   21.0417 C   0  0  0  0  0  0
  -24.3619   -9.4198   21.9194 C   0  0  0  0  0  0
  -23.6281   -8.2239   22.0759 C   0  0  0  0  0  0
  -22.4262   -8.0291   21.3550 C   0  0  0  0  0  0
  -21.9910   -9.0272   20.4650 C   0  0  0  0  0  0
  -22.7253  -10.2140   20.3058 C   0  0  0  0  0  0
  -21.6846   -6.0750   22.5289 C   0  0  0  0  0  0
  -21.4010   -6.5655   23.8226 C   0  0  0  0  0  0
  -21.3650   -5.6802   24.9190 C   0  0  0  0  0  0
  -21.6037   -4.3064   24.7233 C   0  0  0  0  0  0
  -21.8815   -3.8158   23.4353 C   0  0  0  0  0  0
  -21.9187   -4.6978   22.3410 C   0  0  0  0  0  0
  -22.7867  -13.5241   21.1844 C   0  0  0  0  0  0
  -22.1654   -4.2166   21.0985 F   0  0  0  0  0  0
  -21.5625   -3.4540   25.7741 F   0  0  0  0  0  0
  -30.0280  -13.3328   20.4420 N   0  0  0  0  0  0
  -26.3015  -12.9328   20.3344 N   0  0  0  0  0  0
  -25.9324  -11.6492   20.5762 N   0  0  0  0  0  0
  -22.0487  -12.8245   22.0390 N   0  0  0  0  0  0
  -25.4348  -15.1880   20.4165 N   0  0  0  0  0  0
  -31.8199  -14.6855   20.1085 O   0  0  0  0  0  0
  -21.6623   -6.8892   21.4249 O   0  0  0  0  0  0
  -22.3565  -14.5559   20.6703 O   0  0  0  0  0  0
  -24.6196  -31.8644   23.2067 C   0  0  0  0  0  0
  -25.9078  -32.4797   23.8376 C   0  0  1  0  0  0
  -27.2334  -27.4043   20.1034 C   0  0  0  0  0  0
  -25.5926  -33.8595   24.2316 N   0  0  0  0  0  0
  -23.4104  -30.4877   21.5466 C   0  0  2  0  0  0
  -24.8598  -28.9498   20.1099 C   0  0  0  0  0  0
  -22.7444  -29.4645   22.4961 C   0  0  0  0  0  0
  -18.0270  -28.1382   22.8483 C   0  0  0  0  0  0
  -24.1489  -36.7302   23.2637 C   0  0  0  0  0  0
  -25.9425  -30.8215   21.3639 C   0  0  0  0  0  0
  -26.0221  -29.4538   20.7103 C   0  0  0  0  0  0
  -27.2158  -28.6881   20.7060 C   0  0  0  0  0  0
  -26.0585  -26.9256   19.4903 C   0  0  0  0  0  0
  -24.8739  -27.6860   19.4951 C   0  0  0  0  0  0
  -23.6217  -29.8191   20.1612 C   0  0  0  0  0  0
  -25.4105  -36.3095   24.0343 C   0  0  1  0  0  0
  -20.5870  -28.3673   23.1305 C   0  0  2  0  0  0
  -20.6760  -26.9403   22.5417 C   0  0  0  0  0  0
  -19.5736  -26.6385   21.5216 C   0  0  0  0  0  0
  -18.1914  -26.7920   22.1622 C   0  0  0  0  0  0
  -19.1523  -28.8842   23.2889 C   0  0  0  0  0  0
  -18.9451  -30.1452   23.8892 C   0  0  0  0  0  0
  -17.6453  -30.6585   24.0563 C   0  0  0  0  0  0
  -25.9046  -34.9467   23.5125 C   0  0  0  0  0  0
  -16.5340  -29.9086   23.6333 C   0  0  0  0  0  0
  -16.7261  -28.6511   23.0335 C   0  0  0  0  0  0
  -26.4487  -31.6570   25.0712 C   0  0  0  0  0  0
  -25.3762  -31.3694   26.1478 C   0  0  0  0  0  0
  -27.0295  -30.2999   24.6094 C   0  0  0  0  0  0
  -27.6074  -32.4275   25.7464 C   0  0  0  0  0  0
  -27.5584  -37.1793   24.8457 C   0  0  0  0  0  0
  -21.4165  -29.3036   22.3707 N   0  0  0  0  0  0
  -26.4275  -37.3797   23.9437 N   0  0  0  0  0  0
  -24.6760  -31.0723   22.0975 N   0  0  0  0  0  0
  -23.4202  -28.8185   23.3015 O   0  0  0  0  0  0
  -28.3283  -26.5623   20.1520 O   0  0  0  0  0  0
  -26.5607  -34.8926   22.4685 O   0  0  0  0  0  0
  -23.5383  -32.1406   23.7445 O   0  0  0  0  0  0
  -31.0743  -18.9923   19.7286 C   0  0  0  0  0  0
  -28.8673  -19.2010   20.6882 C   0  0  0  0  0  0
  -31.1021  -17.6147   20.0547 C   0  0  0  0  0  0
  -28.8927  -17.8172   21.0144 C   0  0  0  0  0  0
  -29.9567  -19.8125   20.0205 C   0  0  0  0  0  0
  -29.9951  -16.9880   20.6819 C   0  0  0  0  0  0
  -28.5811  -24.2691   21.0933 C   0  0  0  0  0  0
  -28.2349  -25.5868   21.1319 C   0  0  0  0  0  0
  -29.9159  -21.2453   19.4966 C   0  0  0  0  0  0
  -29.1644  -23.5324   19.9708 C   0  0  0  0  0  0
  -29.9087  -15.5711   20.9663 N   0  0  0  0  0  0
  -29.3317  -22.2081   20.2543 N   0  0  0  0  0  0
  -30.4657  -21.4678   18.4110 O   0  0  0  0  0  0
  -29.4673  -24.0608   18.8949 O   0  0  0  0  0  0
  -31.4735  -12.4289   19.1435 H   0  0  0  0  0  0
  -30.3348  -11.3262   19.8598 H   0  0  0  0  0  0
  -29.7505  -11.7586   17.4536 H   0  0  0  0  0  0
  -29.6612  -13.4749   17.7604 H   0  0  0  0  0  0
  -27.8487  -11.2966   18.8474 H   0  0  0  0  0  0
  -27.3698  -12.5968   17.7912 H   0  0  0  0  0  0
  -27.6931  -14.2508   19.5521 H   0  0  0  0  0  0
  -28.6855  -11.9877   21.3526 H   0  0  0  0  0  0
  -28.4569  -13.6326   21.8640 H   0  0  0  0  0  0
  -25.2770   -9.5661   22.4770 H   0  0  0  0  0  0
  -23.9984   -7.4625   22.7480 H   0  0  0  0  0  0
  -21.0840   -8.8807   19.8954 H   0  0  0  0  0  0
  -22.3734  -10.9684   19.6158 H   0  0  0  0  0  0
  -21.1999   -7.6163   23.9739 H   0  0  0  0  0  0
  -21.1475   -6.0532   25.9095 H   0  0  0  0  0  0
  -22.0597   -2.7622   23.2851 H   0  0  0  0  0  0
  -22.4066  -11.9885   22.4761 H   0  0  0  0  0  0
  -21.1114  -13.1301   22.2598 H   0  0  0  0  0  0
  -24.6752  -15.8480   20.5400 H   0  0  0  0  0  0
  -26.2931  -15.6258   20.1058 H   0  0  0  0  0  0
  -26.7151  -32.5496   23.1140 H   0  0  0  0  0  0
  -25.0105  -33.9736   25.0482 H   0  0  0  0  0  0
  -22.7014  -31.3065   21.4047 H   0  0  0  0  0  0
  -23.3766  -35.9612   23.3243 H   0  0  0  0  0  0
  -24.3618  -36.8973   22.2064 H   0  0  0  0  0  0
  -23.7206  -37.6479   23.6681 H   0  0  0  0  0  0
  -26.0596  -31.5847   20.5935 H   0  0  0  0  0  0
  -26.8301  -30.8756   21.9821 H   0  0  0  0  0  0
  -28.1085  -29.0617   21.1885 H   0  0  0  0  0  0
  -26.0588  -25.9468   19.0313 H   0  0  0  0  0  0
  -23.9810  -27.2890   19.0319 H   0  0  0  0  0  0
  -23.7324  -30.5942   19.4020 H   0  0  0  0  0  0
  -22.7452  -29.2408   19.8629 H   0  0  0  0  0  0
  -25.1270  -36.1944   25.0830 H   0  0  0  0  0  0
  -20.9956  -28.3229   24.1429 H   0  0  0  0  0  0
  -20.5661  -26.2278   23.3607 H   0  0  0  0  0  0
  -21.6626  -26.7437   22.1207 H   0  0  0  0  0  0
  -19.6898  -25.6304   21.1223 H   0  0  0  0  0  0
  -19.6673  -27.3213   20.6761 H   0  0  0  0  0  0
  -17.4190  -26.6676   21.4015 H   0  0  0  0  0  0
  -18.0304  -26.0058   22.9011 H   0  0  0  0  0  0
  -19.7939  -30.7264   24.2241 H   0  0  0  0  0  0
  -17.5022  -31.6261   24.5168 H   0  0  0  0  0  0
  -15.5347  -30.2990   23.7671 H   0  0  0  0  0  0
  -15.8655  -28.0851   22.7024 H   0  0  0  0  0  0
  -24.5904  -30.7066   25.7838 H   0  0  0  0  0  0
  -24.8991  -32.2852   26.4972 H   0  0  0  0  0  0
  -25.8131  -30.8833   27.0209 H   0  0  0  0  0  0
  -26.2821  -29.6764   24.1170 H   0  0  0  0  0  0
  -27.4077  -29.7235   25.4549 H   0  0  0  0  0  0
  -27.8665  -30.4298   23.9231 H   0  0  0  0  0  0
  -27.2721  -33.3599   26.2014 H   0  0  0  0  0  0
  -28.3900  -32.6779   25.0289 H   0  0  0  0  0  0
  -28.0710  -31.8397   26.5395 H   0  0  0  0  0  0
  -28.2562  -38.0132   24.7574 H   0  0  0  0  0  0
  -28.1119  -36.2672   24.6172 H   0  0  0  0  0  0
  -27.2329  -37.1306   25.8864 H   0  0  0  0  0  0
  -20.9326  -29.8792   21.6954 H   0  0  0  0  0  0
  -26.0154  -38.2863   24.1476 H   0  0  0  0  0  0
  -31.9247  -19.4172   19.2132 H   0  0  0  0  0  0
  -27.9814  -19.7769   20.9163 H   0  0  0  0  0  0
  -31.9854  -17.0576   19.7815 H   0  0  0  0  0  0
  -28.0268  -17.3877   21.4996 H   0  0  0  0  0  0
  -28.3957  -23.7183   22.0040 H   0  0  0  0  0  0
  -27.8091  -25.9957   22.0388 H   0  0  0  0  0  0
  -29.0314  -15.2718   21.3632 H   0  0  0  0  0  0
  -29.0002  -21.8979   21.1530 H   0  0  0  0  0  0
  1 25  1  0  0  0
  1 30  2  0  0  0
  1 81  1  0  0  0
  2  3  1  0  0  0
  2 25  1  0  0  0
  2 85  1  0  0  0
  2 86  1  0  0  0
  3  4  1  0  0  0
  3 87  1  0  0  0
  3 88  1  0  0  0
  4  5  1  0  0  0
  4 89  1  0  0  0
  4 90  1  0  0  0
  5  6  1  0  0  0
  5 26  1  0  0  0
  5 91  1  0  0  0
  6 25  1  0  0  0
  6 92  1  0  0  0
  6 93  1  0  0  0
  7  8  2  0  0  0
  7 26  1  0  0  0
  7 29  1  0  0  0
  8  9  1  0  0  0
  8 22  1  0  0  0
  9 10  1  0  0  0
  9 27  2  0  0  0
 10 11  2  0  0  0
 10 15  1  0  0  0
 11 12  1  0  0  0
 11 94  1  0  0  0
 12 13  2  0  0  0
 12 95  1  0  0  0
 13 14  1  0  0  0
 13 31  1  0  0  0
 14 15  2  0  0  0
 14 96  1  0  0  0
 15 97  1  0  0  0
 16 17  2  0  0  0
 16 21  1  0  0  0
 16 31  1  0  0  0
 17 18  1  0  0  0
 17 98  1  0  0  0
 18 19  2  0  0  0
 18 99  1  0  0  0
 19 20  1  0  0  0
 19 24  1  0  0  0
 20 21  2  0  0  0
 20100  1  0  0  0
 21 23  1  0  0  0
 22 28  1  0  0  0
 22 32  2  0  0  0
 26 27  1  0  0  0
 28101  1  0  0  0
 28102  1  0  0  0
 29103  1  0  0  0
 29104  1  0  0  0
 33 34  1  0  0  0
 33 66  1  0  0  0
 33 70  2  0  0  0
 34 36  1  0  0  0
 34 59  1  0  0  0
 34105  1  0  0  0
 35 44  2  0  0  0
 35 45  1  0  0  0
 35 68  1  0  0  0
 36 56  1  0  0  0
 36106  1  0  0  0
 37 39  1  0  0  0
 37 47  1  0  0  0
 37 66  1  0  0  0
 37107  1  0  0  0
 38 43  2  0  0  0
 38 46  1  0  0  0
 38 47  1  0  0  0
 39 64  1  0  0  0
 39 67  2  0  0  0
 40 52  1  0  0  0
 40 53  2  0  0  0
 40 58  1  0  0  0
 41108  1  0  0  0
 41109  1  0  0  0
 41110  1  0  0  0
 41 48  1  0  0  0
 42 43  1  0  0  0
 42 66  1  0  0  0
 42111  1  0  0  0
 42112  1  0  0  0
 43 44  1  0  0  0
 44113  1  0  0  0
 45 46  2  0  0  0
 45114  1  0  0  0
 46115  1  0  0  0
 47116  1  0  0  0
 47117  1  0  0  0
 48 56  1  0  0  0
 48 65  1  0  0  0
 48118  1  0  0  0
 49 50  1  0  0  0
 49 53  1  0  0  0
 49 64  1  0  0  0
 49119  1  0  0  0
 50 51  1  0  0  0
 50120  1  0  0  0
 50121  1  0  0  0
 51 52  1  0  0  0
 51122  1  0  0  0
 51123  1  0  0  0
 52124  1  0  0  0
 52125  1  0  0  0
 53 54  1  0  0  0
 54 55  2  0  0  0
 54126  1  0  0  0
 55 57  1  0  0  0
 55127  1  0  0  0
 56 69  2  0  0  0
 57 58  2  0  0  0
 57128  1  0  0  0
 58129  1  0  0  0
 59 60  1  0  0  0
 59 61  1  0  0  0
 59 62  1  0  0  0
 60130  1  0  0  0
 60131  1  0  0  0
 60132  1  0  0  0
 61133  1  0  0  0
 61134  1  0  0  0
 61135  1  0  0  0
 62136  1  0  0  0
 62137  1  0  0  0
 62138  1  0  0  0
 63 65  1  0  0  0
 63139  1  0  0  0
 63140  1  0  0  0
 63141  1  0  0  0
 64142  1  0  0  0
 65143  1  0  0  0
 68 78  1  0  0  0
 71 73  2  0  0  0
 71 75  1  0  0  0
 71144  1  0  0  0
 72 74  1  0  0  0
 72 75  2  0  0  0
 72145  1  0  0  0
 73 76  1  0  0  0
 73146  1  0  0  0
 74 76  2  0  0  0
 74147  1  0  0  0
 75 79  1  0  0  0
 76 81  1  0  0  0
 77 78  2  0  0  0
 77 80  1  0  0  0
 77148  1  0  0  0
 78149  1  0  0  0
 79 82  1  0  0  0
 79 83  2  0  0  0
 80 82  1  0  0  0
 80 84  2  0  0  0
 81150  1  0  0  0
 82151  1  0  0  0
M  ISO  4   1 100  68 101  78 101  81 100
M  END
> <chiral flag>
0

> <version>
0

> <s_m_source_file>
/data/baiqing/PycharmProjects/Reinvent-master-3.2/result/LINK_invent/BTK/process_docking_weight1_custom_product_contain_oxygen_bond_distance_aromatic_linkinvent_7_9_3/rearranged_h_0086.sdf

> <i_m_source_file_index>
35

> <r_mmod_Potential_Energy-OPLS-2005>
-126.637298583984

> <r_mmod_Stretch_Energy-OPLS-2005>
47.7020263671875

> <r_mmod_Bend_Energy-OPLS-2005>
122.66480255127

> <r_mmod_Torsional_Energy-OPLS-2005>
235.770004272461

> <r_mmod_Improper_Torsional_Energy-OPLS-2005>
4.65158271789551

> <r_mmod_Van_der_Waal_Energy-OPLS-2005>
154.391845703125

> <r_mmod_Electrostatic_Energy-OPLS-2005>
-436.145172119141

> <r_mmod_Solvation_Energy-OPLS-2005>
-279.576538085938

> <b_mmod_Minimization_Converged-OPLS-2005>
0

> <r_mmod_RMS_Derivative-OPLS-2005>
1.27324020862579

$$$$
35
                    3D
 Structure written by MMmdl.
154162  0  0  1  0            999 V2000
  -30.5856  -14.8940   20.4664 C   0  0  0  0  0  0
  -30.4296  -12.5641   19.4950 C   0  0  0  0  0  0
  -29.5153  -12.5603   18.2503 C   0  0  0  0  0  0
  -28.0529  -12.3304   18.6692 C   0  0  0  0  0  0
  -27.6347  -13.2507   19.8472 C   0  0  2  0  0  0
  -28.6730  -13.2497   20.9880 C   0  0  0  0  0  0
  -25.2496  -13.8218   20.5727 C   0  0  0  0  0  0
  -24.1803  -13.0438   20.9228 C   0  0  0  0  0  0
  -24.6426  -11.6925   20.8760 C   0  0  0  0  0  0
  -23.9091  -10.4303   21.0404 C   0  0  0  0  0  0
  -24.3629   -9.4214   21.9174 C   0  0  0  0  0  0
  -23.6295   -8.2253   22.0744 C   0  0  0  0  0  0
  -22.4266   -8.0308   21.3543 C   0  0  0  0  0  0
  -21.9901   -9.0292   20.4654 C   0  0  0  0  0  0
  -22.7255  -10.2157   20.3061 C   0  0  0  0  0  0
  -21.6865   -6.0751   22.5293 C   0  0  0  0  0  0
  -21.4040   -6.5643   23.8235 C   0  0  0  0  0  0
  -21.3659   -5.6785   24.9190 C   0  0  0  0  0  0
  -21.6025   -4.3044   24.7234 C   0  0  0  0  0  0
  -21.8817   -3.8150   23.4352 C   0  0  0  0  0  0
  -21.9205   -4.6977   22.3411 C   0  0  0  0  0  0
  -22.7827  -13.5242   21.1872 C   0  0  0  0  0  0
  -22.1676   -4.2164   21.0992 F   0  0  0  0  0  0
  -21.5597   -3.4520   25.7739 F   0  0  0  0  0  0
  -29.9607  -13.6500   20.4050 N   0  0  0  0  0  0
  -26.2929  -12.9457   20.3276 N   0  0  0  0  0  0
  -25.9362  -11.6578   20.5737 N   0  0  0  0  0  0
  -22.0459  -12.8253   22.0441 N   0  0  0  0  0  0
  -25.4110  -15.1942   20.4161 N   0  0  0  0  0  0
  -31.7424  -14.9644   20.0340 O   0  0  0  0  0  0
  -21.6638   -6.8894   21.4246 O   0  0  0  0  0  0
  -22.3518  -14.5540   20.6699 O   0  0  0  0  0  0
  -24.6442  -31.8440   23.1871 C   0  0  0  0  0  0
  -25.9226  -32.4693   23.8246 C   0  0  1  0  0  0
  -27.2267  -27.1544   20.1305 C   0  0  0  0  0  0
  -25.5981  -33.8494   24.2189 N   0  0  0  0  0  0
  -23.4464  -30.4605   21.5337 C   0  0  2  0  0  0
  -24.8994  -28.8933   20.1008 C   0  0  0  0  0  0
  -22.7563  -29.4544   22.4881 C   0  0  0  0  0  0
  -18.0295  -28.1408   22.8499 C   0  0  0  0  0  0
  -24.1489  -36.7221   23.2631 C   0  0  0  0  0  0
  -26.0011  -30.7230   21.3823 C   0  0  0  0  0  0
  -26.0750  -29.3358   20.7212 C   0  0  0  0  0  0
  -27.2363  -28.4769   20.7298 C   0  0  0  0  0  0
  -26.0269  -26.8086   19.4719 C   0  0  0  0  0  0
  -24.8872  -27.6427   19.4627 C   0  0  0  0  0  0
  -23.6708  -29.7884   20.1529 C   0  0  0  0  0  0
  -25.4122  -36.3021   24.0321 C   0  0  1  0  0  0
  -20.5909  -28.3728   23.1272 C   0  0  2  0  0  0
  -20.6792  -26.9438   22.5434 C   0  0  0  0  0  0
  -19.5754  -26.6401   21.5241 C   0  0  0  0  0  0
  -18.1928  -26.7952   22.1644 C   0  0  0  0  0  0
  -19.1548  -28.8887   23.2875 C   0  0  0  0  0  0
  -18.9463  -30.1487   23.8889 C   0  0  0  0  0  0
  -17.6456  -30.6602   24.0567 C   0  0  0  0  0  0
  -25.9087  -34.9403   23.5056 C   0  0  0  0  0  0
  -16.5352  -29.9096   23.6336 C   0  0  0  0  0  0
  -16.7280  -28.6518   23.0363 C   0  0  0  0  0  0
  -26.4548  -31.6534   25.0661 C   0  0  0  0  0  0
  -25.3731  -31.3744   26.1353 C   0  0  0  0  0  0
  -27.0379  -30.2922   24.6218 C   0  0  0  0  0  0
  -27.6088  -32.4281   25.7457 C   0  0  0  0  0  0
  -27.5582  -37.1762   24.8474 C   0  0  0  0  0  0
  -21.4261  -29.3026   22.3621 N   0  0  0  0  0  0
  -26.4284  -37.3744   23.9427 N   0  0  0  0  0  0
  -24.7167  -31.0296   22.0898 N   0  0  0  0  0  0
  -23.4215  -28.8099   23.3027 O   0  0  0  0  0  0
  -28.2290  -26.1338   20.2860 O   0  0  0  0  0  0
  -26.5654  -34.8906   22.4620 O   0  0  0  0  0  0
  -23.5566  -32.1298   23.7110 O   0  0  0  0  0  0
  -29.8407  -18.6683   20.8010 C   0  0  0  0  0  0
  -28.3277  -19.1714   19.1274 C   0  0  0  0  0  0
  -29.1467  -19.7692   20.0551 C   0  0  0  0  0  0
  -29.5907  -17.3035   20.4346 C   0  0  0  0  0  0
  -28.4485  -25.0739   19.3305 C   0  0  0  0  0  0
  -29.3848  -21.3632   20.0095 C   0  0  0  0  0  0
  -28.6167  -23.6582   19.2201 C   0  0  0  0  0  0
  -30.8294  -21.5878   19.6014 C   0  0  0  0  0  0
  -28.8558  -23.2528   17.7634 C   0  0  0  0  0  0
  -30.2489  -16.1557   22.4610 C   0  0  0  0  0  0
  -28.5581  -22.4380   20.0748 N   0  0  0  0  0  0
  -29.9729  -16.0496   21.0247 N   0  0  0  0  0  0
  -28.4466  -17.3981   19.1063 S   0  0  0  0  0  0
  -31.4694  -12.6986   19.1917 H   0  0  0  0  0  0
  -30.4030  -11.5992   20.0018 H   0  0  0  0  0  0
  -29.8372  -11.7997   17.5383 H   0  0  0  0  0  0
  -29.6010  -13.5180   17.7345 H   0  0  0  0  0  0
  -27.9624  -11.2847   18.9647 H   0  0  0  0  0  0
  -27.3824  -12.4675   17.8195 H   0  0  0  0  0  0
  -27.6104  -14.2620   19.4386 H   0  0  0  0  0  0
  -28.7469  -12.2650   21.4536 H   0  0  0  0  0  0
  -28.3697  -13.9400   21.7756 H   0  0  0  0  0  0
  -25.2773   -9.5674   22.4742 H   0  0  0  0  0  0
  -24.0023   -7.4623   22.7430 H   0  0  0  0  0  0
  -21.0842   -8.8816   19.8954 H   0  0  0  0  0  0
  -22.3725  -10.9693   19.6167 H   0  0  0  0  0  0
  -21.2057   -7.6150   23.9768 H   0  0  0  0  0  0
  -21.1465   -6.0493   25.9094 H   0  0  0  0  0  0
  -22.0587   -2.7611   23.2850 H   0  0  0  0  0  0
  -22.4071  -11.9960   22.4910 H   0  0  0  0  0  0
  -21.1066  -13.1269   22.2600 H   0  0  0  0  0  0
  -24.6250  -15.8282   20.5070 H   0  0  0  0  0  0
  -26.2600  -15.6523   20.1104 H   0  0  0  0  0  0
  -26.7284  -32.5311   23.0966 H   0  0  0  0  0  0
  -25.0161  -33.9597   25.0365 H   0  0  0  0  0  0
  -22.7488  -31.2857   21.3808 H   0  0  0  0  0  0
  -23.3778  -35.9526   23.3277 H   0  0  0  0  0  0
  -24.3570  -36.8851   22.2048 H   0  0  0  0  0  0
  -23.7222  -37.6412   23.6652 H   0  0  0  0  0  0
  -26.1560  -31.4805   20.6123 H   0  0  0  0  0  0
  -26.8729  -30.7745   22.0240 H   0  0  0  0  0  0
  -28.1240  -28.7974   21.2573 H   0  0  0  0  0  0
  -25.9344  -25.8330   19.0154 H   0  0  0  0  0  0
  -23.9869  -27.2926   18.9771 H   0  0  0  0  0  0
  -23.7997  -30.5619   19.3948 H   0  0  0  0  0  0
  -22.7862  -29.2262   19.8490 H   0  0  0  0  0  0
  -25.1311  -36.1837   25.0819 H   0  0  0  0  0  0
  -21.0010  -28.3324   24.1392 H   0  0  0  0  0  0
  -20.5712  -26.2337   23.3645 H   0  0  0  0  0  0
  -21.6652  -26.7464   22.1201 H   0  0  0  0  0  0
  -19.6913  -25.6309   21.1270 H   0  0  0  0  0  0
  -19.6687  -27.3218   20.6770 H   0  0  0  0  0  0
  -17.4214  -26.6719   21.4036 H   0  0  0  0  0  0
  -18.0297  -26.0097   22.9039 H   0  0  0  0  0  0
  -19.7929  -30.7318   24.2262 H   0  0  0  0  0  0
  -17.4996  -31.6276   24.5177 H   0  0  0  0  0  0
  -15.5345  -30.2994   23.7660 H   0  0  0  0  0  0
  -15.8684  -28.0827   22.7096 H   0  0  0  0  0  0
  -24.5970  -30.7001   25.7706 H   0  0  0  0  0  0
  -24.8830  -32.2926   26.4618 H   0  0  0  0  0  0
  -25.8021  -30.9069   27.0228 H   0  0  0  0  0  0
  -26.2968  -29.6668   24.1225 H   0  0  0  0  0  0
  -27.4001  -29.7200   25.4770 H   0  0  0  0  0  0
  -27.8882  -30.4142   23.9501 H   0  0  0  0  0  0
  -27.2717  -33.3657   26.1895 H   0  0  0  0  0  0
  -28.3986  -32.6710   25.0329 H   0  0  0  0  0  0
  -28.0639  -31.8467   26.5490 H   0  0  0  0  0  0
  -28.2599  -38.0064   24.7549 H   0  0  0  0  0  0
  -28.1084  -36.2603   24.6269 H   0  0  0  0  0  0
  -27.2295  -37.1371   25.8874 H   0  0  0  0  0  0
  -20.9488  -29.8705   21.6766 H   0  0  0  0  0  0
  -26.0147  -38.2812   24.1442 H   0  0  0  0  0  0
  -30.5221  -18.9313   21.5966 H   0  0  0  0  0  0
  -27.7060  -19.6671   18.3919 H   0  0  0  0  0  0
  -28.5396  -25.5977   18.3877 H   0  0  0  0  0  0
  -31.0973  -22.6438   19.5854 H   0  0  0  0  0  0
  -31.0152  -21.1618   18.6155 H   0  0  0  0  0  0
  -31.4953  -21.0922   20.3057 H   0  0  0  0  0  0
  -28.2331  -23.8353   17.0827 H   0  0  0  0  0  0
  -28.6102  -22.2103   17.5582 H   0  0  0  0  0  0
  -29.8975  -23.4214   17.4872 H   0  0  0  0  0  0
  -30.1280  -15.2022   22.9784 H   0  0  0  0  0  0
  -29.5673  -16.8574   22.9440 H   0  0  0  0  0  0
  -31.2701  -16.5027   22.6314 H   0  0  0  0  0  0
  1 25  1  0  0  0
  1 30  2  0  0  0
  1 82  1  0  0  0
  2  3  1  0  0  0
  2 25  1  0  0  0
  2 84  1  0  0  0
  2 85  1  0  0  0
  3  4  1  0  0  0
  3 86  1  0  0  0
  3 87  1  0  0  0
  4  5  1  0  0  0
  4 88  1  0  0  0
  4 89  1  0  0  0
  5  6  1  0  0  0
  5 26  1  0  0  0
  5 90  1  0  0  0
  6 25  1  0  0  0
  6 91  1  0  0  0
  6 92  1  0  0  0
  7  8  2  0  0  0
  7 26  1  0  0  0
  7 29  1  0  0  0
  8  9  1  0  0  0
  8 22  1  0  0  0
  9 10  1  0  0  0
  9 27  2  0  0  0
 10 11  2  0  0  0
 10 15  1  0  0  0
 11 12  1  0  0  0
 11 93  1  0  0  0
 12 13  2  0  0  0
 12 94  1  0  0  0
 13 14  1  0  0  0
 13 31  1  0  0  0
 14 15  2  0  0  0
 14 95  1  0  0  0
 15 96  1  0  0  0
 16 17  2  0  0  0
 16 21  1  0  0  0
 16 31  1  0  0  0
 17 18  1  0  0  0
 17 97  1  0  0  0
 18 19  2  0  0  0
 18 98  1  0  0  0
 19 20  1  0  0  0
 19 24  1  0  0  0
 20 21  2  0  0  0
 20 99  1  0  0  0
 21 23  1  0  0  0
 22 28  1  0  0  0
 22 32  2  0  0  0
 26 27  1  0  0  0
 28100  1  0  0  0
 28101  1  0  0  0
 29102  1  0  0  0
 29103  1  0  0  0
 33 34  1  0  0  0
 33 66  1  0  0  0
 33 70  2  0  0  0
 34 36  1  0  0  0
 34 59  1  0  0  0
 34104  1  0  0  0
 35 44  2  0  0  0
 35 45  1  0  0  0
 35 68  1  0  0  0
 36 56  1  0  0  0
 36105  1  0  0  0
 37 39  1  0  0  0
 37 47  1  0  0  0
 37 66  1  0  0  0
 37106  1  0  0  0
 38 43  2  0  0  0
 38 46  1  0  0  0
 38 47  1  0  0  0
 39 64  1  0  0  0
 39 67  2  0  0  0
 40 52  1  0  0  0
 40 53  2  0  0  0
 40 58  1  0  0  0
 41107  1  0  0  0
 41108  1  0  0  0
 41109  1  0  0  0
 41 48  1  0  0  0
 42 43  1  0  0  0
 42 66  1  0  0  0
 42110  1  0  0  0
 42111  1  0  0  0
 43 44  1  0  0  0
 44112  1  0  0  0
 45 46  2  0  0  0
 45113  1  0  0  0
 46114  1  0  0  0
 47115  1  0  0  0
 47116  1  0  0  0
 48 56  1  0  0  0
 48 65  1  0  0  0
 48117  1  0  0  0
 49 50  1  0  0  0
 49 53  1  0  0  0
 49 64  1  0  0  0
 49118  1  0  0  0
 50 51  1  0  0  0
 50119  1  0  0  0
 50120  1  0  0  0
 51 52  1  0  0  0
 51121  1  0  0  0
 51122  1  0  0  0
 52123  1  0  0  0
 52124  1  0  0  0
 53 54  1  0  0  0
 54 55  2  0  0  0
 54125  1  0  0  0
 55 57  1  0  0  0
 55126  1  0  0  0
 56 69  2  0  0  0
 57 58  2  0  0  0
 57127  1  0  0  0
 58128  1  0  0  0
 59 60  1  0  0  0
 59 61  1  0  0  0
 59 62  1  0  0  0
 60129  1  0  0  0
 60130  1  0  0  0
 60131  1  0  0  0
 61132  1  0  0  0
 61133  1  0  0  0
 61134  1  0  0  0
 62135  1  0  0  0
 62136  1  0  0  0
 62137  1  0  0  0
 63 65  1  0  0  0
 63138  1  0  0  0
 63139  1  0  0  0
 63140  1  0  0  0
 64141  1  0  0  0
 65142  1  0  0  0
 68 75  1  0  0  0
 71 73  1  0  0  0
 71 74  2  0  0  0
 71143  1  0  0  0
 72 73  2  0  0  0
 72 83  1  0  0  0
 72144  1  0  0  0
 73 76  1  0  0  0
 74 82  1  0  0  0
 74 83  1  0  0  0
 75 77  2  0  0  0
 75145  1  0  0  0
 76 78  1  0  0  0
 76 81  2  0  0  0
 77 79  1  0  0  0
 77 81  1  0  0  0
 78146  1  0  0  0
 78147  1  0  0  0
 78148  1  0  0  0
 79149  1  0  0  0
 79150  1  0  0  0
 79151  1  0  0  0
 80 82  1  0  0  0
 80152  1  0  0  0
 80153  1  0  0  0
 80154  1  0  0  0
M  ISO  4   1 100  68 101  75 101  82 100
M  END
> <chiral flag>
0

> <version>
0

> <s_m_source_file>
/data/baiqing/PycharmProjects/Reinvent-master-3.2/result/LINK_invent/BTK/process_docking_weight1_custom_product_contain_oxygen_bond_distance_aromatic_linkinvent_7_9_3/rearranged_h_0086.sdf

> <i_m_source_file_index>
36

> <r_mmod_Potential_Energy-OPLS-2005>
637.681823730469

> <r_mmod_Stretch_Energy-OPLS-2005>
212.890991210938

> <r_mmod_Bend_Energy-OPLS-2005>
313.548889160156

> <r_mmod_Torsional_Energy-OPLS-2005>
350.552215576172

> <r_mmod_Improper_Torsional_Energy-OPLS-2005>
8.94096183776855

> <r_mmod_Van_der_Waal_Energy-OPLS-2005>
120.887168884277

> <r_mmod_Electrostatic_Energy-OPLS-2005>
-343.198028564453

> <r_mmod_Solvation_Energy-OPLS-2005>
-200.513214111328

> <b_mmod_Minimization_Converged-OPLS-2005>
0

> <r_mmod_RMS_Derivative-OPLS-2005>
2.93585824966431

$$$$
36
                    3D
 Structure written by MMmdl.
159168  0  0  1  0            999 V2000
  -30.6235  -14.7610   20.4365 C   0  0  0  0  0  0
  -30.4234  -12.4612   19.4785 C   0  0  0  0  0  0
  -29.5070  -12.5023   18.2363 C   0  0  0  0  0  0
  -28.0333  -12.3294   18.6488 C   0  0  0  0  0  0
  -27.6362  -13.2370   19.8448 C   0  0  2  0  0  0
  -28.6804  -13.1980   20.9813 C   0  0  0  0  0  0
  -25.2481  -13.8208   20.5697 C   0  0  0  0  0  0
  -24.1787  -13.0449   20.9236 C   0  0  0  0  0  0
  -24.6385  -11.6929   20.8752 C   0  0  0  0  0  0
  -23.9064  -10.4297   21.0395 C   0  0  0  0  0  0
  -24.3615   -9.4199   21.9156 C   0  0  0  0  0  0
  -23.6296   -8.2230   22.0726 C   0  0  0  0  0  0
  -22.4265   -8.0276   21.3540 C   0  0  0  0  0  0
  -21.9888   -9.0261   20.4663 C   0  0  0  0  0  0
  -22.7216  -10.2147   20.3073 C   0  0  0  0  0  0
  -21.6862   -6.0730   22.5282 C   0  0  0  0  0  0
  -21.4021   -6.5632   23.8212 C   0  0  0  0  0  0
  -21.3664   -5.6785   24.9171 C   0  0  0  0  0  0
  -21.6039   -4.3046   24.7219 C   0  0  0  0  0  0
  -21.8815   -3.8137   23.4343 C   0  0  0  0  0  0
  -21.9198   -4.6956   22.3403 C   0  0  0  0  0  0
  -22.7802  -13.5220   21.1876 C   0  0  0  0  0  0
  -22.1672   -4.2138   21.0978 F   0  0  0  0  0  0
  -21.5628   -3.4533   25.7733 F   0  0  0  0  0  0
  -29.9779  -13.5427   20.3904 N   0  0  0  0  0  0
  -26.2904  -12.9427   20.3258 N   0  0  0  0  0  0
  -25.9309  -11.6564   20.5720 N   0  0  0  0  0  0
  -22.0442  -12.8218   22.0428 N   0  0  0  0  0  0
  -25.4139  -15.1930   20.4063 N   0  0  0  0  0  0
  -31.8267  -14.7832   20.1606 O   0  0  0  0  0  0
  -21.6649   -6.8863   21.4235 O   0  0  0  0  0  0
  -22.3479  -14.5528   20.6729 O   0  0  0  0  0  0
  -24.6315  -31.8536   23.1966 C   0  0  0  0  0  0
  -25.9142  -32.4744   23.8311 C   0  0  1  0  0  0
  -27.2188  -27.2623   20.1380 C   0  0  0  0  0  0
  -25.5937  -33.8544   24.2243 N   0  0  0  0  0  0
  -23.4276  -30.4755   21.5395 C   0  0  2  0  0  0
  -24.8748  -28.9147   20.1147 C   0  0  0  0  0  0
  -22.7497  -29.4601   22.4908 C   0  0  0  0  0  0
  -18.0294  -28.1391   22.8493 C   0  0  0  0  0  0
  -24.1484  -36.7276   23.2637 C   0  0  0  0  0  0
  -25.9715  -30.7702   21.3719 C   0  0  0  0  0  0
  -26.0465  -29.3903   20.7176 C   0  0  0  0  0  0
  -27.2255  -28.5787   20.7105 C   0  0  0  0  0  0
  -26.0255  -26.8432   19.5175 C   0  0  0  0  0  0
  -24.8687  -27.6496   19.5041 C   0  0  0  0  0  0
  -23.6464  -29.8042   20.1573 C   0  0  0  0  0  0
  -25.4114  -36.3064   24.0319 C   0  0  1  0  0  0
  -20.5895  -28.3699   23.1271 C   0  0  2  0  0  0
  -20.6777  -26.9416   22.5411 C   0  0  0  0  0  0
  -19.5752  -26.6386   21.5215 C   0  0  0  0  0  0
  -18.1934  -26.7933   22.1628 C   0  0  0  0  0  0
  -19.1547  -28.8864   23.2877 C   0  0  0  0  0  0
  -18.9466  -30.1464   23.8896 C   0  0  0  0  0  0
  -17.6465  -30.6591   24.0569 C   0  0  0  0  0  0
  -25.9055  -34.9432   23.5082 C   0  0  0  0  0  0
  -16.5358  -29.9088   23.6334 C   0  0  0  0  0  0
  -16.7280  -28.6506   23.0355 C   0  0  0  0  0  0
  -26.4513  -31.6577   25.0701 C   0  0  0  0  0  0
  -25.3734  -31.3734   26.1421 C   0  0  0  0  0  0
  -27.0351  -30.2987   24.6186 C   0  0  0  0  0  0
  -27.6061  -32.4321   25.7486 C   0  0  0  0  0  0
  -27.5578  -37.1793   24.8467 C   0  0  0  0  0  0
  -21.4204  -29.3041   22.3654 N   0  0  0  0  0  0
  -26.4289  -37.3765   23.9407 N   0  0  0  0  0  0
  -24.6961  -31.0508   22.0931 N   0  0  0  0  0  0
  -23.4198  -28.8158   23.3019 O   0  0  0  0  0  0
  -28.3237  -26.3872   20.1347 O   0  0  0  0  0  0
  -26.5628  -34.8915   22.4651 O   0  0  0  0  0  0
  -23.5464  -32.1359   23.7263 O   0  0  0  0  0  0
  -27.0479  -19.4217   20.7642 C   0  0  0  0  0  0
  -27.9224  -18.3103   20.7201 C   0  0  0  0  0  0
  -27.5056  -20.7535   20.6209 C   0  0  0  0  0  0
  -29.7436  -19.8695   20.3661 C   0  0  0  0  0  0
  -29.3079  -18.4845   20.5164 C   0  0  0  0  0  0
  -28.8749  -21.0479   20.4261 C   0  0  0  0  0  0
  -31.2193  -24.0403   19.9200 C   0  0  0  0  0  0
  -30.6134  -22.7853   20.6306 C   0  0  0  0  0  0
  -30.2864  -17.2604   20.4645 C   0  0  0  0  0  0
  -30.5870  -24.4994   18.5980 C   0  0  0  0  0  0
  -29.1213  -24.0583   18.4188 C   0  0  0  0  0  0
  -28.4633  -23.6451   19.7468 C   0  0  2  0  0  0
  -28.1790  -24.9788   20.6486 C   0  0  0  0  0  0
  -29.3180  -22.4848   20.3171 N   0  0  0  0  0  0
  -29.8701  -15.9314   20.5683 N   0  0  0  0  0  0
  -32.2011  -24.6412   20.3739 O   0  0  0  0  0  0
  -31.3028  -22.1451   21.4367 O   0  0  0  0  0  0
  -31.4775  -17.5514   20.3124 O   0  0  0  0  0  0
  -31.4668  -12.5673   19.1761 H   0  0  0  0  0  0
  -30.3573  -11.4933   19.9773 H   0  0  0  0  0  0
  -29.7903  -11.7211   17.5286 H   0  0  0  0  0  0
  -29.6338  -13.4513   17.7141 H   0  0  0  0  0  0
  -27.8870  -11.2819   18.9139 H   0  0  0  0  0  0
  -27.3782  -12.5210   17.7979 H   0  0  0  0  0  0
  -27.6225  -14.2533   19.4506 H   0  0  0  0  0  0
  -28.7196  -12.2104   21.4435 H   0  0  0  0  0  0
  -28.4155  -13.8976   21.7756 H   0  0  0  0  0  0
  -25.2755   -9.5676   22.4728 H   0  0  0  0  0  0
  -24.0020   -7.4611   22.7429 H   0  0  0  0  0  0
  -21.0800   -8.8788   19.8992 H   0  0  0  0  0  0
  -22.3635  -10.9695   19.6218 H   0  0  0  0  0  0
  -21.2021   -7.6140   23.9711 H   0  0  0  0  0  0
  -21.1493   -6.0515   25.9074 H   0  0  0  0  0  0
  -22.0592   -2.7600   23.2844 H   0  0  0  0  0  0
  -22.4047  -11.9884   22.4828 H   0  0  0  0  0  0
  -21.1049  -13.1236   22.2599 H   0  0  0  0  0  0
  -24.6299  -15.8299   20.4927 H   0  0  0  0  0  0
  -26.2146  -15.6159   19.9578 H   0  0  0  0  0  0
  -26.7209  -32.5412   23.1053 H   0  0  0  0  0  0
  -25.0090  -33.9674   25.0394 H   0  0  0  0  0  0
  -22.7235  -31.2972   21.3900 H   0  0  0  0  0  0
  -23.3750  -35.9607   23.3304 H   0  0  0  0  0  0
  -24.3579  -36.8899   22.2054 H   0  0  0  0  0  0
  -23.7238  -37.6471   23.6665 H   0  0  0  0  0  0
  -26.1045  -31.5300   20.6006 H   0  0  0  0  0  0
  -26.8497  -30.8228   22.0042 H   0  0  0  0  0  0
  -28.1294  -28.9421   21.1788 H   0  0  0  0  0  0
  -25.9839  -25.8705   19.0475 H   0  0  0  0  0  0
  -23.9700  -27.2793   19.0300 H   0  0  0  0  0  0
  -23.7741  -30.5770   19.3978 H   0  0  0  0  0  0
  -22.7641  -29.2377   19.8539 H   0  0  0  0  0  0
  -25.1300  -36.1903   25.0812 H   0  0  0  0  0  0
  -20.9994  -28.3282   24.1387 H   0  0  0  0  0  0
  -20.5668  -26.2310   23.3614 H   0  0  0  0  0  0
  -21.6646  -26.7431   22.1211 H   0  0  0  0  0  0
  -19.6906  -25.6293   21.1248 H   0  0  0  0  0  0
  -19.6688  -27.3193   20.6741 H   0  0  0  0  0  0
  -17.4201  -26.6688   21.4032 H   0  0  0  0  0  0
  -18.0336  -26.0070   22.9019 H   0  0  0  0  0  0
  -19.7941  -30.7286   24.2255 H   0  0  0  0  0  0
  -17.5018  -31.6271   24.5169 H   0  0  0  0  0  0
  -15.5357  -30.2990   23.7649 H   0  0  0  0  0  0
  -15.8683  -28.0825   22.7061 H   0  0  0  0  0  0
  -24.5921  -30.7063   25.7766 H   0  0  0  0  0  0
  -24.8910  -32.2899   26.4823 H   0  0  0  0  0  0
  -25.8055  -30.8944   27.0213 H   0  0  0  0  0  0
  -26.2929  -29.6742   24.1194 H   0  0  0  0  0  0
  -27.4007  -29.7252   25.4716 H   0  0  0  0  0  0
  -27.8823  -30.4256   23.9441 H   0  0  0  0  0  0
  -27.2661  -33.3627   26.2044 H   0  0  0  0  0  0
  -28.3888  -32.6868   25.0329 H   0  0  0  0  0  0
  -28.0702  -31.8449   26.5421 H   0  0  0  0  0  0
  -28.2592  -38.0091   24.7508 H   0  0  0  0  0  0
  -28.1070  -36.2618   24.6299 H   0  0  0  0  0  0
  -27.2291  -37.1457   25.8868 H   0  0  0  0  0  0
  -20.9387  -29.8757   21.6857 H   0  0  0  0  0  0
  -26.0164  -38.2829   24.1423 H   0  0  0  0  0  0
  -25.9921  -19.2489   20.9229 H   0  0  0  0  0  0
  -27.5110  -17.3203   20.8470 H   0  0  0  0  0  0
  -26.7789  -21.5500   20.6911 H   0  0  0  0  0  0
  -30.8011  -20.0176   20.1980 H   0  0  0  0  0  0
  -31.1936  -24.1403   17.7666 H   0  0  0  0  0  0
  -30.6382  -25.5885   18.5768 H   0  0  0  0  0  0
  -29.0864  -23.2147   17.7274 H   0  0  0  0  0  0
  -28.5470  -24.8532   17.9415 H   0  0  0  0  0  0
  -27.4861  -23.2465   19.4785 H   0  0  0  0  0  0
  -28.8418  -24.9380   21.5127 H   0  0  0  0  0  0
  -27.1888  -24.8707   21.0942 H   0  0  0  0  0  0
  -28.8841  -15.8022   20.7106 H   0  0  0  0  0  0
  1 25  1  0  0  0
  1 30  2  0  0  0
  1 85  1  0  0  0
  2  3  1  0  0  0
  2 25  1  0  0  0
  2 89  1  0  0  0
  2 90  1  0  0  0
  3  4  1  0  0  0
  3 91  1  0  0  0
  3 92  1  0  0  0
  4  5  1  0  0  0
  4 93  1  0  0  0
  4 94  1  0  0  0
  5  6  1  0  0  0
  5 26  1  0  0  0
  5 95  1  0  0  0
  6 25  1  0  0  0
  6 96  1  0  0  0
  6 97  1  0  0  0
  7  8  2  0  0  0
  7 26  1  0  0  0
  7 29  1  0  0  0
  8  9  1  0  0  0
  8 22  1  0  0  0
  9 10  1  0  0  0
  9 27  2  0  0  0
 10 11  2  0  0  0
 10 15  1  0  0  0
 11 12  1  0  0  0
 11 98  1  0  0  0
 12 13  2  0  0  0
 12 99  1  0  0  0
 13 14  1  0  0  0
 13 31  1  0  0  0
 14 15  2  0  0  0
 14100  1  0  0  0
 15101  1  0  0  0
 16 17  2  0  0  0
 16 21  1  0  0  0
 16 31  1  0  0  0
 17 18  1  0  0  0
 17102  1  0  0  0
 18 19  2  0  0  0
 18103  1  0  0  0
 19 20  1  0  0  0
 19 24  1  0  0  0
 20 21  2  0  0  0
 20104  1  0  0  0
 21 23  1  0  0  0
 22 28  1  0  0  0
 22 32  2  0  0  0
 26 27  1  0  0  0
 28105  1  0  0  0
 28106  1  0  0  0
 29107  1  0  0  0
 29108  1  0  0  0
 33 34  1  0  0  0
 33 66  1  0  0  0
 33 70  2  0  0  0
 34 36  1  0  0  0
 34 59  1  0  0  0
 34109  1  0  0  0
 35 44  2  0  0  0
 35 45  1  0  0  0
 35 68  1  0  0  0
 36 56  1  0  0  0
 36110  1  0  0  0
 37 39  1  0  0  0
 37 47  1  0  0  0
 37 66  1  0  0  0
 37111  1  0  0  0
 38 43  2  0  0  0
 38 46  1  0  0  0
 38 47  1  0  0  0
 39 64  1  0  0  0
 39 67  2  0  0  0
 40 52  1  0  0  0
 40 53  2  0  0  0
 40 58  1  0  0  0
 41112  1  0  0  0
 41113  1  0  0  0
 41114  1  0  0  0
 41 48  1  0  0  0
 42 43  1  0  0  0
 42 66  1  0  0  0
 42115  1  0  0  0
 42116  1  0  0  0
 43 44  1  0  0  0
 44117  1  0  0  0
 45 46  2  0  0  0
 45118  1  0  0  0
 46119  1  0  0  0
 47120  1  0  0  0
 47121  1  0  0  0
 48 56  1  0  0  0
 48 65  1  0  0  0
 48122  1  0  0  0
 49 50  1  0  0  0
 49 53  1  0  0  0
 49 64  1  0  0  0
 49123  1  0  0  0
 50 51  1  0  0  0
 50124  1  0  0  0
 50125  1  0  0  0
 51 52  1  0  0  0
 51126  1  0  0  0
 51127  1  0  0  0
 52128  1  0  0  0
 52129  1  0  0  0
 53 54  1  0  0  0
 54 55  2  0  0  0
 54130  1  0  0  0
 55 57  1  0  0  0
 55131  1  0  0  0
 56 69  2  0  0  0
 57 58  2  0  0  0
 57132  1  0  0  0
 58133  1  0  0  0
 59 60  1  0  0  0
 59 61  1  0  0  0
 59 62  1  0  0  0
 60134  1  0  0  0
 60135  1  0  0  0
 60136  1  0  0  0
 61137  1  0  0  0
 61138  1  0  0  0
 61139  1  0  0  0
 62140  1  0  0  0
 62141  1  0  0  0
 62142  1  0  0  0
 63 65  1  0  0  0
 63143  1  0  0  0
 63144  1  0  0  0
 63145  1  0  0  0
 64146  1  0  0  0
 65147  1  0  0  0
 68 83  1  0  0  0
 71 72  2  0  0  0
 71 73  1  0  0  0
 71148  1  0  0  0
 72 75  1  0  0  0
 72149  1  0  0  0
 73 76  2  0  0  0
 73150  1  0  0  0
 74 75  2  0  0  0
 74 76  1  0  0  0
 74151  1  0  0  0
 75 79  1  0  0  0
 76 84  1  0  0  0
 77 78  1  0  0  0
 77 80  1  0  0  0
 77 86  2  0  0  0
 78 84  1  0  0  0
 78 87  2  0  0  0
 79 85  1  0  0  0
 79 88  2  0  0  0
 80 81  1  0  0  0
 80152  1  0  0  0
 80153  1  0  0  0
 81 82  1  0  0  0
 81154  1  0  0  0
 81155  1  0  0  0
 82 83  1  0  0  0
 82 84  1  0  0  0
 82156  1  0  0  0
 83157  1  0  0  0
 83158  1  0  0  0
 85159  1  0  0  0
M  ISO  4   1 100  68 101  83 101  85 100
M  END
> <chiral flag>
0

> <version>
0

> <s_m_source_file>
/data/baiqing/PycharmProjects/Reinvent-master-3.2/result/LINK_invent/BTK/process_docking_weight1_custom_product_contain_oxygen_bond_distance_aromatic_linkinvent_7_9_3/rearranged_h_0086.sdf

> <i_m_source_file_index>
37

> <r_mmod_Potential_Energy-OPLS-2005>
288.835998535156

> <r_mmod_Stretch_Energy-OPLS-2005>
145.273086547852

> <r_mmod_Bend_Energy-OPLS-2005>
171.947143554688

> <r_mmod_Torsional_Energy-OPLS-2005>
308.123352050781

> <r_mmod_Improper_Torsional_Energy-OPLS-2005>
5.79738283157349

> <r_mmod_Van_der_Waal_Energy-OPLS-2005>
161.889236450195

> <r_mmod_Electrostatic_Energy-OPLS-2005>
-327.696899414062

> <r_mmod_Solvation_Energy-OPLS-2005>
-263.780975341797

> <b_mmod_Minimization_Converged-OPLS-2005>
0

> <r_mmod_RMS_Derivative-OPLS-2005>
1.588259100914

$$$$
37
                    3D
 Structure written by MMmdl.
161170  0  0  1  0            999 V2000
  -30.5110  -15.0723   20.3342 C   0  0  0  0  0  0
  -30.4491  -12.6630   19.4876 C   0  0  0  0  0  0
  -29.5357  -12.4802   18.2536 C   0  0  0  0  0  0
  -28.0676  -12.2688   18.6880 C   0  0  0  0  0  0
  -27.6226  -13.2353   19.8160 C   0  0  2  0  0  0
  -28.6720  -13.3694   20.9374 C   0  0  0  0  0  0
  -25.2513  -13.8165   20.5715 C   0  0  0  0  0  0
  -24.1738  -13.0454   20.9193 C   0  0  0  0  0  0
  -24.6343  -11.6936   20.8774 C   0  0  0  0  0  0
  -23.9043  -10.4303   21.0437 C   0  0  0  0  0  0
  -24.3606   -9.4189   21.9196 C   0  0  0  0  0  0
  -23.6272   -8.2240   22.0781 C   0  0  0  0  0  0
  -22.4233   -8.0299   21.3580 C   0  0  0  0  0  0
  -21.9873   -9.0256   20.4657 C   0  0  0  0  0  0
  -22.7212  -10.2142   20.3045 C   0  0  0  0  0  0
  -21.6822   -6.0750   22.5283 C   0  0  0  0  0  0
  -21.3973   -6.5652   23.8217 C   0  0  0  0  0  0
  -21.3673   -5.6815   24.9205 C   0  0  0  0  0  0
  -21.6044   -4.3069   24.7252 C   0  0  0  0  0  0
  -21.8813   -3.8169   23.4374 C   0  0  0  0  0  0
  -21.9168   -4.6974   22.3439 C   0  0  0  0  0  0
  -22.7775  -13.5260   21.1848 C   0  0  0  0  0  0
  -22.1641   -4.2147   21.1018 F   0  0  0  0  0  0
  -21.5651   -3.4565   25.7782 F   0  0  0  0  0  0
  -29.9192  -13.8000   20.2927 N   0  0  0  0  0  0
  -26.2864  -12.9332   20.3216 N   0  0  0  0  0  0
  -25.9280  -11.6508   20.5787 N   0  0  0  0  0  0
  -22.0418  -12.8226   22.0418 N   0  0  0  0  0  0
  -25.4431  -15.1893   20.4238 N   0  0  0  0  0  0
  -31.7477  -15.0842   20.3113 O   0  0  0  0  0  0
  -21.6635   -6.8879   21.4235 O   0  0  0  0  0  0
  -22.3436  -14.5541   20.6669 O   0  0  0  0  0  0
  -24.6482  -31.8432   23.1852 C   0  0  0  0  0  0
  -25.9251  -32.4669   23.8267 C   0  0  1  0  0  0
  -27.2318  -27.0836   20.1789 C   0  0  0  0  0  0
  -25.5977  -33.8473   24.2190 N   0  0  0  0  0  0
  -23.4544  -30.4619   21.5320 C   0  0  2  0  0  0
  -24.9045  -28.8577   20.1370 C   0  0  0  0  0  0
  -22.7604  -29.4600   22.4894 C   0  0  0  0  0  0
  -18.0373  -28.1425   22.8516 C   0  0  0  0  0  0
  -24.1500  -36.7233   23.2652 C   0  0  0  0  0  0
  -26.0133  -30.6977   21.3932 C   0  0  0  0  0  0
  -26.0882  -29.2946   20.7540 C   0  0  0  0  0  0
  -27.2535  -28.4275   20.7473 C   0  0  0  0  0  0
  -26.0175  -26.7526   19.5438 C   0  0  0  0  0  0
  -24.8831  -27.5973   19.5204 C   0  0  0  0  0  0
  -23.6861  -29.7751   20.1609 C   0  0  0  0  0  0
  -25.4128  -36.3002   24.0326 C   0  0  1  0  0  0
  -20.5982  -28.3778   23.1330 C   0  0  2  0  0  0
  -20.6924  -26.9502   22.5485 C   0  0  0  0  0  0
  -19.5860  -26.6421   21.5315 C   0  0  0  0  0  0
  -18.2037  -26.7941   22.1689 C   0  0  0  0  0  0
  -19.1611  -28.8909   23.2915 C   0  0  0  0  0  0
  -18.9544  -30.1523   23.8861 C   0  0  0  0  0  0
  -17.6553  -30.6643   24.0527 C   0  0  0  0  0  0
  -25.9089  -34.9382   23.5081 C   0  0  0  0  0  0
  -16.5427  -29.9114   23.6340 C   0  0  0  0  0  0
  -16.7353  -28.6506   23.0383 C   0  0  0  0  0  0
  -26.4543  -31.6545   25.0721 C   0  0  0  0  0  0
  -25.3719  -31.3759   26.1411 C   0  0  0  0  0  0
  -27.0458  -30.2948   24.6353 C   0  0  0  0  0  0
  -27.6082  -32.4307   25.7512 C   0  0  0  0  0  0
  -27.5565  -37.1773   24.8470 C   0  0  0  0  0  0
  -21.4282  -29.3117   22.3658 N   0  0  0  0  0  0
  -26.4282  -37.3714   23.9400 N   0  0  0  0  0  0
  -24.7243  -31.0259   22.0893 N   0  0  0  0  0  0
  -23.4242  -28.8177   23.3077 O   0  0  0  0  0  0
  -28.3189  -26.1447   19.9781 O   0  0  0  0  0  0
  -26.5673  -34.8901   22.4646 O   0  0  0  0  0  0
  -23.5595  -32.1347   23.7066 O   0  0  0  0  0  0
  -27.4056  -22.8391   21.4560 C   0  0  0  0  0  0
  -29.7800  -17.7011   20.5797 C   0  0  0  0  0  0
  -28.4106  -23.2185   20.6313 C   0  0  0  0  0  0
  -29.4226  -18.9198   19.9053 C   0  0  0  0  0  0
  -27.2285  -21.4425   21.9320 C   0  0  0  0  0  0
  -29.1683  -18.8310   18.4007 C   0  0  0  0  0  0
  -28.3943  -20.4338   21.8146 C   0  0  0  0  0  0
  -29.5742  -17.4639   17.8142 C   0  0  0  0  0  0
  -29.1248  -16.2775   18.6953 C   0  0  0  0  0  0
  -29.3723  -21.9492   20.1195 C   0  0  2  0  0  0
  -29.7917  -22.1611   18.6538 C   0  0  0  0  0  0
  -28.7669  -24.8579   20.7624 C   0  0  0  0  0  0
  -29.7581  -16.2785   20.0307 N   0  0  0  0  0  0
  -28.8880  -20.4379   20.4240 N   0  3  1  0  0  0
  -26.1860  -21.0820   22.4840 O   0  0  0  0  0  0
  -30.4837  -11.7475   20.0776 H   0  0  0  0  0  0
  -31.4756  -12.8542   19.1644 H   0  0  0  0  0  0
  -29.8674  -11.6278   17.6613 H   0  0  0  0  0  0
  -29.6317  -13.3325   17.5841 H   0  0  0  0  0  0
  -27.9925  -11.2428   19.0496 H   0  0  0  0  0  0
  -27.3956  -12.3399   17.8313 H   0  0  0  0  0  0
  -27.5437  -14.2010   19.3307 H   0  0  0  0  0  0
  -28.7969  -12.4373   21.4874 H   0  0  0  0  0  0
  -28.3616  -14.1285   21.6595 H   0  0  0  0  0  0
  -25.2765   -9.5628   22.4774 H   0  0  0  0  0  0
  -24.0006   -7.4572   22.7419 H   0  0  0  0  0  0
  -21.0870   -8.8685   19.8917 H   0  0  0  0  0  0
  -22.3650  -10.9664   19.6153 H   0  0  0  0  0  0
  -21.1903   -7.6142   23.9718 H   0  0  0  0  0  0
  -21.1534   -6.0556   25.9108 H   0  0  0  0  0  0
  -22.0581   -2.7601   23.2876 H   0  0  0  0  0  0
  -22.4027  -11.9838   22.4710 H   0  0  0  0  0  0
  -21.1014  -13.1164   22.2679 H   0  0  0  0  0  0
  -24.7158  -15.8782   20.5708 H   0  0  0  0  0  0
  -26.3452  -15.5977   20.2203 H   0  0  0  0  0  0
  -26.7338  -32.5294   23.1013 H   0  0  0  0  0  0
  -25.0029  -33.9558   25.0290 H   0  0  0  0  0  0
  -22.7591  -31.2880   21.3671 H   0  0  0  0  0  0
  -23.3750  -35.9572   23.3305 H   0  0  0  0  0  0
  -24.3587  -36.8864   22.2062 H   0  0  0  0  0  0
  -23.7268  -37.6443   23.6698 H   0  0  0  0  0  0
  -26.1720  -31.4403   20.6103 H   0  0  0  0  0  0
  -26.8795  -30.7603   22.0409 H   0  0  0  0  0  0
  -28.1692  -28.7779   21.1995 H   0  0  0  0  0  0
  -25.9451  -25.7946   19.0474 H   0  0  0  0  0  0
  -23.9836  -27.2624   19.0150 H   0  0  0  0  0  0
  -23.8270  -30.5402   19.3953 H   0  0  0  0  0  0
  -22.7996  -29.2180   19.8503 H   0  0  0  0  0  0
  -25.1318  -36.1815   25.0815 H   0  0  0  0  0  0
  -21.0092  -28.3373   24.1463 H   0  0  0  0  0  0
  -21.6766  -26.7615   22.1186 H   0  0  0  0  0  0
  -20.5963  -26.2400   23.3731 H   0  0  0  0  0  0
  -19.6790  -27.3214   20.6833 H   0  0  0  0  0  0
  -19.7121  -25.6328   21.1386 H   0  0  0  0  0  0
  -17.4409  -26.6719   21.3971 H   0  0  0  0  0  0
  -18.0428  -26.0058   22.9046 H   0  0  0  0  0  0
  -19.7998  -30.7405   24.2158 H   0  0  0  0  0  0
  -17.5109  -31.6348   24.5085 H   0  0  0  0  0  0
  -15.5409  -30.2967   23.7687 H   0  0  0  0  0  0
  -15.8765  -28.0750   22.7201 H   0  0  0  0  0  0
  -24.5918  -30.7069   25.7746 H   0  0  0  0  0  0
  -24.8867  -32.2948   26.4726 H   0  0  0  0  0  0
  -25.7976  -30.9021   27.0262 H   0  0  0  0  0  0
  -26.3120  -29.6618   24.1336 H   0  0  0  0  0  0
  -27.4068  -29.7282   25.4947 H   0  0  0  0  0  0
  -27.9016  -30.4200   23.9708 H   0  0  0  0  0  0
  -27.2691  -33.3643   26.2009 H   0  0  0  0  0  0
  -28.3929  -32.6775   25.0354 H   0  0  0  0  0  0
  -28.0699  -31.8461   26.5485 H   0  0  0  0  0  0
  -28.2589  -38.0058   24.7479 H   0  0  0  0  0  0
  -28.1044  -36.2586   24.6332 H   0  0  0  0  0  0
  -27.2278  -37.1455   25.8872 H   0  0  0  0  0  0
  -20.9460  -29.8886   21.6907 H   0  0  0  0  0  0
  -26.0149  -38.2794   24.1347 H   0  0  0  0  0  0
  -26.8096  -23.5924   21.9517 H   0  0  0  0  0  0
  -29.9040  -17.6877   21.6532 H   0  0  0  0  0  0
  -29.7170  -19.6023   17.8663 H   0  0  0  0  0  0
  -28.1085  -18.9992   18.2050 H   0  0  0  0  0  0
  -28.0474  -19.4394   22.0923 H   0  0  0  0  0  0
  -29.2047  -20.6964   22.4961 H   0  0  0  0  0  0
  -30.6588  -17.4268   17.6919 H   0  0  0  0  0  0
  -29.1654  -17.3575   16.8093 H   0  0  0  0  0  0
  -28.0396  -16.3058   18.8073 H   0  0  0  0  0  0
  -29.3416  -15.3684   18.1404 H   0  0  0  0  0  0
  -30.2838  -22.0596   20.7101 H   0  0  0  0  0  0
  -30.1039  -23.1915   18.4906 H   0  0  0  0  0  0
  -28.9824  -21.9533   17.9532 H   0  0  0  0  0  0
  -30.6478  -21.5452   18.3824 H   0  0  0  0  0  0
  -29.8563  -24.8799   20.6836 H   0  0  0  0  0  0
  -28.5898  -25.1126   21.8071 H   0  0  0  0  0  0
  -27.9987  -20.4917   19.9518 H   0  0  0  0  0  0
  1 25  1  0  0  0
  1 30  2  0  0  0
  1 83  1  0  0  0
  2  3  1  0  0  0
  2 25  1  0  0  0
  2 86  1  0  0  0
  2 87  1  0  0  0
  3  4  1  0  0  0
  3 88  1  0  0  0
  3 89  1  0  0  0
  4  5  1  0  0  0
  4 90  1  0  0  0
  4 91  1  0  0  0
  5  6  1  0  0  0
  5 26  1  0  0  0
  5 92  1  0  0  0
  6 25  1  0  0  0
  6 93  1  0  0  0
  6 94  1  0  0  0
  7  8  2  0  0  0
  7 26  1  0  0  0
  7 29  1  0  0  0
  8  9  1  0  0  0
  8 22  1  0  0  0
  9 10  1  0  0  0
  9 27  2  0  0  0
 10 11  2  0  0  0
 10 15  1  0  0  0
 11 12  1  0  0  0
 11 95  1  0  0  0
 12 13  2  0  0  0
 12 96  1  0  0  0
 13 14  1  0  0  0
 13 31  1  0  0  0
 14 15  2  0  0  0
 14 97  1  0  0  0
 15 98  1  0  0  0
 16 17  2  0  0  0
 16 21  1  0  0  0
 16 31  1  0  0  0
 17 18  1  0  0  0
 17 99  1  0  0  0
 18 19  2  0  0  0
 18100  1  0  0  0
 19 20  1  0  0  0
 19 24  1  0  0  0
 20 21  2  0  0  0
 20101  1  0  0  0
 21 23  1  0  0  0
 22 28  1  0  0  0
 22 32  2  0  0  0
 26 27  1  0  0  0
 28102  1  0  0  0
 28103  1  0  0  0
 29104  1  0  0  0
 29105  1  0  0  0
 33 34  1  0  0  0
 33 66  1  0  0  0
 33 70  2  0  0  0
 34 36  1  0  0  0
 34 59  1  0  0  0
 34106  1  0  0  0
 35 44  2  0  0  0
 35 45  1  0  0  0
 35 68  1  0  0  0
 36 56  1  0  0  0
 36107  1  0  0  0
 37 39  1  0  0  0
 37 47  1  0  0  0
 37 66  1  0  0  0
 37108  1  0  0  0
 38 43  2  0  0  0
 38 46  1  0  0  0
 38 47  1  0  0  0
 39 64  1  0  0  0
 39 67  2  0  0  0
 40 52  1  0  0  0
 40 53  2  0  0  0
 40 58  1  0  0  0
 41109  1  0  0  0
 41110  1  0  0  0
 41111  1  0  0  0
 41 48  1  0  0  0
 42 43  1  0  0  0
 42 66  1  0  0  0
 42112  1  0  0  0
 42113  1  0  0  0
 43 44  1  0  0  0
 44114  1  0  0  0
 45 46  2  0  0  0
 45115  1  0  0  0
 46116  1  0  0  0
 47117  1  0  0  0
 47118  1  0  0  0
 48 56  1  0  0  0
 48 65  1  0  0  0
 48119  1  0  0  0
 49 50  1  0  0  0
 49 53  1  0  0  0
 49 64  1  0  0  0
 49120  1  0  0  0
 50 51  1  0  0  0
 50121  1  0  0  0
 50122  1  0  0  0
 51 52  1  0  0  0
 51123  1  0  0  0
 51124  1  0  0  0
 52125  1  0  0  0
 52126  1  0  0  0
 53 54  1  0  0  0
 54 55  2  0  0  0
 54127  1  0  0  0
 55 57  1  0  0  0
 55128  1  0  0  0
 56 69  2  0  0  0
 57 58  2  0  0  0
 57129  1  0  0  0
 58130  1  0  0  0
 59 60  1  0  0  0
 59 61  1  0  0  0
 59 62  1  0  0  0
 60131  1  0  0  0
 60132  1  0  0  0
 60133  1  0  0  0
 61134  1  0  0  0
 61135  1  0  0  0
 61136  1  0  0  0
 62137  1  0  0  0
 62138  1  0  0  0
 62139  1  0  0  0
 63 65  1  0  0  0
 63140  1  0  0  0
 63141  1  0  0  0
 63142  1  0  0  0
 64143  1  0  0  0
 65144  1  0  0  0
 68 82  1  0  0  0
 71 73  2  0  0  0
 71 75  1  0  0  0
 71145  1  0  0  0
 72 74  2  0  0  0
 72 83  1  0  0  0
 72146  1  0  0  0
 73 80  1  0  0  0
 73 82  1  0  0  0
 74 76  1  0  0  0
 74 84  1  0  0  0
 75 77  1  0  0  0
 75 85  2  0  0  0
 76 78  1  0  0  0
 76147  1  0  0  0
 76148  1  0  0  0
 77 84  1  0  0  0
 77149  1  0  0  0
 77150  1  0  0  0
 78 79  1  0  0  0
 78151  1  0  0  0
 78152  1  0  0  0
 79 83  1  0  0  0
 79153  1  0  0  0
 79154  1  0  0  0
 80 81  1  0  0  0
 80 84  1  0  0  0
 80155  1  0  0  0
 81156  1  0  0  0
 81157  1  0  0  0
 81158  1  0  0  0
 82159  1  0  0  0
 82160  1  0  0  0
 84161  1  0  0  0
M  CHG  1  84   1
M  ISO  4   1 100  68 101  82 101  83 100
M  END
> <chiral flag>
0

> <version>
0

> <s_m_source_file>
/data/baiqing/PycharmProjects/Reinvent-master-3.2/result/LINK_invent/BTK/process_docking_weight1_custom_product_contain_oxygen_bond_distance_aromatic_linkinvent_7_9_3/rearranged_h_0086.sdf

> <i_m_source_file_index>
38

> <r_mmod_Potential_Energy-OPLS-2005>
779.052612304688

> <r_mmod_Stretch_Energy-OPLS-2005>
356.947998046875

> <r_mmod_Bend_Energy-OPLS-2005>
390.092071533203

> <r_mmod_Torsional_Energy-OPLS-2005>
372.940490722656

> <r_mmod_Improper_Torsional_Energy-OPLS-2005>
15.2065143585205

> <r_mmod_Van_der_Waal_Energy-OPLS-2005>
123.794189453125

> <r_mmod_Electrostatic_Energy-OPLS-2005>
-272.219818115234

> <r_mmod_Solvation_Energy-OPLS-2005>
-472.826141357422

> <b_mmod_Minimization_Converged-OPLS-2005>
0

> <r_mmod_RMS_Derivative-OPLS-2005>
6.79672384262085

$$$$
38
                    3D
 Structure written by MMmdl.
156165  0  0  1  0            999 V2000
  -30.6878  -14.4847   20.5593 C   0  0  0  0  0  0
  -30.4235  -12.3074   19.4320 C   0  0  0  0  0  0
  -29.4993  -12.5069   18.2121 C   0  0  0  0  0  0
  -28.0189  -12.3673   18.6194 C   0  0  0  0  0  0
  -27.6611  -13.2076   19.8747 C   0  0  2  0  0  0
  -28.7006  -12.9921   20.9990 C   0  0  0  0  0  0
  -25.2573  -13.8163   20.5652 C   0  0  0  0  0  0
  -24.1833  -13.0438   20.9175 C   0  0  0  0  0  0
  -24.6388  -11.6905   20.8733 C   0  0  0  0  0  0
  -23.9054  -10.4292   21.0406 C   0  0  0  0  0  0
  -24.3612   -9.4207   21.9180 C   0  0  0  0  0  0
  -23.6287   -8.2243   22.0752 C   0  0  0  0  0  0
  -22.4272   -8.0279   21.3544 C   0  0  0  0  0  0
  -21.9899   -9.0251   20.4648 C   0  0  0  0  0  0
  -22.7227  -10.2129   20.3056 C   0  0  0  0  0  0
  -21.6848   -6.0732   22.5277 C   0  0  0  0  0  0
  -21.4016   -6.5636   23.8210 C   0  0  0  0  0  0
  -21.3660   -5.6791   24.9173 C   0  0  0  0  0  0
  -21.6044   -4.3053   24.7223 C   0  0  0  0  0  0
  -21.8820   -3.8142   23.4348 C   0  0  0  0  0  0
  -21.9194   -4.6957   22.3400 C   0  0  0  0  0  0
  -22.7856  -13.5236   21.1839 C   0  0  0  0  0  0
  -22.1661   -4.2144   21.0979 F   0  0  0  0  0  0
  -21.5628   -3.4539   25.7738 F   0  0  0  0  0  0
  -30.0334  -13.2953   20.4510 N   0  0  0  0  0  0
  -26.3014  -12.9335   20.3345 N   0  0  0  0  0  0
  -25.9314  -11.6497   20.5759 N   0  0  0  0  0  0
  -22.0496  -12.8236   22.0404 N   0  0  0  0  0  0
  -25.4296  -15.1877   20.4014 N   0  0  0  0  0  0
  -31.8235  -14.6527   20.1055 O   0  0  0  0  0  0
  -21.6640   -6.8872   21.4238 O   0  0  0  0  0  0
  -22.3543  -14.5538   20.6678 O   0  0  0  0  0  0
  -24.6141  -31.8683   23.2093 C   0  0  0  0  0  0
  -25.9034  -32.4824   23.8396 C   0  0  1  0  0  0
  -27.2350  -27.4363   20.1004 C   0  0  0  0  0  0
  -25.5889  -33.8620   24.2330 N   0  0  0  0  0  0
  -23.4038  -30.4893   21.5496 C   0  0  2  0  0  0
  -24.8538  -28.9542   20.1151 C   0  0  0  0  0  0
  -22.7418  -29.4645   22.4990 C   0  0  0  0  0  0
  -18.0272  -28.1373   22.8495 C   0  0  0  0  0  0
  -24.1481  -36.7309   23.2634 C   0  0  0  0  0  0
  -25.9330  -30.8325   21.3650 C   0  0  0  0  0  0
  -26.0129  -29.4662   20.7143 C   0  0  0  0  0  0
  -27.2102  -28.7132   20.7071 C   0  0  0  0  0  0
  -26.0657  -26.9378   19.4954 C   0  0  0  0  0  0
  -24.8744  -27.6885   19.5025 C   0  0  0  0  0  0
  -23.6138  -29.8186   20.1654 C   0  0  0  0  0  0
  -25.4102  -36.3113   24.0339 C   0  0  1  0  0  0
  -20.5864  -28.3658   23.1316 C   0  0  2  0  0  0
  -20.6759  -26.9392   22.5411 C   0  0  0  0  0  0
  -19.5735  -26.6380   21.5207 C   0  0  0  0  0  0
  -18.1917  -26.7918   22.1624 C   0  0  0  0  0  0
  -19.1523  -28.8832   23.2904 C   0  0  0  0  0  0
  -18.9450  -30.1441   23.8908 C   0  0  0  0  0  0
  -17.6452  -30.6579   24.0559 C   0  0  0  0  0  0
  -25.9034  -34.9479   23.5134 C   0  0  0  0  0  0
  -16.5343  -29.9078   23.6326 C   0  0  0  0  0  0
  -16.7262  -28.6492   23.0355 C   0  0  0  0  0  0
  -26.4466  -31.6600   25.0719 C   0  0  0  0  0  0
  -25.3738  -31.3716   26.1476 C   0  0  0  0  0  0
  -27.0293  -30.3037   24.6101 C   0  0  0  0  0  0
  -27.6056  -32.4311   25.7471 C   0  0  0  0  0  0
  -27.5587  -37.1801   24.8459 C   0  0  0  0  0  0
  -21.4144  -29.3021   22.3726 N   0  0  0  0  0  0
  -26.4292  -37.3798   23.9416 N   0  0  0  0  0  0
  -24.6681  -31.0780   22.0996 N   0  0  0  0  0  0
  -23.4191  -28.8196   23.3035 O   0  0  0  0  0  0
  -28.3613  -26.6480   20.0883 O   0  0  0  0  0  0
  -26.5600  -34.8932   22.4699 O   0  0  0  0  0  0
  -23.5332  -32.1431   23.7488 O   0  0  0  0  0  0
  -28.9108  -17.6843   20.6574 C   0  0  0  0  0  0
  -31.3383  -17.5448   20.6447 C   0  0  0  0  0  0
  -28.9813  -19.0511   20.2877 C   0  0  0  0  0  0
  -31.4101  -18.9073   20.2801 C   0  0  0  0  0  0
  -30.0847  -16.9012   20.7937 C   0  0  0  0  0  0
  -30.2344  -19.6590   20.0676 C   0  0  0  0  0  0
  -28.8234  -24.5105   21.1692 C   0  0  0  0  0  0
  -29.0250  -23.6895   19.9891 C   0  0  0  0  0  0
  -28.5182  -25.8318   21.1842 C   0  0  0  0  0  0
  -29.0452  -23.6655   22.3943 C   0  0  0  0  0  0
  -29.7454  -22.4177   21.8393 C   0  0  0  0  0  0
  -29.4457  -22.4053   20.3974 N   0  0  0  0  0  0
  -29.9549  -15.5000   21.0708 N   0  0  0  0  0  0
  -28.9305  -24.0377   18.8092 O   0  0  0  0  0  0
  -31.7828  -21.7643   19.4992 O   0  0  0  0  0  0
  -29.7444  -21.3102   18.0526 O   0  0  0  0  0  0
  -30.3771  -21.3376   19.3827 S   0  0  0  0  0  0
  -31.4691  -12.4028   19.1335 H   0  0  0  0  0  0
  -30.3202  -11.2973   19.8318 H   0  0  0  0  0  0
  -29.7428  -11.7847   17.4313 H   0  0  0  0  0  0
  -29.6688  -13.4943   17.7793 H   0  0  0  0  0  0
  -27.8267  -11.3117   18.8134 H   0  0  0  0  0  0
  -27.3723  -12.6438   17.7859 H   0  0  0  0  0  0
  -27.7040  -14.2550   19.5745 H   0  0  0  0  0  0
  -28.6757  -11.9578   21.3450 H   0  0  0  0  0  0
  -28.4605  -13.5963   21.8751 H   0  0  0  0  0  0
  -25.2762   -9.5680   22.4746 H   0  0  0  0  0  0
  -23.9996   -7.4638   22.7473 H   0  0  0  0  0  0
  -21.0828   -8.8769   19.8960 H   0  0  0  0  0  0
  -22.3689  -10.9664   19.6162 H   0  0  0  0  0  0
  -21.2012   -7.6148   23.9709 H   0  0  0  0  0  0
  -21.1480   -6.0524   25.9074 H   0  0  0  0  0  0
  -22.0601   -2.7603   23.2850 H   0  0  0  0  0  0
  -22.4110  -11.9900   22.4803 H   0  0  0  0  0  0
  -21.1116  -13.1271   22.2612 H   0  0  0  0  0  0
  -24.6559  -15.8379   20.4861 H   0  0  0  0  0  0
  -26.2662  -15.6149   20.0254 H   0  0  0  0  0  0
  -26.7106  -32.5544   23.1167 H   0  0  0  0  0  0
  -25.0050  -33.9784   25.0480 H   0  0  0  0  0  0
  -22.6910  -31.3047   21.4088 H   0  0  0  0  0  0
  -23.3740  -35.9646   23.3312 H   0  0  0  0  0  0
  -24.3578  -36.8901   22.2045 H   0  0  0  0  0  0
  -23.7236  -37.6521   23.6638 H   0  0  0  0  0  0
  -26.0467  -31.5972   20.5960 H   0  0  0  0  0  0
  -26.8202  -30.8862   21.9843 H   0  0  0  0  0  0
  -28.1071  -29.1008   21.1702 H   0  0  0  0  0  0
  -26.0793  -25.9629   19.0295 H   0  0  0  0  0  0
  -23.9843  -27.2882   19.0369 H   0  0  0  0  0  0
  -23.7181  -30.5917   19.4034 H   0  0  0  0  0  0
  -22.7392  -29.2349   19.8726 H   0  0  0  0  0  0
  -25.1269  -36.1980   25.0830 H   0  0  0  0  0  0
  -20.9966  -28.3226   24.1433 H   0  0  0  0  0  0
  -20.5646  -26.2267   23.3599 H   0  0  0  0  0  0
  -21.6633  -26.7425   22.1209 H   0  0  0  0  0  0
  -19.6895  -25.6297   21.1217 H   0  0  0  0  0  0
  -19.6670  -27.3206   20.6749 H   0  0  0  0  0  0
  -17.4183  -26.6666   21.4032 H   0  0  0  0  0  0
  -18.0324  -26.0055   22.9014 H   0  0  0  0  0  0
  -19.7927  -30.7256   24.2281 H   0  0  0  0  0  0
  -17.5001  -31.6260   24.5159 H   0  0  0  0  0  0
  -15.5342  -30.2979   23.7645 H   0  0  0  0  0  0
  -15.8664  -28.0810   22.7074 H   0  0  0  0  0  0
  -24.5890  -30.7088   25.7809 H   0  0  0  0  0  0
  -24.8959  -32.2879   26.4952 H   0  0  0  0  0  0
  -25.8082  -30.8856   27.0219 H   0  0  0  0  0  0
  -26.2841  -29.6804   24.1148 H   0  0  0  0  0  0
  -27.4046  -29.7267   25.4562 H   0  0  0  0  0  0
  -27.8679  -30.4339   23.9259 H   0  0  0  0  0  0
  -27.2684  -33.3587   26.2108 H   0  0  0  0  0  0
  -28.3834  -32.6911   25.0278 H   0  0  0  0  0  0
  -28.0765  -31.8404   26.5338 H   0  0  0  0  0  0
  -28.2599  -38.0111   24.7548 H   0  0  0  0  0  0
  -28.1098  -36.2649   24.6231 H   0  0  0  0  0  0
  -27.2317  -37.1381   25.8867 H   0  0  0  0  0  0
  -20.9315  -29.8730   21.6931 H   0  0  0  0  0  0
  -26.0180  -38.2870   24.1448 H   0  0  0  0  0  0
  -27.9382  -17.2319   20.7883 H   0  0  0  0  0  0
  -32.2612  -16.9992   20.7754 H   0  0  0  0  0  0
  -28.0782  -19.6215   20.1274 H   0  0  0  0  0  0
  -32.3749  -19.3637   20.1166 H   0  0  0  0  0  0
  -28.3907  -26.3775   22.1087 H   0  0  0  0  0  0
  -28.0810  -23.4087   22.8351 H   0  0  0  0  0  0
  -29.6455  -24.1810   23.1442 H   0  0  0  0  0  0
  -29.4074  -21.4988   22.3199 H   0  0  0  0  0  0
  -30.8248  -22.4950   21.9829 H   0  0  0  0  0  0
  -29.0542  -15.2060   21.4174 H   0  0  0  0  0  0
  1 25  1  0  0  0
  1 30  2  0  0  0
  1 83  1  0  0  0
  2  3  1  0  0  0
  2 25  1  0  0  0
  2 88  1  0  0  0
  2 89  1  0  0  0
  3  4  1  0  0  0
  3 90  1  0  0  0
  3 91  1  0  0  0
  4  5  1  0  0  0
  4 92  1  0  0  0
  4 93  1  0  0  0
  5  6  1  0  0  0
  5 26  1  0  0  0
  5 94  1  0  0  0
  6 25  1  0  0  0
  6 95  1  0  0  0
  6 96  1  0  0  0
  7  8  2  0  0  0
  7 26  1  0  0  0
  7 29  1  0  0  0
  8  9  1  0  0  0
  8 22  1  0  0  0
  9 10  1  0  0  0
  9 27  2  0  0  0
 10 11  2  0  0  0
 10 15  1  0  0  0
 11 12  1  0  0  0
 11 97  1  0  0  0
 12 13  2  0  0  0
 12 98  1  0  0  0
 13 14  1  0  0  0
 13 31  1  0  0  0
 14 15  2  0  0  0
 14 99  1  0  0  0
 15100  1  0  0  0
 16 17  2  0  0  0
 16 21  1  0  0  0
 16 31  1  0  0  0
 17 18  1  0  0  0
 17101  1  0  0  0
 18 19  2  0  0  0
 18102  1  0  0  0
 19 20  1  0  0  0
 19 24  1  0  0  0
 20 21  2  0  0  0
 20103  1  0  0  0
 21 23  1  0  0  0
 22 28  1  0  0  0
 22 32  2  0  0  0
 26 27  1  0  0  0
 28104  1  0  0  0
 28105  1  0  0  0
 29106  1  0  0  0
 29107  1  0  0  0
 33 34  1  0  0  0
 33 66  1  0  0  0
 33 70  2  0  0  0
 34 36  1  0  0  0
 34 59  1  0  0  0
 34108  1  0  0  0
 35 44  2  0  0  0
 35 45  1  0  0  0
 35 68  1  0  0  0
 36 56  1  0  0  0
 36109  1  0  0  0
 37 39  1  0  0  0
 37 47  1  0  0  0
 37 66  1  0  0  0
 37110  1  0  0  0
 38 43  2  0  0  0
 38 46  1  0  0  0
 38 47  1  0  0  0
 39 64  1  0  0  0
 39 67  2  0  0  0
 40 52  1  0  0  0
 40 53  2  0  0  0
 40 58  1  0  0  0
 41111  1  0  0  0
 41112  1  0  0  0
 41113  1  0  0  0
 41 48  1  0  0  0
 42 43  1  0  0  0
 42 66  1  0  0  0
 42114  1  0  0  0
 42115  1  0  0  0
 43 44  1  0  0  0
 44116  1  0  0  0
 45 46  2  0  0  0
 45117  1  0  0  0
 46118  1  0  0  0
 47119  1  0  0  0
 47120  1  0  0  0
 48 56  1  0  0  0
 48 65  1  0  0  0
 48121  1  0  0  0
 49 50  1  0  0  0
 49 53  1  0  0  0
 49 64  1  0  0  0
 49122  1  0  0  0
 50 51  1  0  0  0
 50123  1  0  0  0
 50124  1  0  0  0
 51 52  1  0  0  0
 51125  1  0  0  0
 51126  1  0  0  0
 52127  1  0  0  0
 52128  1  0  0  0
 53 54  1  0  0  0
 54 55  2  0  0  0
 54129  1  0  0  0
 55 57  1  0  0  0
 55130  1  0  0  0
 56 69  2  0  0  0
 57 58  2  0  0  0
 57131  1  0  0  0
 58132  1  0  0  0
 59 60  1  0  0  0
 59 61  1  0  0  0
 59 62  1  0  0  0
 60133  1  0  0  0
 60134  1  0  0  0
 60135  1  0  0  0
 61136  1  0  0  0
 61137  1  0  0  0
 61138  1  0  0  0
 62139  1  0  0  0
 62140  1  0  0  0
 62141  1  0  0  0
 63 65  1  0  0  0
 63142  1  0  0  0
 63143  1  0  0  0
 63144  1  0  0  0
 64145  1  0  0  0
 65146  1  0  0  0
 68 79  1  0  0  0
 71 73  2  0  0  0
 71 75  1  0  0  0
 71147  1  0  0  0
 72 74  1  0  0  0
 72 75  2  0  0  0
 72148  1  0  0  0
 73 76  1  0  0  0
 73149  1  0  0  0
 74 76  2  0  0  0
 74150  1  0  0  0
 75 83  1  0  0  0
 76 87  1  0  0  0
 77 78  1  0  0  0
 77 79  2  0  0  0
 77 80  1  0  0  0
 78 82  1  0  0  0
 78 84  2  0  0  0
 79151  1  0  0  0
 80 81  1  0  0  0
 80152  1  0  0  0
 80153  1  0  0  0
 81 82  1  0  0  0
 81154  1  0  0  0
 81155  1  0  0  0
 82 87  1  0  0  0
 83156  1  0  0  0
 85 87  2  0  0  0
 86 87  2  0  0  0
M  ISO  4   1 100  68 101  79 101  83 100
M  END
> <chiral flag>
0

> <version>
0

> <s_m_source_file>
/data/baiqing/PycharmProjects/Reinvent-master-3.2/result/LINK_invent/BTK/process_docking_weight1_custom_product_contain_oxygen_bond_distance_aromatic_linkinvent_7_9_3/rearranged_h_0086.sdf

> <i_m_source_file_index>
39

> <r_mmod_Potential_Energy-OPLS-2005>
-71.1536102294922

> <r_mmod_Stretch_Energy-OPLS-2005>
38.2907409667969

> <r_mmod_Bend_Energy-OPLS-2005>
130.204223632812

> <r_mmod_Torsional_Energy-OPLS-2005>
251.993621826172

> <r_mmod_Improper_Torsional_Energy-OPLS-2005>
8.38612461090088

> <r_mmod_Van_der_Waal_Energy-OPLS-2005>
134.725982666016

> <r_mmod_Electrostatic_Energy-OPLS-2005>
-386.449340820312

> <r_mmod_Solvation_Energy-OPLS-2005>
-262.078735351562

> <b_mmod_Minimization_Converged-OPLS-2005>
0

> <r_mmod_RMS_Derivative-OPLS-2005>
1.08402824401855

$$$$
39
                    3D
 Structure written by MMmdl.
150159  0  0  1  0            999 V2000
  -30.5685  -14.7424   20.4852 C   0  0  0  0  0  0
  -30.4511  -12.4558   19.4667 C   0  0  0  0  0  0
  -29.5165  -12.5188   18.2354 C   0  0  0  0  0  0
  -28.0413  -12.3378   18.6472 C   0  0  0  0  0  0
  -27.6514  -13.2208   19.8617 C   0  0  2  0  0  0
  -28.6967  -13.1050   20.9940 C   0  0  0  0  0  0
  -25.2558  -13.8172   20.5689 C   0  0  0  0  0  0
  -24.1828  -13.0436   20.9197 C   0  0  0  0  0  0
  -24.6402  -11.6908   20.8741 C   0  0  0  0  0  0
  -23.9069  -10.4291   21.0407 C   0  0  0  0  0  0
  -24.3619   -9.4205   21.9183 C   0  0  0  0  0  0
  -23.6293   -8.2242   22.0753 C   0  0  0  0  0  0
  -22.4275   -8.0281   21.3544 C   0  0  0  0  0  0
  -21.9911   -9.0256   20.4648 C   0  0  0  0  0  0
  -22.7240  -10.2135   20.3057 C   0  0  0  0  0  0
  -21.6852   -6.0735   22.5279 C   0  0  0  0  0  0
  -21.4013   -6.5638   23.8212 C   0  0  0  0  0  0
  -21.3661   -5.6792   24.9175 C   0  0  0  0  0  0
  -21.6044   -4.3055   24.7226 C   0  0  0  0  0  0
  -21.8820   -3.8146   23.4348 C   0  0  0  0  0  0
  -21.9194   -4.6962   22.3403 C   0  0  0  0  0  0
  -22.7850  -13.5228   21.1859 C   0  0  0  0  0  0
  -22.1662   -4.2147   21.0981 F   0  0  0  0  0  0
  -21.5631   -3.4540   25.7739 F   0  0  0  0  0  0
  -30.0024  -13.4862   20.4306 N   0  0  0  0  0  0
  -26.2984  -12.9356   20.3312 N   0  0  0  0  0  0
  -25.9332  -11.6510   20.5754 N   0  0  0  0  0  0
  -22.0494  -12.8220   22.0416 N   0  0  0  0  0  0
  -25.4273  -15.1895   20.4100 N   0  0  0  0  0  0
  -31.7262  -14.9243   20.0934 O   0  0  0  0  0  0
  -21.6641   -6.8877   21.4240 O   0  0  0  0  0  0
  -22.3535  -14.5535   20.6705 O   0  0  0  0  0  0
  -24.6313  -31.8551   23.1983 C   0  0  0  0  0  0
  -25.9135  -32.4756   23.8333 C   0  0  1  0  0  0
  -27.2249  -27.2672   20.1291 C   0  0  0  0  0  0
  -25.5927  -33.8559   24.2254 N   0  0  0  0  0  0
  -23.4298  -30.4767   21.5413 C   0  0  2  0  0  0
  -24.8811  -28.9258   20.1087 C   0  0  0  0  0  0
  -22.7509  -29.4597   22.4906 C   0  0  0  0  0  0
  -18.0294  -28.1384   22.8486 C   0  0  0  0  0  0
  -24.1490  -36.7287   23.2640 C   0  0  0  0  0  0
  -25.9760  -30.7685   21.3802 C   0  0  0  0  0  0
  -26.0525  -29.3914   20.7220 C   0  0  0  0  0  0
  -27.2300  -28.5734   20.7249 C   0  0  0  0  0  0
  -26.0355  -26.8731   19.4795 C   0  0  0  0  0  0
  -24.8770  -27.6736   19.4759 C   0  0  0  0  0  0
  -23.6498  -29.8106   20.1575 C   0  0  0  0  0  0
  -25.4117  -36.3072   24.0325 C   0  0  1  0  0  0
  -20.5900  -28.3699   23.1264 C   0  0  2  0  0  0
  -20.6780  -26.9416   22.5406 C   0  0  0  0  0  0
  -19.5754  -26.6381   21.5212 C   0  0  0  0  0  0
  -18.1937  -26.7924   22.1630 C   0  0  0  0  0  0
  -19.1549  -28.8859   23.2870 C   0  0  0  0  0  0
  -18.9469  -30.1459   23.8888 C   0  0  0  0  0  0
  -17.6468  -30.6587   24.0562 C   0  0  0  0  0  0
  -25.9054  -34.9442   23.5094 C   0  0  0  0  0  0
  -16.5359  -29.9084   23.6331 C   0  0  0  0  0  0
  -16.7280  -28.6501   23.0354 C   0  0  0  0  0  0
  -26.4500  -31.6581   25.0723 C   0  0  0  0  0  0
  -25.3721  -31.3739   26.1442 C   0  0  0  0  0  0
  -27.0350  -30.2994   24.6218 C   0  0  0  0  0  0
  -27.6046  -32.4328   25.7500 C   0  0  0  0  0  0
  -27.5578  -37.1801   24.8467 C   0  0  0  0  0  0
  -21.4214  -29.3046   22.3651 N   0  0  0  0  0  0
  -26.4293  -37.3769   23.9405 N   0  0  0  0  0  0
  -24.6978  -31.0511   22.0963 N   0  0  0  0  0  0
  -23.4203  -28.8138   23.3011 O   0  0  0  0  0  0
  -28.2747  -26.3196   20.1796 O   0  0  0  0  0  0
  -26.5633  -34.8915   22.4667 O   0  0  0  0  0  0
  -23.5460  -32.1373   23.7272 O   0  0  0  0  0  0
  -28.4029  -19.3345   21.3720 C   0  0  0  0  0  0
  -30.2787  -19.5677   19.9757 C   0  0  0  0  0  0
  -28.6085  -17.9214   21.4327 C   0  0  0  0  0  0
  -30.5100  -18.1383   20.0304 C   0  0  0  0  0  0
  -29.2087  -20.2590   20.6419 C   0  0  0  0  0  0
  -29.6683  -17.2520   20.7675 C   0  0  0  0  0  0
  -28.4293  -23.7432   20.6065 C   0  0  0  0  0  0
  -27.9214  -22.5499   21.2755 C   0  0  0  0  0  0
  -27.9438  -25.0462   20.7318 C   0  0  0  0  0  0
  -29.4924  -22.8480   19.8987 C   0  0  0  0  0  0
  -28.8783  -21.7167   20.6595 N   0  0  0  0  0  0
  -29.7251  -15.7689   20.8757 N   0  0  0  0  0  0
  -27.0000  -22.4088   22.0534 O   0  0  0  0  0  0
  -31.4873  -12.6094   19.1601 H   0  0  0  0  0  0
  -30.4196  -11.4667   19.9265 H   0  0  0  0  0  0
  -29.7978  -11.7551   17.5089 H   0  0  0  0  0  0
  -29.6389  -13.4788   17.7316 H   0  0  0  0  0  0
  -27.8959  -11.2860   18.8961 H   0  0  0  0  0  0
  -27.3834  -12.5432   17.8020 H   0  0  0  0  0  0
  -27.6590  -14.2507   19.5044 H   0  0  0  0  0  0
  -28.7336  -12.0849   21.3792 H   0  0  0  0  0  0
  -28.4235  -13.7320   21.8440 H   0  0  0  0  0  0
  -25.2765   -9.5679   22.4756 H   0  0  0  0  0  0
  -24.0002   -7.4632   22.7472 H   0  0  0  0  0  0
  -21.0841   -8.8775   19.8954 H   0  0  0  0  0  0
  -22.3699  -10.9675   19.6168 H   0  0  0  0  0  0
  -21.2003   -7.6146   23.9714 H   0  0  0  0  0  0
  -21.1482   -6.0523   25.9077 H   0  0  0  0  0  0
  -22.0598   -2.7608   23.2849 H   0  0  0  0  0  0
  -22.4112  -11.9883   22.4805 H   0  0  0  0  0  0
  -21.1112  -13.1244   22.2625 H   0  0  0  0  0  0
  -24.6575  -15.8417   20.5130 H   0  0  0  0  0  0
  -26.2695  -15.6261   20.0572 H   0  0  0  0  0  0
  -26.7203  -32.5413   23.1078 H   0  0  0  0  0  0
  -25.0056  -33.9694   25.0388 H   0  0  0  0  0  0
  -22.7267  -31.2991   21.3942 H   0  0  0  0  0  0
  -23.3748  -35.9624   23.3310 H   0  0  0  0  0  0
  -24.3576  -36.8903   22.2053 H   0  0  0  0  0  0
  -23.7250  -37.6493   23.6660 H   0  0  0  0  0  0
  -26.1151  -31.5291   20.6108 H   0  0  0  0  0  0
  -26.8527  -30.8178   22.0143 H   0  0  0  0  0  0
  -28.1239  -28.9182   21.2254 H   0  0  0  0  0  0
  -25.9908  -25.9067   18.9974 H   0  0  0  0  0  0
  -23.9817  -27.3114   18.9890 H   0  0  0  0  0  0
  -23.7723  -30.5871   19.4016 H   0  0  0  0  0  0
  -22.7691  -29.2423   19.8529 H   0  0  0  0  0  0
  -25.1300  -36.1921   25.0818 H   0  0  0  0  0  0
  -20.9994  -28.3279   24.1384 H   0  0  0  0  0  0
  -20.5679  -26.2312   23.3613 H   0  0  0  0  0  0
  -21.6647  -26.7435   22.1201 H   0  0  0  0  0  0
  -19.6917  -25.6289   21.1246 H   0  0  0  0  0  0
  -19.6687  -27.3188   20.6739 H   0  0  0  0  0  0
  -17.4203  -26.6666   21.4037 H   0  0  0  0  0  0
  -18.0347  -26.0068   22.9029 H   0  0  0  0  0  0
  -19.7945  -30.7279   24.2251 H   0  0  0  0  0  0
  -17.5022  -31.6265   24.5167 H   0  0  0  0  0  0
  -15.5359  -30.2985   23.7655 H   0  0  0  0  0  0
  -15.8682  -28.0815   22.7074 H   0  0  0  0  0  0
  -24.5878  -30.7113   25.7763 H   0  0  0  0  0  0
  -24.8937  -32.2916   26.4871 H   0  0  0  0  0  0
  -25.8026  -30.8900   27.0217 H   0  0  0  0  0  0
  -26.2939  -29.6739   24.1226 H   0  0  0  0  0  0
  -27.4008  -29.7259   25.4745 H   0  0  0  0  0  0
  -27.8828  -30.4263   23.9482 H   0  0  0  0  0  0
  -27.2638  -33.3623   26.2072 H   0  0  0  0  0  0
  -28.3859  -32.6897   25.0335 H   0  0  0  0  0  0
  -28.0713  -31.8462   26.5425 H   0  0  0  0  0  0
  -28.2602  -38.0091   24.7498 H   0  0  0  0  0  0
  -28.1067  -36.2621   24.6314 H   0  0  0  0  0  0
  -27.2292  -37.1474   25.8869 H   0  0  0  0  0  0
  -20.9401  -29.8772   21.6857 H   0  0  0  0  0  0
  -26.0174  -38.2846   24.1392 H   0  0  0  0  0  0
  -27.5585  -19.7204   21.9252 H   0  0  0  0  0  0
  -30.9661  -20.1570   19.3856 H   0  0  0  0  0  0
  -27.9079  -17.3412   22.0169 H   0  0  0  0  0  0
  -31.3442  -17.7292   19.4781 H   0  0  0  0  0  0
  -27.1101  -25.1709   21.4114 H   0  0  0  0  0  0
  -30.5386  -22.9973   20.1702 H   0  0  0  0  0  0
  -29.3951  -22.7088   18.8208 H   0  0  0  0  0  0
  -28.8810  -15.3792   21.2665 H   0  0  0  0  0  0
  1 25  1  0  0  0
  1 30  2  0  0  0
  1 82  1  0  0  0
  2  3  1  0  0  0
  2 25  1  0  0  0
  2 84  1  0  0  0
  2 85  1  0  0  0
  3  4  1  0  0  0
  3 86  1  0  0  0
  3 87  1  0  0  0
  4  5  1  0  0  0
  4 88  1  0  0  0
  4 89  1  0  0  0
  5  6  1  0  0  0
  5 26  1  0  0  0
  5 90  1  0  0  0
  6 25  1  0  0  0
  6 91  1  0  0  0
  6 92  1  0  0  0
  7  8  2  0  0  0
  7 26  1  0  0  0
  7 29  1  0  0  0
  8  9  1  0  0  0
  8 22  1  0  0  0
  9 10  1  0  0  0
  9 27  2  0  0  0
 10 11  2  0  0  0
 10 15  1  0  0  0
 11 12  1  0  0  0
 11 93  1  0  0  0
 12 13  2  0  0  0
 12 94  1  0  0  0
 13 14  1  0  0  0
 13 31  1  0  0  0
 14 15  2  0  0  0
 14 95  1  0  0  0
 15 96  1  0  0  0
 16 17  2  0  0  0
 16 21  1  0  0  0
 16 31  1  0  0  0
 17 18  1  0  0  0
 17 97  1  0  0  0
 18 19  2  0  0  0
 18 98  1  0  0  0
 19 20  1  0  0  0
 19 24  1  0  0  0
 20 21  2  0  0  0
 20 99  1  0  0  0
 21 23  1  0  0  0
 22 28  1  0  0  0
 22 32  2  0  0  0
 26 27  1  0  0  0
 28100  1  0  0  0
 28101  1  0  0  0
 29102  1  0  0  0
 29103  1  0  0  0
 33 34  1  0  0  0
 33 66  1  0  0  0
 33 70  2  0  0  0
 34 36  1  0  0  0
 34 59  1  0  0  0
 34104  1  0  0  0
 35 44  2  0  0  0
 35 45  1  0  0  0
 35 68  1  0  0  0
 36 56  1  0  0  0
 36105  1  0  0  0
 37 39  1  0  0  0
 37 47  1  0  0  0
 37 66  1  0  0  0
 37106  1  0  0  0
 38 43  2  0  0  0
 38 46  1  0  0  0
 38 47  1  0  0  0
 39 64  1  0  0  0
 39 67  2  0  0  0
 40 52  1  0  0  0
 40 53  2  0  0  0
 40 58  1  0  0  0
 41107  1  0  0  0
 41108  1  0  0  0
 41109  1  0  0  0
 41 48  1  0  0  0
 42 43  1  0  0  0
 42 66  1  0  0  0
 42110  1  0  0  0
 42111  1  0  0  0
 43 44  1  0  0  0
 44112  1  0  0  0
 45 46  2  0  0  0
 45113  1  0  0  0
 46114  1  0  0  0
 47115  1  0  0  0
 47116  1  0  0  0
 48 56  1  0  0  0
 48 65  1  0  0  0
 48117  1  0  0  0
 49 50  1  0  0  0
 49 53  1  0  0  0
 49 64  1  0  0  0
 49118  1  0  0  0
 50 51  1  0  0  0
 50119  1  0  0  0
 50120  1  0  0  0
 51 52  1  0  0  0
 51121  1  0  0  0
 51122  1  0  0  0
 52123  1  0  0  0
 52124  1  0  0  0
 53 54  1  0  0  0
 54 55  2  0  0  0
 54125  1  0  0  0
 55 57  1  0  0  0
 55126  1  0  0  0
 56 69  2  0  0  0
 57 58  2  0  0  0
 57127  1  0  0  0
 58128  1  0  0  0
 59 60  1  0  0  0
 59 61  1  0  0  0
 59 62  1  0  0  0
 60129  1  0  0  0
 60130  1  0  0  0
 60131  1  0  0  0
 61132  1  0  0  0
 61133  1  0  0  0
 61134  1  0  0  0
 62135  1  0  0  0
 62136  1  0  0  0
 62137  1  0  0  0
 63 65  1  0  0  0
 63138  1  0  0  0
 63139  1  0  0  0
 63140  1  0  0  0
 64141  1  0  0  0
 65142  1  0  0  0
 68 79  1  0  0  0
 71 73  2  0  0  0
 71 75  1  0  0  0
 71143  1  0  0  0
 72 74  1  0  0  0
 72 75  2  0  0  0
 72144  1  0  0  0
 73 76  1  0  0  0
 73145  1  0  0  0
 74 76  2  0  0  0
 74146  1  0  0  0
 75 81  1  0  0  0
 76 82  1  0  0  0
 77 78  1  0  0  0
 77 79  2  0  0  0
 77 80  1  0  0  0
 78 81  1  0  0  0
 78 83  2  0  0  0
 79147  1  0  0  0
 80 81  1  0  0  0
 80148  1  0  0  0
 80149  1  0  0  0
 82150  1  0  0  0
M  ISO  4   1 100  68 101  79 101  82 100
M  END
> <chiral flag>
0

> <version>
0

> <s_m_source_file>
/data/baiqing/PycharmProjects/Reinvent-master-3.2/result/LINK_invent/BTK/process_docking_weight1_custom_product_contain_oxygen_bond_distance_aromatic_linkinvent_7_9_3/rearranged_h_0086.sdf

> <i_m_source_file_index>
40

> <r_mmod_Potential_Energy-OPLS-2005>
216.110015869141

> <r_mmod_Stretch_Energy-OPLS-2005>
106.537666320801

> <r_mmod_Bend_Energy-OPLS-2005>
270.702850341797

> <r_mmod_Torsional_Energy-OPLS-2005>
219.89909362793

> <r_mmod_Improper_Torsional_Energy-OPLS-2005>
3.45828318595886

> <r_mmod_Van_der_Waal_Energy-OPLS-2005>
134.482055664062

> <r_mmod_Electrostatic_Energy-OPLS-2005>
-389.401977539062

> <r_mmod_Solvation_Energy-OPLS-2005>
-217.736526489258

> <b_mmod_Minimization_Converged-OPLS-2005>
0

> <r_mmod_RMS_Derivative-OPLS-2005>
0.385791778564453

$$$$
40
                    3D
 Structure written by MMmdl.
152161  0  0  1  0            999 V2000
  -30.5887  -14.7453   20.4508 C   0  0  0  0  0  0
  -30.4491  -12.4527   19.4598 C   0  0  0  0  0  0
  -29.5126  -12.5107   18.2308 C   0  0  0  0  0  0
  -28.0383  -12.3328   18.6487 C   0  0  0  0  0  0
  -27.6467  -13.2242   19.8573 C   0  0  2  0  0  0
  -28.7002  -13.1343   20.9850 C   0  0  0  0  0  0
  -25.2501  -13.8132   20.5765 C   0  0  0  0  0  0
  -24.1787  -13.0370   20.9199 C   0  0  0  0  0  0
  -24.6397  -11.6867   20.8733 C   0  0  0  0  0  0
  -23.9074  -10.4256   21.0393 C   0  0  0  0  0  0
  -24.3620   -9.4180   21.9180 C   0  0  0  0  0  0
  -23.6288   -8.2224   22.0755 C   0  0  0  0  0  0
  -22.4270   -8.0268   21.3544 C   0  0  0  0  0  0
  -21.9907   -9.0240   20.4643 C   0  0  0  0  0  0
  -22.7244  -10.2110   20.3046 C   0  0  0  0  0  0
  -21.6848   -6.0730   22.5281 C   0  0  0  0  0  0
  -21.4010   -6.5636   23.8214 C   0  0  0  0  0  0
  -21.3659   -5.6789   24.9176 C   0  0  0  0  0  0
  -21.6045   -4.3052   24.7227 C   0  0  0  0  0  0
  -21.8820   -3.8143   23.4348 C   0  0  0  0  0  0
  -21.9191   -4.6959   22.3404 C   0  0  0  0  0  0
  -22.7808  -13.5164   21.1864 C   0  0  0  0  0  0
  -22.1661   -4.2146   21.0981 F   0  0  0  0  0  0
  -21.5630   -3.4537   25.7740 F   0  0  0  0  0  0
  -30.0039  -13.4983   20.4053 N   0  0  0  0  0  0
  -26.2968  -12.9366   20.3346 N   0  0  0  0  0  0
  -25.9336  -11.6502   20.5760 N   0  0  0  0  0  0
  -22.0460  -12.8165   22.0431 N   0  0  0  0  0  0
  -25.3998  -15.1871   20.4368 N   0  0  0  0  0  0
  -31.7757  -14.8968   20.1476 O   0  0  0  0  0  0
  -21.6629   -6.8871   21.4242 O   0  0  0  0  0  0
  -22.3488  -14.5475   20.6719 O   0  0  0  0  0  0
  -24.6313  -31.8556   23.1998 C   0  0  0  0  0  0
  -25.9138  -32.4759   23.8344 C   0  0  1  0  0  0
  -27.2267  -27.2712   20.1258 C   0  0  0  0  0  0
  -25.5933  -33.8562   24.2264 N   0  0  0  0  0  0
  -23.4297  -30.4783   21.5422 C   0  0  2  0  0  0
  -24.8819  -28.9317   20.1064 C   0  0  0  0  0  0
  -22.7511  -29.4599   22.4905 C   0  0  0  0  0  0
  -18.0294  -28.1389   22.8483 C   0  0  0  0  0  0
  -24.1490  -36.7286   23.2639 C   0  0  0  0  0  0
  -25.9764  -30.7694   21.3831 C   0  0  0  0  0  0
  -26.0526  -29.3935   20.7238 C   0  0  0  0  0  0
  -27.2287  -28.5735   20.7296 C   0  0  0  0  0  0
  -26.0405  -26.8902   19.4578 C   0  0  0  0  0  0
  -24.8803  -27.6863   19.4620 C   0  0  0  0  0  0
  -23.6499  -29.8149   20.1575 C   0  0  0  0  0  0
  -25.4116  -36.3072   24.0326 C   0  0  1  0  0  0
  -20.5900  -28.3702   23.1263 C   0  0  2  0  0  0
  -20.6782  -26.9418   22.5406 C   0  0  0  0  0  0
  -19.5756  -26.6383   21.5212 C   0  0  0  0  0  0
  -18.1937  -26.7930   22.1625 C   0  0  0  0  0  0
  -19.1548  -28.8863   23.2868 C   0  0  0  0  0  0
  -18.9468  -30.1462   23.8888 C   0  0  0  0  0  0
  -17.6467  -30.6589   24.0561 C   0  0  0  0  0  0
  -25.9056  -34.9442   23.5097 C   0  0  0  0  0  0
  -16.5358  -29.9085   23.6332 C   0  0  0  0  0  0
  -16.7280  -28.6503   23.0354 C   0  0  0  0  0  0
  -26.4505  -31.6584   25.0733 C   0  0  0  0  0  0
  -25.3723  -31.3734   26.1448 C   0  0  0  0  0  0
  -27.0358  -30.2998   24.6229 C   0  0  0  0  0  0
  -27.6054  -32.4330   25.7507 C   0  0  0  0  0  0
  -27.5579  -37.1798   24.8465 C   0  0  0  0  0  0
  -21.4217  -29.3046   22.3650 N   0  0  0  0  0  0
  -26.4291  -37.3771   23.9408 N   0  0  0  0  0  0
  -24.6978  -31.0520   22.0979 N   0  0  0  0  0  0
  -23.4207  -28.8136   23.3005 O   0  0  0  0  0  0
  -28.2750  -26.3196   20.1929 O   0  0  0  0  0  0
  -26.5628  -34.8915   22.4666 O   0  0  0  0  0  0
  -23.5460  -32.1378   23.7287 O   0  0  0  0  0  0
  -28.3388  -19.3212   20.1137 C   0  0  0  0  0  0
  -30.7827  -18.2036   20.7977 C   0  0  0  0  0  0
  -29.3303  -20.2783   20.4817 C   0  0  0  0  0  0
  -28.5332  -17.9048   20.0853 C   0  0  0  0  0  0
  -29.7443  -17.2811   20.4794 C   0  0  0  0  0  0
  -30.5811  -19.6361   20.7817 C   0  0  0  0  0  0
  -28.4606  -23.7250   20.5038 C   0  0  0  0  0  0
  -27.8364  -22.4709   20.9086 C   0  0  0  0  0  0
  -27.8936  -24.9964   20.5735 C   0  0  0  0  0  0
  -29.7139  -22.9144   20.0596 C   0  0  0  0  0  0
  -28.9880  -21.7256   20.6028 N   0  0  0  0  0  0
  -27.4961  -17.0902   19.6353 N   0  0  0  0  0  0
  -29.7209  -15.8037   20.6294 N   0  0  0  0  0  0
  -26.7114  -22.2322   21.2967 O   0  0  0  0  0  0
  -31.6252  -20.4236   21.1368 F   0  0  0  0  0  0
  -31.4857  -12.5980   19.1508 H   0  0  0  0  0  0
  -30.4099  -11.4700   19.9323 H   0  0  0  0  0  0
  -29.7909  -11.7427   17.5080 H   0  0  0  0  0  0
  -29.6347  -13.4679   17.7212 H   0  0  0  0  0  0
  -27.8953  -11.2826   18.9056 H   0  0  0  0  0  0
  -27.3783  -12.5305   17.8033 H   0  0  0  0  0  0
  -27.6391  -14.2477   19.4857 H   0  0  0  0  0  0
  -28.7369  -12.1262   21.4003 H   0  0  0  0  0  0
  -28.4380  -13.7926   21.8150 H   0  0  0  0  0  0
  -25.2765   -9.5656   22.4755 H   0  0  0  0  0  0
  -23.9992   -7.4616   22.7477 H   0  0  0  0  0  0
  -21.0837   -8.8762   19.8951 H   0  0  0  0  0  0
  -22.3708  -10.9650   19.6153 H   0  0  0  0  0  0
  -21.2001   -7.6144   23.9716 H   0  0  0  0  0  0
  -21.1481   -6.0520   25.9079 H   0  0  0  0  0  0
  -22.0601   -2.7606   23.2849 H   0  0  0  0  0  0
  -22.4080  -11.9826   22.4816 H   0  0  0  0  0  0
  -21.1082  -13.1194   22.2648 H   0  0  0  0  0  0
  -24.6176  -15.8136   20.5856 H   0  0  0  0  0  0
  -26.2560  -15.6982   20.2154 H   0  0  0  0  0  0
  -26.7206  -32.5416   23.1089 H   0  0  0  0  0  0
  -25.0076  -33.9701   25.0406 H   0  0  0  0  0  0
  -22.7260  -31.3005   21.3965 H   0  0  0  0  0  0
  -23.3754  -35.9616   23.3297 H   0  0  0  0  0  0
  -24.3581  -36.8913   22.2054 H   0  0  0  0  0  0
  -23.7242  -37.6484   23.6667 H   0  0  0  0  0  0
  -26.1172  -31.5312   20.6151 H   0  0  0  0  0  0
  -26.8527  -30.8173   22.0179 H   0  0  0  0  0  0
  -28.1191  -28.9139   21.2394 H   0  0  0  0  0  0
  -25.9927  -25.9335   18.9569 H   0  0  0  0  0  0
  -23.9878  -27.3292   18.9667 H   0  0  0  0  0  0
  -23.7717  -30.5929   19.4030 H   0  0  0  0  0  0
  -22.7696  -29.2464   19.8520 H   0  0  0  0  0  0
  -25.1298  -36.1920   25.0819 H   0  0  0  0  0  0
  -20.9993  -28.3283   24.1384 H   0  0  0  0  0  0
  -20.5682  -26.2313   23.3613 H   0  0  0  0  0  0
  -21.6649  -26.7440   22.1200 H   0  0  0  0  0  0
  -19.6918  -25.6292   21.1247 H   0  0  0  0  0  0
  -19.6692  -27.3189   20.6737 H   0  0  0  0  0  0
  -17.4206  -26.6675   21.4028 H   0  0  0  0  0  0
  -18.0339  -26.0074   22.9024 H   0  0  0  0  0  0
  -19.7944  -30.7281   24.2253 H   0  0  0  0  0  0
  -17.5021  -31.6268   24.5164 H   0  0  0  0  0  0
  -15.5358  -30.2984   23.7662 H   0  0  0  0  0  0
  -15.8680  -28.0818   22.7075 H   0  0  0  0  0  0
  -24.5905  -30.7077   25.7774 H   0  0  0  0  0  0
  -24.8907  -32.2903   26.4855 H   0  0  0  0  0  0
  -25.8036  -30.8924   27.0236 H   0  0  0  0  0  0
  -26.2951  -29.6740   24.1238 H   0  0  0  0  0  0
  -27.4017  -29.7267   25.4759 H   0  0  0  0  0  0
  -27.8839  -30.4268   23.9497 H   0  0  0  0  0  0
  -27.2658  -33.3635   26.2068 H   0  0  0  0  0  0
  -28.3873  -32.6882   25.0343 H   0  0  0  0  0  0
  -28.0713  -31.8467   26.5438 H   0  0  0  0  0  0
  -28.2593  -38.0099   24.7514 H   0  0  0  0  0  0
  -28.1079  -36.2629   24.6289 H   0  0  0  0  0  0
  -27.2297  -37.1444   25.8868 H   0  0  0  0  0  0
  -20.9405  -29.8771   21.6854 H   0  0  0  0  0  0
  -26.0170  -38.2845   24.1408 H   0  0  0  0  0  0
  -27.3641  -19.7003   19.8430 H   0  0  0  0  0  0
  -31.7449  -17.8234   21.1056 H   0  0  0  0  0  0
  -26.9099  -25.0267   21.0242 H   0  0  0  0  0  0
  -30.6506  -23.0943   20.5894 H   0  0  0  0  0  0
  -29.8944  -22.8228   18.9873 H   0  0  0  0  0  0
  -26.7158  -17.5978   19.2305 H   0  0  0  0  0  0
  -27.8117  -16.3891   18.9742 H   0  0  0  0  0  0
  -28.7730  -15.4777   20.7456 H   0  0  0  0  0  0
  1 25  1  0  0  0
  1 30  2  0  0  0
  1 83  1  0  0  0
  2  3  1  0  0  0
  2 25  1  0  0  0
  2 86  1  0  0  0
  2 87  1  0  0  0
  3  4  1  0  0  0
  3 88  1  0  0  0
  3 89  1  0  0  0
  4  5  1  0  0  0
  4 90  1  0  0  0
  4 91  1  0  0  0
  5  6  1  0  0  0
  5 26  1  0  0  0
  5 92  1  0  0  0
  6 25  1  0  0  0
  6 93  1  0  0  0
  6 94  1  0  0  0
  7  8  2  0  0  0
  7 26  1  0  0  0
  7 29  1  0  0  0
  8  9  1  0  0  0
  8 22  1  0  0  0
  9 10  1  0  0  0
  9 27  2  0  0  0
 10 11  2  0  0  0
 10 15  1  0  0  0
 11 12  1  0  0  0
 11 95  1  0  0  0
 12 13  2  0  0  0
 12 96  1  0  0  0
 13 14  1  0  0  0
 13 31  1  0  0  0
 14 15  2  0  0  0
 14 97  1  0  0  0
 15 98  1  0  0  0
 16 17  2  0  0  0
 16 21  1  0  0  0
 16 31  1  0  0  0
 17 18  1  0  0  0
 17 99  1  0  0  0
 18 19  2  0  0  0
 18100  1  0  0  0
 19 20  1  0  0  0
 19 24  1  0  0  0
 20 21  2  0  0  0
 20101  1  0  0  0
 21 23  1  0  0  0
 22 28  1  0  0  0
 22 32  2  0  0  0
 26 27  1  0  0  0
 28102  1  0  0  0
 28103  1  0  0  0
 29104  1  0  0  0
 29105  1  0  0  0
 33 34  1  0  0  0
 33 66  1  0  0  0
 33 70  2  0  0  0
 34 36  1  0  0  0
 34 59  1  0  0  0
 34106  1  0  0  0
 35 44  2  0  0  0
 35 45  1  0  0  0
 35 68  1  0  0  0
 36 56  1  0  0  0
 36107  1  0  0  0
 37 39  1  0  0  0
 37 47  1  0  0  0
 37 66  1  0  0  0
 37108  1  0  0  0
 38 43  2  0  0  0
 38 46  1  0  0  0
 38 47  1  0  0  0
 39 64  1  0  0  0
 39 67  2  0  0  0
 40 52  1  0  0  0
 40 53  2  0  0  0
 40 58  1  0  0  0
 41109  1  0  0  0
 41110  1  0  0  0
 41111  1  0  0  0
 41 48  1  0  0  0
 42 43  1  0  0  0
 42 66  1  0  0  0
 42112  1  0  0  0
 42113  1  0  0  0
 43 44  1  0  0  0
 44114  1  0  0  0
 45 46  2  0  0  0
 45115  1  0  0  0
 46116  1  0  0  0
 47117  1  0  0  0
 47118  1  0  0  0
 48 56  1  0  0  0
 48 65  1  0  0  0
 48119  1  0  0  0
 49 50  1  0  0  0
 49 53  1  0  0  0
 49 64  1  0  0  0
 49120  1  0  0  0
 50 51  1  0  0  0
 50121  1  0  0  0
 50122  1  0  0  0
 51 52  1  0  0  0
 51123  1  0  0  0
 51124  1  0  0  0
 52125  1  0  0  0
 52126  1  0  0  0
 53 54  1  0  0  0
 54 55  2  0  0  0
 54127  1  0  0  0
 55 57  1  0  0  0
 55128  1  0  0  0
 56 69  2  0  0  0
 57 58  2  0  0  0
 57129  1  0  0  0
 58130  1  0  0  0
 59 60  1  0  0  0
 59 61  1  0  0  0
 59 62  1  0  0  0
 60131  1  0  0  0
 60132  1  0  0  0
 60133  1  0  0  0
 61134  1  0  0  0
 61135  1  0  0  0
 61136  1  0  0  0
 62137  1  0  0  0
 62138  1  0  0  0
 62139  1  0  0  0
 63 65  1  0  0  0
 63140  1  0  0  0
 63141  1  0  0  0
 63142  1  0  0  0
 64143  1  0  0  0
 65144  1  0  0  0
 68 79  1  0  0  0
 71 73  2  0  0  0
 71 74  1  0  0  0
 71145  1  0  0  0
 72 75  1  0  0  0
 72 76  2  0  0  0
 72146  1  0  0  0
 73 76  1  0  0  0
 73 81  1  0  0  0
 74 75  2  0  0  0
 74 82  1  0  0  0
 75 83  1  0  0  0
 76 85  1  0  0  0
 77 78  1  0  0  0
 77 79  2  0  0  0
 77 80  1  0  0  0
 78 81  1  0  0  0
 78 84  2  0  0  0
 79147  1  0  0  0
 80 81  1  0  0  0
 80148  1  0  0  0
 80149  1  0  0  0
 82150  1  0  0  0
 82151  1  0  0  0
 83152  1  0  0  0
M  ISO  4   1 100  68 101  79 101  83 100
M  END
> <chiral flag>
0

> <version>
0

> <s_m_source_file>
/data/baiqing/PycharmProjects/Reinvent-master-3.2/result/LINK_invent/BTK/process_docking_weight1_custom_product_contain_oxygen_bond_distance_aromatic_linkinvent_7_9_3/rearranged_h_0086.sdf

> <i_m_source_file_index>
41

> <r_mmod_Potential_Energy-OPLS-2005>
154.847717285156

> <r_mmod_Stretch_Energy-OPLS-2005>
102.904510498047

> <r_mmod_Bend_Energy-OPLS-2005>
266.284454345703

> <r_mmod_Torsional_Energy-OPLS-2005>
255.231262207031

> <r_mmod_Improper_Torsional_Energy-OPLS-2005>
12.5843648910522

> <r_mmod_Van_der_Waal_Energy-OPLS-2005>
144.132705688477

> <r_mmod_Electrostatic_Energy-OPLS-2005>
-502.894989013672

> <r_mmod_Solvation_Energy-OPLS-2005>
-213.390075683594

> <b_mmod_Minimization_Converged-OPLS-2005>
1

> <r_mmod_RMS_Derivative-OPLS-2005>
0.0417128279805183

$$$$
41
                    3D
 Structure written by MMmdl.
152160  0  0  1  0            999 V2000
  -30.7024  -14.5289   20.5407 C   0  0  0  0  0  0
  -30.4190  -12.3323   19.4402 C   0  0  0  0  0  0
  -29.4964  -12.4984   18.2154 C   0  0  0  0  0  0
  -28.0194  -12.3529   18.6285 C   0  0  0  0  0  0
  -27.6562  -13.2145   19.8682 C   0  0  2  0  0  0
  -28.7000  -13.0481   20.9964 C   0  0  0  0  0  0
  -25.2561  -13.8175   20.5679 C   0  0  0  0  0  0
  -24.1828  -13.0443   20.9187 C   0  0  0  0  0  0
  -24.6393  -11.6911   20.8741 C   0  0  0  0  0  0
  -23.9064  -10.4295   21.0404 C   0  0  0  0  0  0
  -24.3614   -9.4209   21.9182 C   0  0  0  0  0  0
  -23.6289   -8.2244   22.0756 C   0  0  0  0  0  0
  -22.4274   -8.0279   21.3544 C   0  0  0  0  0  0
  -21.9906   -9.0253   20.4649 C   0  0  0  0  0  0
  -22.7234  -10.2133   20.3056 C   0  0  0  0  0  0
  -21.6853   -6.0731   22.5277 C   0  0  0  0  0  0
  -21.4017   -6.5636   23.8211 C   0  0  0  0  0  0
  -21.3659   -5.6789   24.9173 C   0  0  0  0  0  0
  -21.6043   -4.3053   24.7225 C   0  0  0  0  0  0
  -21.8819   -3.8144   23.4347 C   0  0  0  0  0  0
  -21.9194   -4.6959   22.3402 C   0  0  0  0  0  0
  -22.7848  -13.5232   21.1846 C   0  0  0  0  0  0
  -22.1659   -4.2140   21.0982 F   0  0  0  0  0  0
  -21.5627   -3.4539   25.7740 F   0  0  0  0  0  0
  -30.0253  -13.3486   20.4334 N   0  0  0  0  0  0
  -26.3000  -12.9355   20.3347 N   0  0  0  0  0  0
  -25.9323  -11.6511   20.5774 N   0  0  0  0  0  0
  -22.0493  -12.8225   22.0406 N   0  0  0  0  0  0
  -25.4278  -15.1894   20.4074 N   0  0  0  0  0  0
  -31.8482  -14.6500   20.1008 O   0  0  0  0  0  0
  -21.6641   -6.8873   21.4240 O   0  0  0  0  0  0
  -22.3530  -14.5537   20.6693 O   0  0  0  0  0  0
  -24.6184  -31.8663   23.2082 C   0  0  0  0  0  0
  -25.9060  -32.4821   23.8393 C   0  0  1  0  0  0
  -27.2242  -27.3961   20.1046 C   0  0  0  0  0  0
  -25.5902  -33.8619   24.2328 N   0  0  0  0  0  0
  -23.4100  -30.4914   21.5483 C   0  0  2  0  0  0
  -24.8584  -28.9609   20.1065 C   0  0  0  0  0  0
  -22.7446  -29.4654   22.4955 C   0  0  0  0  0  0
  -18.0279  -28.1391   22.8491 C   0  0  0  0  0  0
  -24.1487  -36.7307   23.2639 C   0  0  0  0  0  0
  -25.9449  -30.8202   21.3703 C   0  0  0  0  0  0
  -26.0223  -29.4538   20.7133 C   0  0  0  0  0  0
  -27.2118  -28.6784   20.7114 C   0  0  0  0  0  0
  -26.0488  -26.9436   19.4650 C   0  0  0  0  0  0
  -24.8687  -27.7069   19.4755 C   0  0  0  0  0  0
  -23.6214  -29.8304   20.1607 C   0  0  0  0  0  0
  -25.4111  -36.3112   24.0339 C   0  0  1  0  0  0
  -20.5879  -28.3684   23.1303 C   0  0  2  0  0  0
  -20.6774  -26.9417   22.5413 C   0  0  0  0  0  0
  -19.5748  -26.6397   21.5211 C   0  0  0  0  0  0
  -18.1927  -26.7934   22.1626 C   0  0  0  0  0  0
  -19.1532  -28.8854   23.2894 C   0  0  0  0  0  0
  -18.9459  -30.1458   23.8908 C   0  0  0  0  0  0
  -17.6462  -30.6594   24.0570 C   0  0  0  0  0  0
  -25.9038  -34.9476   23.5133 C   0  0  0  0  0  0
  -16.5351  -29.9098   23.6329 C   0  0  0  0  0  0
  -16.7269  -28.6516   23.0348 C   0  0  0  0  0  0
  -26.4475  -31.6605   25.0729 C   0  0  0  0  0  0
  -25.3735  -31.3711   26.1472 C   0  0  0  0  0  0
  -27.0306  -30.3047   24.6113 C   0  0  0  0  0  0
  -27.6053  -32.4324   25.7487 C   0  0  0  0  0  0
  -27.5586  -37.1814   24.8470 C   0  0  0  0  0  0
  -21.4168  -29.3039   22.3699 N   0  0  0  0  0  0
  -26.4300  -37.3796   23.9408 N   0  0  0  0  0  0
  -24.6760  -31.0743   22.0997 N   0  0  0  0  0  0
  -23.4204  -28.8193   23.3008 O   0  0  0  0  0  0
  -28.3141  -26.5398   20.1722 O   0  0  0  0  0  0
  -26.5602  -34.8926   22.4697 O   0  0  0  0  0  0
  -23.5366  -32.1424   23.7456 O   0  0  0  0  0  0
  -32.0539  -18.7795   21.1899 C   0  0  0  0  0  0
  -31.0534  -19.7697   21.1620 C   0  0  0  0  0  0
  -31.7177  -17.4128   21.1334 C   0  0  0  0  0  0
  -29.3680  -18.0135   21.0083 C   0  0  0  0  0  0
  -29.6914  -19.4066   21.0728 C   0  0  0  0  0  0
  -30.3677  -16.9969   21.0269 C   0  0  0  0  0  0
  -28.0140  -25.2760   20.6766 C   0  0  0  0  0  0
  -28.5988  -20.4630   21.1713 C   0  0  0  0  0  0
  -28.6867  -24.1110   20.4715 C   0  0  0  0  0  0
  -28.1351  -22.8615   21.0411 C   0  0  0  0  0  0
  -29.9904  -15.5984   20.9874 N   0  0  0  0  0  0
  -28.8947  -21.7513   20.8372 N   0  0  0  0  0  0
  -27.4797  -20.0870   21.5398 O   0  0  0  0  0  0
  -27.0613  -22.8372   21.6559 O   0  0  0  0  0  0
  -29.8178  -24.0843   19.7506 O   0  0  0  0  0  0
  -31.4641  -12.4190   19.1386 H   0  0  0  0  0  0
  -30.3165  -11.3324   19.8654 H   0  0  0  0  0  0
  -29.7446  -11.7581   17.4535 H   0  0  0  0  0  0
  -29.6578  -13.4759   17.7578 H   0  0  0  0  0  0
  -27.8435  -11.2988   18.8470 H   0  0  0  0  0  0
  -27.3658  -12.6018   17.7914 H   0  0  0  0  0  0
  -27.6851  -14.2541   19.5413 H   0  0  0  0  0  0
  -28.6866  -12.0285   21.3839 H   0  0  0  0  0  0
  -28.4602  -13.6903   21.8449 H   0  0  0  0  0  0
  -25.2762   -9.5680   22.4753 H   0  0  0  0  0  0
  -23.9997   -7.4637   22.7478 H   0  0  0  0  0  0
  -21.0835   -8.8770   19.8958 H   0  0  0  0  0  0
  -22.3693  -10.9667   19.6161 H   0  0  0  0  0  0
  -21.2012   -7.6145   23.9708 H   0  0  0  0  0  0
  -21.1478   -6.0524   25.9073 H   0  0  0  0  0  0
  -22.0599   -2.7606   23.2853 H   0  0  0  0  0  0
  -22.4109  -11.9885   22.4786 H   0  0  0  0  0  0
  -21.1116  -13.1249   22.2619 H   0  0  0  0  0  0
  -24.6600  -15.8443   20.5114 H   0  0  0  0  0  0
  -26.2748  -15.6266   20.0670 H   0  0  0  0  0  0
  -26.7133  -32.5523   23.1157 H   0  0  0  0  0  0
  -25.0053  -33.9774   25.0475 H   0  0  0  0  0  0
  -22.6992  -31.3091   21.4107 H   0  0  0  0  0  0
  -23.3750  -35.9642   23.3315 H   0  0  0  0  0  0
  -24.3576  -36.8902   22.2051 H   0  0  0  0  0  0
  -23.7239  -37.6517   23.6639 H   0  0  0  0  0  0
  -26.0660  -31.5866   20.6032 H   0  0  0  0  0  0
  -26.8297  -30.8707   21.9930 H   0  0  0  0  0  0
  -28.1025  -29.0408   21.2046 H   0  0  0  0  0  0
  -26.0354  -25.9765   18.9825 H   0  0  0  0  0  0
  -23.9777  -27.3236   18.9963 H   0  0  0  0  0  0
  -23.7338  -30.6090   19.4052 H   0  0  0  0  0  0
  -22.7440  -29.2547   19.8600 H   0  0  0  0  0  0
  -25.1293  -36.1978   25.0833 H   0  0  0  0  0  0
  -20.9971  -28.3253   24.1423 H   0  0  0  0  0  0
  -20.5681  -26.2295   23.3606 H   0  0  0  0  0  0
  -21.6646  -26.7461   22.1205 H   0  0  0  0  0  0
  -19.6903  -25.6307   21.1238 H   0  0  0  0  0  0
  -19.6680  -27.3212   20.6744 H   0  0  0  0  0  0
  -17.4199  -26.6685   21.4026 H   0  0  0  0  0  0
  -18.0323  -26.0079   22.9027 H   0  0  0  0  0  0
  -19.7933  -30.7271   24.2283 H   0  0  0  0  0  0
  -17.5015  -31.6266   24.5181 H   0  0  0  0  0  0
  -15.5352  -30.3007   23.7638 H   0  0  0  0  0  0
  -15.8669  -28.0836   22.7057 H   0  0  0  0  0  0
  -24.5907  -30.7060   25.7808 H   0  0  0  0  0  0
  -24.8918  -32.2863   26.4925 H   0  0  0  0  0  0
  -25.8080  -30.8878   27.0230 H   0  0  0  0  0  0
  -26.2853  -29.6811   24.1161 H   0  0  0  0  0  0
  -27.4073  -29.7280   25.4570 H   0  0  0  0  0  0
  -27.8694  -30.4372   23.9274 H   0  0  0  0  0  0
  -27.2679  -33.3620   26.2082 H   0  0  0  0  0  0
  -28.3845  -32.6890   25.0299 H   0  0  0  0  0  0
  -28.0740  -31.8433   26.5379 H   0  0  0  0  0  0
  -28.2625  -38.0093   24.7513 H   0  0  0  0  0  0
  -28.1063  -36.2627   24.6311 H   0  0  0  0  0  0
  -27.2299  -37.1482   25.8872 H   0  0  0  0  0  0
  -20.9331  -29.8778   21.6935 H   0  0  0  0  0  0
  -26.0190  -38.2877   24.1397 H   0  0  0  0  0  0
  -33.0918  -19.0700   21.2776 H   0  0  0  0  0  0
  -31.3477  -20.8068   21.2457 H   0  0  0  0  0  0
  -32.5241  -16.6967   21.1898 H   0  0  0  0  0  0
  -28.3271  -17.7232   20.9594 H   0  0  0  0  0  0
  -27.1150  -25.2975   21.2824 H   0  0  0  0  0  0
  -29.0326  -15.3899   21.2229 H   0  0  0  0  0  0
  -29.7867  -21.9276   20.4028 H   0  0  0  0  0  0
  -29.9863  -24.9777   19.4788 H   0  0  0  0  0  0
  1 25  1  0  0  0
  1 30  2  0  0  0
  1 81  1  0  0  0
  2  3  1  0  0  0
  2 25  1  0  0  0
  2 86  1  0  0  0
  2 87  1  0  0  0
  3  4  1  0  0  0
  3 88  1  0  0  0
  3 89  1  0  0  0
  4  5  1  0  0  0
  4 90  1  0  0  0
  4 91  1  0  0  0
  5  6  1  0  0  0
  5 26  1  0  0  0
  5 92  1  0  0  0
  6 25  1  0  0  0
  6 93  1  0  0  0
  6 94  1  0  0  0
  7  8  2  0  0  0
  7 26  1  0  0  0
  7 29  1  0  0  0
  8  9  1  0  0  0
  8 22  1  0  0  0
  9 10  1  0  0  0
  9 27  2  0  0  0
 10 11  2  0  0  0
 10 15  1  0  0  0
 11 12  1  0  0  0
 11 95  1  0  0  0
 12 13  2  0  0  0
 12 96  1  0  0  0
 13 14  1  0  0  0
 13 31  1  0  0  0
 14 15  2  0  0  0
 14 97  1  0  0  0
 15 98  1  0  0  0
 16 17  2  0  0  0
 16 21  1  0  0  0
 16 31  1  0  0  0
 17 18  1  0  0  0
 17 99  1  0  0  0
 18 19  2  0  0  0
 18100  1  0  0  0
 19 20  1  0  0  0
 19 24  1  0  0  0
 20 21  2  0  0  0
 20101  1  0  0  0
 21 23  1  0  0  0
 22 28  1  0  0  0
 22 32  2  0  0  0
 26 27  1  0  0  0
 28102  1  0  0  0
 28103  1  0  0  0
 29104  1  0  0  0
 29105  1  0  0  0
 33 34  1  0  0  0
 33 66  1  0  0  0
 33 70  2  0  0  0
 34 36  1  0  0  0
 34 59  1  0  0  0
 34106  1  0  0  0
 35 44  2  0  0  0
 35 45  1  0  0  0
 35 68  1  0  0  0
 36 56  1  0  0  0
 36107  1  0  0  0
 37 39  1  0  0  0
 37 47  1  0  0  0
 37 66  1  0  0  0
 37108  1  0  0  0
 38 43  2  0  0  0
 38 46  1  0  0  0
 38 47  1  0  0  0
 39 64  1  0  0  0
 39 67  2  0  0  0
 40 52  1  0  0  0
 40 53  2  0  0  0
 40 58  1  0  0  0
 41109  1  0  0  0
 41110  1  0  0  0
 41111  1  0  0  0
 41 48  1  0  0  0
 42 43  1  0  0  0
 42 66  1  0  0  0
 42112  1  0  0  0
 42113  1  0  0  0
 43 44  1  0  0  0
 44114  1  0  0  0
 45 46  2  0  0  0
 45115  1  0  0  0
 46116  1  0  0  0
 47117  1  0  0  0
 47118  1  0  0  0
 48 56  1  0  0  0
 48 65  1  0  0  0
 48119  1  0  0  0
 49 50  1  0  0  0
 49 53  1  0  0  0
 49 64  1  0  0  0
 49120  1  0  0  0
 50 51  1  0  0  0
 50121  1  0  0  0
 50122  1  0  0  0
 51 52  1  0  0  0
 51123  1  0  0  0
 51124  1  0  0  0
 52125  1  0  0  0
 52126  1  0  0  0
 53 54  1  0  0  0
 54 55  2  0  0  0
 54127  1  0  0  0
 55 57  1  0  0  0
 55128  1  0  0  0
 56 69  2  0  0  0
 57 58  2  0  0  0
 57129  1  0  0  0
 58130  1  0  0  0
 59 60  1  0  0  0
 59 61  1  0  0  0
 59 62  1  0  0  0
 60131  1  0  0  0
 60132  1  0  0  0
 60133  1  0  0  0
 61134  1  0  0  0
 61135  1  0  0  0
 61136  1  0  0  0
 62137  1  0  0  0
 62138  1  0  0  0
 62139  1  0  0  0
 63 65  1  0  0  0
 63140  1  0  0  0
 63141  1  0  0  0
 63142  1  0  0  0
 64143  1  0  0  0
 65144  1  0  0  0
 68 77  1  0  0  0
 71 72  2  0  0  0
 71 73  1  0  0  0
 71145  1  0  0  0
 72 75  1  0  0  0
 72146  1  0  0  0
 73 76  2  0  0  0
 73147  1  0  0  0
 74 75  2  0  0  0
 74 76  1  0  0  0
 74148  1  0  0  0
 75 78  1  0  0  0
 76 81  1  0  0  0
 77 79  2  0  0  0
 77149  1  0  0  0
 78 82  1  0  0  0
 78 83  2  0  0  0
 79 80  1  0  0  0
 79 85  1  0  0  0
 80 82  1  0  0  0
 80 84  2  0  0  0
 81150  1  0  0  0
 82151  1  0  0  0
 85152  1  0  0  0
M  ISO  4   1 100  68 101  77 101  81 100
M  END
> <chiral flag>
0

> <version>
0

> <s_m_source_file>
/data/baiqing/PycharmProjects/Reinvent-master-3.2/result/LINK_invent/BTK/process_docking_weight1_custom_product_contain_oxygen_bond_distance_aromatic_linkinvent_7_9_3/rearranged_h_0086.sdf

> <i_m_source_file_index>
42

> <r_mmod_Potential_Energy-OPLS-2005>
-205.175643920898

> <r_mmod_Stretch_Energy-OPLS-2005>
51.0612640380859

> <r_mmod_Bend_Energy-OPLS-2005>
105.611999511719

> <r_mmod_Torsional_Energy-OPLS-2005>
215.506256103516

> <r_mmod_Improper_Torsional_Energy-OPLS-2005>
4.6236252784729

> <r_mmod_Van_der_Waal_Energy-OPLS-2005>
173.690811157227

> <r_mmod_Electrostatic_Energy-OPLS-2005>
-530.527587890625

> <r_mmod_Solvation_Energy-OPLS-2005>
-251.445129394531

> <b_mmod_Minimization_Converged-OPLS-2005>
0

> <r_mmod_RMS_Derivative-OPLS-2005>
0.895522236824036

$$$$
42
                    3D
 Structure written by MMmdl.
162171  0  0  1  0            999 V2000
  -30.7297  -14.3271   20.7129 C   0  0  0  0  0  0
  -30.4302  -12.2844   19.3621 C   0  0  0  0  0  0
  -29.4701  -12.5151   18.1782 C   0  0  0  0  0  0
  -27.9935  -12.3751   18.5991 C   0  0  0  0  0  0
  -27.6634  -13.1793   19.8815 C   0  0  2  0  0  0
  -28.6997  -12.8517   20.9750 C   0  0  0  0  0  0
  -25.2630  -13.8155   20.5665 C   0  0  0  0  0  0
  -24.1838  -13.0454   20.9165 C   0  0  0  0  0  0
  -24.6366  -11.6914   20.8748 C   0  0  0  0  0  0
  -23.9039  -10.4296   21.0419 C   0  0  0  0  0  0
  -24.3610   -9.4218   21.9195 C   0  0  0  0  0  0
  -23.6289   -8.2256   22.0762 C   0  0  0  0  0  0
  -22.4280   -8.0279   21.3548 C   0  0  0  0  0  0
  -21.9902   -9.0253   20.4664 C   0  0  0  0  0  0
  -22.7216  -10.2138   20.3071 C   0  0  0  0  0  0
  -21.6832   -6.0743   22.5296 C   0  0  0  0  0  0
  -21.4012   -6.5653   23.8236 C   0  0  0  0  0  0
  -21.3665   -5.6802   24.9185 C   0  0  0  0  0  0
  -21.6040   -4.3070   24.7230 C   0  0  0  0  0  0
  -21.8811   -3.8163   23.4352 C   0  0  0  0  0  0
  -21.9195   -4.6975   22.3411 C   0  0  0  0  0  0
  -22.7877  -13.5282   21.1829 C   0  0  0  0  0  0
  -22.1640   -4.2169   21.0984 F   0  0  0  0  0  0
  -21.5633   -3.4554   25.7746 F   0  0  0  0  0  0
  -30.0443  -13.1858   20.4482 N   0  0  0  0  0  0
  -26.3010  -12.9236   20.3366 N   0  0  0  0  0  0
  -25.9262  -11.6420   20.5758 N   0  0  0  0  0  0
  -22.0542  -12.8258   22.0416 N   0  0  0  0  0  0
  -25.4428  -15.1865   20.4064 N   0  0  0  0  0  0
  -31.7711  -14.6545   20.1300 O   0  0  0  0  0  0
  -21.6631   -6.8897   21.4259 O   0  0  0  0  0  0
  -22.3582  -14.5606   20.6724 O   0  0  0  0  0  0
  -24.6073  -31.8741   23.2132 C   0  0  0  0  0  0
  -25.8970  -32.4886   23.8435 C   0  0  1  0  0  0
  -27.2478  -27.5069   20.0663 C   0  0  0  0  0  0
  -25.5853  -33.8680   24.2379 N   0  0  0  0  0  0
  -23.3936  -30.4932   21.5560 C   0  0  2  0  0  0
  -24.8403  -28.9625   20.1202 C   0  0  0  0  0  0
  -22.7405  -29.4652   22.5074 C   0  0  0  0  0  0
  -18.0252  -28.1380   22.8520 C   0  0  0  0  0  0
  -24.1490  -36.7351   23.2636 C   0  0  0  0  0  0
  -25.9117  -30.8548   21.3553 C   0  0  0  0  0  0
  -25.9949  -29.4916   20.7115 C   0  0  0  0  0  0
  -27.2014  -28.7680   20.6841 C   0  0  0  0  0  0
  -26.0759  -26.9684   19.4888 C   0  0  0  0  0  0
  -24.8728  -27.6989   19.5043 C   0  0  0  0  0  0
  -23.5980  -29.8183   20.1728 C   0  0  0  0  0  0
  -25.4105  -36.3183   24.0362 C   0  0  1  0  0  0
  -20.5848  -28.3651   23.1382 C   0  0  2  0  0  0
  -20.6750  -26.9402   22.5449 C   0  0  0  0  0  0
  -19.5727  -26.6397   21.5239 C   0  0  0  0  0  0
  -18.1905  -26.7926   22.1645 C   0  0  0  0  0  0
  -19.1497  -28.8819   23.2956 C   0  0  0  0  0  0
  -18.9413  -30.1420   23.8974 C   0  0  0  0  0  0
  -17.6413  -30.6584   24.0567 C   0  0  0  0  0  0
  -25.9021  -34.9537   23.5179 C   0  0  0  0  0  0
  -16.5312  -29.9097   23.6304 C   0  0  0  0  0  0
  -16.7237  -28.6510   23.0347 C   0  0  0  0  0  0
  -26.4383  -31.6637   25.0735 C   0  0  0  0  0  0
  -25.3634  -31.3721   26.1482 C   0  0  0  0  0  0
  -27.0191  -30.3116   24.6012 C   0  0  0  0  0  0
  -27.6014  -32.4297   25.7460 C   0  0  0  0  0  0
  -27.5606  -37.1832   24.8466 C   0  0  0  0  0  0
  -21.4128  -29.3053   22.3835 N   0  0  0  0  0  0
  -26.4325  -37.3840   23.9402 N   0  0  0  0  0  0
  -24.6566  -31.0871   22.1021 N   0  0  0  0  0  0
  -23.4199  -28.8163   23.3079 O   0  0  0  0  0  0
  -28.4491  -26.8517   20.0051 O   0  0  0  0  0  0
  -26.5589  -34.8950   22.4748 O   0  0  0  0  0  0
  -23.5283  -32.1433   23.7574 O   0  0  0  0  0  0
  -29.0662  -18.5588   20.5957 C   0  0  0  0  0  0
  -27.4646  -19.6165   22.0841 C   0  0  0  0  0  0
  -29.0348  -19.6911   19.7518 C   0  0  0  0  0  0
  -27.4205  -20.7416   21.2497 C   0  0  0  0  0  0
  -28.3211  -18.5355   21.8025 C   0  0  0  0  0  0
  -28.2562  -20.8111   20.1131 C   0  0  0  0  0  0
  -28.3344  -24.5916   18.2785 C   0  0  0  0  0  0
  -28.5381  -24.4363   19.5997 C   0  0  0  0  0  0
  -28.8075  -23.1218   20.1580 C   0  0  0  0  0  0
  -28.4176  -17.5166   22.8690 C   0  0  0  0  0  0
  -29.2941  -16.5200   23.1030 C   0  0  0  0  0  0
  -30.4216  -16.1823   22.2656 C   0  0  0  0  0  0
  -28.3095  -23.4467   17.2982 C   0  0  0  0  0  0
  -28.0556  -22.0944   17.9930 C   0  0  0  0  0  0
  -28.4723  -25.5726   20.6081 C   0  0  0  0  0  0
  -28.3803  -22.0530   19.4311 N   0  0  0  0  0  0
  -30.1231  -15.0349   21.6633 N   0  0  0  0  0  0
  -29.3764  -22.9843   21.2486 O   0  0  0  0  0  0
  -31.4620  -16.8328   22.1344 O   0  0  0  0  0  0
  -31.4625  -12.4365   19.0392 H   0  0  0  0  0  0
  -30.3790  -11.2505   19.7082 H   0  0  0  0  0  0
  -29.6900  -11.8042   17.3828 H   0  0  0  0  0  0
  -29.6362  -13.5069   17.7547 H   0  0  0  0  0  0
  -27.7907  -11.3149   18.7627 H   0  0  0  0  0  0
  -27.3373  -12.6837   17.7830 H   0  0  0  0  0  0
  -27.7422  -14.2377   19.6360 H   0  0  0  0  0  0
  -28.6708  -11.7842   21.2067 H   0  0  0  0  0  0
  -28.4250  -13.3318   21.9149 H   0  0  0  0  0  0
  -25.2756   -9.5694   22.4756 H   0  0  0  0  0  0
  -23.9999   -7.4663   22.7474 H   0  0  0  0  0  0
  -21.0845   -8.8804   19.8957 H   0  0  0  0  0  0
  -22.3708  -10.9691   19.6199 H   0  0  0  0  0  0
  -21.1985   -7.6159   23.9745 H   0  0  0  0  0  0
  -21.1492   -6.0525   25.9102 H   0  0  0  0  0  0
  -22.0579   -2.7626   23.2845 H   0  0  0  0  0  0
  -22.4099  -11.9855   22.4715 H   0  0  0  0  0  0
  -21.1213  -13.1343   22.2697 H   0  0  0  0  0  0
  -24.6929  -15.8538   20.5428 H   0  0  0  0  0  0
  -26.3093  -15.6236   20.1175 H   0  0  0  0  0  0
  -26.7058  -32.5621   23.1227 H   0  0  0  0  0  0
  -24.9989  -33.9836   25.0524 H   0  0  0  0  0  0
  -22.6788  -31.3086   21.4171 H   0  0  0  0  0  0
  -23.3773  -35.9668   23.3310 H   0  0  0  0  0  0
  -24.3600  -36.8941   22.2051 H   0  0  0  0  0  0
  -23.7196  -37.6550   23.6613 H   0  0  0  0  0  0
  -25.9940  -31.6104   20.5731 H   0  0  0  0  0  0
  -26.8117  -30.9321   21.9527 H   0  0  0  0  0  0
  -28.0957  -29.1763   21.1316 H   0  0  0  0  0  0
  -26.0959  -26.0058   19.0003 H   0  0  0  0  0  0
  -23.9842  -27.2965   19.0339 H   0  0  0  0  0  0
  -23.6919  -30.5831   19.4017 H   0  0  0  0  0  0
  -22.7265  -29.2253   19.8932 H   0  0  0  0  0  0
  -25.1255  -36.2102   25.0857 H   0  0  0  0  0  0
  -20.9905  -28.3188   24.1514 H   0  0  0  0  0  0
  -20.5676  -26.2236   23.3616 H   0  0  0  0  0  0
  -21.6612  -26.7473   22.1206 H   0  0  0  0  0  0
  -19.6869  -25.6316   21.1234 H   0  0  0  0  0  0
  -19.6672  -27.3229   20.6779 H   0  0  0  0  0  0
  -17.4165  -26.6710   21.4041 H   0  0  0  0  0  0
  -18.0291  -26.0053   22.9018 H   0  0  0  0  0  0
  -19.7873  -30.7225   24.2414 H   0  0  0  0  0  0
  -17.4948  -31.6276   24.5164 H   0  0  0  0  0  0
  -15.5313  -30.3024   23.7563 H   0  0  0  0  0  0
  -15.8634  -28.0844   22.7029 H   0  0  0  0  0  0
  -24.5824  -30.7042   25.7790 H   0  0  0  0  0  0
  -24.8763  -32.2869   26.4911 H   0  0  0  0  0  0
  -25.7961  -30.8897   27.0269 H   0  0  0  0  0  0
  -26.2720  -29.6970   24.0961 H   0  0  0  0  0  0
  -27.3918  -29.7240   25.4418 H   0  0  0  0  0  0
  -27.8572  -30.4511   23.9166 H   0  0  0  0  0  0
  -27.2713  -33.3610   26.2085 H   0  0  0  0  0  0
  -28.3783  -32.6836   25.0223 H   0  0  0  0  0  0
  -28.0730  -31.8369   26.5326 H   0  0  0  0  0  0
  -28.2623  -38.0129   24.7538 H   0  0  0  0  0  0
  -28.1100  -36.2666   24.6259 H   0  0  0  0  0  0
  -27.2334  -37.1444   25.8873 H   0  0  0  0  0  0
  -20.9280  -29.8826   21.7098 H   0  0  0  0  0  0
  -26.0261  -38.2948   24.1362 H   0  0  0  0  0  0
  -29.7175  -17.7459   20.3140 H   0  0  0  0  0  0
  -26.8753  -19.6232   22.9893 H   0  0  0  0  0  0
  -29.6737  -19.7185   18.8800 H   0  0  0  0  0  0
  -26.8017  -21.5848   21.5337 H   0  0  0  0  0  0
  -28.1586  -25.5756   17.8677 H   0  0  0  0  0  0
  -27.6269  -17.5782   23.6019 H   0  0  0  0  0  0
  -29.1326  -15.9104   23.9802 H   0  0  0  0  0  0
  -29.2622  -23.4389   16.7674 H   0  0  0  0  0  0
  -27.5344  -23.6377   16.5547 H   0  0  0  0  0  0
  -28.5996  -21.3173   17.4579 H   0  0  0  0  0  0
  -26.9998  -21.8437   17.8925 H   0  0  0  0  0  0
  -29.3424  -25.5444   21.2675 H   0  0  0  0  0  0
  -27.6057  -25.4192   21.2555 H   0  0  0  0  0  0
  -29.2485  -14.6379   21.9536 H   0  0  0  0  0  0
  1 25  1  0  0  0
  1 30  2  0  0  0
  1 87  1  0  0  0
  2  3  1  0  0  0
  2 25  1  0  0  0
  2 90  1  0  0  0
  2 91  1  0  0  0
  3  4  1  0  0  0
  3 92  1  0  0  0
  3 93  1  0  0  0
  4  5  1  0  0  0
  4 94  1  0  0  0
  4 95  1  0  0  0
  5  6  1  0  0  0
  5 26  1  0  0  0
  5 96  1  0  0  0
  6 25  1  0  0  0
  6 97  1  0  0  0
  6 98  1  0  0  0
  7  8  2  0  0  0
  7 26  1  0  0  0
  7 29  1  0  0  0
  8  9  1  0  0  0
  8 22  1  0  0  0
  9 10  1  0  0  0
  9 27  2  0  0  0
 10 11  2  0  0  0
 10 15  1  0  0  0
 11 12  1  0  0  0
 11 99  1  0  0  0
 12 13  2  0  0  0
 12100  1  0  0  0
 13 14  1  0  0  0
 13 31  1  0  0  0
 14 15  2  0  0  0
 14101  1  0  0  0
 15102  1  0  0  0
 16 17  2  0  0  0
 16 21  1  0  0  0
 16 31  1  0  0  0
 17 18  1  0  0  0
 17103  1  0  0  0
 18 19  2  0  0  0
 18104  1  0  0  0
 19 20  1  0  0  0
 19 24  1  0  0  0
 20 21  2  0  0  0
 20105  1  0  0  0
 21 23  1  0  0  0
 22 28  1  0  0  0
 22 32  2  0  0  0
 26 27  1  0  0  0
 28106  1  0  0  0
 28107  1  0  0  0
 29108  1  0  0  0
 29109  1  0  0  0
 33 34  1  0  0  0
 33 66  1  0  0  0
 33 70  2  0  0  0
 34 36  1  0  0  0
 34 59  1  0  0  0
 34110  1  0  0  0
 35 44  2  0  0  0
 35 45  1  0  0  0
 35 68  1  0  0  0
 36 56  1  0  0  0
 36111  1  0  0  0
 37 39  1  0  0  0
 37 47  1  0  0  0
 37 66  1  0  0  0
 37112  1  0  0  0
 38 43  2  0  0  0
 38 46  1  0  0  0
 38 47  1  0  0  0
 39 64  1  0  0  0
 39 67  2  0  0  0
 40 52  1  0  0  0
 40 53  2  0  0  0
 40 58  1  0  0  0
 41113  1  0  0  0
 41114  1  0  0  0
 41115  1  0  0  0
 41 48  1  0  0  0
 42 43  1  0  0  0
 42 66  1  0  0  0
 42116  1  0  0  0
 42117  1  0  0  0
 43 44  1  0  0  0
 44118  1  0  0  0
 45 46  2  0  0  0
 45119  1  0  0  0
 46120  1  0  0  0
 47121  1  0  0  0
 47122  1  0  0  0
 48 56  1  0  0  0
 48 65  1  0  0  0
 48123  1  0  0  0
 49 50  1  0  0  0
 49 53  1  0  0  0
 49 64  1  0  0  0
 49124  1  0  0  0
 50 51  1  0  0  0
 50125  1  0  0  0
 50126  1  0  0  0
 51 52  1  0  0  0
 51127  1  0  0  0
 51128  1  0  0  0
 52129  1  0  0  0
 52130  1  0  0  0
 53 54  1  0  0  0
 54 55  2  0  0  0
 54131  1  0  0  0
 55 57  1  0  0  0
 55132  1  0  0  0
 56 69  2  0  0  0
 57 58  2  0  0  0
 57133  1  0  0  0
 58134  1  0  0  0
 59 60  1  0  0  0
 59 61  1  0  0  0
 59 62  1  0  0  0
 60135  1  0  0  0
 60136  1  0  0  0
 60137  1  0  0  0
 61138  1  0  0  0
 61139  1  0  0  0
 61140  1  0  0  0
 62141  1  0  0  0
 62142  1  0  0  0
 62143  1  0  0  0
 63 65  1  0  0  0
 63144  1  0  0  0
 63145  1  0  0  0
 63146  1  0  0  0
 64147  1  0  0  0
 65148  1  0  0  0
 68 85  1  0  0  0
 71 73  2  0  0  0
 71 75  1  0  0  0
 71149  1  0  0  0
 72 74  1  0  0  0
 72 75  2  0  0  0
 72150  1  0  0  0
 73 76  1  0  0  0
 73151  1  0  0  0
 74 76  2  0  0  0
 74152  1  0  0  0
 75 80  1  0  0  0
 76 86  1  0  0  0
 77 78  2  0  0  0
 77 83  1  0  0  0
 77153  1  0  0  0
 78 79  1  0  0  0
 78 85  1  0  0  0
 79 86  1  0  0  0
 79 88  2  0  0  0
 80 81  2  0  0  0
 80154  1  0  0  0
 81 82  1  0  0  0
 81155  1  0  0  0
 82 87  1  0  0  0
 82 89  2  0  0  0
 83 84  1  0  0  0
 83156  1  0  0  0
 83157  1  0  0  0
 84 86  1  0  0  0
 84158  1  0  0  0
 84159  1  0  0  0
 85160  1  0  0  0
 85161  1  0  0  0
 87162  1  0  0  0
M  ISO  4   1 100  68 101  85 101  87 100
M  END
> <chiral flag>
0

> <version>
0

> <s_m_source_file>
/data/baiqing/PycharmProjects/Reinvent-master-3.2/result/LINK_invent/BTK/process_docking_weight1_custom_product_contain_oxygen_bond_distance_aromatic_linkinvent_7_9_3/rearranged_h_0086.sdf

> <i_m_source_file_index>
43

> <r_mmod_Potential_Energy-OPLS-2005>
43.5407257080078

> <r_mmod_Stretch_Energy-OPLS-2005>
33.7083015441895

> <r_mmod_Bend_Energy-OPLS-2005>
131.270309448242

> <r_mmod_Torsional_Energy-OPLS-2005>
310.152587890625

> <r_mmod_Improper_Torsional_Energy-OPLS-2005>
2.55203866958618

> <r_mmod_Van_der_Waal_Energy-OPLS-2005>
187.888916015625

> <r_mmod_Electrostatic_Energy-OPLS-2005>
-394.102966308594

> <r_mmod_Solvation_Energy-OPLS-2005>
-237.893981933594

> <b_mmod_Minimization_Converged-OPLS-2005>
0

> <r_mmod_RMS_Derivative-OPLS-2005>
4.95982837677002

$$$$
43
                    3D
 Structure written by MMmdl.
152161  0  0  1  0            999 V2000
  -30.6188  -14.7803   20.4683 C   0  0  0  0  0  0
  -30.4347  -12.4743   19.4689 C   0  0  0  0  0  0
  -29.5193  -12.5157   18.2282 C   0  0  0  0  0  0
  -28.0435  -12.3312   18.6370 C   0  0  0  0  0  0
  -27.6435  -13.2322   19.8396 C   0  0  2  0  0  0
  -28.6917  -13.1786   20.9716 C   0  0  0  0  0  0
  -25.2561  -13.8179   20.5638 C   0  0  0  0  0  0
  -24.1840  -13.0451   20.9187 C   0  0  0  0  0  0
  -24.6430  -11.6924   20.8718 C   0  0  0  0  0  0
  -23.9110  -10.4300   21.0389 C   0  0  0  0  0  0
  -24.3652   -9.4215   21.9167 C   0  0  0  0  0  0
  -23.6310   -8.2247   22.0763 C   0  0  0  0  0  0
  -22.4287   -8.0292   21.3561 C   0  0  0  0  0  0
  -21.9929   -9.0271   20.4654 C   0  0  0  0  0  0
  -22.7271  -10.2138   20.3048 C   0  0  0  0  0  0
  -21.6858   -6.0746   22.5289 C   0  0  0  0  0  0
  -21.4008   -6.5652   23.8207 C   0  0  0  0  0  0
  -21.3648   -5.6804   24.9173 C   0  0  0  0  0  0
  -21.6023   -4.3062   24.7218 C   0  0  0  0  0  0
  -21.8819   -3.8160   23.4335 C   0  0  0  0  0  0
  -21.9182   -4.6971   22.3403 C   0  0  0  0  0  0
  -22.7848  -13.5237   21.1793 C   0  0  0  0  0  0
  -22.1653   -4.2145   21.0977 F   0  0  0  0  0  0
  -21.5631   -3.4531   25.7728 F   0  0  0  0  0  0
  -29.9854  -13.5520   20.3851 N   0  0  0  0  0  0
  -26.2964  -12.9376   20.3196 N   0  0  0  0  0  0
  -25.9361  -11.6527   20.5712 N   0  0  0  0  0  0
  -22.0458  -12.8289   22.0378 N   0  0  0  0  0  0
  -25.4261  -15.1917   20.4115 N   0  0  0  0  0  0
  -31.8146  -14.8529   20.1641 O   0  0  0  0  0  0
  -21.6654   -6.8888   21.4250 O   0  0  0  0  0  0
  -22.3556  -14.5522   20.6581 O   0  0  0  0  0  0
  -24.6462  -31.8496   23.1937 C   0  0  0  0  0  0
  -25.9237  -32.4707   23.8336 C   0  0  1  0  0  0
  -27.2156  -27.1515   20.1193 C   0  0  0  0  0  0
  -25.5974  -33.8506   24.2222 N   0  0  0  0  0  0
  -23.4486  -30.4742   21.5401 C   0  0  2  0  0  0
  -24.8926  -28.9125   20.1104 C   0  0  0  0  0  0
  -22.7576  -29.4590   22.4867 C   0  0  0  0  0  0
  -18.0317  -28.1414   22.8493 C   0  0  0  0  0  0
  -24.1490  -36.7263   23.2647 C   0  0  0  0  0  0
  -26.0101  -30.7162   21.4026 C   0  0  0  0  0  0
  -26.0731  -29.3352   20.7311 C   0  0  0  0  0  0
  -27.2313  -28.4697   20.7275 C   0  0  0  0  0  0
  -25.9872  -26.8288   19.4842 C   0  0  0  0  0  0
  -24.8615  -27.6685   19.4731 C   0  0  0  0  0  0
  -23.6723  -29.8144   20.1576 C   0  0  0  0  0  0
  -25.4124  -36.3052   24.0332 C   0  0  1  0  0  0
  -20.5941  -28.3746   23.1231 C   0  0  2  0  0  0
  -20.6812  -26.9460   22.5390 C   0  0  0  0  0  0
  -19.5782  -26.6392   21.5216 C   0  0  0  0  0  0
  -18.1959  -26.7955   22.1628 C   0  0  0  0  0  0
  -19.1574  -28.8901   23.2851 C   0  0  0  0  0  0
  -18.9483  -30.1499   23.8872 C   0  0  0  0  0  0
  -17.6481  -30.6620   24.0562 C   0  0  0  0  0  0
  -25.9085  -34.9419   23.5105 C   0  0  0  0  0  0
  -16.5374  -29.9099   23.6346 C   0  0  0  0  0  0
  -16.7303  -28.6508   23.0385 C   0  0  0  0  0  0
  -26.4510  -31.6598   25.0794 C   0  0  0  0  0  0
  -25.3634  -31.3818   26.1434 C   0  0  0  0  0  0
  -27.0391  -30.2994   24.6441 C   0  0  0  0  0  0
  -27.6071  -32.4334   25.7550 C   0  0  0  0  0  0
  -27.5598  -37.1785   24.8454 C   0  0  0  0  0  0
  -21.4283  -29.3068   22.3583 N   0  0  0  0  0  0
  -26.4288  -37.3777   23.9414 N   0  0  0  0  0  0
  -24.7211  -31.0332   22.0983 N   0  0  0  0  0  0
  -23.4229  -28.8141   23.3017 O   0  0  0  0  0  0
  -28.2754  -26.1664   20.1820 O   0  0  0  0  0  0
  -26.5664  -34.8919   22.4674 O   0  0  0  0  0  0
  -23.5578  -32.1389   23.7134 O   0  0  0  0  0  0
  -31.7809  -18.9015   22.0374 C   0  0  0  0  0  0
  -31.0714  -20.0525   21.6236 C   0  0  0  0  0  0
  -31.3849  -17.5970   21.6800 C   0  0  0  0  0  0
  -29.5282  -18.5826   20.4641 C   0  0  0  0  0  0
  -29.9208  -19.9656   20.8000 C   0  0  0  0  0  0
  -30.2435  -17.3679   20.8876 C   0  0  0  0  0  0
  -28.4610  -23.4782   19.7778 C   0  0  0  0  0  0
  -27.8066  -22.4903   18.9126 C   0  0  0  0  0  0
  -29.3659  -22.6163   20.6299 C   0  0  0  0  0  0
  -28.0847  -24.8420   19.6131 C   0  0  0  0  0  0
  -28.2898  -21.0848   19.2207 C   0  0  0  0  0  0
  -29.2409  -21.2366   20.3099 N   0  0  0  0  0  0
  -29.8512  -15.9388   20.6321 N   0  0  0  0  0  0
  -26.9283  -22.7011   18.0673 O   0  0  0  0  0  0
  -30.1548  -23.0524   21.4748 O   0  0  0  0  0  0
  -31.4808  -12.5802   19.1820 H   0  0  0  0  0  0
  -30.3621  -11.5002   19.9551 H   0  0  0  0  0  0
  -29.8198  -11.7500   17.5104 H   0  0  0  0  0  0
  -29.6380  -13.4707   17.7148 H   0  0  0  0  0  0
  -27.9072  -11.2830   18.9000 H   0  0  0  0  0  0
  -27.3877  -12.5116   17.7835 H   0  0  0  0  0  0
  -27.6316  -14.2496   19.4526 H   0  0  0  0  0  0
  -28.7452  -12.1776   21.4014 H   0  0  0  0  0  0
  -28.4280  -13.8486   21.7901 H   0  0  0  0  0  0
  -25.2798   -9.5679   22.4737 H   0  0  0  0  0  0
  -24.0002   -7.4645   22.7513 H   0  0  0  0  0  0
  -21.0833   -8.8791   19.9002 H   0  0  0  0  0  0
  -22.3733  -10.9653   19.6142 H   0  0  0  0  0  0
  -21.2028   -7.6149   23.9728 H   0  0  0  0  0  0
  -21.1459   -6.0525   25.9080 H   0  0  0  0  0  0
  -22.0616   -2.7618   23.2848 H   0  0  0  0  0  0
  -22.4057  -11.9993   22.4866 H   0  0  0  0  0  0
  -21.1070  -13.1369   22.2468 H   0  0  0  0  0  0
  -24.6682  -15.8538   20.5460 H   0  0  0  0  0  0
  -26.2784  -15.6299   20.0844 H   0  0  0  0  0  0
  -26.7293  -32.5310   23.1066 H   0  0  0  0  0  0
  -25.0070  -33.9618   25.0326 H   0  0  0  0  0  0
  -22.7524  -31.3020   21.3895 H   0  0  0  0  0  0
  -23.3773  -35.9580   23.3299 H   0  0  0  0  0  0
  -24.3577  -36.8890   22.2060 H   0  0  0  0  0  0
  -23.7195  -37.6444   23.6669 H   0  0  0  0  0  0
  -26.1864  -31.4766   20.6413 H   0  0  0  0  0  0
  -26.8725  -30.7438   22.0581 H   0  0  0  0  0  0
  -28.1260  -28.7849   21.2440 H   0  0  0  0  0  0
  -25.8017  -25.8828   19.0083 H   0  0  0  0  0  0
  -23.9570  -27.3364   18.9817 H   0  0  0  0  0  0
  -23.8087  -30.5898   19.4029 H   0  0  0  0  0  0
  -22.7894  -29.2561   19.8457 H   0  0  0  0  0  0
  -25.1296  -36.1917   25.0829 H   0  0  0  0  0  0
  -21.0023  -28.3329   24.1361 H   0  0  0  0  0  0
  -20.5728  -26.2376   23.3608 H   0  0  0  0  0  0
  -21.6676  -26.7487   22.1173 H   0  0  0  0  0  0
  -19.6945  -25.6279   21.1295 H   0  0  0  0  0  0
  -19.6725  -27.3152   20.6698 H   0  0  0  0  0  0
  -17.4242  -26.6715   21.4020 H   0  0  0  0  0  0
  -18.0366  -26.0096   22.9021 H   0  0  0  0  0  0
  -19.7964  -30.7318   24.2236 H   0  0  0  0  0  0
  -17.5044  -31.6292   24.5159 H   0  0  0  0  0  0
  -15.5386  -30.2993   23.7690 H   0  0  0  0  0  0
  -15.8698  -28.0797   22.7157 H   0  0  0  0  0  0
  -24.5739  -30.7308   25.7647 H   0  0  0  0  0  0
  -24.8906  -32.3031   26.4861 H   0  0  0  0  0  0
  -25.7802  -30.8879   27.0226 H   0  0  0  0  0  0
  -26.3068  -29.6692   24.1388 H   0  0  0  0  0  0
  -27.3896  -29.7313   25.5069 H   0  0  0  0  0  0
  -27.9012  -30.4204   23.9880 H   0  0  0  0  0  0
  -27.2711  -33.3622   26.2178 H   0  0  0  0  0  0
  -28.3851  -32.6931   25.0350 H   0  0  0  0  0  0
  -28.0812  -31.8436   26.5412 H   0  0  0  0  0  0
  -28.2582  -38.0120   24.7570 H   0  0  0  0  0  0
  -28.1137  -36.2657   24.6199 H   0  0  0  0  0  0
  -27.2347  -37.1326   25.8865 H   0  0  0  0  0  0
  -20.9520  -29.8766   21.6721 H   0  0  0  0  0  0
  -26.0182  -38.2864   24.1400 H   0  0  0  0  0  0
  -32.6605  -19.0178   22.6531 H   0  0  0  0  0  0
  -31.4487  -21.0096   21.9509 H   0  0  0  0  0  0
  -31.9687  -16.7640   22.0525 H   0  0  0  0  0  0
  -28.6504  -18.4434   19.8519 H   0  0  0  0  0  0
  -27.4811  -24.9710   18.7351 H   0  0  0  0  0  0
  -28.7879  -20.6529   18.3522 H   0  0  0  0  0  0
  -27.4577  -20.4466   19.5145 H   0  0  0  0  0  0
  -28.8578  -15.7608   20.6239 H   0  0  0  0  0  0
  1 25  1  0  0  0
  1 30  2  0  0  0
  1 83  1  0  0  0
  2  3  1  0  0  0
  2 25  1  0  0  0
  2 86  1  0  0  0
  2 87  1  0  0  0
  3  4  1  0  0  0
  3 88  1  0  0  0
  3 89  1  0  0  0
  4  5  1  0  0  0
  4 90  1  0  0  0
  4 91  1  0  0  0
  5  6  1  0  0  0
  5 26  1  0  0  0
  5 92  1  0  0  0
  6 25  1  0  0  0
  6 93  1  0  0  0
  6 94  1  0  0  0
  7  8  2  0  0  0
  7 26  1  0  0  0
  7 29  1  0  0  0
  8  9  1  0  0  0
  8 22  1  0  0  0
  9 10  1  0  0  0
  9 27  2  0  0  0
 10 11  2  0  0  0
 10 15  1  0  0  0
 11 12  1  0  0  0
 11 95  1  0  0  0
 12 13  2  0  0  0
 12 96  1  0  0  0
 13 14  1  0  0  0
 13 31  1  0  0  0
 14 15  2  0  0  0
 14 97  1  0  0  0
 15 98  1  0  0  0
 16 17  2  0  0  0
 16 21  1  0  0  0
 16 31  1  0  0  0
 17 18  1  0  0  0
 17 99  1  0  0  0
 18 19  2  0  0  0
 18100  1  0  0  0
 19 20  1  0  0  0
 19 24  1  0  0  0
 20 21  2  0  0  0
 20101  1  0  0  0
 21 23  1  0  0  0
 22 28  1  0  0  0
 22 32  2  0  0  0
 26 27  1  0  0  0
 28102  1  0  0  0
 28103  1  0  0  0
 29104  1  0  0  0
 29105  1  0  0  0
 33 34  1  0  0  0
 33 66  1  0  0  0
 33 70  2  0  0  0
 34 36  1  0  0  0
 34 59  1  0  0  0
 34106  1  0  0  0
 35 44  2  0  0  0
 35 45  1  0  0  0
 35 68  1  0  0  0
 36 56  1  0  0  0
 36107  1  0  0  0
 37 39  1  0  0  0
 37 47  1  0  0  0
 37 66  1  0  0  0
 37108  1  0  0  0
 38 43  2  0  0  0
 38 46  1  0  0  0
 38 47  1  0  0  0
 39 64  1  0  0  0
 39 67  2  0  0  0
 40 52  1  0  0  0
 40 53  2  0  0  0
 40 58  1  0  0  0
 41109  1  0  0  0
 41110  1  0  0  0
 41111  1  0  0  0
 41 48  1  0  0  0
 42 43  1  0  0  0
 42 66  1  0  0  0
 42112  1  0  0  0
 42113  1  0  0  0
 43 44  1  0  0  0
 44114  1  0  0  0
 45 46  2  0  0  0
 45115  1  0  0  0
 46116  1  0  0  0
 47117  1  0  0  0
 47118  1  0  0  0
 48 56  1  0  0  0
 48 65  1  0  0  0
 48119  1  0  0  0
 49 50  1  0  0  0
 49 53  1  0  0  0
 49 64  1  0  0  0
 49120  1  0  0  0
 50 51  1  0  0  0
 50121  1  0  0  0
 50122  1  0  0  0
 51 52  1  0  0  0
 51123  1  0  0  0
 51124  1  0  0  0
 52125  1  0  0  0
 52126  1  0  0  0
 53 54  1  0  0  0
 54 55  2  0  0  0
 54127  1  0  0  0
 55 57  1  0  0  0
 55128  1  0  0  0
 56 69  2  0  0  0
 57 58  2  0  0  0
 57129  1  0  0  0
 58130  1  0  0  0
 59 60  1  0  0  0
 59 61  1  0  0  0
 59 62  1  0  0  0
 60131  1  0  0  0
 60132  1  0  0  0
 60133  1  0  0  0
 61134  1  0  0  0
 61135  1  0  0  0
 61136  1  0  0  0
 62137  1  0  0  0
 62138  1  0  0  0
 62139  1  0  0  0
 63 65  1  0  0  0
 63140  1  0  0  0
 63141  1  0  0  0
 63142  1  0  0  0
 64143  1  0  0  0
 65144  1  0  0  0
 68 80  1  0  0  0
 71 72  2  0  0  0
 71 73  1  0  0  0
 71145  1  0  0  0
 72 75  1  0  0  0
 72146  1  0  0  0
 73 76  2  0  0  0
 73147  1  0  0  0
 74 75  2  0  0  0
 74 76  1  0  0  0
 74148  1  0  0  0
 75 82  1  0  0  0
 76 83  1  0  0  0
 77 78  1  0  0  0
 77 79  1  0  0  0
 77 80  2  0  0  0
 78 81  1  0  0  0
 78 84  2  0  0  0
 79 82  1  0  0  0
 79 85  2  0  0  0
 80149  1  0  0  0
 81 82  1  0  0  0
 81150  1  0  0  0
 81151  1  0  0  0
 83152  1  0  0  0
M  ISO  4   1 100  68 101  80 101  83 100
M  END
> <chiral flag>
0

> <version>
0

> <s_m_source_file>
/data/baiqing/PycharmProjects/Reinvent-master-3.2/result/LINK_invent/BTK/process_docking_weight1_custom_product_contain_oxygen_bond_distance_aromatic_linkinvent_7_9_3/rearranged_h_0086.sdf

> <i_m_source_file_index>
44

> <r_mmod_Potential_Energy-OPLS-2005>
428.780914306641

> <r_mmod_Stretch_Energy-OPLS-2005>
184.024887084961

> <r_mmod_Bend_Energy-OPLS-2005>
296.929534912109

> <r_mmod_Torsional_Energy-OPLS-2005>
254.100189208984

> <r_mmod_Improper_Torsional_Energy-OPLS-2005>
6.68925905227661

> <r_mmod_Van_der_Waal_Energy-OPLS-2005>
149.787078857422

> <r_mmod_Electrostatic_Energy-OPLS-2005>
-354.048309326172

> <r_mmod_Solvation_Energy-OPLS-2005>
-240.612823486328

> <b_mmod_Minimization_Converged-OPLS-2005>
0

> <r_mmod_RMS_Derivative-OPLS-2005>
5.81002902984619

$$$$
44
                    3D
 Structure written by MMmdl.
160169  0  0  1  0            999 V2000
  -30.6954  -14.7821   20.4382 C   0  0  0  0  0  0
  -30.4130  -12.4796   19.4660 C   0  0  0  0  0  0
  -29.4962  -12.4863   18.2179 C   0  0  0  0  0  0
  -28.0309  -12.3343   18.6487 C   0  0  0  0  0  0
  -27.6416  -13.2535   19.8359 C   0  0  2  0  0  0
  -28.6937  -13.2470   20.9722 C   0  0  0  0  0  0
  -25.2489  -13.8331   20.5723 C   0  0  0  0  0  0
  -24.1806  -13.0474   20.9267 C   0  0  0  0  0  0
  -24.6440  -11.6982   20.8782 C   0  0  0  0  0  0
  -23.9062  -10.4311   21.0454 C   0  0  0  0  0  0
  -24.3594   -9.4224   21.9226 C   0  0  0  0  0  0
  -23.6288   -8.2221   22.0758 C   0  0  0  0  0  0
  -22.4292   -8.0273   21.3525 C   0  0  0  0  0  0
  -21.9877   -9.0250   20.4665 C   0  0  0  0  0  0
  -22.7235  -10.2132   20.3106 C   0  0  0  0  0  0
  -21.6829   -6.0709   22.5270 C   0  0  0  0  0  0
  -21.4013   -6.5601   23.8211 C   0  0  0  0  0  0
  -21.3646   -5.6772   24.9164 C   0  0  0  0  0  0
  -21.6077   -4.3043   24.7216 C   0  0  0  0  0  0
  -21.8826   -3.8119   23.4339 C   0  0  0  0  0  0
  -21.9168   -4.6920   22.3387 C   0  0  0  0  0  0
  -22.7798  -13.5160   21.1893 C   0  0  0  0  0  0
  -22.1619   -4.2087   21.0965 F   0  0  0  0  0  0
  -21.5635   -3.4557   25.7736 F   0  0  0  0  0  0
  -29.9881  -13.5877   20.3692 N   0  0  0  0  0  0
  -26.2938  -12.9579   20.3218 N   0  0  0  0  0  0
  -25.9366  -11.6687   20.5731 N   0  0  0  0  0  0
  -22.0498  -12.8063   22.0484 N   0  0  0  0  0  0
  -25.4036  -15.2062   20.4117 N   0  0  0  0  0  0
  -31.8529  -14.7886   20.0252 O   0  0  0  0  0  0
  -21.6642   -6.8878   21.4248 O   0  0  0  0  0  0
  -22.3402  -14.5422   20.6748 O   0  0  0  0  0  0
  -24.6335  -31.8529   23.1904 C   0  0  0  0  0  0
  -25.9094  -32.4756   23.8314 C   0  0  1  0  0  0
  -27.2483  -27.2361   20.1033 C   0  0  0  0  0  0
  -25.5830  -33.8555   24.2237 N   0  0  0  0  0  0
  -23.4329  -30.4638   21.5428 C   0  0  2  0  0  0
  -24.8866  -28.9187   20.1052 C   0  0  0  0  0  0
  -22.7501  -29.4531   22.4989 C   0  0  0  0  0  0
  -18.0238  -28.1310   22.8526 C   0  0  0  0  0  0
  -24.1480  -36.7294   23.2671 C   0  0  0  0  0  0
  -25.9807  -30.7568   21.3781 C   0  0  0  0  0  0
  -26.0576  -29.3762   20.7196 C   0  0  0  0  0  0
  -27.2330  -28.5482   20.7121 C   0  0  0  0  0  0
  -26.0389  -26.8690   19.4652 C   0  0  0  0  0  0
  -24.8858  -27.6755   19.4642 C   0  0  0  0  0  0
  -23.6465  -29.7935   20.1619 C   0  0  0  0  0  0
  -25.4114  -36.3117   24.0373 C   0  0  1  0  0  0
  -20.5837  -28.3627   23.1283 C   0  0  2  0  0  0
  -20.6701  -26.9353   22.5410 C   0  0  0  0  0  0
  -19.5671  -26.6342   21.5195 C   0  0  0  0  0  0
  -18.1870  -26.7855   22.1665 C   0  0  0  0  0  0
  -19.1498  -28.8781   23.2905 C   0  0  0  0  0  0
  -18.9459  -30.1392   23.8920 C   0  0  0  0  0  0
  -17.6457  -30.6556   24.0530 C   0  0  0  0  0  0
  -25.9072  -34.9464   23.5157 C   0  0  0  0  0  0
  -16.5335  -29.9063   23.6281 C   0  0  0  0  0  0
  -16.7234  -28.6435   23.0390 C   0  0  0  0  0  0
  -26.4414  -31.6550   25.0700 C   0  0  0  0  0  0
  -25.3580  -31.3649   26.1371 C   0  0  0  0  0  0
  -27.0239  -30.2968   24.6171 C   0  0  0  0  0  0
  -27.6043  -32.4238   25.7401 C   0  0  0  0  0  0
  -27.5591  -37.1792   24.8494 C   0  0  0  0  0  0
  -21.4202  -29.2983   22.3720 N   0  0  0  0  0  0
  -26.4307  -37.3803   23.9443 N   0  0  0  0  0  0
  -24.7023  -31.0428   22.0924 N   0  0  0  0  0  0
  -23.4176  -28.8129   23.3145 O   0  0  0  0  0  0
  -28.3417  -26.3134   20.1948 O   0  0  0  0  0  0
  -26.5766  -34.8957   22.4803 O   0  0  0  0  0  0
  -23.5448  -32.1378   23.7105 O   0  0  0  0  0  0
  -29.4772  -19.7990   20.1459 C   0  0  0  0  0  0
  -32.0228  -20.1481   21.1419 C   0  0  0  0  0  0
  -30.2423  -18.5886   20.4744 C   0  0  0  0  0  0
  -31.2901  -21.3024   20.7727 C   0  0  0  0  0  0
  -29.9437  -21.1890   20.3092 C   0  0  0  0  0  0
  -31.5283  -18.8342   21.0050 C   0  0  0  0  0  0
  -32.5439  -23.1447   21.8424 C   0  0  0  0  0  0
  -29.8290  -17.1049   20.1128 C   0  0  0  0  0  0
  -28.3532  -24.8844   19.7163 C   0  0  0  0  0  0
  -33.4130  -24.3226   21.4373 C   0  0  0  0  0  0
  -33.5247  -24.1900   19.9194 C   0  0  0  0  0  0
  -32.5738  -23.0506   19.5169 C   0  0  0  0  0  0
  -29.3174  -23.7819   20.3995 C   0  0  0  0  0  0
  -32.0277  -22.5217   20.7638 N   0  0  0  0  0  0
  -30.1552  -15.9863   20.8839 N   0  0  0  0  0  0
  -32.3593  -22.8452   23.0267 O   0  0  0  0  0  0
  -29.1690  -16.9556   19.0766 O   0  0  0  0  0  0
  -27.6758  -24.4866   18.7647 O   0  0  0  0  0  0
  -29.1246  -22.3326   19.9617 O   0  0  0  0  0  0
  -32.3389  -17.7970   21.3398 F   0  0  0  0  0  0
  -31.4607  -12.5444   19.1718 H   0  0  0  0  0  0
  -30.3148  -11.5211   19.9744 H   0  0  0  0  0  0
  -29.7630  -11.6593   17.5516 H   0  0  0  0  0  0
  -29.6098  -13.4002   17.6331 H   0  0  0  0  0  0
  -27.8967  -11.2897   18.9288 H   0  0  0  0  0  0
  -27.3708  -12.5061   17.7929 H   0  0  0  0  0  0
  -27.6341  -14.2667   19.4355 H   0  0  0  0  0  0
  -28.7470  -12.2702   21.4541 H   0  0  0  0  0  0
  -28.4341  -13.9707   21.7443 H   0  0  0  0  0  0
  -25.2788   -9.5633   22.4740 H   0  0  0  0  0  0
  -24.0048   -7.4578   22.7401 H   0  0  0  0  0  0
  -21.0811   -8.8728   19.8944 H   0  0  0  0  0  0
  -22.3746  -10.9621   19.6129 H   0  0  0  0  0  0
  -21.2019   -7.6120   23.9686 H   0  0  0  0  0  0
  -21.1459   -6.0515   25.9078 H   0  0  0  0  0  0
  -22.0612   -2.7568   23.2847 H   0  0  0  0  0  0
  -22.4364  -11.9929   22.5012 H   0  0  0  0  0  0
  -21.1008  -13.0829   22.2605 H   0  0  0  0  0  0
  -24.6530  -15.8672   20.6075 H   0  0  0  0  0  0
  -26.2299  -15.6562   20.0280 H   0  0  0  0  0  0
  -26.7202  -32.5440   23.1105 H   0  0  0  0  0  0
  -24.9615  -33.9651   25.0118 H   0  0  0  0  0  0
  -22.7320  -31.2863   21.3950 H   0  0  0  0  0  0
  -23.3767  -35.9596   23.3349 H   0  0  0  0  0  0
  -24.3592  -36.8883   22.2089 H   0  0  0  0  0  0
  -23.7165  -37.6485   23.6655 H   0  0  0  0  0  0
  -26.1209  -31.5160   20.6071 H   0  0  0  0  0  0
  -26.8620  -30.8103   22.0058 H   0  0  0  0  0  0
  -28.1261  -28.8967   21.2146 H   0  0  0  0  0  0
  -25.9236  -25.9206   18.9728 H   0  0  0  0  0  0
  -23.9996  -27.3149   18.9637 H   0  0  0  0  0  0
  -23.7395  -30.5635   19.3977 H   0  0  0  0  0  0
  -22.7742  -29.1982   19.8877 H   0  0  0  0  0  0
  -25.1257  -36.2022   25.0862 H   0  0  0  0  0  0
  -20.9921  -28.3196   24.1397 H   0  0  0  0  0  0
  -20.5444  -26.2283   23.3632 H   0  0  0  0  0  0
  -21.6597  -26.7262   22.1300 H   0  0  0  0  0  0
  -19.6830  -25.6253   21.1203 H   0  0  0  0  0  0
  -19.6576  -27.3157   20.6730 H   0  0  0  0  0  0
  -17.4112  -26.6548   21.4123 H   0  0  0  0  0  0
  -18.0370  -25.9977   22.9061 H   0  0  0  0  0  0
  -19.7949  -30.7167   24.2347 H   0  0  0  0  0  0
  -17.5020  -31.6250   24.5116 H   0  0  0  0  0  0
  -15.5338  -30.2993   23.7524 H   0  0  0  0  0  0
  -15.8646  -28.0704   22.7164 H   0  0  0  0  0  0
  -24.5814  -30.6971   25.7620 H   0  0  0  0  0  0
  -24.8648  -32.2747   26.4798 H   0  0  0  0  0  0
  -25.7806  -30.8779   27.0164 H   0  0  0  0  0  0
  -26.2809  -29.6758   24.1150 H   0  0  0  0  0  0
  -27.3888  -29.7185   25.4676 H   0  0  0  0  0  0
  -27.8702  -30.4291   23.9428 H   0  0  0  0  0  0
  -27.2780  -33.3589   26.1969 H   0  0  0  0  0  0
  -28.3767  -32.6698   25.0098 H   0  0  0  0  0  0
  -28.0802  -31.8328   26.5241 H   0  0  0  0  0  0
  -28.2632  -38.0067   24.7568 H   0  0  0  0  0  0
  -28.1037  -36.2617   24.6248 H   0  0  0  0  0  0
  -27.2345  -37.1389   25.8903 H   0  0  0  0  0  0
  -20.9372  -29.8770   21.6991 H   0  0  0  0  0  0
  -26.0217  -38.2906   24.1349 H   0  0  0  0  0  0
  -28.4943  -19.6551   19.7149 H   0  0  0  0  0  0
  -33.0398  -20.2714   21.4920 H   0  0  0  0  0  0
  -34.3958  -24.2699   21.9116 H   0  0  0  0  0  0
  -32.9271  -25.2574   21.7237 H   0  0  0  0  0  0
  -34.5529  -23.9561   19.6238 H   0  0  0  0  0  0
  -33.2523  -25.1284   19.4324 H   0  0  0  0  0  0
  -33.1298  -22.2786   18.9881 H   0  0  0  0  0  0
  -31.7907  -23.3931   18.8410 H   0  0  0  0  0  0
  -29.2245  -23.8437   21.4870 H   0  0  0  0  0  0
  -30.3051  -24.1416   20.1472 H   0  0  0  0  0  0
  -30.6956  -16.3016   21.6745 H   0  0  0  0  0  0
  1 25  1  0  0  0
  1 30  2  0  0  0
  1 85  1  0  0  0
  2  3  1  0  0  0
  2 25  1  0  0  0
  2 91  1  0  0  0
  2 92  1  0  0  0
  3  4  1  0  0  0
  3 93  1  0  0  0
  3 94  1  0  0  0
  4  5  1  0  0  0
  4 95  1  0  0  0
  4 96  1  0  0  0
  5  6  1  0  0  0
  5 26  1  0  0  0
  5 97  1  0  0  0
  6 25  1  0  0  0
  6 98  1  0  0  0
  6 99  1  0  0  0
  7  8  2  0  0  0
  7 26  1  0  0  0
  7 29  1  0  0  0
  8  9  1  0  0  0
  8 22  1  0  0  0
  9 10  1  0  0  0
  9 27  2  0  0  0
 10 11  2  0  0  0
 10 15  1  0  0  0
 11 12  1  0  0  0
 11100  1  0  0  0
 12 13  2  0  0  0
 12101  1  0  0  0
 13 14  1  0  0  0
 13 31  1  0  0  0
 14 15  2  0  0  0
 14102  1  0  0  0
 15103  1  0  0  0
 16 17  2  0  0  0
 16 21  1  0  0  0
 16 31  1  0  0  0
 17 18  1  0  0  0
 17104  1  0  0  0
 18 19  2  0  0  0
 18105  1  0  0  0
 19 20  1  0  0  0
 19 24  1  0  0  0
 20 21  2  0  0  0
 20106  1  0  0  0
 21 23  1  0  0  0
 22 28  1  0  0  0
 22 32  2  0  0  0
 26 27  1  0  0  0
 28107  1  0  0  0
 28108  1  0  0  0
 29109  1  0  0  0
 29110  1  0  0  0
 33 34  1  0  0  0
 33 66  1  0  0  0
 33 70  2  0  0  0
 34 36  1  0  0  0
 34 59  1  0  0  0
 34111  1  0  0  0
 35 44  2  0  0  0
 35 45  1  0  0  0
 35 68  1  0  0  0
 36 56  1  0  0  0
 36112  1  0  0  0
 37 39  1  0  0  0
 37 47  1  0  0  0
 37 66  1  0  0  0
 37113  1  0  0  0
 38 43  2  0  0  0
 38 46  1  0  0  0
 38 47  1  0  0  0
 39 64  1  0  0  0
 39 67  2  0  0  0
 40 52  1  0  0  0
 40 53  2  0  0  0
 40 58  1  0  0  0
 41114  1  0  0  0
 41115  1  0  0  0
 41116  1  0  0  0
 41 48  1  0  0  0
 42 43  1  0  0  0
 42 66  1  0  0  0
 42117  1  0  0  0
 42118  1  0  0  0
 43 44  1  0  0  0
 44119  1  0  0  0
 45 46  2  0  0  0
 45120  1  0  0  0
 46121  1  0  0  0
 47122  1  0  0  0
 47123  1  0  0  0
 48 56  1  0  0  0
 48 65  1  0  0  0
 48124  1  0  0  0
 49 50  1  0  0  0
 49 53  1  0  0  0
 49 64  1  0  0  0
 49125  1  0  0  0
 50 51  1  0  0  0
 50126  1  0  0  0
 50127  1  0  0  0
 51 52  1  0  0  0
 51128  1  0  0  0
 51129  1  0  0  0
 52130  1  0  0  0
 52131  1  0  0  0
 53 54  1  0  0  0
 54 55  2  0  0  0
 54132  1  0  0  0
 55 57  1  0  0  0
 55133  1  0  0  0
 56 69  2  0  0  0
 57 58  2  0  0  0
 57134  1  0  0  0
 58135  1  0  0  0
 59 60  1  0  0  0
 59 61  1  0  0  0
 59 62  1  0  0  0
 60136  1  0  0  0
 60137  1  0  0  0
 60138  1  0  0  0
 61139  1  0  0  0
 61140  1  0  0  0
 61141  1  0  0  0
 62142  1  0  0  0
 62143  1  0  0  0
 62144  1  0  0  0
 63 65  1  0  0  0
 63145  1  0  0  0
 63146  1  0  0  0
 63147  1  0  0  0
 64148  1  0  0  0
 65149  1  0  0  0
 68 79  1  0  0  0
 71 73  2  0  0  0
 71 75  1  0  0  0
 71150  1  0  0  0
 72 74  1  0  0  0
 72 76  2  0  0  0
 72151  1  0  0  0
 73 76  1  0  0  0
 73 78  1  0  0  0
 74 75  2  0  0  0
 74 84  1  0  0  0
 75 89  1  0  0  0
 76 90  1  0  0  0
 77 80  1  0  0  0
 77 84  1  0  0  0
 77 86  2  0  0  0
 78 85  1  0  0  0
 78 87  2  0  0  0
 79 83  1  0  0  0
 79 88  2  0  0  0
 80 81  1  0  0  0
 80152  1  0  0  0
 80153  1  0  0  0
 81 82  1  0  0  0
 81154  1  0  0  0
 81155  1  0  0  0
 82 84  1  0  0  0
 82156  1  0  0  0
 82157  1  0  0  0
 83 89  1  0  0  0
 83158  1  0  0  0
 83159  1  0  0  0
 85160  1  0  0  0
M  ISO  4   1 100  68 101  79 101  85 100
M  END
> <chiral flag>
0

> <version>
0

> <s_m_source_file>
/data/baiqing/PycharmProjects/Reinvent-master-3.2/result/LINK_invent/BTK/process_docking_weight1_custom_product_contain_oxygen_bond_distance_aromatic_linkinvent_7_9_3/rearranged_h_0086.sdf

> <i_m_source_file_index>
45

> <r_mmod_Potential_Energy-OPLS-2005>
389.379364013672

> <r_mmod_Stretch_Energy-OPLS-2005>
180.993072509766

> <r_mmod_Bend_Energy-OPLS-2005>
240.865356445312

> <r_mmod_Torsional_Energy-OPLS-2005>
396.018829345703

> <r_mmod_Improper_Torsional_Energy-OPLS-2005>
8.82499027252197

> <r_mmod_Van_der_Waal_Energy-OPLS-2005>
138.831970214844

> <r_mmod_Electrostatic_Energy-OPLS-2005>
-448.293914794922

> <r_mmod_Solvation_Energy-OPLS-2005>
-232.350280761719

> <b_mmod_Minimization_Converged-OPLS-2005>
0

> <r_mmod_RMS_Derivative-OPLS-2005>
8.86562538146973

$$$$
45
                    3D
 Structure written by MMmdl.
157166  0  0  1  0            999 V2000
  -30.7735  -14.5237   20.4524 C   0  0  0  0  0  0
  -30.3914  -12.3142   19.4488 C   0  0  0  0  0  0
  -29.4793  -12.4689   18.2154 C   0  0  0  0  0  0
  -28.0128  -12.3217   18.6458 C   0  0  0  0  0  0
  -27.6503  -13.2267   19.8544 C   0  0  2  0  0  0
  -28.7010  -13.1579   20.9879 C   0  0  0  0  0  0
  -25.2583  -13.8244   20.5740 C   0  0  0  0  0  0
  -24.1855  -13.0484   20.9231 C   0  0  0  0  0  0
  -24.6442  -11.6964   20.8777 C   0  0  0  0  0  0
  -23.9139  -10.4323   21.0426 C   0  0  0  0  0  0
  -24.3687   -9.4217   21.9188 C   0  0  0  0  0  0
  -23.6348   -8.2256   22.0756 C   0  0  0  0  0  0
  -22.4319   -8.0316   21.3564 C   0  0  0  0  0  0
  -21.9974   -9.0284   20.4651 C   0  0  0  0  0  0
  -22.7314  -10.2161   20.3072 C   0  0  0  0  0  0
  -21.6866   -6.0775   22.5284 C   0  0  0  0  0  0
  -21.4006   -6.5670   23.8211 C   0  0  0  0  0  0
  -21.3645   -5.6817   24.9165 C   0  0  0  0  0  0
  -21.6043   -4.3080   24.7217 C   0  0  0  0  0  0
  -21.8824   -3.8188   23.4337 C   0  0  0  0  0  0
  -21.9195   -4.7005   22.3398 C   0  0  0  0  0  0
  -22.7878  -13.5237   21.1859 C   0  0  0  0  0  0
  -22.1673   -4.2210   21.0971 F   0  0  0  0  0  0
  -21.5630   -3.4544   25.7715 F   0  0  0  0  0  0
  -30.0280  -13.3824   20.4026 N   0  0  0  0  0  0
  -26.3009  -12.9429   20.3362 N   0  0  0  0  0  0
  -25.9380  -11.6588   20.5839 N   0  0  0  0  0  0
  -22.0571  -12.8183   22.0412 N   0  0  0  0  0  0
  -25.4309  -15.1962   20.4093 N   0  0  0  0  0  0
  -31.9635  -14.4898   20.1352 O   0  0  0  0  0  0
  -21.6668   -6.8931   21.4259 O   0  0  0  0  0  0
  -22.3509  -14.5498   20.6671 O   0  0  0  0  0  0
  -24.6165  -31.8693   23.2104 C   0  0  0  0  0  0
  -25.9061  -32.4819   23.8410 C   0  0  1  0  0  0
  -27.2278  -27.4265   20.1051 C   0  0  0  0  0  0
  -25.5923  -33.8611   24.2345 N   0  0  0  0  0  0
  -23.4043  -30.4930   21.5505 C   0  0  2  0  0  0
  -24.8513  -28.9536   20.1181 C   0  0  0  0  0  0
  -22.7417  -29.4678   22.4991 C   0  0  0  0  0  0
  -18.0275  -28.1397   22.8486 C   0  0  0  0  0  0
  -24.1496  -36.7324   23.2632 C   0  0  0  0  0  0
  -25.9324  -30.8293   21.3665 C   0  0  0  0  0  0
  -26.0094  -29.4588   20.7239 C   0  0  0  0  0  0
  -27.2031  -28.6998   20.7214 C   0  0  0  0  0  0
  -26.0617  -26.9407   19.4827 C   0  0  0  0  0  0
  -24.8713  -27.6914   19.4987 C   0  0  0  0  0  0
  -23.6139  -29.8229   20.1654 C   0  0  0  0  0  0
  -25.4110  -36.3112   24.0335 C   0  0  1  0  0  0
  -20.5858  -28.3659   23.1285 C   0  0  2  0  0  0
  -20.6771  -26.9402   22.5382 C   0  0  0  0  0  0
  -19.5728  -26.6395   21.5197 C   0  0  0  0  0  0
  -18.1923  -26.7960   22.1608 C   0  0  0  0  0  0
  -19.1528  -28.8843   23.2892 C   0  0  0  0  0  0
  -18.9466  -30.1449   23.8898 C   0  0  0  0  0  0
  -17.6466  -30.6592   24.0570 C   0  0  0  0  0  0
  -25.9038  -34.9474   23.5137 C   0  0  0  0  0  0
  -16.5349  -29.9111   23.6323 C   0  0  0  0  0  0
  -16.7261  -28.6530   23.0330 C   0  0  0  0  0  0
  -26.4488  -31.6574   25.0713 C   0  0  0  0  0  0
  -25.3760  -31.3672   26.1463 C   0  0  0  0  0  0
  -27.0314  -30.3028   24.6062 C   0  0  0  0  0  0
  -27.6083  -32.4275   25.7467 C   0  0  0  0  0  0
  -27.5586  -37.1820   24.8463 C   0  0  0  0  0  0
  -21.4142  -29.3061   22.3720 N   0  0  0  0  0  0
  -26.4303  -37.3798   23.9397 N   0  0  0  0  0  0
  -24.6685  -31.0798   22.1009 N   0  0  0  0  0  0
  -23.4179  -28.8216   23.3039 O   0  0  0  0  0  0
  -28.3693  -26.6590   20.0517 O   0  0  0  0  0  0
  -26.5593  -34.8928   22.4691 O   0  0  0  0  0  0
  -23.5372  -32.1449   23.7507 O   0  0  0  0  0  0
  -29.2499  -18.5280   21.7532 C   0  0  0  0  0  0
  -29.6664  -19.1009   19.4292 C   0  0  0  0  0  0
  -28.6663  -19.8052   21.9460 C   0  0  0  0  0  0
  -29.0721  -20.3685   19.6159 C   0  0  0  0  0  0
  -29.7742  -18.1685   20.4902 C   0  0  0  0  0  0
  -28.5902  -20.7506   20.8891 C   0  0  0  0  0  0
  -26.6431  -24.4040   21.6692 C   0  0  0  0  0  0
  -26.6560  -22.0176   21.5458 C   0  0  0  0  0  0
  -27.9187  -24.4847   21.2286 C   0  0  0  0  0  0
  -25.9671  -23.1364   21.8156 C   0  0  0  0  0  0
  -28.6662  -23.2354   20.9142 C   0  0  0  0  0  0
  -30.6137  -16.9284   20.2817 C   0  0  0  0  0  0
  -28.6398  -25.8467   21.2067 C   0  0  0  0  0  0
  -27.9892  -22.0444   21.1001 N   0  0  0  0  0  0
  -30.1230  -15.7054   20.6338 N   0  0  0  0  0  0
  -29.8407  -23.2529   20.5274 O   0  0  0  0  0  0
  -31.7045  -17.1181   19.7270 O   0  0  0  0  0  0
  -24.6873  -23.0784   22.1968 O   0  0  0  0  0  0
  -31.4356  -12.3415   19.1382 H   0  0  0  0  0  0
  -30.2458  -11.3340   19.9066 H   0  0  0  0  0  0
  -29.7157  -11.7079   17.4693 H   0  0  0  0  0  0
  -29.6394  -13.4366   17.7348 H   0  0  0  0  0  0
  -27.8569  -11.2737   18.9060 H   0  0  0  0  0  0
  -27.3420  -12.5224   17.8089 H   0  0  0  0  0  0
  -27.6560  -14.2509   19.4777 H   0  0  0  0  0  0
  -28.6715  -12.2009   21.5082 H   0  0  0  0  0  0
  -28.4806  -13.9154   21.7407 H   0  0  0  0  0  0
  -25.2849   -9.5674   22.4737 H   0  0  0  0  0  0
  -24.0067   -7.4650   22.7463 H   0  0  0  0  0  0
  -21.0918   -8.8831   19.8947 H   0  0  0  0  0  0
  -22.3811  -10.9711   19.6176 H   0  0  0  0  0  0
  -21.1993   -7.6180   23.9725 H   0  0  0  0  0  0
  -21.1450   -6.0545   25.9063 H   0  0  0  0  0  0
  -22.0612   -2.7663   23.2813 H   0  0  0  0  0  0
  -22.4239  -11.9817   22.4716 H   0  0  0  0  0  0
  -21.1170  -13.1130   22.2646 H   0  0  0  0  0  0
  -24.6703  -15.8561   20.5190 H   0  0  0  0  0  0
  -26.2734  -15.6271   20.0480 H   0  0  0  0  0  0
  -26.7113  -32.5542   23.1167 H   0  0  0  0  0  0
  -25.0071  -33.9778   25.0488 H   0  0  0  0  0  0
  -22.6942  -31.3089   21.4096 H   0  0  0  0  0  0
  -23.3750  -35.9672   23.3309 H   0  0  0  0  0  0
  -24.3594  -36.8928   22.2047 H   0  0  0  0  0  0
  -23.7266  -37.6539   23.6636 H   0  0  0  0  0  0
  -26.0457  -31.5894   20.5922 H   0  0  0  0  0  0
  -26.8223  -30.8893   21.9809 H   0  0  0  0  0  0
  -28.0993  -29.0851   21.1863 H   0  0  0  0  0  0
  -26.0739  -25.9743   18.9978 H   0  0  0  0  0  0
  -23.9830  -27.3012   19.0205 H   0  0  0  0  0  0
  -23.7268  -30.5966   19.4052 H   0  0  0  0  0  0
  -22.7376  -29.2443   19.8651 H   0  0  0  0  0  0
  -25.1292  -36.1986   25.0834 H   0  0  0  0  0  0
  -20.9962  -28.3224   24.1407 H   0  0  0  0  0  0
  -21.6628  -26.7456   22.1135 H   0  0  0  0  0  0
  -20.5720  -26.2268   23.3555 H   0  0  0  0  0  0
  -19.6856  -25.6313   21.1206 H   0  0  0  0  0  0
  -19.6683  -27.3208   20.6730 H   0  0  0  0  0  0
  -17.4189  -26.6735   21.4014 H   0  0  0  0  0  0
  -18.0287  -26.0093   22.8985 H   0  0  0  0  0  0
  -19.7930  -30.7269   24.2270 H   0  0  0  0  0  0
  -17.5017  -31.6268   24.5183 H   0  0  0  0  0  0
  -15.5356  -30.3013   23.7646 H   0  0  0  0  0  0
  -15.8663  -28.0873   22.7016 H   0  0  0  0  0  0
  -24.5934  -30.7019   25.7793 H   0  0  0  0  0  0
  -24.8942  -32.2823   26.4927 H   0  0  0  0  0  0
  -25.8121  -30.8826   27.0206 H   0  0  0  0  0  0
  -26.2856  -29.6792   24.1119 H   0  0  0  0  0  0
  -27.4110  -29.7254   25.4497 H   0  0  0  0  0  0
  -27.8681  -30.4363   23.9197 H   0  0  0  0  0  0
  -27.2721  -33.3562   26.2099 H   0  0  0  0  0  0
  -28.3866  -32.6851   25.0262 H   0  0  0  0  0  0
  -28.0779  -31.8344   26.5334 H   0  0  0  0  0  0
  -28.2618  -38.0104   24.7496 H   0  0  0  0  0  0
  -28.1072  -36.2637   24.6308 H   0  0  0  0  0  0
  -27.2300  -37.1491   25.8867 H   0  0  0  0  0  0
  -20.9326  -29.8774   21.6912 H   0  0  0  0  0  0
  -26.0198  -38.2888   24.1373 H   0  0  0  0  0  0
  -29.3469  -17.8538   22.5933 H   0  0  0  0  0  0
  -30.0800  -18.8528   18.4605 H   0  0  0  0  0  0
  -28.3075  -20.0706   22.9316 H   0  0  0  0  0  0
  -28.9968  -21.0467   18.7752 H   0  0  0  0  0  0
  -26.1211  -25.3096   21.9493 H   0  0  0  0  0  0
  -26.2312  -21.0270   21.6262 H   0  0  0  0  0  0
  -29.7187  -25.7024   21.2674 H   0  0  0  0  0  0
  -28.3817  -26.4011   22.1107 H   0  0  0  0  0  0
  -29.1716  -15.6767   20.9565 H   0  0  0  0  0  0
  -24.3973  -22.1771   22.1102 H   0  0  0  0  0  0
  1 25  1  0  0  0
  1 30  2  0  0  0
  1 85  1  0  0  0
  2  3  1  0  0  0
  2 25  1  0  0  0
  2 89  1  0  0  0
  2 90  1  0  0  0
  3  4  1  0  0  0
  3 91  1  0  0  0
  3 92  1  0  0  0
  4  5  1  0  0  0
  4 93  1  0  0  0
  4 94  1  0  0  0
  5  6  1  0  0  0
  5 26  1  0  0  0
  5 95  1  0  0  0
  6 25  1  0  0  0
  6 96  1  0  0  0
  6 97  1  0  0  0
  7  8  2  0  0  0
  7 26  1  0  0  0
  7 29  1  0  0  0
  8  9  1  0  0  0
  8 22  1  0  0  0
  9 10  1  0  0  0
  9 27  2  0  0  0
 10 11  2  0  0  0
 10 15  1  0  0  0
 11 12  1  0  0  0
 11 98  1  0  0  0
 12 13  2  0  0  0
 12 99  1  0  0  0
 13 14  1  0  0  0
 13 31  1  0  0  0
 14 15  2  0  0  0
 14100  1  0  0  0
 15101  1  0  0  0
 16 17  2  0  0  0
 16 21  1  0  0  0
 16 31  1  0  0  0
 17 18  1  0  0  0
 17102  1  0  0  0
 18 19  2  0  0  0
 18103  1  0  0  0
 19 20  1  0  0  0
 19 24  1  0  0  0
 20 21  2  0  0  0
 20104  1  0  0  0
 21 23  1  0  0  0
 22 28  1  0  0  0
 22 32  2  0  0  0
 26 27  1  0  0  0
 28105  1  0  0  0
 28106  1  0  0  0
 29107  1  0  0  0
 29108  1  0  0  0
 33 34  1  0  0  0
 33 66  1  0  0  0
 33 70  2  0  0  0
 34 36  1  0  0  0
 34 59  1  0  0  0
 34109  1  0  0  0
 35 44  2  0  0  0
 35 45  1  0  0  0
 35 68  1  0  0  0
 36 56  1  0  0  0
 36110  1  0  0  0
 37 39  1  0  0  0
 37 47  1  0  0  0
 37 66  1  0  0  0
 37111  1  0  0  0
 38 43  2  0  0  0
 38 46  1  0  0  0
 38 47  1  0  0  0
 39 64  1  0  0  0
 39 67  2  0  0  0
 40 52  1  0  0  0
 40 53  2  0  0  0
 40 58  1  0  0  0
 41112  1  0  0  0
 41113  1  0  0  0
 41114  1  0  0  0
 41 48  1  0  0  0
 42 43  1  0  0  0
 42 66  1  0  0  0
 42115  1  0  0  0
 42116  1  0  0  0
 43 44  1  0  0  0
 44117  1  0  0  0
 45 46  2  0  0  0
 45118  1  0  0  0
 46119  1  0  0  0
 47120  1  0  0  0
 47121  1  0  0  0
 48 56  1  0  0  0
 48 65  1  0  0  0
 48122  1  0  0  0
 49 50  1  0  0  0
 49 53  1  0  0  0
 49 64  1  0  0  0
 49123  1  0  0  0
 50 51  1  0  0  0
 50124  1  0  0  0
 50125  1  0  0  0
 51 52  1  0  0  0
 51126  1  0  0  0
 51127  1  0  0  0
 52128  1  0  0  0
 52129  1  0  0  0
 53 54  1  0  0  0
 54 55  2  0  0  0
 54130  1  0  0  0
 55 57  1  0  0  0
 55131  1  0  0  0
 56 69  2  0  0  0
 57 58  2  0  0  0
 57132  1  0  0  0
 58133  1  0  0  0
 59 60  1  0  0  0
 59 61  1  0  0  0
 59 62  1  0  0  0
 60134  1  0  0  0
 60135  1  0  0  0
 60136  1  0  0  0
 61137  1  0  0  0
 61138  1  0  0  0
 61139  1  0  0  0
 62140  1  0  0  0
 62141  1  0  0  0
 62142  1  0  0  0
 63 65  1  0  0  0
 63143  1  0  0  0
 63144  1  0  0  0
 63145  1  0  0  0
 64146  1  0  0  0
 65147  1  0  0  0
 68 83  1  0  0  0
 71 73  2  0  0  0
 71 75  1  0  0  0
 71148  1  0  0  0
 72 74  1  0  0  0
 72 75  2  0  0  0
 72149  1  0  0  0
 73 76  1  0  0  0
 73150  1  0  0  0
 74 76  2  0  0  0
 74151  1  0  0  0
 75 82  1  0  0  0
 76 84  1  0  0  0
 77 79  2  0  0  0
 77 80  1  0  0  0
 77152  1  0  0  0
 78 80  2  0  0  0
 78 84  1  0  0  0
 78153  1  0  0  0
 79 81  1  0  0  0
 79 83  1  0  0  0
 80 88  1  0  0  0
 81 84  1  0  0  0
 81 86  2  0  0  0
 82 85  1  0  0  0
 82 87  2  0  0  0
 83154  1  0  0  0
 83155  1  0  0  0
 85156  1  0  0  0
 88157  1  0  0  0
M  ISO  4   1 100  68 101  83 101  85 100
M  END
> <chiral flag>
0

> <version>
0

> <s_m_source_file>
/data/baiqing/PycharmProjects/Reinvent-master-3.2/result/LINK_invent/BTK/process_docking_weight1_custom_product_contain_oxygen_bond_distance_aromatic_linkinvent_7_9_3/rearranged_h_0086.sdf

> <i_m_source_file_index>
46

> <r_mmod_Potential_Energy-OPLS-2005>
33.1555480957031

> <r_mmod_Stretch_Energy-OPLS-2005>
50.6604423522949

> <r_mmod_Bend_Energy-OPLS-2005>
109.38516998291

> <r_mmod_Torsional_Energy-OPLS-2005>
292.409637451172

> <r_mmod_Improper_Torsional_Energy-OPLS-2005>
6.78514385223389

> <r_mmod_Van_der_Waal_Energy-OPLS-2005>
180.748641967773

> <r_mmod_Electrostatic_Energy-OPLS-2005>
-386.418395996094

> <r_mmod_Solvation_Energy-OPLS-2005>
-252.600463867188

> <b_mmod_Minimization_Converged-OPLS-2005>
0

> <r_mmod_RMS_Derivative-OPLS-2005>
4.32283353805542

$$$$
46
                    3D
 Structure written by MMmdl.
153161  0  0  1  0            999 V2000
  -30.6887  -14.6772   20.4984 C   0  0  0  0  0  0
  -30.4097  -12.4204   19.4712 C   0  0  0  0  0  0
  -29.5005  -12.4999   18.2288 C   0  0  0  0  0  0
  -28.0255  -12.3395   18.6421 C   0  0  0  0  0  0
  -27.6378  -13.2377   19.8482 C   0  0  2  0  0  0
  -28.6825  -13.1751   20.9839 C   0  0  0  0  0  0
  -25.2483  -13.8213   20.5708 C   0  0  0  0  0  0
  -24.1792  -13.0452   20.9237 C   0  0  0  0  0  0
  -24.6381  -11.6928   20.8757 C   0  0  0  0  0  0
  -23.9053  -10.4302   21.0411 C   0  0  0  0  0  0
  -24.3608   -9.4218   21.9186 C   0  0  0  0  0  0
  -23.6297   -8.2245   22.0746 C   0  0  0  0  0  0
  -22.4283   -8.0275   21.3532 C   0  0  0  0  0  0
  -21.9911   -9.0246   20.4639 C   0  0  0  0  0  0
  -22.7225  -10.2135   20.3057 C   0  0  0  0  0  0
  -21.6858   -6.0732   22.5281 C   0  0  0  0  0  0
  -21.4012   -6.5638   23.8211 C   0  0  0  0  0  0
  -21.3661   -5.6791   24.9177 C   0  0  0  0  0  0
  -21.6047   -4.3054   24.7227 C   0  0  0  0  0  0
  -21.8822   -3.8141   23.4351 C   0  0  0  0  0  0
  -21.9191   -4.6958   22.3404 C   0  0  0  0  0  0
  -22.7813  -13.5231   21.1892 C   0  0  0  0  0  0
  -22.1668   -4.2144   21.0983 F   0  0  0  0  0  0
  -21.5629   -3.4537   25.7737 F   0  0  0  0  0  0
  -29.9851  -13.4998   20.3938 N   0  0  0  0  0  0
  -26.2911  -12.9435   20.3277 N   0  0  0  0  0  0
  -25.9312  -11.6569   20.5749 N   0  0  0  0  0  0
  -22.0452  -12.8212   22.0438 N   0  0  0  0  0  0
  -25.4146  -15.1936   20.4096 N   0  0  0  0  0  0
  -31.8802  -14.6659   20.1741 O   0  0  0  0  0  0
  -21.6647   -6.8875   21.4239 O   0  0  0  0  0  0
  -22.3507  -14.5540   20.6746 O   0  0  0  0  0  0
  -24.6287  -31.8590   23.2050 C   0  0  0  0  0  0
  -25.9124  -32.4776   23.8387 C   0  0  1  0  0  0
  -27.2028  -27.3010   20.1306 C   0  0  0  0  0  0
  -25.5937  -33.8580   24.2307 N   0  0  0  0  0  0
  -23.4234  -30.4870   21.5471 C   0  0  2  0  0  0
  -24.8687  -28.9477   20.1055 C   0  0  0  0  0  0
  -22.7501  -29.4628   22.4928 C   0  0  0  0  0  0
  -18.0293  -28.1372   22.8490 C   0  0  0  0  0  0
  -24.1491  -36.7286   23.2638 C   0  0  0  0  0  0
  -25.9675  -30.7872   21.3796 C   0  0  0  0  0  0
  -26.0397  -29.4153   20.7181 C   0  0  0  0  0  0
  -27.2151  -28.6030   20.7217 C   0  0  0  0  0  0
  -26.0253  -26.9100   19.4584 C   0  0  0  0  0  0
  -24.8654  -27.7034   19.4603 C   0  0  0  0  0  0
  -23.6385  -29.8300   20.1586 C   0  0  0  0  0  0
  -25.4115  -36.3085   24.0337 C   0  0  1  0  0  0
  -20.5901  -28.3683   23.1280 C   0  0  2  0  0  0
  -20.6773  -26.9399   22.5407 C   0  0  0  0  0  0
  -19.5744  -26.6369   21.5212 C   0  0  0  0  0  0
  -18.1931  -26.7920   22.1625 C   0  0  0  0  0  0
  -19.1549  -28.8849   23.2879 C   0  0  0  0  0  0
  -18.9463  -30.1451   23.8893 C   0  0  0  0  0  0
  -17.6461  -30.6572   24.0557 C   0  0  0  0  0  0
  -25.9053  -34.9451   23.5121 C   0  0  0  0  0  0
  -16.5351  -29.9074   23.6323 C   0  0  0  0  0  0
  -16.7281  -28.6488   23.0360 C   0  0  0  0  0  0
  -26.4507  -31.6584   25.0757 C   0  0  0  0  0  0
  -25.3751  -31.3706   26.1488 C   0  0  0  0  0  0
  -27.0333  -30.3000   24.6215 C   0  0  0  0  0  0
  -27.6085  -32.4315   25.7503 C   0  0  0  0  0  0
  -27.5587  -37.1800   24.8467 C   0  0  0  0  0  0
  -21.4213  -29.3035   22.3673 N   0  0  0  0  0  0
  -26.4289  -37.3788   23.9427 N   0  0  0  0  0  0
  -24.6921  -31.0615   22.1000 N   0  0  0  0  0  0
  -23.4215  -28.8150   23.2999 O   0  0  0  0  0  0
  -28.2522  -26.3711   20.2138 O   0  0  0  0  0  0
  -26.5611  -34.8910   22.4680 O   0  0  0  0  0  0
  -23.5443  -32.1380   23.7374 O   0  0  0  0  0  0
  -30.7028  -19.6858   20.9074 C   0  0  0  0  0  0
  -30.1600  -21.0019   20.8527 C   0  0  0  0  0  0
  -28.5252  -18.7192   20.6815 C   0  0  0  0  0  0
  -29.9186  -18.4927   20.8324 C   0  0  0  0  0  0
  -28.7709  -21.2320   20.7044 C   0  0  0  0  0  0
  -27.9630  -20.0492   20.6081 C   0  0  0  0  0  0
  -28.6774  -23.7269   20.5869 C   0  0  0  0  0  0
  -30.6209  -17.1051   20.9477 C   0  0  0  0  0  0
  -25.7912  -19.1679   20.0569 C   0  0  0  0  0  0
  -27.8569  -25.0641   20.8226 C   0  0  0  0  0  0
  -28.1452  -22.5385   20.7205 N   0  0  0  0  0  0
  -30.0222  -15.8736   20.7329 N   0  0  0  0  0  0
  -31.8177  -17.1696   21.2549 O   0  0  0  0  0  0
  -26.6081  -20.2633   20.4531 O   0  0  0  0  0  0
  -31.4569  -12.4988   19.1737 H   0  0  0  0  0  0
  -30.3138  -11.4469   19.9547 H   0  0  0  0  0  0
  -29.7746  -11.7263   17.5102 H   0  0  0  0  0  0
  -29.6441  -13.4563   17.7233 H   0  0  0  0  0  0
  -27.8735  -11.2918   18.9011 H   0  0  0  0  0  0
  -27.3693  -12.5415   17.7941 H   0  0  0  0  0  0
  -27.6321  -14.2609   19.4704 H   0  0  0  0  0  0
  -28.7053  -12.1825   21.4370 H   0  0  0  0  0  0
  -28.4275  -13.8711   21.7843 H   0  0  0  0  0  0
  -25.2758   -9.5709   22.4759 H   0  0  0  0  0  0
  -24.0016   -7.4643   22.7469 H   0  0  0  0  0  0
  -21.0838   -8.8748   19.8957 H   0  0  0  0  0  0
  -22.3666  -10.9664   19.6167 H   0  0  0  0  0  0
  -21.1997   -7.6145   23.9715 H   0  0  0  0  0  0
  -21.1488   -6.0520   25.9079 H   0  0  0  0  0  0
  -22.0596   -2.7604   23.2848 H   0  0  0  0  0  0
  -22.4053  -11.9861   22.4810 H   0  0  0  0  0  0
  -21.1066  -13.1236   22.2647 H   0  0  0  0  0  0
  -24.6323  -15.8325   20.4951 H   0  0  0  0  0  0
  -26.2373  -15.6205   20.0071 H   0  0  0  0  0  0
  -26.7206  -32.5441   23.1145 H   0  0  0  0  0  0
  -25.0137  -33.9738   25.0486 H   0  0  0  0  0  0
  -22.7173  -31.3075   21.4082 H   0  0  0  0  0  0
  -23.3762  -35.9610   23.3289 H   0  0  0  0  0  0
  -24.3590  -36.8904   22.2055 H   0  0  0  0  0  0
  -23.7221  -37.6480   23.6655 H   0  0  0  0  0  0
  -26.1038  -31.5535   20.6152 H   0  0  0  0  0  0
  -26.8464  -30.8315   22.0111 H   0  0  0  0  0  0
  -28.1100  -28.9488   21.2217 H   0  0  0  0  0  0
  -25.9829  -25.9588   18.9472 H   0  0  0  0  0  0
  -23.9744  -27.3486   18.9603 H   0  0  0  0  0  0
  -23.7606  -30.6117   19.4074 H   0  0  0  0  0  0
  -22.7570  -29.2644   19.8502 H   0  0  0  0  0  0
  -25.1291  -36.1945   25.0832 H   0  0  0  0  0  0
  -21.0005  -28.3241   24.1399 H   0  0  0  0  0  0
  -20.5663  -26.2292   23.3616 H   0  0  0  0  0  0
  -21.6646  -26.7417   22.1206 H   0  0  0  0  0  0
  -19.6893  -25.6283   21.1237 H   0  0  0  0  0  0
  -19.6668  -27.3191   20.6755 H   0  0  0  0  0  0
  -17.4207  -26.6692   21.4022 H   0  0  0  0  0  0
  -18.0304  -26.0053   22.9009 H   0  0  0  0  0  0
  -19.7935  -30.7270   24.2260 H   0  0  0  0  0  0
  -17.5009  -31.6254   24.5154 H   0  0  0  0  0  0
  -15.5347  -30.2969   23.7650 H   0  0  0  0  0  0
  -15.8683  -28.0797   22.7087 H   0  0  0  0  0  0
  -24.5971  -30.6991   25.7838 H   0  0  0  0  0  0
  -24.8878  -32.2849   26.4886 H   0  0  0  0  0  0
  -25.8096  -30.8931   27.0277 H   0  0  0  0  0  0
  -26.2897  -29.6762   24.1243 H   0  0  0  0  0  0
  -27.4017  -29.7256   25.4723 H   0  0  0  0  0  0
  -27.8782  -30.4270   23.9444 H   0  0  0  0  0  0
  -27.2725  -33.3634   26.2060 H   0  0  0  0  0  0
  -28.3892  -32.6834   25.0316 H   0  0  0  0  0  0
  -28.0754  -31.8441   26.5419 H   0  0  0  0  0  0
  -28.2598  -38.0107   24.7550 H   0  0  0  0  0  0
  -28.1082  -36.2640   24.6245 H   0  0  0  0  0  0
  -27.2309  -37.1403   25.8869 H   0  0  0  0  0  0
  -20.9388  -29.8768   21.6898 H   0  0  0  0  0  0
  -26.0160  -38.2856   24.1446 H   0  0  0  0  0  0
  -31.7744  -19.6086   21.0322 H   0  0  0  0  0  0
  -30.8377  -21.8379   20.9533 H   0  0  0  0  0  0
  -27.8887  -17.8492   20.6385 H   0  0  0  0  0  0
  -29.7342  -23.8750   20.3507 H   0  0  0  0  0  0
  -24.8092  -19.5373   19.7620 H   0  0  0  0  0  0
  -25.6468  -18.4631   20.8758 H   0  0  0  0  0  0
  -26.2087  -18.6420   19.1969 H   0  0  0  0  0  0
  -27.8523  -25.2348   21.8988 H   0  0  0  0  0  0
  -26.8221  -24.8129   20.5984 H   0  0  0  0  0  0
  -29.0179  -15.8514   20.7070 H   0  0  0  0  0  0
  1 25  1  0  0  0
  1 30  2  0  0  0
  1 82  1  0  0  0
  2  3  1  0  0  0
  2 25  1  0  0  0
  2 85  1  0  0  0
  2 86  1  0  0  0
  3  4  1  0  0  0
  3 87  1  0  0  0
  3 88  1  0  0  0
  4  5  1  0  0  0
  4 89  1  0  0  0
  4 90  1  0  0  0
  5  6  1  0  0  0
  5 26  1  0  0  0
  5 91  1  0  0  0
  6 25  1  0  0  0
  6 92  1  0  0  0
  6 93  1  0  0  0
  7  8  2  0  0  0
  7 26  1  0  0  0
  7 29  1  0  0  0
  8  9  1  0  0  0
  8 22  1  0  0  0
  9 10  1  0  0  0
  9 27  2  0  0  0
 10 11  2  0  0  0
 10 15  1  0  0  0
 11 12  1  0  0  0
 11 94  1  0  0  0
 12 13  2  0  0  0
 12 95  1  0  0  0
 13 14  1  0  0  0
 13 31  1  0  0  0
 14 15  2  0  0  0
 14 96  1  0  0  0
 15 97  1  0  0  0
 16 17  2  0  0  0
 16 21  1  0  0  0
 16 31  1  0  0  0
 17 18  1  0  0  0
 17 98  1  0  0  0
 18 19  2  0  0  0
 18 99  1  0  0  0
 19 20  1  0  0  0
 19 24  1  0  0  0
 20 21  2  0  0  0
 20100  1  0  0  0
 21 23  1  0  0  0
 22 28  1  0  0  0
 22 32  2  0  0  0
 26 27  1  0  0  0
 28101  1  0  0  0
 28102  1  0  0  0
 29103  1  0  0  0
 29104  1  0  0  0
 33 34  1  0  0  0
 33 66  1  0  0  0
 33 70  2  0  0  0
 34 36  1  0  0  0
 34 59  1  0  0  0
 34105  1  0  0  0
 35 44  2  0  0  0
 35 45  1  0  0  0
 35 68  1  0  0  0
 36 56  1  0  0  0
 36106  1  0  0  0
 37 39  1  0  0  0
 37 47  1  0  0  0
 37 66  1  0  0  0
 37107  1  0  0  0
 38 43  2  0  0  0
 38 46  1  0  0  0
 38 47  1  0  0  0
 39 64  1  0  0  0
 39 67  2  0  0  0
 40 52  1  0  0  0
 40 53  2  0  0  0
 40 58  1  0  0  0
 41108  1  0  0  0
 41109  1  0  0  0
 41110  1  0  0  0
 41 48  1  0  0  0
 42 43  1  0  0  0
 42 66  1  0  0  0
 42111  1  0  0  0
 42112  1  0  0  0
 43 44  1  0  0  0
 44113  1  0  0  0
 45 46  2  0  0  0
 45114  1  0  0  0
 46115  1  0  0  0
 47116  1  0  0  0
 47117  1  0  0  0
 48 56  1  0  0  0
 48 65  1  0  0  0
 48118  1  0  0  0
 49 50  1  0  0  0
 49 53  1  0  0  0
 49 64  1  0  0  0
 49119  1  0  0  0
 50 51  1  0  0  0
 50120  1  0  0  0
 50121  1  0  0  0
 51 52  1  0  0  0
 51122  1  0  0  0
 51123  1  0  0  0
 52124  1  0  0  0
 52125  1  0  0  0
 53 54  1  0  0  0
 54 55  2  0  0  0
 54126  1  0  0  0
 55 57  1  0  0  0
 55127  1  0  0  0
 56 69  2  0  0  0
 57 58  2  0  0  0
 57128  1  0  0  0
 58129  1  0  0  0
 59 60  1  0  0  0
 59 61  1  0  0  0
 59 62  1  0  0  0
 60130  1  0  0  0
 60131  1  0  0  0
 60132  1  0  0  0
 61133  1  0  0  0
 61134  1  0  0  0
 61135  1  0  0  0
 62136  1  0  0  0
 62137  1  0  0  0
 62138  1  0  0  0
 63 65  1  0  0  0
 63139  1  0  0  0
 63140  1  0  0  0
 63141  1  0  0  0
 64142  1  0  0  0
 65143  1  0  0  0
 68 80  1  0  0  0
 71 72  2  0  0  0
 71 74  1  0  0  0
 71144  1  0  0  0
 72 75  1  0  0  0
 72145  1  0  0  0
 73 74  2  0  0  0
 73 76  1  0  0  0
 73146  1  0  0  0
 74 78  1  0  0  0
 75 76  2  0  0  0
 75 81  1  0  0  0
 76 84  1  0  0  0
 77 80  1  0  0  0
 77 81  2  0  0  0
 77147  1  0  0  0
 78 82  1  0  0  0
 78 83  2  0  0  0
 79 84  1  0  0  0
 79148  1  0  0  0
 79149  1  0  0  0
 79150  1  0  0  0
 80151  1  0  0  0
 80152  1  0  0  0
 82153  1  0  0  0
M  ISO  4   1 100  68 101  80 101  82 100
M  END
> <chiral flag>
0

> <version>
0

> <s_m_source_file>
/data/baiqing/PycharmProjects/Reinvent-master-3.2/result/LINK_invent/BTK/process_docking_weight1_custom_product_contain_oxygen_bond_distance_aromatic_linkinvent_7_9_3/rearranged_h_0086.sdf

> <i_m_source_file_index>
47

> <r_mmod_Potential_Energy-OPLS-2005>
76.1015396118164

> <r_mmod_Stretch_Energy-OPLS-2005>
98.009033203125

> <r_mmod_Bend_Energy-OPLS-2005>
176.479736328125

> <r_mmod_Torsional_Energy-OPLS-2005>
239.899322509766

> <r_mmod_Improper_Torsional_Energy-OPLS-2005>
5.72702741622925

> <r_mmod_Van_der_Waal_Energy-OPLS-2005>
165.695114135742

> <r_mmod_Electrostatic_Energy-OPLS-2005>
-438.548370361328

> <r_mmod_Solvation_Energy-OPLS-2005>
-242.8564453125

> <b_mmod_Minimization_Converged-OPLS-2005>
0

> <r_mmod_RMS_Derivative-OPLS-2005>
1.91263401508331

$$$$
47
                    3D
 Structure written by MMmdl.
147156  0  0  1  0            999 V2000
  -30.5556  -14.7475   20.5356 C   0  0  0  0  0  0
  -30.4631  -12.4697   19.4583 C   0  0  0  0  0  0
  -29.5216  -12.5384   18.2321 C   0  0  0  0  0  0
  -28.0452  -12.3495   18.6416 C   0  0  0  0  0  0
  -27.6569  -13.2175   19.8671 C   0  0  2  0  0  0
  -28.7039  -13.0705   20.9917 C   0  0  0  0  0  0
  -25.2584  -13.8159   20.5690 C   0  0  0  0  0  0
  -24.1838  -13.0429   20.9172 C   0  0  0  0  0  0
  -24.6407  -11.6899   20.8724 C   0  0  0  0  0  0
  -23.9069  -10.4289   21.0397 C   0  0  0  0  0  0
  -24.3617   -9.4204   21.9176 C   0  0  0  0  0  0
  -23.6290   -8.2241   22.0751 C   0  0  0  0  0  0
  -22.4272   -8.0282   21.3542 C   0  0  0  0  0  0
  -21.9908   -9.0255   20.4643 C   0  0  0  0  0  0
  -22.7241  -10.2131   20.3048 C   0  0  0  0  0  0
  -21.6853   -6.0734   22.5278 C   0  0  0  0  0  0
  -21.4012   -6.5638   23.8211 C   0  0  0  0  0  0
  -21.3658   -5.6792   24.9174 C   0  0  0  0  0  0
  -21.6045   -4.3055   24.7226 C   0  0  0  0  0  0
  -21.8821   -3.8145   23.4347 C   0  0  0  0  0  0
  -21.9191   -4.6960   22.3402 C   0  0  0  0  0  0
  -22.7862  -13.5226   21.1847 C   0  0  0  0  0  0
  -22.1660   -4.2145   21.0980 F   0  0  0  0  0  0
  -21.5630   -3.4539   25.7740 F   0  0  0  0  0  0
  -30.0091  -13.4811   20.4385 N   0  0  0  0  0  0
  -26.3017  -12.9338   20.3335 N   0  0  0  0  0  0
  -25.9336  -11.6489   20.5741 N   0  0  0  0  0  0
  -22.0514  -12.8215   22.0410 N   0  0  0  0  0  0
  -25.4317  -15.1880   20.4132 N   0  0  0  0  0  0
  -31.6813  -14.9588   20.0799 O   0  0  0  0  0  0
  -21.6637   -6.8878   21.4240 O   0  0  0  0  0  0
  -22.3540  -14.5534   20.6705 O   0  0  0  0  0  0
  -24.6353  -31.8548   23.1993 C   0  0  0  0  0  0
  -25.9168  -32.4752   23.8339 C   0  0  1  0  0  0
  -27.2180  -27.2396   20.1169 C   0  0  0  0  0  0
  -25.5949  -33.8556   24.2255 N   0  0  0  0  0  0
  -23.4325  -30.4805   21.5449 C   0  0  2  0  0  0
  -24.8791  -28.9341   20.1106 C   0  0  0  0  0  0
  -22.7526  -29.4601   22.4907 C   0  0  0  0  0  0
  -18.0296  -28.1388   22.8482 C   0  0  0  0  0  0
  -24.1485  -36.7273   23.2639 C   0  0  0  0  0  0
  -25.9844  -30.7596   21.3859 C   0  0  0  0  0  0
  -26.0565  -29.3836   20.7218 C   0  0  0  0  0  0
  -27.2283  -28.5508   20.7150 C   0  0  0  0  0  0
  -26.0084  -26.8786   19.4701 C   0  0  0  0  0  0
  -24.8620  -27.6891   19.4748 C   0  0  0  0  0  0
  -23.6518  -29.8226   20.1598 C   0  0  0  0  0  0
  -25.4113  -36.3063   24.0322 C   0  0  1  0  0  0
  -20.5904  -28.3706   23.1256 C   0  0  2  0  0  0
  -20.6784  -26.9419   22.5404 C   0  0  0  0  0  0
  -19.5756  -26.6382   21.5215 C   0  0  0  0  0  0
  -18.1936  -26.7928   22.1627 C   0  0  0  0  0  0
  -19.1551  -28.8863   23.2861 C   0  0  0  0  0  0
  -18.9472  -30.1464   23.8881 C   0  0  0  0  0  0
  -17.6471  -30.6591   24.0561 C   0  0  0  0  0  0
  -25.9061  -34.9438   23.5089 C   0  0  0  0  0  0
  -16.5361  -29.9085   23.6337 C   0  0  0  0  0  0
  -16.7280  -28.6502   23.0358 C   0  0  0  0  0  0
  -26.4511  -31.6589   25.0744 C   0  0  0  0  0  0
  -25.3713  -31.3765   26.1452 C   0  0  0  0  0  0
  -27.0365  -30.2993   24.6270 C   0  0  0  0  0  0
  -27.6052  -32.4343   25.7520 C   0  0  0  0  0  0
  -27.5574  -37.1788   24.8463 C   0  0  0  0  0  0
  -21.4229  -29.3051   22.3648 N   0  0  0  0  0  0
  -26.4281  -37.3769   23.9413 N   0  0  0  0  0  0
  -24.7034  -31.0491   22.0989 N   0  0  0  0  0  0
  -23.4211  -28.8127   23.3006 O   0  0  0  0  0  0
  -28.2865  -26.2943   20.1787 O   0  0  0  0  0  0
  -26.5637  -34.8915   22.4660 O   0  0  0  0  0  0
  -23.5493  -32.1384   23.7266 O   0  0  0  0  0  0
  -30.1839  -23.2832   19.7493 C   0  0  0  0  0  0
  -30.5073  -21.9397   19.8877 C   0  0  0  0  0  0
  -28.3904  -22.2730   20.5714 C   0  0  0  0  0  0
  -28.8233  -23.5382   20.1507 C   0  0  0  0  0  0
  -28.2977  -19.4127   21.4836 C   0  0  0  0  0  0
  -29.3059  -19.8371   20.6941 C   0  0  0  0  0  0
  -29.5398  -17.0276   21.0039 C   0  0  0  0  0  0
  -27.9078  -24.8436   19.9724 C   0  0  0  0  0  0
  -29.6661  -15.7124   21.0985 N   0  0  0  0  0  0
  -29.3981  -21.2920   20.3949 N   0  0  0  0  0  0
  -28.1368  -17.6863   21.9095 S   0  0  0  0  0  0
  -30.4108  -18.4419   20.1582 S   0  0  0  0  0  0
  -31.4968  -12.6360   19.1502 H   0  0  0  0  0  0
  -30.4420  -11.4736   19.9036 H   0  0  0  0  0  0
  -29.8051  -11.7856   17.4960 H   0  0  0  0  0  0
  -29.6389  -13.5051   17.7403 H   0  0  0  0  0  0
  -27.8986  -11.2948   18.8778 H   0  0  0  0  0  0
  -27.3874  -12.5672   17.7998 H   0  0  0  0  0  0
  -27.6746  -14.2551   19.5328 H   0  0  0  0  0  0
  -28.7461  -12.0372   21.3397 H   0  0  0  0  0  0
  -28.4199  -13.6580   21.8661 H   0  0  0  0  0  0
  -25.2766   -9.5679   22.4744 H   0  0  0  0  0  0
  -24.0000   -7.4634   22.7471 H   0  0  0  0  0  0
  -21.0837   -8.8775   19.8952 H   0  0  0  0  0  0
  -22.3701  -10.9668   19.6153 H   0  0  0  0  0  0
  -21.2003   -7.6145   23.9712 H   0  0  0  0  0  0
  -21.1479   -6.0522   25.9076 H   0  0  0  0  0  0
  -22.0600   -2.7606   23.2849 H   0  0  0  0  0  0
  -22.4141  -11.9872   22.4781 H   0  0  0  0  0  0
  -21.1136  -13.1236   22.2638 H   0  0  0  0  0  0
  -24.6769  -15.8540   20.5362 H   0  0  0  0  0  0
  -26.3062  -15.6200   20.1425 H   0  0  0  0  0  0
  -26.7235  -32.5391   23.1080 H   0  0  0  0  0  0
  -25.0082  -33.9690   25.0388 H   0  0  0  0  0  0
  -22.7302  -31.3043   21.4011 H   0  0  0  0  0  0
  -23.3754  -35.9599   23.3296 H   0  0  0  0  0  0
  -24.3572  -36.8907   22.2054 H   0  0  0  0  0  0
  -23.7232  -37.6467   23.6671 H   0  0  0  0  0  0
  -26.1318  -31.5218   20.6191 H   0  0  0  0  0  0
  -26.8586  -30.8029   22.0238 H   0  0  0  0  0  0
  -28.1248  -28.8899   21.2150 H   0  0  0  0  0  0
  -25.8879  -25.9370   18.9596 H   0  0  0  0  0  0
  -23.9616  -27.3391   18.9882 H   0  0  0  0  0  0
  -23.7781  -30.6026   19.4080 H   0  0  0  0  0  0
  -22.7688  -29.2593   19.8521 H   0  0  0  0  0  0
  -25.1293  -36.1903   25.0813 H   0  0  0  0  0  0
  -20.9991  -28.3287   24.1379 H   0  0  0  0  0  0
  -20.5691  -26.2316   23.3614 H   0  0  0  0  0  0
  -21.6649  -26.7441   22.1195 H   0  0  0  0  0  0
  -19.6918  -25.6290   21.1252 H   0  0  0  0  0  0
  -19.6691  -27.3185   20.6740 H   0  0  0  0  0  0
  -17.4205  -26.6675   21.4030 H   0  0  0  0  0  0
  -18.0332  -26.0073   22.9025 H   0  0  0  0  0  0
  -19.7950  -30.7284   24.2239 H   0  0  0  0  0  0
  -17.5029  -31.6269   24.5166 H   0  0  0  0  0  0
  -15.5361  -30.2986   23.7673 H   0  0  0  0  0  0
  -15.8679  -28.0821   22.7082 H   0  0  0  0  0  0
  -24.5889  -30.7112   25.7782 H   0  0  0  0  0  0
  -24.8900  -32.2946   26.4832 H   0  0  0  0  0  0
  -25.8007  -30.8974   27.0259 H   0  0  0  0  0  0
  -26.2970  -29.6736   24.1256 H   0  0  0  0  0  0
  -27.3981  -29.7266   25.4820 H   0  0  0  0  0  0
  -27.8875  -30.4247   23.9574 H   0  0  0  0  0  0
  -27.2647  -33.3654   26.2064 H   0  0  0  0  0  0
  -28.3876  -32.6893   25.0359 H   0  0  0  0  0  0
  -28.0704  -31.8494   26.5466 H   0  0  0  0  0  0
  -28.2582  -38.0095   24.7525 H   0  0  0  0  0  0
  -28.1079  -36.2626   24.6268 H   0  0  0  0  0  0
  -27.2294  -37.1414   25.8867 H   0  0  0  0  0  0
  -20.9419  -29.8787   21.6862 H   0  0  0  0  0  0
  -26.0154  -38.2834   24.1441 H   0  0  0  0  0  0
  -30.8599  -24.0203   19.3371 H   0  0  0  0  0  0
  -31.4176  -21.3977   19.6645 H   0  0  0  0  0  0
  -27.4098  -21.9884   20.9274 H   0  0  0  0  0  0
  -27.5604  -20.0715   21.9135 H   0  0  0  0  0  0
  -27.0188  -24.6481   20.5744 H   0  0  0  0  0  0
  -27.6045  -24.7554   18.9294 H   0  0  0  0  0  0
  1 25  1  0  0  0
  1 30  2  0  0  0
  1 79  1  0  0  0
  2  3  1  0  0  0
  2 25  1  0  0  0
  2 83  1  0  0  0
  2 84  1  0  0  0
  3  4  1  0  0  0
  3 85  1  0  0  0
  3 86  1  0  0  0
  4  5  1  0  0  0
  4 87  1  0  0  0
  4 88  1  0  0  0
  5  6  1  0  0  0
  5 26  1  0  0  0
  5 89  1  0  0  0
  6 25  1  0  0  0
  6 90  1  0  0  0
  6 91  1  0  0  0
  7  8  2  0  0  0
  7 26  1  0  0  0
  7 29  1  0  0  0
  8  9  1  0  0  0
  8 22  1  0  0  0
  9 10  1  0  0  0
  9 27  2  0  0  0
 10 11  2  0  0  0
 10 15  1  0  0  0
 11 12  1  0  0  0
 11 92  1  0  0  0
 12 13  2  0  0  0
 12 93  1  0  0  0
 13 14  1  0  0  0
 13 31  1  0  0  0
 14 15  2  0  0  0
 14 94  1  0  0  0
 15 95  1  0  0  0
 16 17  2  0  0  0
 16 21  1  0  0  0
 16 31  1  0  0  0
 17 18  1  0  0  0
 17 96  1  0  0  0
 18 19  2  0  0  0
 18 97  1  0  0  0
 19 20  1  0  0  0
 19 24  1  0  0  0
 20 21  2  0  0  0
 20 98  1  0  0  0
 21 23  1  0  0  0
 22 28  1  0  0  0
 22 32  2  0  0  0
 26 27  1  0  0  0
 28 99  1  0  0  0
 28100  1  0  0  0
 29101  1  0  0  0
 29102  1  0  0  0
 33 34  1  0  0  0
 33 66  1  0  0  0
 33 70  2  0  0  0
 34 36  1  0  0  0
 34 59  1  0  0  0
 34103  1  0  0  0
 35 44  2  0  0  0
 35 45  1  0  0  0
 35 68  1  0  0  0
 36 56  1  0  0  0
 36104  1  0  0  0
 37 39  1  0  0  0
 37 47  1  0  0  0
 37 66  1  0  0  0
 37105  1  0  0  0
 38 43  2  0  0  0
 38 46  1  0  0  0
 38 47  1  0  0  0
 39 64  1  0  0  0
 39 67  2  0  0  0
 40 52  1  0  0  0
 40 53  2  0  0  0
 40 58  1  0  0  0
 41106  1  0  0  0
 41107  1  0  0  0
 41108  1  0  0  0
 41 48  1  0  0  0
 42 43  1  0  0  0
 42 66  1  0  0  0
 42109  1  0  0  0
 42110  1  0  0  0
 43 44  1  0  0  0
 44111  1  0  0  0
 45 46  2  0  0  0
 45112  1  0  0  0
 46113  1  0  0  0
 47114  1  0  0  0
 47115  1  0  0  0
 48 56  1  0  0  0
 48 65  1  0  0  0
 48116  1  0  0  0
 49 50  1  0  0  0
 49 53  1  0  0  0
 49 64  1  0  0  0
 49117  1  0  0  0
 50 51  1  0  0  0
 50118  1  0  0  0
 50119  1  0  0  0
 51 52  1  0  0  0
 51120  1  0  0  0
 51121  1  0  0  0
 52122  1  0  0  0
 52123  1  0  0  0
 53 54  1  0  0  0
 54 55  2  0  0  0
 54124  1  0  0  0
 55 57  1  0  0  0
 55125  1  0  0  0
 56 69  2  0  0  0
 57 58  2  0  0  0
 57126  1  0  0  0
 58127  1  0  0  0
 59 60  1  0  0  0
 59 61  1  0  0  0
 59 62  1  0  0  0
 60128  1  0  0  0
 60129  1  0  0  0
 60130  1  0  0  0
 61131  1  0  0  0
 61132  1  0  0  0
 61133  1  0  0  0
 62134  1  0  0  0
 62135  1  0  0  0
 62136  1  0  0  0
 63 65  1  0  0  0
 63137  1  0  0  0
 63138  1  0  0  0
 63139  1  0  0  0
 64140  1  0  0  0
 65141  1  0  0  0
 68 78  1  0  0  0
 71 72  2  0  0  0
 71 74  1  0  0  0
 71142  1  0  0  0
 72 80  1  0  0  0
 72143  1  0  0  0
 73 74  2  0  0  0
 73 80  1  0  0  0
 73144  1  0  0  0
 74 78  1  0  0  0
 75 76  2  0  0  0
 75 81  1  0  0  0
 75145  1  0  0  0
 76 80  1  0  0  0
 76 82  1  0  0  0
 77 79  2  0  0  0
 77 81  1  0  0  0
 77 82  1  0  0  0
 78146  1  0  0  0
 78147  1  0  0  0
M  ISO  4   1 100  68 101  78 101  79 100
M  END
> <chiral flag>
0

> <version>
0

> <s_m_source_file>
/data/baiqing/PycharmProjects/Reinvent-master-3.2/result/LINK_invent/BTK/process_docking_weight1_custom_product_contain_oxygen_bond_distance_aromatic_linkinvent_7_9_3/rearranged_h_0086.sdf

> <i_m_source_file_index>
48

> <r_mmod_Potential_Energy-OPLS-2005>
290.432983398438

> <r_mmod_Stretch_Energy-OPLS-2005>
125.235939025879

> <r_mmod_Bend_Energy-OPLS-2005>
289.854888916016

> <r_mmod_Torsional_Energy-OPLS-2005>
170.082977294922

> <r_mmod_Improper_Torsional_Energy-OPLS-2005>
3.77571034431458

> <r_mmod_Van_der_Waal_Energy-OPLS-2005>
125.52433013916

> <r_mmod_Electrostatic_Energy-OPLS-2005>
-328.464324951172

> <r_mmod_Solvation_Energy-OPLS-2005>
-190.293045043945

> <b_mmod_Minimization_Converged-OPLS-2005>
0

> <r_mmod_RMS_Derivative-OPLS-2005>
0.563786745071411

$$$$
48
                    3D
 Structure written by MMmdl.
153162  0  0  1  0            999 V2000
  -30.6216  -14.6422   20.4972 C   0  0  0  0  0  0
  -30.4441  -12.3939   19.4470 C   0  0  0  0  0  0
  -29.5089  -12.5070   18.2219 C   0  0  0  0  0  0
  -28.0324  -12.3435   18.6359 C   0  0  0  0  0  0
  -27.6560  -13.2142   19.8635 C   0  0  2  0  0  0
  -28.7032  -13.0642   20.9911 C   0  0  0  0  0  0
  -25.2582  -13.8166   20.5695 C   0  0  0  0  0  0
  -24.1838  -13.0441   20.9198 C   0  0  0  0  0  0
  -24.6401  -11.6909   20.8736 C   0  0  0  0  0  0
  -23.9065  -10.4296   21.0405 C   0  0  0  0  0  0
  -24.3616   -9.4209   21.9181 C   0  0  0  0  0  0
  -23.6289   -8.2244   22.0753 C   0  0  0  0  0  0
  -22.4267   -8.0285   21.3550 C   0  0  0  0  0  0
  -21.9907   -9.0261   20.4653 C   0  0  0  0  0  0
  -22.7238  -10.2138   20.3058 C   0  0  0  0  0  0
  -21.6854   -6.0734   22.5278 C   0  0  0  0  0  0
  -21.4015   -6.5636   23.8211 C   0  0  0  0  0  0
  -21.3660   -5.6790   24.9173 C   0  0  0  0  0  0
  -21.6044   -4.3052   24.7225 C   0  0  0  0  0  0
  -21.8819   -3.8146   23.4344 C   0  0  0  0  0  0
  -21.9194   -4.6963   22.3401 C   0  0  0  0  0  0
  -22.7857  -13.5240   21.1847 C   0  0  0  0  0  0
  -22.1663   -4.2150   21.0979 F   0  0  0  0  0  0
  -21.5627   -3.4538   25.7736 F   0  0  0  0  0  0
  -30.0200  -13.4111   20.4290 N   0  0  0  0  0  0
  -26.3007  -12.9342   20.3322 N   0  0  0  0  0  0
  -25.9327  -11.6501   20.5748 N   0  0  0  0  0  0
  -22.0493  -12.8245   22.0405 N   0  0  0  0  0  0
  -25.4299  -15.1889   20.4107 N   0  0  0  0  0  0
  -31.7808  -14.8136   20.1084 O   0  0  0  0  0  0
  -21.6637   -6.8880   21.4241 O   0  0  0  0  0  0
  -22.3555  -14.5543   20.6685 O   0  0  0  0  0  0
  -24.6290  -31.8614   23.2044 C   0  0  0  0  0  0
  -25.9132  -32.4789   23.8372 C   0  0  1  0  0  0
  -27.2149  -27.3054   20.1025 C   0  0  0  0  0  0
  -25.5938  -33.8588   24.2290 N   0  0  0  0  0  0
  -23.4228  -30.4897   21.5491 C   0  0  2  0  0  0
  -24.8662  -28.9536   20.1108 C   0  0  0  0  0  0
  -22.7496  -29.4637   22.4932 C   0  0  0  0  0  0
  -18.0297  -28.1388   22.8494 C   0  0  0  0  0  0
  -24.1488  -36.7294   23.2629 C   0  0  0  0  0  0
  -25.9693  -30.7873   21.3801 C   0  0  0  0  0  0
  -26.0407  -29.4163   20.7170 C   0  0  0  0  0  0
  -27.2191  -28.6048   20.7051 C   0  0  0  0  0  0
  -26.0092  -26.9130   19.4666 C   0  0  0  0  0  0
  -24.8533  -27.7068   19.4783 C   0  0  0  0  0  0
  -23.6373  -29.8357   20.1620 C   0  0  0  0  0  0
  -25.4105  -36.3086   24.0331 C   0  0  1  0  0  0
  -20.5900  -28.3695   23.1282 C   0  0  2  0  0  0
  -20.6783  -26.9416   22.5410 C   0  0  0  0  0  0
  -19.5749  -26.6389   21.5220 C   0  0  0  0  0  0
  -18.1934  -26.7934   22.1636 C   0  0  0  0  0  0
  -19.1549  -28.8861   23.2886 C   0  0  0  0  0  0
  -18.9465  -30.1461   23.8901 C   0  0  0  0  0  0
  -17.6461  -30.6588   24.0568 C   0  0  0  0  0  0
  -25.9052  -34.9457   23.5106 C   0  0  0  0  0  0
  -16.5354  -29.9084   23.6331 C   0  0  0  0  0  0
  -16.7284  -28.6504   23.0353 C   0  0  0  0  0  0
  -26.4496  -31.6595   25.0746 C   0  0  0  0  0  0
  -25.3715  -31.3744   26.1464 C   0  0  0  0  0  0
  -27.0331  -30.3013   24.6207 C   0  0  0  0  0  0
  -27.6061  -32.4321   25.7515 C   0  0  0  0  0  0
  -27.5594  -37.1778   24.8446 C   0  0  0  0  0  0
  -21.4207  -29.3053   22.3679 N   0  0  0  0  0  0
  -26.4274  -37.3793   23.9437 N   0  0  0  0  0  0
  -24.6930  -31.0620   22.1007 N   0  0  0  0  0  0
  -23.4221  -28.8156   23.2997 O   0  0  0  0  0  0
  -28.3079  -26.4107   20.1536 O   0  0  0  0  0  0
  -26.5625  -34.8925   22.4675 O   0  0  0  0  0  0
  -23.5448  -32.1420   23.7355 O   0  0  0  0  0  0
  -28.5834  -19.2800   20.8810 C   0  0  0  0  0  0
  -30.8854  -19.3379   20.2120 C   0  0  0  0  0  0
  -28.6616  -17.8624   20.9958 C   0  0  0  0  0  0
  -30.9617  -17.9106   20.3123 C   0  0  0  0  0  0
  -29.6928  -20.0758   20.4843 C   0  0  0  0  0  0
  -29.8437  -17.1294   20.7131 C   0  0  0  0  0  0
  -30.2905  -23.8004   20.3377 C   0  0  0  0  0  0
  -28.9656  -23.7965   20.1961 C   0  0  0  0  0  0
  -28.5452  -22.3770   20.2228 C   0  0  0  0  0  0
  -30.8414  -22.3939   20.4577 C   0  0  0  0  0  0
  -27.9681  -24.9770   19.9365 C   0  0  0  0  0  0
  -29.6369  -21.5534   20.3933 N   0  0  0  0  0  0
  -29.8000  -15.6730   20.8691 N   0  0  0  0  0  0
  -27.3823  -21.9837   20.0893 O   0  0  0  0  0  0
  -31.4836  -12.5240   19.1403 H   0  0  0  0  0  0
  -30.3852  -11.3971   19.8865 H   0  0  0  0  0  0
  -29.7719  -11.7559   17.4761 H   0  0  0  0  0  0
  -29.6499  -13.4765   17.7408 H   0  0  0  0  0  0
  -27.8696  -11.2900   18.8680 H   0  0  0  0  0  0
  -27.3777  -12.5726   17.7944 H   0  0  0  0  0  0
  -27.6756  -14.2493   19.5222 H   0  0  0  0  0  0
  -28.7157  -12.0401   21.3675 H   0  0  0  0  0  0
  -28.4481  -13.6897   21.8477 H   0  0  0  0  0  0
  -25.2759   -9.5684   22.4756 H   0  0  0  0  0  0
  -24.0002   -7.4635   22.7467 H   0  0  0  0  0  0
  -21.0838   -8.8781   19.8959 H   0  0  0  0  0  0
  -22.3695  -10.9678   19.6169 H   0  0  0  0  0  0
  -21.2007   -7.6144   23.9716 H   0  0  0  0  0  0
  -21.1480   -6.0517   25.9077 H   0  0  0  0  0  0
  -22.0597   -2.7609   23.2842 H   0  0  0  0  0  0
  -22.4094  -11.9915   22.4816 H   0  0  0  0  0  0
  -21.1110  -13.1285   22.2598 H   0  0  0  0  0  0
  -24.6606  -15.8411   20.5164 H   0  0  0  0  0  0
  -26.2684  -15.6239   20.0485 H   0  0  0  0  0  0
  -26.7205  -32.5450   23.1125 H   0  0  0  0  0  0
  -25.0064  -33.9735   25.0421 H   0  0  0  0  0  0
  -22.7170  -31.3114   21.4105 H   0  0  0  0  0  0
  -23.3768  -35.9606   23.3242 H   0  0  0  0  0  0
  -24.3600  -36.8963   22.2055 H   0  0  0  0  0  0
  -23.7215  -37.6469   23.6682 H   0  0  0  0  0  0
  -26.1051  -31.5517   20.6136 H   0  0  0  0  0  0
  -26.8482  -30.8335   22.0113 H   0  0  0  0  0  0
  -28.1175  -28.9535   21.1945 H   0  0  0  0  0  0
  -25.9035  -25.9695   18.9555 H   0  0  0  0  0  0
  -23.9534  -27.3481   18.9980 H   0  0  0  0  0  0
  -23.7611  -30.6174   19.4114 H   0  0  0  0  0  0
  -22.7555  -29.2711   19.8544 H   0  0  0  0  0  0
  -25.1269  -36.1926   25.0821 H   0  0  0  0  0  0
  -20.9999  -28.3264   24.1401 H   0  0  0  0  0  0
  -20.5695  -26.2298   23.3608 H   0  0  0  0  0  0
  -21.6648  -26.7449   22.1193 H   0  0  0  0  0  0
  -19.6903  -25.6301   21.1248 H   0  0  0  0  0  0
  -19.6676  -27.3202   20.6751 H   0  0  0  0  0  0
  -17.4201  -26.6692   21.4041 H   0  0  0  0  0  0
  -18.0324  -26.0074   22.9030 H   0  0  0  0  0  0
  -19.7936  -30.7287   24.2265 H   0  0  0  0  0  0
  -17.5011  -31.6267   24.5169 H   0  0  0  0  0  0
  -15.5353  -30.2982   23.7648 H   0  0  0  0  0  0
  -15.8690  -28.0822   22.7059 H   0  0  0  0  0  0
  -24.5894  -30.7087   25.7794 H   0  0  0  0  0  0
  -24.8893  -32.2913   26.4867 H   0  0  0  0  0  0
  -25.8021  -30.8941   27.0258 H   0  0  0  0  0  0
  -26.2911  -29.6780   24.1201 H   0  0  0  0  0  0
  -27.3989  -29.7254   25.4718 H   0  0  0  0  0  0
  -27.8802  -30.4292   23.9463 H   0  0  0  0  0  0
  -27.2679  -33.3616   26.2108 H   0  0  0  0  0  0
  -28.3862  -32.6889   25.0337 H   0  0  0  0  0  0
  -28.0743  -31.8436   26.5415 H   0  0  0  0  0  0
  -28.2534  -38.0152   24.7616 H   0  0  0  0  0  0
  -28.1165  -36.2695   24.6101 H   0  0  0  0  0  0
  -27.2343  -37.1230   25.8850 H   0  0  0  0  0  0
  -20.9376  -29.8794   21.6911 H   0  0  0  0  0  0
  -26.0145  -38.2848   24.1510 H   0  0  0  0  0  0
  -27.6419  -19.7471   21.1304 H   0  0  0  0  0  0
  -31.7774  -19.8654   19.9061 H   0  0  0  0  0  0
  -27.7744  -17.3333   21.3152 H   0  0  0  0  0  0
  -31.9003  -17.4262   20.0824 H   0  0  0  0  0  0
  -30.9218  -24.6772   20.3259 H   0  0  0  0  0  0
  -31.3675  -22.2602   21.4035 H   0  0  0  0  0  0
  -31.5213  -22.1816   19.6321 H   0  0  0  0  0  0
  -27.0898  -24.7433   20.5416 H   0  0  0  0  0  0
  -27.6837  -24.8494   18.8915 H   0  0  0  0  0  0
  -28.9111  -15.3275   21.1965 H   0  0  0  0  0  0
  1 25  1  0  0  0
  1 30  2  0  0  0
  1 83  1  0  0  0
  2  3  1  0  0  0
  2 25  1  0  0  0
  2 85  1  0  0  0
  2 86  1  0  0  0
  3  4  1  0  0  0
  3 87  1  0  0  0
  3 88  1  0  0  0
  4  5  1  0  0  0
  4 89  1  0  0  0
  4 90  1  0  0  0
  5  6  1  0  0  0
  5 26  1  0  0  0
  5 91  1  0  0  0
  6 25  1  0  0  0
  6 92  1  0  0  0
  6 93  1  0  0  0
  7  8  2  0  0  0
  7 26  1  0  0  0
  7 29  1  0  0  0
  8  9  1  0  0  0
  8 22  1  0  0  0
  9 10  1  0  0  0
  9 27  2  0  0  0
 10 11  2  0  0  0
 10 15  1  0  0  0
 11 12  1  0  0  0
 11 94  1  0  0  0
 12 13  2  0  0  0
 12 95  1  0  0  0
 13 14  1  0  0  0
 13 31  1  0  0  0
 14 15  2  0  0  0
 14 96  1  0  0  0
 15 97  1  0  0  0
 16 17  2  0  0  0
 16 21  1  0  0  0
 16 31  1  0  0  0
 17 18  1  0  0  0
 17 98  1  0  0  0
 18 19  2  0  0  0
 18 99  1  0  0  0
 19 20  1  0  0  0
 19 24  1  0  0  0
 20 21  2  0  0  0
 20100  1  0  0  0
 21 23  1  0  0  0
 22 28  1  0  0  0
 22 32  2  0  0  0
 26 27  1  0  0  0
 28101  1  0  0  0
 28102  1  0  0  0
 29103  1  0  0  0
 29104  1  0  0  0
 33 34  1  0  0  0
 33 66  1  0  0  0
 33 70  2  0  0  0
 34 36  1  0  0  0
 34 59  1  0  0  0
 34105  1  0  0  0
 35 44  2  0  0  0
 35 45  1  0  0  0
 35 68  1  0  0  0
 36 56  1  0  0  0
 36106  1  0  0  0
 37 39  1  0  0  0
 37 47  1  0  0  0
 37 66  1  0  0  0
 37107  1  0  0  0
 38 43  2  0  0  0
 38 46  1  0  0  0
 38 47  1  0  0  0
 39 64  1  0  0  0
 39 67  2  0  0  0
 40 52  1  0  0  0
 40 53  2  0  0  0
 40 58  1  0  0  0
 41108  1  0  0  0
 41109  1  0  0  0
 41110  1  0  0  0
 41 48  1  0  0  0
 42 43  1  0  0  0
 42 66  1  0  0  0
 42111  1  0  0  0
 42112  1  0  0  0
 43 44  1  0  0  0
 44113  1  0  0  0
 45 46  2  0  0  0
 45114  1  0  0  0
 46115  1  0  0  0
 47116  1  0  0  0
 47117  1  0  0  0
 48 56  1  0  0  0
 48 65  1  0  0  0
 48118  1  0  0  0
 49 50  1  0  0  0
 49 53  1  0  0  0
 49 64  1  0  0  0
 49119  1  0  0  0
 50 51  1  0  0  0
 50120  1  0  0  0
 50121  1  0  0  0
 51 52  1  0  0  0
 51122  1  0  0  0
 51123  1  0  0  0
 52124  1  0  0  0
 52125  1  0  0  0
 53 54  1  0  0  0
 54 55  2  0  0  0
 54126  1  0  0  0
 55 57  1  0  0  0
 55127  1  0  0  0
 56 69  2  0  0  0
 57 58  2  0  0  0
 57128  1  0  0  0
 58129  1  0  0  0
 59 60  1  0  0  0
 59 61  1  0  0  0
 59 62  1  0  0  0
 60130  1  0  0  0
 60131  1  0  0  0
 60132  1  0  0  0
 61133  1  0  0  0
 61134  1  0  0  0
 61135  1  0  0  0
 62136  1  0  0  0
 62137  1  0  0  0
 62138  1  0  0  0
 63 65  1  0  0  0
 63139  1  0  0  0
 63140  1  0  0  0
 63141  1  0  0  0
 64142  1  0  0  0
 65143  1  0  0  0
 68 81  1  0  0  0
 71 73  2  0  0  0
 71 75  1  0  0  0
 71144  1  0  0  0
 72 74  1  0  0  0
 72 75  2  0  0  0
 72145  1  0  0  0
 73 76  1  0  0  0
 73146  1  0  0  0
 74 76  2  0  0  0
 74147  1  0  0  0
 75 82  1  0  0  0
 76 83  1  0  0  0
 77 78  2  0  0  0
 77 80  1  0  0  0
 77148  1  0  0  0
 78 79  1  0  0  0
 78 81  1  0  0  0
 79 82  1  0  0  0
 79 84  2  0  0  0
 80 82  1  0  0  0
 80149  1  0  0  0
 80150  1  0  0  0
 81151  1  0  0  0
 81152  1  0  0  0
 83153  1  0  0  0
M  ISO  4   1 100  68 101  81 101  83 100
M  END
> <chiral flag>
0

> <version>
0

> <s_m_source_file>
/data/baiqing/PycharmProjects/Reinvent-master-3.2/result/LINK_invent/BTK/process_docking_weight1_custom_product_contain_oxygen_bond_distance_aromatic_linkinvent_7_9_3/rearranged_h_0086.sdf

> <i_m_source_file_index>
49

> <r_mmod_Potential_Energy-OPLS-2005>
162.809936523438

> <r_mmod_Stretch_Energy-OPLS-2005>
84.6652450561523

> <r_mmod_Bend_Energy-OPLS-2005>
193.848159790039

> <r_mmod_Torsional_Energy-OPLS-2005>
236.465881347656

> <r_mmod_Improper_Torsional_Energy-OPLS-2005>
4.24773979187012

> <r_mmod_Van_der_Waal_Energy-OPLS-2005>
150.174057006836

> <r_mmod_Electrostatic_Energy-OPLS-2005>
-346.300903320312

> <r_mmod_Solvation_Energy-OPLS-2005>
-214.79411315918

> <b_mmod_Minimization_Converged-OPLS-2005>
0

> <r_mmod_RMS_Derivative-OPLS-2005>
0.884415090084076

$$$$
49
                    3D
 Structure written by MMmdl.
159168  0  0  1  0            999 V2000
  -30.6381  -14.6421   20.5727 C   0  0  0  0  0  0
  -30.4419  -12.4162   19.4574 C   0  0  0  0  0  0
  -29.5117  -12.5385   18.2274 C   0  0  0  0  0  0
  -28.0312  -12.3670   18.6253 C   0  0  0  0  0  0
  -27.6563  -13.2128   19.8696 C   0  0  2  0  0  0
  -28.6937  -13.0083   20.9907 C   0  0  0  0  0  0
  -25.2565  -13.8159   20.5669 C   0  0  0  0  0  0
  -24.1825  -13.0427   20.9164 C   0  0  0  0  0  0
  -24.6390  -11.6898   20.8713 C   0  0  0  0  0  0
  -23.9060  -10.4286   21.0393 C   0  0  0  0  0  0
  -24.3613   -9.4208   21.9177 C   0  0  0  0  0  0
  -23.6289   -8.2244   22.0754 C   0  0  0  0  0  0
  -22.4271   -8.0278   21.3544 C   0  0  0  0  0  0
  -21.9905   -9.0247   20.4643 C   0  0  0  0  0  0
  -22.7230  -10.2128   20.3047 C   0  0  0  0  0  0
  -21.6851   -6.0735   22.5280 C   0  0  0  0  0  0
  -21.4012   -6.5638   23.8213 C   0  0  0  0  0  0
  -21.3657   -5.6791   24.9175 C   0  0  0  0  0  0
  -21.6045   -4.3055   24.7226 C   0  0  0  0  0  0
  -21.8820   -3.8147   23.4347 C   0  0  0  0  0  0
  -21.9192   -4.6963   22.3403 C   0  0  0  0  0  0
  -22.7850  -13.5226   21.1843 C   0  0  0  0  0  0
  -22.1660   -4.2149   21.0981 F   0  0  0  0  0  0
  -21.5630   -3.4539   25.7740 F   0  0  0  0  0  0
  -30.0126  -13.4134   20.4668 N   0  0  0  0  0  0
  -26.2993  -12.9332   20.3311 N   0  0  0  0  0  0
  -25.9313  -11.6486   20.5712 N   0  0  0  0  0  0
  -22.0496  -12.8217   22.0404 N   0  0  0  0  0  0
  -25.4283  -15.1881   20.4112 N   0  0  0  0  0  0
  -31.7331  -14.8374   20.0316 O   0  0  0  0  0  0
  -21.6636   -6.8876   21.4242 O   0  0  0  0  0  0
  -22.3533  -14.5534   20.6700 O   0  0  0  0  0  0
  -24.6259  -31.8590   23.2013 C   0  0  0  0  0  0
  -25.9104  -32.4774   23.8351 C   0  0  1  0  0  0
  -27.2294  -27.3248   20.1231 C   0  0  0  0  0  0
  -25.5920  -33.8576   24.2276 N   0  0  0  0  0  0
  -23.4206  -30.4802   21.5440 C   0  0  2  0  0  0
  -24.8695  -28.9310   20.1138 C   0  0  0  0  0  0
  -22.7473  -29.4619   22.4945 C   0  0  0  0  0  0
  -18.0282  -28.1384   22.8485 C   0  0  0  0  0  0
  -24.1483  -36.7283   23.2642 C   0  0  0  0  0  0
  -25.9601  -30.7920   21.3704 C   0  0  0  0  0  0
  -26.0376  -29.4181   20.7155 C   0  0  0  0  0  0
  -27.2243  -28.6275   20.7074 C   0  0  0  0  0  0
  -26.0432  -26.8832   19.5017 C   0  0  0  0  0  0
  -24.8734  -27.6682   19.4978 C   0  0  0  0  0  0
  -23.6363  -29.8105   20.1609 C   0  0  0  0  0  0
  -25.4111  -36.3079   24.0330 C   0  0  1  0  0  0
  -20.5883  -28.3686   23.1283 C   0  0  2  0  0  0
  -20.6772  -26.9411   22.5412 C   0  0  0  0  0  0
  -19.5752  -26.6385   21.5209 C   0  0  0  0  0  0
  -18.1929  -26.7929   22.1617 C   0  0  0  0  0  0
  -19.1535  -28.8851   23.2880 C   0  0  0  0  0  0
  -18.9460  -30.1453   23.8900 C   0  0  0  0  0  0
  -17.6461  -30.6586   24.0565 C   0  0  0  0  0  0
  -25.9049  -34.9449   23.5103 C   0  0  0  0  0  0
  -16.5352  -29.9088   23.6332 C   0  0  0  0  0  0
  -16.7269  -28.6505   23.0352 C   0  0  0  0  0  0
  -26.4492  -31.6584   25.0721 C   0  0  0  0  0  0
  -25.3727  -31.3704   26.1447 C   0  0  0  0  0  0
  -27.0348  -30.3018   24.6164 C   0  0  0  0  0  0
  -27.6051  -32.4321   25.7493 C   0  0  0  0  0  0
  -27.5572  -37.1799   24.8468 C   0  0  0  0  0  0
  -21.4187  -29.3040   22.3682 N   0  0  0  0  0  0
  -26.4286  -37.3776   23.9412 N   0  0  0  0  0  0
  -24.6877  -31.0600   22.0961 N   0  0  0  0  0  0
  -23.4191  -28.8166   23.3033 O   0  0  0  0  0  0
  -28.3378  -26.4706   20.1307 O   0  0  0  0  0  0
  -26.5623  -34.8916   22.4673 O   0  0  0  0  0  0
  -23.5421  -32.1392   23.7339 O   0  0  0  0  0  0
  -29.1385  -17.7058   19.8276 C   0  0  0  0  0  0
  -28.9055  -19.0842   19.5299 C   0  0  0  0  0  0
  -30.3116  -19.7237   21.3600 C   0  0  0  0  0  0
  -29.9488  -17.2791   20.9149 C   0  0  0  0  0  0
  -30.5573  -18.3449   21.6587 C   0  0  0  0  0  0
  -29.4630  -20.1459   20.3015 C   0  0  0  0  0  0
  -28.9089  -23.5264   18.8721 C   0  0  0  0  0  0
  -28.6569  -23.8244   20.1536 C   0  0  0  0  0  0
  -29.2629  -22.1161   18.7667 C   0  0  0  0  0  0
  -28.8554  -22.5613   20.8935 C   0  0  0  0  0  0
  -29.9575  -15.8085   21.3968 C   0  0  0  0  0  0
  -31.4772  -18.0422   22.8338 C   0  0  0  0  0  0
  -28.8142  -24.4266   17.6511 C   0  0  0  0  0  0
  -28.1618  -25.1665   20.8120 C   0  0  0  0  0  0
  -29.4429  -15.5946   22.5358 N   0  0  0  0  0  0
  -29.1994  -21.5763   20.0060 N   0  0  0  0  0  0
  -29.5749  -21.5136   17.7320 O   0  0  0  0  0  0
  -28.7237  -22.3973   22.1121 O   0  0  0  0  0  0
  -31.4818  -12.5504   19.1556 H   0  0  0  0  0  0
  -30.3923  -11.4090   19.8742 H   0  0  0  0  0  0
  -29.7842  -11.7990   17.4732 H   0  0  0  0  0  0
  -29.6517  -13.5154   17.7620 H   0  0  0  0  0  0
  -27.8621  -11.3097   18.8334 H   0  0  0  0  0  0
  -27.3812  -12.6189   17.7865 H   0  0  0  0  0  0
  -27.6918  -14.2594   19.5671 H   0  0  0  0  0  0
  -28.7198  -11.9577   21.2837 H   0  0  0  0  0  0
  -28.3828  -13.5224   21.8938 H   0  0  0  0  0  0
  -25.2758   -9.5687   22.4749 H   0  0  0  0  0  0
  -23.9996   -7.4638   22.7479 H   0  0  0  0  0  0
  -21.0836   -8.8760   19.8947 H   0  0  0  0  0  0
  -22.3686  -10.9663   19.6153 H   0  0  0  0  0  0
  -21.2003   -7.6145   23.9716 H   0  0  0  0  0  0
  -21.1478   -6.0521   25.9077 H   0  0  0  0  0  0
  -22.0601   -2.7610   23.2848 H   0  0  0  0  0  0
  -22.4105  -11.9870   22.4780 H   0  0  0  0  0  0
  -21.1118  -13.1245   22.2619 H   0  0  0  0  0  0
  -24.6676  -15.8470   20.5351 H   0  0  0  0  0  0
  -26.2957  -15.6319   20.1380 H   0  0  0  0  0  0
  -26.7172  -32.5447   23.1100 H   0  0  0  0  0  0
  -25.0076  -33.9727   25.0426 H   0  0  0  0  0  0
  -22.7147  -31.3003   21.3979 H   0  0  0  0  0  0
  -23.3747  -35.9615   23.3312 H   0  0  0  0  0  0
  -24.3572  -36.8897   22.2055 H   0  0  0  0  0  0
  -23.7231  -37.6484   23.6661 H   0  0  0  0  0  0
  -26.0881  -31.5538   20.6000 H   0  0  0  0  0  0
  -26.8415  -30.8442   21.9981 H   0  0  0  0  0  0
  -28.1238  -28.9980   21.1791 H   0  0  0  0  0  0
  -26.0172  -25.9122   19.0270 H   0  0  0  0  0  0
  -23.9783  -27.2885   19.0246 H   0  0  0  0  0  0
  -23.7546  -30.5855   19.4027 H   0  0  0  0  0  0
  -22.7568  -29.2385   19.8597 H   0  0  0  0  0  0
  -25.1295  -36.1930   25.0822 H   0  0  0  0  0  0
  -20.9974  -28.3255   24.1404 H   0  0  0  0  0  0
  -20.5665  -26.2300   23.3613 H   0  0  0  0  0  0
  -21.6642  -26.7439   22.1211 H   0  0  0  0  0  0
  -19.6923  -25.6297   21.1238 H   0  0  0  0  0  0
  -19.6695  -27.3197   20.6742 H   0  0  0  0  0  0
  -17.4205  -26.6676   21.4013 H   0  0  0  0  0  0
  -18.0326  -26.0066   22.9009 H   0  0  0  0  0  0
  -19.7937  -30.7267   24.2273 H   0  0  0  0  0  0
  -17.5017  -31.6268   24.5166 H   0  0  0  0  0  0
  -15.5354  -30.2993   23.7658 H   0  0  0  0  0  0
  -15.8665  -28.0828   22.7070 H   0  0  0  0  0  0
  -24.5935  -30.7012   25.7777 H   0  0  0  0  0  0
  -24.8873  -32.2857   26.4846 H   0  0  0  0  0  0
  -25.8061  -30.8916   27.0237 H   0  0  0  0  0  0
  -26.2926  -29.6756   24.1200 H   0  0  0  0  0  0
  -27.4079  -29.7281   25.4658 H   0  0  0  0  0  0
  -27.8772  -30.4323   23.9366 H   0  0  0  0  0  0
  -27.2670  -33.3635   26.2046 H   0  0  0  0  0  0
  -28.3871  -32.6858   25.0323 H   0  0  0  0  0  0
  -28.0705  -31.8460   26.5428 H   0  0  0  0  0  0
  -28.2595  -38.0089   24.7512 H   0  0  0  0  0  0
  -28.1061  -36.2622   24.6301 H   0  0  0  0  0  0
  -27.2292  -37.1452   25.8871 H   0  0  0  0  0  0
  -20.9369  -29.8760   21.6888 H   0  0  0  0  0  0
  -26.0165  -38.2848   24.1420 H   0  0  0  0  0  0
  -28.6279  -16.9606   19.2335 H   0  0  0  0  0  0
  -28.2523  -19.3178   18.7000 H   0  0  0  0  0  0
  -30.7850  -20.4785   21.9733 H   0  0  0  0  0  0
  -32.1007  -18.9014   23.0831 H   0  0  0  0  0  0
  -32.1475  -17.2127   22.6064 H   0  0  0  0  0  0
  -30.8965  -17.7837   23.7196 H   0  0  0  0  0  0
  -28.4876  -25.4335   17.9021 H   0  0  0  0  0  0
  -28.1044  -24.0126   16.9340 H   0  0  0  0  0  0
  -29.7861  -24.4966   17.1619 H   0  0  0  0  0  0
  -28.6884  -25.2602   21.7624 H   0  0  0  0  0  0
  -27.1186  -25.0114   21.0899 H   0  0  0  0  0  0
  -29.0820  -16.4562   22.9269 H   0  0  0  0  0  0
  1 25  1  0  0  0
  1 30  2  0  0  0
  1 81  1  0  0  0
  2  3  1  0  0  0
  2 25  1  0  0  0
  2 89  1  0  0  0
  2 90  1  0  0  0
  3  4  1  0  0  0
  3 91  1  0  0  0
  3 92  1  0  0  0
  4  5  1  0  0  0
  4 93  1  0  0  0
  4 94  1  0  0  0
  5  6  1  0  0  0
  5 26  1  0  0  0
  5 95  1  0  0  0
  6 25  1  0  0  0
  6 96  1  0  0  0
  6 97  1  0  0  0
  7  8  2  0  0  0
  7 26  1  0  0  0
  7 29  1  0  0  0
  8  9  1  0  0  0
  8 22  1  0  0  0
  9 10  1  0  0  0
  9 27  2  0  0  0
 10 11  2  0  0  0
 10 15  1  0  0  0
 11 12  1  0  0  0
 11 98  1  0  0  0
 12 13  2  0  0  0
 12 99  1  0  0  0
 13 14  1  0  0  0
 13 31  1  0  0  0
 14 15  2  0  0  0
 14100  1  0  0  0
 15101  1  0  0  0
 16 17  2  0  0  0
 16 21  1  0  0  0
 16 31  1  0  0  0
 17 18  1  0  0  0
 17102  1  0  0  0
 18 19  2  0  0  0
 18103  1  0  0  0
 19 20  1  0  0  0
 19 24  1  0  0  0
 20 21  2  0  0  0
 20104  1  0  0  0
 21 23  1  0  0  0
 22 28  1  0  0  0
 22 32  2  0  0  0
 26 27  1  0  0  0
 28105  1  0  0  0
 28106  1  0  0  0
 29107  1  0  0  0
 29108  1  0  0  0
 33 34  1  0  0  0
 33 66  1  0  0  0
 33 70  2  0  0  0
 34 36  1  0  0  0
 34 59  1  0  0  0
 34109  1  0  0  0
 35 44  2  0  0  0
 35 45  1  0  0  0
 35 68  1  0  0  0
 36 56  1  0  0  0
 36110  1  0  0  0
 37 39  1  0  0  0
 37 47  1  0  0  0
 37 66  1  0  0  0
 37111  1  0  0  0
 38 43  2  0  0  0
 38 46  1  0  0  0
 38 47  1  0  0  0
 39 64  1  0  0  0
 39 67  2  0  0  0
 40 52  1  0  0  0
 40 53  2  0  0  0
 40 58  1  0  0  0
 41112  1  0  0  0
 41113  1  0  0  0
 41114  1  0  0  0
 41 48  1  0  0  0
 42 43  1  0  0  0
 42 66  1  0  0  0
 42115  1  0  0  0
 42116  1  0  0  0
 43 44  1  0  0  0
 44117  1  0  0  0
 45 46  2  0  0  0
 45118  1  0  0  0
 46119  1  0  0  0
 47120  1  0  0  0
 47121  1  0  0  0
 48 56  1  0  0  0
 48 65  1  0  0  0
 48122  1  0  0  0
 49 50  1  0  0  0
 49 53  1  0  0  0
 49 64  1  0  0  0
 49123  1  0  0  0
 50 51  1  0  0  0
 50124  1  0  0  0
 50125  1  0  0  0
 51 52  1  0  0  0
 51126  1  0  0  0
 51127  1  0  0  0
 52128  1  0  0  0
 52129  1  0  0  0
 53 54  1  0  0  0
 54 55  2  0  0  0
 54130  1  0  0  0
 55 57  1  0  0  0
 55131  1  0  0  0
 56 69  2  0  0  0
 57 58  2  0  0  0
 57132  1  0  0  0
 58133  1  0  0  0
 59 60  1  0  0  0
 59 61  1  0  0  0
 59 62  1  0  0  0
 60134  1  0  0  0
 60135  1  0  0  0
 60136  1  0  0  0
 61137  1  0  0  0
 61138  1  0  0  0
 61139  1  0  0  0
 62140  1  0  0  0
 62141  1  0  0  0
 62142  1  0  0  0
 63 65  1  0  0  0
 63143  1  0  0  0
 63144  1  0  0  0
 63145  1  0  0  0
 64146  1  0  0  0
 65147  1  0  0  0
 68 84  1  0  0  0
 71 72  2  0  0  0
 71 74  1  0  0  0
 71148  1  0  0  0
 72 76  1  0  0  0
 72149  1  0  0  0
 73 75  1  0  0  0
 73 76  2  0  0  0
 73150  1  0  0  0
 74 75  2  0  0  0
 74 81  1  0  0  0
 75 82  1  0  0  0
 76 86  1  0  0  0
 77 78  2  0  0  0
 77 79  1  0  0  0
 77 83  1  0  0  0
 78 80  1  0  0  0
 78 84  1  0  0  0
 79 86  1  0  0  0
 79 87  2  0  0  0
 80 86  1  0  0  0
 80 88  2  0  0  0
 81 85  2  0  0  0
 82151  1  0  0  0
 82152  1  0  0  0
 82153  1  0  0  0
 83154  1  0  0  0
 83155  1  0  0  0
 83156  1  0  0  0
 84157  1  0  0  0
 84158  1  0  0  0
 85159  1  0  0  0
M  ISO  4   1 100  68 101  81 100  84 101
M  END
> <chiral flag>
0

> <version>
0

> <s_m_source_file>
/data/baiqing/PycharmProjects/Reinvent-master-3.2/result/LINK_invent/BTK/process_docking_weight1_custom_product_contain_oxygen_bond_distance_aromatic_linkinvent_7_9_3/rearranged_h_0086.sdf

> <i_m_source_file_index>
50

> <r_mmod_Potential_Energy-OPLS-2005>
310.618072509766

> <r_mmod_Stretch_Energy-OPLS-2005>
95.7309494018555

> <r_mmod_Bend_Energy-OPLS-2005>
188.301773071289

> <r_mmod_Torsional_Energy-OPLS-2005>
256.801696777344

> <r_mmod_Improper_Torsional_Energy-OPLS-2005>
3.64054584503174

> <r_mmod_Van_der_Waal_Energy-OPLS-2005>
140.911972045898

> <r_mmod_Electrostatic_Energy-OPLS-2005>
-203.270309448242

> <r_mmod_Solvation_Energy-OPLS-2005>
-217.006652832031

> <b_mmod_Minimization_Converged-OPLS-2005>
0

> <r_mmod_RMS_Derivative-OPLS-2005>
0.493118166923523

$$$$
50
                    3D
 Structure written by MMmdl.
152161  0  0  1  0            999 V2000
  -30.6197  -14.6464   20.5049 C   0  0  0  0  0  0
  -30.4423  -12.3999   19.4499 C   0  0  0  0  0  0
  -29.5082  -12.5158   18.2239 C   0  0  0  0  0  0
  -28.0309  -12.3531   18.6343 C   0  0  0  0  0  0
  -27.6549  -13.2185   19.8671 C   0  0  2  0  0  0
  -28.7016  -13.0643   20.9942 C   0  0  0  0  0  0
  -25.2556  -13.8170   20.5692 C   0  0  0  0  0  0
  -24.1816  -13.0434   20.9157 C   0  0  0  0  0  0
  -24.6400  -11.6908   20.8733 C   0  0  0  0  0  0
  -23.9076  -10.4291   21.0402 C   0  0  0  0  0  0
  -24.3629   -9.4209   21.9181 C   0  0  0  0  0  0
  -23.6302   -8.2245   22.0754 C   0  0  0  0  0  0
  -22.4280   -8.0285   21.3548 C   0  0  0  0  0  0
  -21.9917   -9.0258   20.4649 C   0  0  0  0  0  0
  -22.7250  -10.2134   20.3053 C   0  0  0  0  0  0
  -21.6847   -6.0748   22.5289 C   0  0  0  0  0  0
  -21.4012   -6.5650   23.8225 C   0  0  0  0  0  0
  -21.3656   -5.6797   24.9184 C   0  0  0  0  0  0
  -21.6040   -4.3058   24.7226 C   0  0  0  0  0  0
  -21.8817   -3.8157   23.4344 C   0  0  0  0  0  0
  -21.9191   -4.6978   22.3406 C   0  0  0  0  0  0
  -22.7842  -13.5229   21.1825 C   0  0  0  0  0  0
  -22.1657   -4.2170   21.0981 F   0  0  0  0  0  0
  -21.5626   -3.4535   25.7731 F   0  0  0  0  0  0
  -30.0181  -13.4151   20.4345 N   0  0  0  0  0  0
  -26.3003  -12.9362   20.3352 N   0  0  0  0  0  0
  -25.9332  -11.6513   20.5770 N   0  0  0  0  0  0
  -22.0481  -12.8234   22.0395 N   0  0  0  0  0  0
  -25.4243  -15.1900   20.4178 N   0  0  0  0  0  0
  -31.7741  -14.8186   20.1024 O   0  0  0  0  0  0
  -21.6639   -6.8889   21.4250 O   0  0  0  0  0  0
  -22.3528  -14.5537   20.6680 O   0  0  0  0  0  0
  -24.6307  -31.8605   23.2035 C   0  0  0  0  0  0
  -25.9150  -32.4774   23.8362 C   0  0  1  0  0  0
  -27.2168  -27.2969   20.1128 C   0  0  0  0  0  0
  -25.5960  -33.8576   24.2296 N   0  0  0  0  0  0
  -23.4255  -30.4904   21.5447 C   0  0  2  0  0  0
  -24.8708  -28.9516   20.1070 C   0  0  0  0  0  0
  -22.7505  -29.4661   22.4889 C   0  0  0  0  0  0
  -18.0310  -28.1407   22.8499 C   0  0  0  0  0  0
  -24.1489  -36.7281   23.2631 C   0  0  0  0  0  0
  -25.9707  -30.7853   21.3796 C   0  0  0  0  0  0
  -26.0434  -29.4127   20.7187 C   0  0  0  0  0  0
  -27.2192  -28.5973   20.7158 C   0  0  0  0  0  0
  -26.0181  -26.9124   19.4599 C   0  0  0  0  0  0
  -24.8615  -27.7074   19.4677 C   0  0  0  0  0  0
  -23.6432  -29.8364   20.1574 C   0  0  0  0  0  0
  -25.4105  -36.3074   24.0341 C   0  0  1  0  0  0
  -20.5917  -28.3730   23.1254 C   0  0  2  0  0  0
  -20.6811  -26.9453   22.5396 C   0  0  0  0  0  0
  -19.5772  -26.6402   21.5220 C   0  0  0  0  0  0
  -18.1953  -26.7950   22.1634 C   0  0  0  0  0  0
  -19.1564  -28.8880   23.2878 C   0  0  0  0  0  0
  -18.9481  -30.1473   23.8906 C   0  0  0  0  0  0
  -17.6481  -30.6606   24.0578 C   0  0  0  0  0  0
  -25.9055  -34.9448   23.5112 C   0  0  0  0  0  0
  -16.5372  -29.9114   23.6331 C   0  0  0  0  0  0
  -16.7295  -28.6529   23.0358 C   0  0  0  0  0  0
  -26.4517  -31.6567   25.0725 C   0  0  0  0  0  0
  -25.3742  -31.3734   26.1448 C   0  0  0  0  0  0
  -27.0330  -30.2974   24.6177 C   0  0  0  0  0  0
  -27.6092  -32.4274   25.7486 C   0  0  0  0  0  0
  -27.5587  -37.1784   24.8457 C   0  0  0  0  0  0
  -21.4212  -29.3085   22.3633 N   0  0  0  0  0  0
  -26.4270  -37.3782   23.9444 N   0  0  0  0  0  0
  -24.6948  -31.0616   22.0994 N   0  0  0  0  0  0
  -23.4220  -28.8184   23.2967 O   0  0  0  0  0  0
  -28.3021  -26.3926   20.1802 O   0  0  0  0  0  0
  -26.5613  -34.8923   22.4670 O   0  0  0  0  0  0
  -23.5461  -32.1409   23.7348 O   0  0  0  0  0  0
  -30.8347  -19.3356   20.1202 C   0  0  0  0  0  0
  -30.9191  -17.9093   20.2127 C   0  0  0  0  0  0
  -28.6357  -19.2878   21.0783 C   0  0  0  0  0  0
  -29.6957  -20.0841   20.5571 C   0  0  0  0  0  0
  -29.8569  -17.1342   20.7516 C   0  0  0  0  0  0
  -28.7175  -17.8662   21.1736 C   0  0  0  0  0  0
  -30.2145  -23.7694   20.6443 C   0  0  0  0  0  0
  -28.9310  -23.7684   20.2838 C   0  0  0  0  0  0
  -30.6723  -22.3962   20.7906 C   0  0  0  0  0  0
  -28.5455  -22.3464   20.2000 C   0  0  0  0  0  0
  -27.9648  -24.9575   19.9435 C   0  0  0  0  0  0
  -29.6329  -21.5715   20.5048 N   0  0  0  0  0  0
  -29.8139  -15.6772   20.9060 N   0  0  0  0  0  0
  -31.8081  -22.0415   21.1275 O   0  0  0  0  0  0
  -27.4307  -21.9093   19.8914 O   0  0  0  0  0  0
  -27.6692  -17.1801   21.6902 F   0  0  0  0  0  0
  -31.4819  -12.5337   19.1447 H   0  0  0  0  0  0
  -30.3867  -11.4015   19.8859 H   0  0  0  0  0  0
  -29.7730  -11.7679   17.4757 H   0  0  0  0  0  0
  -29.6481  -13.4877   17.7470 H   0  0  0  0  0  0
  -27.8629  -11.2984   18.8557 H   0  0  0  0  0  0
  -27.3782  -12.5922   17.7940 H   0  0  0  0  0  0
  -27.6728  -14.2561   19.5335 H   0  0  0  0  0  0
  -28.7135  -12.0379   21.3638 H   0  0  0  0  0  0
  -28.4438  -13.6843   21.8542 H   0  0  0  0  0  0
  -25.2770   -9.5682   22.4759 H   0  0  0  0  0  0
  -24.0007   -7.4630   22.7467 H   0  0  0  0  0  0
  -21.0848   -8.8784   19.8951 H   0  0  0  0  0  0
  -22.3713  -10.9679   19.6166 H   0  0  0  0  0  0
  -21.2005   -7.6158   23.9737 H   0  0  0  0  0  0
  -21.1478   -6.0521   25.9088 H   0  0  0  0  0  0
  -22.0599   -2.7621   23.2831 H   0  0  0  0  0  0
  -22.4086  -11.9901   22.4791 H   0  0  0  0  0  0
  -21.1105  -13.1288   22.2602 H   0  0  0  0  0  0
  -24.6649  -15.8436   20.5702 H   0  0  0  0  0  0
  -26.3036  -15.6508   20.2210 H   0  0  0  0  0  0
  -26.7223  -32.5444   23.1115 H   0  0  0  0  0  0
  -25.0139  -33.9712   25.0459 H   0  0  0  0  0  0
  -22.7215  -31.3137   21.4040 H   0  0  0  0  0  0
  -23.3771  -35.9588   23.3234 H   0  0  0  0  0  0
  -24.3614  -36.8950   22.2060 H   0  0  0  0  0  0
  -23.7202  -37.6454   23.6676 H   0  0  0  0  0  0
  -26.1068  -31.5497   20.6130 H   0  0  0  0  0  0
  -26.8506  -30.8317   22.0098 H   0  0  0  0  0  0
  -28.1133  -28.9445   21.2158 H   0  0  0  0  0  0
  -25.9226  -25.9736   18.9380 H   0  0  0  0  0  0
  -23.9678  -27.3529   18.9722 H   0  0  0  0  0  0
  -23.7723  -30.6198   19.4093 H   0  0  0  0  0  0
  -22.7613  -29.2748   19.8450 H   0  0  0  0  0  0
  -25.1268  -36.1908   25.0829 H   0  0  0  0  0  0
  -21.0031  -28.3325   24.1365 H   0  0  0  0  0  0
  -20.5745  -26.2351   23.3611 H   0  0  0  0  0  0
  -21.6670  -26.7505   22.1158 H   0  0  0  0  0  0
  -19.6942  -25.6311   21.1257 H   0  0  0  0  0  0
  -19.6699  -27.3208   20.6747 H   0  0  0  0  0  0
  -17.4231  -26.6712   21.4032 H   0  0  0  0  0  0
  -18.0348  -26.0090   22.9024 H   0  0  0  0  0  0
  -19.7956  -30.7289   24.2279 H   0  0  0  0  0  0
  -17.5042  -31.6285   24.5183 H   0  0  0  0  0  0
  -15.5374  -30.3031   23.7638 H   0  0  0  0  0  0
  -15.8700  -28.0848   22.7063 H   0  0  0  0  0  0
  -24.5916  -30.7083   25.7782 H   0  0  0  0  0  0
  -24.8937  -32.2915   26.4845 H   0  0  0  0  0  0
  -25.8055  -30.8931   27.0238 H   0  0  0  0  0  0
  -26.2895  -29.6733   24.1209 H   0  0  0  0  0  0
  -27.4025  -29.7221   25.4674 H   0  0  0  0  0  0
  -27.8778  -30.4235   23.9402 H   0  0  0  0  0  0
  -27.2740  -33.3601   26.2031 H   0  0  0  0  0  0
  -28.3929  -32.6771   25.0321 H   0  0  0  0  0  0
  -28.0723  -31.8398   26.5423 H   0  0  0  0  0  0
  -28.2540  -38.0145   24.7587 H   0  0  0  0  0  0
  -28.1146  -36.2683   24.6152 H   0  0  0  0  0  0
  -27.2340  -37.1272   25.8864 H   0  0  0  0  0  0
  -20.9387  -29.8813   21.6850 H   0  0  0  0  0  0
  -26.0139  -38.2839   24.1501 H   0  0  0  0  0  0
  -31.6841  -19.8574   19.7015 H   0  0  0  0  0  0
  -31.8196  -17.4226   19.8664 H   0  0  0  0  0  0
  -27.7344  -19.7634   21.4367 H   0  0  0  0  0  0
  -30.8288  -24.6444   20.7843 H   0  0  0  0  0  0
  -27.0486  -24.7268   20.4906 H   0  0  0  0  0  0
  -27.7452  -24.8380   18.8822 H   0  0  0  0  0  0
  -28.9330  -15.3541   21.2783 H   0  0  0  0  0  0
  1 25  1  0  0  0
  1 30  2  0  0  0
  1 83  1  0  0  0
  2  3  1  0  0  0
  2 25  1  0  0  0
  2 87  1  0  0  0
  2 88  1  0  0  0
  3  4  1  0  0  0
  3 89  1  0  0  0
  3 90  1  0  0  0
  4  5  1  0  0  0
  4 91  1  0  0  0
  4 92  1  0  0  0
  5  6  1  0  0  0
  5 26  1  0  0  0
  5 93  1  0  0  0
  6 25  1  0  0  0
  6 94  1  0  0  0
  6 95  1  0  0  0
  7  8  2  0  0  0
  7 26  1  0  0  0
  7 29  1  0  0  0
  8  9  1  0  0  0
  8 22  1  0  0  0
  9 10  1  0  0  0
  9 27  2  0  0  0
 10 11  2  0  0  0
 10 15  1  0  0  0
 11 12  1  0  0  0
 11 96  1  0  0  0
 12 13  2  0  0  0
 12 97  1  0  0  0
 13 14  1  0  0  0
 13 31  1  0  0  0
 14 15  2  0  0  0
 14 98  1  0  0  0
 15 99  1  0  0  0
 16 17  2  0  0  0
 16 21  1  0  0  0
 16 31  1  0  0  0
 17 18  1  0  0  0
 17100  1  0  0  0
 18 19  2  0  0  0
 18101  1  0  0  0
 19 20  1  0  0  0
 19 24  1  0  0  0
 20 21  2  0  0  0
 20102  1  0  0  0
 21 23  1  0  0  0
 22 28  1  0  0  0
 22 32  2  0  0  0
 26 27  1  0  0  0
 28103  1  0  0  0
 28104  1  0  0  0
 29105  1  0  0  0
 29106  1  0  0  0
 33 34  1  0  0  0
 33 66  1  0  0  0
 33 70  2  0  0  0
 34 36  1  0  0  0
 34 59  1  0  0  0
 34107  1  0  0  0
 35 44  2  0  0  0
 35 45  1  0  0  0
 35 68  1  0  0  0
 36 56  1  0  0  0
 36108  1  0  0  0
 37 39  1  0  0  0
 37 47  1  0  0  0
 37 66  1  0  0  0
 37109  1  0  0  0
 38 43  2  0  0  0
 38 46  1  0  0  0
 38 47  1  0  0  0
 39 64  1  0  0  0
 39 67  2  0  0  0
 40 52  1  0  0  0
 40 53  2  0  0  0
 40 58  1  0  0  0
 41110  1  0  0  0
 41111  1  0  0  0
 41112  1  0  0  0
 41 48  1  0  0  0
 42 43  1  0  0  0
 42 66  1  0  0  0
 42113  1  0  0  0
 42114  1  0  0  0
 43 44  1  0  0  0
 44115  1  0  0  0
 45 46  2  0  0  0
 45116  1  0  0  0
 46117  1  0  0  0
 47118  1  0  0  0
 47119  1  0  0  0
 48 56  1  0  0  0
 48 65  1  0  0  0
 48120  1  0  0  0
 49 50  1  0  0  0
 49 53  1  0  0  0
 49 64  1  0  0  0
 49121  1  0  0  0
 50 51  1  0  0  0
 50122  1  0  0  0
 50123  1  0  0  0
 51 52  1  0  0  0
 51124  1  0  0  0
 51125  1  0  0  0
 52126  1  0  0  0
 52127  1  0  0  0
 53 54  1  0  0  0
 54 55  2  0  0  0
 54128  1  0  0  0
 55 57  1  0  0  0
 55129  1  0  0  0
 56 69  2  0  0  0
 57 58  2  0  0  0
 57130  1  0  0  0
 58131  1  0  0  0
 59 60  1  0  0  0
 59 61  1  0  0  0
 59 62  1  0  0  0
 60132  1  0  0  0
 60133  1  0  0  0
 60134  1  0  0  0
 61135  1  0  0  0
 61136  1  0  0  0
 61137  1  0  0  0
 62138  1  0  0  0
 62139  1  0  0  0
 62140  1  0  0  0
 63 65  1  0  0  0
 63141  1  0  0  0
 63142  1  0  0  0
 63143  1  0  0  0
 64144  1  0  0  0
 65145  1  0  0  0
 68 81  1  0  0  0
 71 72  2  0  0  0
 71 74  1  0  0  0
 71146  1  0  0  0
 72 75  1  0  0  0
 72147  1  0  0  0
 73 74  2  0  0  0
 73 76  1  0  0  0
 73148  1  0  0  0
 74 82  1  0  0  0
 75 76  2  0  0  0
 75 83  1  0  0  0
 76 86  1  0  0  0
 77 78  2  0  0  0
 77 79  1  0  0  0
 77149  1  0  0  0
 78 80  1  0  0  0
 78 81  1  0  0  0
 79 82  1  0  0  0
 79 84  2  0  0  0
 80 82  1  0  0  0
 80 85  2  0  0  0
 81150  1  0  0  0
 81151  1  0  0  0
 83152  1  0  0  0
M  ISO  4   1 100  68 101  81 101  83 100
M  END
> <chiral flag>
0

> <version>
0

> <s_m_source_file>
/data/baiqing/PycharmProjects/Reinvent-master-3.2/result/LINK_invent/BTK/process_docking_weight1_custom_product_contain_oxygen_bond_distance_aromatic_linkinvent_7_9_3/rearranged_h_0086.sdf

> <i_m_source_file_index>
51

> <r_mmod_Potential_Energy-OPLS-2005>
65.9530868530273

> <r_mmod_Stretch_Energy-OPLS-2005>
87.4591217041016

> <r_mmod_Bend_Energy-OPLS-2005>
191.136459350586

> <r_mmod_Torsional_Energy-OPLS-2005>
234.692810058594

> <r_mmod_Improper_Torsional_Energy-OPLS-2005>
3.64476919174194

> <r_mmod_Van_der_Waal_Energy-OPLS-2005>
149.155960083008

> <r_mmod_Electrostatic_Energy-OPLS-2005>
-432.338836669922

> <r_mmod_Solvation_Energy-OPLS-2005>
-225.600738525391

> <b_mmod_Minimization_Converged-OPLS-2005>
0

> <r_mmod_RMS_Derivative-OPLS-2005>
1.32441449165344

$$$$
51
                    3D
 Structure written by MMmdl.
156165  0  0  1  0            999 V2000
  -30.6153  -14.7284   20.3648 C   0  0  0  0  0  0
  -30.4460  -12.4126   19.4669 C   0  0  0  0  0  0
  -29.5113  -12.3930   18.2349 C   0  0  0  0  0  0
  -28.0276  -12.2952   18.6525 C   0  0  0  0  0  0
  -27.6407  -13.2144   19.8455 C   0  0  2  0  0  0
  -28.6989  -13.1796   20.9676 C   0  0  0  0  0  0
  -25.2543  -13.8154   20.5731 C   0  0  0  0  0  0
  -24.1802  -13.0424   20.9212 C   0  0  0  0  0  0
  -24.6377  -11.6895   20.8780 C   0  0  0  0  0  0
  -23.9050  -10.4282   21.0429 C   0  0  0  0  0  0
  -24.3610   -9.4194   21.9198 C   0  0  0  0  0  0
  -23.6294   -8.2228   22.0757 C   0  0  0  0  0  0
  -22.4277   -8.0270   21.3546 C   0  0  0  0  0  0
  -21.9908   -9.0244   20.4653 C   0  0  0  0  0  0
  -22.7229  -10.2126   20.3069 C   0  0  0  0  0  0
  -21.6848   -6.0734   22.5276 C   0  0  0  0  0  0
  -21.4006   -6.5637   23.8209 C   0  0  0  0  0  0
  -21.3660   -5.6795   24.9173 C   0  0  0  0  0  0
  -21.6045   -4.3058   24.7229 C   0  0  0  0  0  0
  -21.8819   -3.8148   23.4349 C   0  0  0  0  0  0
  -21.9189   -4.6962   22.3402 C   0  0  0  0  0  0
  -22.7829  -13.5224   21.1866 C   0  0  0  0  0  0
  -22.1665   -4.2145   21.0982 F   0  0  0  0  0  0
  -21.5635   -3.4546   25.7746 F   0  0  0  0  0  0
  -29.9928  -13.5014   20.3542 N   0  0  0  0  0  0
  -26.2959  -12.9318   20.3353 N   0  0  0  0  0  0
  -25.9306  -11.6483   20.5839 N   0  0  0  0  0  0
  -22.0478  -12.8217   22.0427 N   0  0  0  0  0  0
  -25.4291  -15.1871   20.4168 N   0  0  0  0  0  0
  -31.8470  -14.7946   20.3081 O   0  0  0  0  0  0
  -21.6638   -6.8870   21.4236 O   0  0  0  0  0  0
  -22.3513  -14.5534   20.6720 O   0  0  0  0  0  0
  -24.6280  -31.8595   23.2015 C   0  0  0  0  0  0
  -25.9126  -32.4778   23.8354 C   0  0  1  0  0  0
  -27.2249  -27.2965   20.1150 C   0  0  0  0  0  0
  -25.5941  -33.8579   24.2284 N   0  0  0  0  0  0
  -23.4215  -30.4829   21.5449 C   0  0  2  0  0  0
  -24.8664  -28.9357   20.1111 C   0  0  0  0  0  0
  -22.7493  -29.4617   22.4933 C   0  0  0  0  0  0
  -18.0296  -28.1386   22.8481 C   0  0  0  0  0  0
  -24.1480  -36.7277   23.2634 C   0  0  0  0  0  0
  -25.9651  -30.7829   21.3749 C   0  0  0  0  0  0
  -26.0367  -29.4091   20.7153 C   0  0  0  0  0  0
  -27.2143  -28.6008   20.7082 C   0  0  0  0  0  0
  -26.0199  -26.8761   19.5015 C   0  0  0  0  0  0
  -24.8618  -27.6752   19.4980 C   0  0  0  0  0  0
  -23.6365  -29.8192   20.1595 C   0  0  0  0  0  0
  -25.4106  -36.3080   24.0329 C   0  0  1  0  0  0
  -20.5896  -28.3684   23.1281 C   0  0  2  0  0  0
  -20.6772  -26.9404   22.5408 C   0  0  0  0  0  0
  -19.5750  -26.6383   21.5206 C   0  0  0  0  0  0
  -18.1935  -26.7929   22.1620 C   0  0  0  0  0  0
  -19.1550  -28.8854   23.2874 C   0  0  0  0  0  0
  -18.9464  -30.1457   23.8885 C   0  0  0  0  0  0
  -17.6460  -30.6582   24.0560 C   0  0  0  0  0  0
  -25.9052  -34.9454   23.5105 C   0  0  0  0  0  0
  -16.5354  -29.9076   23.6331 C   0  0  0  0  0  0
  -16.7281  -28.6500   23.0346 C   0  0  0  0  0  0
  -26.4501  -31.6601   25.0738 C   0  0  0  0  0  0
  -25.3746  -31.3738   26.1475 C   0  0  0  0  0  0
  -27.0346  -30.3025   24.6207 C   0  0  0  0  0  0
  -27.6065  -32.4341   25.7509 C   0  0  0  0  0  0
  -27.5582  -37.1788   24.8464 C   0  0  0  0  0  0
  -21.4206  -29.3035   22.3679 N   0  0  0  0  0  0
  -26.4282  -37.3781   23.9423 N   0  0  0  0  0  0
  -24.6906  -31.0593   22.0968 N   0  0  0  0  0  0
  -23.4216  -28.8153   23.3011 O   0  0  0  0  0  0
  -28.3590  -26.4622   20.1974 O   0  0  0  0  0  0
  -26.5616  -34.8921   22.4668 O   0  0  0  0  0  0
  -23.5440  -32.1409   23.7333 O   0  0  0  0  0  0
  -30.4566  -19.3792   21.1837 C   0  0  0  0  0  0
  -28.4173  -19.3240   19.9276 C   0  0  0  0  0  0
  -30.6195  -17.9608   21.0130 C   0  0  0  0  0  0
  -28.5755  -17.9185   19.7637 C   0  0  0  0  0  0
  -29.3655  -20.1184   20.6217 C   0  0  0  0  0  0
  -29.6939  -17.1829   20.2618 C   0  0  0  0  0  0
  -29.0432  -23.6794   21.6350 C   0  0  0  0  0  0
  -28.7690  -23.8311   20.3376 C   0  0  0  0  0  0
  -29.3135  -22.2758   21.9158 C   0  0  0  0  0  0
  -28.8650  -22.4762   19.7603 C   0  0  0  0  0  0
  -30.7235  -16.0706   17.5645 C   0  0  0  0  0  0
  -29.7517  -15.7160   18.4248 C   0  0  0  0  0  0
  -28.4559  -25.1402   19.5187 C   0  0  0  0  0  0
  -29.1985  -21.5902   20.7528 N   0  0  0  0  0  0
  -29.8715  -15.7764   19.8242 N   0  0  0  0  0  0
  -29.5894  -21.7874   23.0173 O   0  0  0  0  0  0
  -28.6918  -22.1738   18.5744 O   0  0  0  0  0  0
  -31.4812  -12.5494   19.1489 H   0  0  0  0  0  0
  -30.4137  -11.4580   19.9955 H   0  0  0  0  0  0
  -29.7648  -11.5417   17.6016 H   0  0  0  0  0  0
  -29.6747  -13.2644   17.6056 H   0  0  0  0  0  0
  -27.8496  -11.2554   18.9271 H   0  0  0  0  0  0
  -27.3795  -12.4919   17.7981 H   0  0  0  0  0  0
  -27.6121  -14.2283   19.4578 H   0  0  0  0  0  0
  -28.7313  -12.2006   21.4476 H   0  0  0  0  0  0
  -28.4570  -13.9065   21.7451 H   0  0  0  0  0  0
  -25.2757   -9.5675   22.4768 H   0  0  0  0  0  0
  -24.0011   -7.4615   22.7468 H   0  0  0  0  0  0
  -21.0842   -8.8758   19.8958 H   0  0  0  0  0  0
  -22.3688  -10.9668   19.6181 H   0  0  0  0  0  0
  -21.1992   -7.6146   23.9709 H   0  0  0  0  0  0
  -21.1487   -6.0530   25.9075 H   0  0  0  0  0  0
  -22.0599   -2.7611   23.2852 H   0  0  0  0  0  0
  -22.4112  -11.9884   22.4815 H   0  0  0  0  0  0
  -21.1094  -13.1232   22.2652 H   0  0  0  0  0  0
  -24.6737  -15.8505   20.5444 H   0  0  0  0  0  0
  -26.3037  -15.6258   20.1593 H   0  0  0  0  0  0
  -26.7196  -32.5436   23.1099 H   0  0  0  0  0  0
  -25.0124  -33.9726   25.0454 H   0  0  0  0  0  0
  -22.7154  -31.3035   21.4027 H   0  0  0  0  0  0
  -23.3756  -35.9598   23.3301 H   0  0  0  0  0  0
  -24.3567  -36.8893   22.2050 H   0  0  0  0  0  0
  -23.7225  -37.6475   23.6650 H   0  0  0  0  0  0
  -26.1030  -31.5468   20.6086 H   0  0  0  0  0  0
  -26.8428  -30.8286   22.0075 H   0  0  0  0  0  0
  -28.1117  -28.9623   21.1902 H   0  0  0  0  0  0
  -25.9051  -25.9073   19.0453 H   0  0  0  0  0  0
  -23.9602  -27.2997   19.0333 H   0  0  0  0  0  0
  -23.7596  -30.5968   19.4048 H   0  0  0  0  0  0
  -22.7538  -29.2534   19.8548 H   0  0  0  0  0  0
  -25.1283  -36.1924   25.0822 H   0  0  0  0  0  0
  -20.9989  -28.3250   24.1401 H   0  0  0  0  0  0
  -20.5656  -26.2293   23.3606 H   0  0  0  0  0  0
  -21.6643  -26.7422   22.1210 H   0  0  0  0  0  0
  -19.6901  -25.6295   21.1235 H   0  0  0  0  0  0
  -19.6685  -27.3192   20.6733 H   0  0  0  0  0  0
  -17.4201  -26.6688   21.4025 H   0  0  0  0  0  0
  -18.0324  -26.0078   22.9018 H   0  0  0  0  0  0
  -19.7937  -30.7284   24.2245 H   0  0  0  0  0  0
  -17.5010  -31.6260   24.5166 H   0  0  0  0  0  0
  -15.5352  -30.2963   23.7664 H   0  0  0  0  0  0
  -15.8688  -28.0812   22.7057 H   0  0  0  0  0  0
  -24.5914  -30.7085   25.7813 H   0  0  0  0  0  0
  -24.8938  -32.2899   26.4920 H   0  0  0  0  0  0
  -25.8086  -30.8915   27.0245 H   0  0  0  0  0  0
  -26.2924  -29.6780   24.1219 H   0  0  0  0  0  0
  -27.4025  -29.7279   25.4719 H   0  0  0  0  0  0
  -27.8801  -30.4307   23.9447 H   0  0  0  0  0  0
  -27.2682  -33.3639   26.2095 H   0  0  0  0  0  0
  -28.3873  -32.6916   25.0341 H   0  0  0  0  0  0
  -28.0743  -31.8474   26.5427 H   0  0  0  0  0  0
  -28.2586  -38.0097   24.7541 H   0  0  0  0  0  0
  -28.1094  -36.2637   24.6249 H   0  0  0  0  0  0
  -27.2313  -37.1390   25.8868 H   0  0  0  0  0  0
  -20.9390  -29.8763   21.6891 H   0  0  0  0  0  0
  -26.0162  -38.2850   24.1449 H   0  0  0  0  0  0
  -31.2169  -19.9087   21.7410 H   0  0  0  0  0  0
  -27.5466  -19.7941   19.4912 H   0  0  0  0  0  0
  -31.5043  -17.4890   21.4179 H   0  0  0  0  0  0
  -27.8200  -17.4053   19.1862 H   0  0  0  0  0  0
  -29.0767  -24.4731   22.3655 H   0  0  0  0  0  0
  -30.5698  -16.0133   16.4967 H   0  0  0  0  0  0
  -31.6867  -16.4181   17.9115 H   0  0  0  0  0  0
  -28.7875  -15.3764   18.0797 H   0  0  0  0  0  0
  -27.6249  -24.9115   18.8600 H   0  0  0  0  0  0
  -29.2946  -25.2467   18.8311 H   0  0  0  0  0  0
  1 25  1  0  0  0
  1 30  2  0  0  0
  1 85  1  0  0  0
  2  3  1  0  0  0
  2 25  1  0  0  0
  2 88  1  0  0  0
  2 89  1  0  0  0
  3  4  1  0  0  0
  3 90  1  0  0  0
  3 91  1  0  0  0
  4  5  1  0  0  0
  4 92  1  0  0  0
  4 93  1  0  0  0
  5  6  1  0  0  0
  5 26  1  0  0  0
  5 94  1  0  0  0
  6 25  1  0  0  0
  6 95  1  0  0  0
  6 96  1  0  0  0
  7  8  2  0  0  0
  7 26  1  0  0  0
  7 29  1  0  0  0
  8  9  1  0  0  0
  8 22  1  0  0  0
  9 10  1  0  0  0
  9 27  2  0  0  0
 10 11  2  0  0  0
 10 15  1  0  0  0
 11 12  1  0  0  0
 11 97  1  0  0  0
 12 13  2  0  0  0
 12 98  1  0  0  0
 13 14  1  0  0  0
 13 31  1  0  0  0
 14 15  2  0  0  0
 14 99  1  0  0  0
 15100  1  0  0  0
 16 17  2  0  0  0
 16 21  1  0  0  0
 16 31  1  0  0  0
 17 18  1  0  0  0
 17101  1  0  0  0
 18 19  2  0  0  0
 18102  1  0  0  0
 19 20  1  0  0  0
 19 24  1  0  0  0
 20 21  2  0  0  0
 20103  1  0  0  0
 21 23  1  0  0  0
 22 28  1  0  0  0
 22 32  2  0  0  0
 26 27  1  0  0  0
 28104  1  0  0  0
 28105  1  0  0  0
 29106  1  0  0  0
 29107  1  0  0  0
 33 34  1  0  0  0
 33 66  1  0  0  0
 33 70  2  0  0  0
 34 36  1  0  0  0
 34 59  1  0  0  0
 34108  1  0  0  0
 35 44  2  0  0  0
 35 45  1  0  0  0
 35 68  1  0  0  0
 36 56  1  0  0  0
 36109  1  0  0  0
 37 39  1  0  0  0
 37 47  1  0  0  0
 37 66  1  0  0  0
 37110  1  0  0  0
 38 43  2  0  0  0
 38 46  1  0  0  0
 38 47  1  0  0  0
 39 64  1  0  0  0
 39 67  2  0  0  0
 40 52  1  0  0  0
 40 53  2  0  0  0
 40 58  1  0  0  0
 41111  1  0  0  0
 41112  1  0  0  0
 41113  1  0  0  0
 41 48  1  0  0  0
 42 43  1  0  0  0
 42 66  1  0  0  0
 42114  1  0  0  0
 42115  1  0  0  0
 43 44  1  0  0  0
 44116  1  0  0  0
 45 46  2  0  0  0
 45117  1  0  0  0
 46118  1  0  0  0
 47119  1  0  0  0
 47120  1  0  0  0
 48 56  1  0  0  0
 48 65  1  0  0  0
 48121  1  0  0  0
 49 50  1  0  0  0
 49 53  1  0  0  0
 49 64  1  0  0  0
 49122  1  0  0  0
 50 51  1  0  0  0
 50123  1  0  0  0
 50124  1  0  0  0
 51 52  1  0  0  0
 51125  1  0  0  0
 51126  1  0  0  0
 52127  1  0  0  0
 52128  1  0  0  0
 53 54  1  0  0  0
 54 55  2  0  0  0
 54129  1  0  0  0
 55 57  1  0  0  0
 55130  1  0  0  0
 56 69  2  0  0  0
 57 58  2  0  0  0
 57131  1  0  0  0
 58132  1  0  0  0
 59 60  1  0  0  0
 59 61  1  0  0  0
 59 62  1  0  0  0
 60133  1  0  0  0
 60134  1  0  0  0
 60135  1  0  0  0
 61136  1  0  0  0
 61137  1  0  0  0
 61138  1  0  0  0
 62139  1  0  0  0
 62140  1  0  0  0
 62141  1  0  0  0
 63 65  1  0  0  0
 63142  1  0  0  0
 63143  1  0  0  0
 63144  1  0  0  0
 64145  1  0  0  0
 65146  1  0  0  0
 68 83  1  0  0  0
 71 73  2  0  0  0
 71 75  1  0  0  0
 71147  1  0  0  0
 72 74  1  0  0  0
 72 75  2  0  0  0
 72148  1  0  0  0
 73 76  1  0  0  0
 73149  1  0  0  0
 74 76  2  0  0  0
 74150  1  0  0  0
 75 84  1  0  0  0
 76 85  1  0  0  0
 77 78  2  0  0  0
 77 79  1  0  0  0
 77151  1  0  0  0
 78 80  1  0  0  0
 78 83  1  0  0  0
 79 84  1  0  0  0
 79 86  2  0  0  0
 80 84  1  0  0  0
 80 87  2  0  0  0
 81 82  2  0  0  0
 81152  1  0  0  0
 81153  1  0  0  0
 82 85  1  0  0  0
 82154  1  0  0  0
 83155  1  0  0  0
 83156  1  0  0  0
M  ISO  4   1 100  68 101  83 101  85 100
M  END
> <chiral flag>
0

> <version>
0

> <s_m_source_file>
/data/baiqing/PycharmProjects/Reinvent-master-3.2/result/LINK_invent/BTK/process_docking_weight1_custom_product_contain_oxygen_bond_distance_aromatic_linkinvent_7_9_3/rearranged_h_0086.sdf

> <i_m_source_file_index>
52

> <r_mmod_Potential_Energy-OPLS-2005>
399.791564941406

> <r_mmod_Stretch_Energy-OPLS-2005>
97.5325164794922

> <r_mmod_Bend_Energy-OPLS-2005>
208.380950927734

> <r_mmod_Torsional_Energy-OPLS-2005>
380.962646484375

> <r_mmod_Improper_Torsional_Energy-OPLS-2005>
24.6579608917236

> <r_mmod_Van_der_Waal_Energy-OPLS-2005>
144.1455078125

> <r_mmod_Electrostatic_Energy-OPLS-2005>
-316.0498046875

> <r_mmod_Solvation_Energy-OPLS-2005>
-224.129791259766

> <b_mmod_Minimization_Converged-OPLS-2005>
0

> <r_mmod_RMS_Derivative-OPLS-2005>
1.38994717597961

$$$$
52
                    3D
 Structure written by MMmdl.
157166  0  0  1  0            999 V2000
  -30.5871  -14.7748   20.4571 C   0  0  0  0  0  0
  -30.4410  -12.4787   19.4629 C   0  0  0  0  0  0
  -29.5122  -12.5010   18.2291 C   0  0  0  0  0  0
  -28.0388  -12.3149   18.6478 C   0  0  0  0  0  0
  -27.6355  -13.2274   19.8378 C   0  0  2  0  0  0
  -28.6828  -13.1793   20.9700 C   0  0  0  0  0  0
  -25.2492  -13.8184   20.5702 C   0  0  0  0  0  0
  -24.1785  -13.0422   20.9213 C   0  0  0  0  0  0
  -24.6379  -11.6900   20.8737 C   0  0  0  0  0  0
  -23.9051  -10.4285   21.0402 C   0  0  0  0  0  0
  -24.3603   -9.4208   21.9184 C   0  0  0  0  0  0
  -23.6292   -8.2232   22.0743 C   0  0  0  0  0  0
  -22.4273   -8.0268   21.3536 C   0  0  0  0  0  0
  -21.9904   -9.0241   20.4640 C   0  0  0  0  0  0
  -22.7222  -10.2126   20.3059 C   0  0  0  0  0  0
  -21.6847   -6.0736   22.5282 C   0  0  0  0  0  0
  -21.4012   -6.5640   23.8219 C   0  0  0  0  0  0
  -21.3656   -5.6791   24.9178 C   0  0  0  0  0  0
  -21.6036   -4.3051   24.7228 C   0  0  0  0  0  0
  -21.8818   -3.8146   23.4349 C   0  0  0  0  0  0
  -21.9190   -4.6965   22.3406 C   0  0  0  0  0  0
  -22.7813  -13.5210   21.1872 C   0  0  0  0  0  0
  -22.1663   -4.2158   21.0982 F   0  0  0  0  0  0
  -21.5628   -3.4526   25.7739 F   0  0  0  0  0  0
  -29.9749  -13.5445   20.3766 N   0  0  0  0  0  0
  -26.2904  -12.9378   20.3239 N   0  0  0  0  0  0
  -25.9302  -11.6522   20.5720 N   0  0  0  0  0  0
  -22.0453  -12.8216   22.0432 N   0  0  0  0  0  0
  -25.4168  -15.1923   20.4144 N   0  0  0  0  0  0
  -31.7952  -14.8702   20.2197 O   0  0  0  0  0  0
  -21.6629   -6.8873   21.4243 O   0  0  0  0  0  0
  -22.3502  -14.5513   20.6704 O   0  0  0  0  0  0
  -24.6329  -31.8551   23.1960 C   0  0  0  0  0  0
  -25.9140  -32.4751   23.8323 C   0  0  1  0  0  0
  -27.2195  -27.2576   20.1304 C   0  0  0  0  0  0
  -25.5926  -33.8550   24.2249 N   0  0  0  0  0  0
  -23.4303  -30.4773   21.5401 C   0  0  2  0  0  0
  -24.8774  -28.9190   20.1138 C   0  0  0  0  0  0
  -22.7505  -29.4618   22.4906 C   0  0  0  0  0  0
  -18.0303  -28.1396   22.8503 C   0  0  0  0  0  0
  -24.1486  -36.7284   23.2639 C   0  0  0  0  0  0
  -25.9756  -30.7683   21.3747 C   0  0  0  0  0  0
  -26.0511  -29.3886   20.7183 C   0  0  0  0  0  0
  -27.2292  -28.5722   20.7095 C   0  0  0  0  0  0
  -26.0235  -26.8514   19.5047 C   0  0  0  0  0  0
  -24.8684  -27.6584   19.4958 C   0  0  0  0  0  0
  -23.6493  -29.8083   20.1580 C   0  0  0  0  0  0
  -25.4108  -36.3066   24.0329 C   0  0  1  0  0  0
  -20.5905  -28.3724   23.1272 C   0  0  2  0  0  0
  -20.6796  -26.9438   22.5416 C   0  0  0  0  0  0
  -19.5762  -26.6391   21.5231 C   0  0  0  0  0  0
  -18.1942  -26.7941   22.1643 C   0  0  0  0  0  0
  -19.1555  -28.8874   23.2887 C   0  0  0  0  0  0
  -18.9469  -30.1469   23.8912 C   0  0  0  0  0  0
  -17.6464  -30.6597   24.0563 C   0  0  0  0  0  0
  -25.9054  -34.9438   23.5095 C   0  0  0  0  0  0
  -16.5357  -29.9091   23.6326 C   0  0  0  0  0  0
  -16.7286  -28.6503   23.0366 C   0  0  0  0  0  0
  -26.4499  -31.6575   25.0717 C   0  0  0  0  0  0
  -25.3701  -31.3744   26.1422 C   0  0  0  0  0  0
  -27.0334  -30.2984   24.6207 C   0  0  0  0  0  0
  -27.6057  -32.4312   25.7493 C   0  0  0  0  0  0
  -27.5575  -37.1794   24.8462 C   0  0  0  0  0  0
  -21.4214  -29.3059   22.3642 N   0  0  0  0  0  0
  -26.4285  -37.3764   23.9410 N   0  0  0  0  0  0
  -24.6990  -31.0504   22.0943 N   0  0  0  0  0  0
  -23.4205  -28.8175   23.3017 O   0  0  0  0  0  0
  -28.3071  -26.3550   20.1260 O   0  0  0  0  0  0
  -26.5627  -34.8920   22.4665 O   0  0  0  0  0  0
  -23.5472  -32.1377   23.7238 O   0  0  0  0  0  0
  -30.5629  -19.9814   21.8619 C   0  0  0  0  0  0
  -29.4559  -18.5180   20.2692 C   0  0  0  0  0  0
  -30.9211  -17.5495   21.9577 C   0  0  0  0  0  0
  -29.6939  -19.8856   20.7477 C   0  0  0  0  0  0
  -31.1605  -18.8486   22.4523 C   0  0  0  0  0  0
  -30.0635  -17.3236   20.8611 C   0  0  0  0  0  0
  -28.6535  -23.5591   18.6866 C   0  0  0  0  0  0
  -29.2316  -21.2077   18.7234 C   0  0  0  0  0  0
  -28.5711  -23.6375   20.0309 C   0  0  0  0  0  0
  -28.9857  -22.3199   18.0045 C   0  0  0  0  0  0
  -28.8481  -22.3580   20.8159 C   0  0  0  0  0  0
  -28.1153  -24.9939   20.7481 C   0  0  0  0  0  0
  -29.2065  -21.1722   20.1307 N   0  0  0  0  0  0
  -32.0000  -19.0156   23.5519 N   0  0  0  0  0  0
  -29.7739  -15.9062   20.5000 N   0  0  0  0  0  0
  -28.7247  -22.3505   22.0451 O   0  0  0  0  0  0
  -29.0571  -22.2781   16.6697 O   0  0  0  0  0  0
  -31.4778  -12.6300   19.1554 H   0  0  0  0  0  0
  -30.4112  -11.5083   19.9599 H   0  0  0  0  0  0
  -29.8057  -11.7215   17.5254 H   0  0  0  0  0  0
  -29.6257  -13.4495   17.7020 H   0  0  0  0  0  0
  -27.9109  -11.2702   18.9312 H   0  0  0  0  0  0
  -27.3761  -12.4799   17.7982 H   0  0  0  0  0  0
  -27.6196  -14.2426   19.4412 H   0  0  0  0  0  0
  -28.7303  -12.1854   21.4177 H   0  0  0  0  0  0
  -28.4128  -13.8677   21.7728 H   0  0  0  0  0  0
  -25.2758   -9.5693   22.4753 H   0  0  0  0  0  0
  -24.0009   -7.4625   22.7460 H   0  0  0  0  0  0
  -21.0840   -8.8747   19.8958 H   0  0  0  0  0  0
  -22.3676  -10.9650   19.6158 H   0  0  0  0  0  0
  -21.2004   -7.6149   23.9729 H   0  0  0  0  0  0
  -21.1478   -6.0517   25.9085 H   0  0  0  0  0  0
  -22.0602   -2.7610   23.2839 H   0  0  0  0  0  0
  -22.4050  -11.9891   22.4868 H   0  0  0  0  0  0
  -21.1068  -13.1252   22.2605 H   0  0  0  0  0  0
  -24.6460  -15.8415   20.5329 H   0  0  0  0  0  0
  -26.2591  -15.6378   20.0749 H   0  0  0  0  0  0
  -26.7206  -32.5401   23.1073 H   0  0  0  0  0  0
  -25.0039  -33.9677   25.0372 H   0  0  0  0  0  0
  -22.7287  -31.3002   21.3909 H   0  0  0  0  0  0
  -23.3750  -35.9614   23.3291 H   0  0  0  0  0  0
  -24.3585  -36.8915   22.2056 H   0  0  0  0  0  0
  -23.7239  -37.6483   23.6668 H   0  0  0  0  0  0
  -26.1061  -31.5271   20.6019 H   0  0  0  0  0  0
  -26.8563  -30.8230   22.0037 H   0  0  0  0  0  0
  -28.1314  -28.9285   21.1858 H   0  0  0  0  0  0
  -25.9738  -25.8829   19.0269 H   0  0  0  0  0  0
  -23.9692  -27.2931   19.0184 H   0  0  0  0  0  0
  -23.7742  -30.5824   19.3994 H   0  0  0  0  0  0
  -22.7670  -29.2420   19.8547 H   0  0  0  0  0  0
  -25.1288  -36.1914   25.0820 H   0  0  0  0  0  0
  -21.0019  -28.3303   24.1382 H   0  0  0  0  0  0
  -20.5735  -26.2321   23.3622 H   0  0  0  0  0  0
  -21.6656  -26.7472   22.1182 H   0  0  0  0  0  0
  -19.6922  -25.6299   21.1263 H   0  0  0  0  0  0
  -19.6692  -27.3202   20.6760 H   0  0  0  0  0  0
  -17.4215  -26.6712   21.4033 H   0  0  0  0  0  0
  -18.0328  -26.0084   22.9035 H   0  0  0  0  0  0
  -19.7935  -30.7288   24.2299 H   0  0  0  0  0  0
  -17.5008  -31.6285   24.5157 H   0  0  0  0  0  0
  -15.5356  -30.2998   23.7626 H   0  0  0  0  0  0
  -15.8693  -28.0812   22.7083 H   0  0  0  0  0  0
  -24.5879  -30.7099   25.7736 H   0  0  0  0  0  0
  -24.8891  -32.2921   26.4811 H   0  0  0  0  0  0
  -25.7989  -30.8932   27.0220 H   0  0  0  0  0  0
  -26.2917  -29.6745   24.1208 H   0  0  0  0  0  0
  -27.3977  -29.7238   25.4734 H   0  0  0  0  0  0
  -27.8812  -30.4248   23.9473 H   0  0  0  0  0  0
  -27.2671  -33.3619   26.2056 H   0  0  0  0  0  0
  -28.3875  -32.6857   25.0325 H   0  0  0  0  0  0
  -28.0718  -31.8445   26.5419 H   0  0  0  0  0  0
  -28.2580  -38.0101   24.7507 H   0  0  0  0  0  0
  -28.1083  -36.2630   24.6284 H   0  0  0  0  0  0
  -27.2300  -37.1439   25.8867 H   0  0  0  0  0  0
  -20.9398  -29.8735   21.6810 H   0  0  0  0  0  0
  -26.0164  -38.2836   24.1416 H   0  0  0  0  0  0
  -30.8075  -20.9556   22.2617 H   0  0  0  0  0  0
  -28.7934  -18.3836   19.4255 H   0  0  0  0  0  0
  -31.3773  -16.7045   22.4539 H   0  0  0  0  0  0
  -28.4323  -24.4444   18.1055 H   0  0  0  0  0  0
  -29.5026  -20.2712   18.2571 H   0  0  0  0  0  0
  -28.6497  -25.0398   21.6962 H   0  0  0  0  0  0
  -27.0701  -24.8621   21.0298 H   0  0  0  0  0  0
  -32.3139  -19.9417   23.8256 H   0  0  0  0  0  0
  -32.6223  -18.2665   23.8417 H   0  0  0  0  0  0
  -28.7955  -15.7019   20.3711 H   0  0  0  0  0  0
  -28.8519  -23.1435   16.3362 H   0  0  0  0  0  0
  1 25  1  0  0  0
  1 30  2  0  0  0
  1 85  1  0  0  0
  2  3  1  0  0  0
  2 25  1  0  0  0
  2 88  1  0  0  0
  2 89  1  0  0  0
  3  4  1  0  0  0
  3 90  1  0  0  0
  3 91  1  0  0  0
  4  5  1  0  0  0
  4 92  1  0  0  0
  4 93  1  0  0  0
  5  6  1  0  0  0
  5 26  1  0  0  0
  5 94  1  0  0  0
  6 25  1  0  0  0
  6 95  1  0  0  0
  6 96  1  0  0  0
  7  8  2  0  0  0
  7 26  1  0  0  0
  7 29  1  0  0  0
  8  9  1  0  0  0
  8 22  1  0  0  0
  9 10  1  0  0  0
  9 27  2  0  0  0
 10 11  2  0  0  0
 10 15  1  0  0  0
 11 12  1  0  0  0
 11 97  1  0  0  0
 12 13  2  0  0  0
 12 98  1  0  0  0
 13 14  1  0  0  0
 13 31  1  0  0  0
 14 15  2  0  0  0
 14 99  1  0  0  0
 15100  1  0  0  0
 16 17  2  0  0  0
 16 21  1  0  0  0
 16 31  1  0  0  0
 17 18  1  0  0  0
 17101  1  0  0  0
 18 19  2  0  0  0
 18102  1  0  0  0
 19 20  1  0  0  0
 19 24  1  0  0  0
 20 21  2  0  0  0
 20103  1  0  0  0
 21 23  1  0  0  0
 22 28  1  0  0  0
 22 32  2  0  0  0
 26 27  1  0  0  0
 28104  1  0  0  0
 28105  1  0  0  0
 29106  1  0  0  0
 29107  1  0  0  0
 33 34  1  0  0  0
 33 66  1  0  0  0
 33 70  2  0  0  0
 34 36  1  0  0  0
 34 59  1  0  0  0
 34108  1  0  0  0
 35 44  2  0  0  0
 35 45  1  0  0  0
 35 68  1  0  0  0
 36 56  1  0  0  0
 36109  1  0  0  0
 37 39  1  0  0  0
 37 47  1  0  0  0
 37 66  1  0  0  0
 37110  1  0  0  0
 38 43  2  0  0  0
 38 46  1  0  0  0
 38 47  1  0  0  0
 39 64  1  0  0  0
 39 67  2  0  0  0
 40 52  1  0  0  0
 40 53  2  0  0  0
 40 58  1  0  0  0
 41111  1  0  0  0
 41112  1  0  0  0
 41113  1  0  0  0
 41 48  1  0  0  0
 42 43  1  0  0  0
 42 66  1  0  0  0
 42114  1  0  0  0
 42115  1  0  0  0
 43 44  1  0  0  0
 44116  1  0  0  0
 45 46  2  0  0  0
 45117  1  0  0  0
 46118  1  0  0  0
 47119  1  0  0  0
 47120  1  0  0  0
 48 56  1  0  0  0
 48 65  1  0  0  0
 48121  1  0  0  0
 49 50  1  0  0  0
 49 53  1  0  0  0
 49 64  1  0  0  0
 49122  1  0  0  0
 50 51  1  0  0  0
 50123  1  0  0  0
 50124  1  0  0  0
 51 52  1  0  0  0
 51125  1  0  0  0
 51126  1  0  0  0
 52127  1  0  0  0
 52128  1  0  0  0
 53 54  1  0  0  0
 54 55  2  0  0  0
 54129  1  0  0  0
 55 57  1  0  0  0
 55130  1  0  0  0
 56 69  2  0  0  0
 57 58  2  0  0  0
 57131  1  0  0  0
 58132  1  0  0  0
 59 60  1  0  0  0
 59 61  1  0  0  0
 59 62  1  0  0  0
 60133  1  0  0  0
 60134  1  0  0  0
 60135  1  0  0  0
 61136  1  0  0  0
 61137  1  0  0  0
 61138  1  0  0  0
 62139  1  0  0  0
 62140  1  0  0  0
 62141  1  0  0  0
 63 65  1  0  0  0
 63142  1  0  0  0
 63143  1  0  0  0
 63144  1  0  0  0
 64145  1  0  0  0
 65146  1  0  0  0
 68 82  1  0  0  0
 71 74  2  0  0  0
 71 75  1  0  0  0
 71147  1  0  0  0
 72 74  1  0  0  0
 72 76  2  0  0  0
 72148  1  0  0  0
 73 75  2  0  0  0
 73 76  1  0  0  0
 73149  1  0  0  0
 74 83  1  0  0  0
 75 84  1  0  0  0
 76 85  1  0  0  0
 77 79  2  0  0  0
 77 80  1  0  0  0
 77150  1  0  0  0
 78 80  2  0  0  0
 78 83  1  0  0  0
 78151  1  0  0  0
 79 81  1  0  0  0
 79 82  1  0  0  0
 80 87  1  0  0  0
 81 83  1  0  0  0
 81 86  2  0  0  0
 82152  1  0  0  0
 82153  1  0  0  0
 84154  1  0  0  0
 84155  1  0  0  0
 85156  1  0  0  0
 87157  1  0  0  0
M  ISO  4   1 100  68 101  82 101  85 100
M  END
> <chiral flag>
0

> <version>
0

> <s_m_source_file>
/data/baiqing/PycharmProjects/Reinvent-master-3.2/result/LINK_invent/BTK/process_docking_weight1_custom_product_contain_oxygen_bond_distance_aromatic_linkinvent_7_9_3/rearranged_h_0086.sdf

> <i_m_source_file_index>
53

> <r_mmod_Potential_Energy-OPLS-2005>
274.566162109375

> <r_mmod_Stretch_Energy-OPLS-2005>
146.205825805664

> <r_mmod_Bend_Energy-OPLS-2005>
164.689422607422

> <r_mmod_Torsional_Energy-OPLS-2005>
278.048309326172

> <r_mmod_Improper_Torsional_Energy-OPLS-2005>
10.0312747955322

> <r_mmod_Van_der_Waal_Energy-OPLS-2005>
158.777206420898

> <r_mmod_Electrostatic_Energy-OPLS-2005>
-334.05859375

> <r_mmod_Solvation_Energy-OPLS-2005>
-245.242721557617

> <b_mmod_Minimization_Converged-OPLS-2005>
0

> <r_mmod_RMS_Derivative-OPLS-2005>
2.01923561096191

$$$$
53
                    3D
 Structure written by MMmdl.
152161  0  0  1  0            999 V2000
  -30.6002  -14.6933   20.4889 C   0  0  0  0  0  0
  -30.4455  -12.4258   19.4556 C   0  0  0  0  0  0
  -29.5099  -12.5105   18.2272 C   0  0  0  0  0  0
  -28.0350  -12.3361   18.6416 C   0  0  0  0  0  0
  -27.6517  -13.2169   19.8601 C   0  0  2  0  0  0
  -28.6996  -13.0942   20.9903 C   0  0  0  0  0  0
  -25.2561  -13.8162   20.5679 C   0  0  0  0  0  0
  -24.1835  -13.0435   20.9209 C   0  0  0  0  0  0
  -24.6402  -11.6904   20.8758 C   0  0  0  0  0  0
  -23.9068  -10.4292   21.0412 C   0  0  0  0  0  0
  -24.3620   -9.4204   21.9182 C   0  0  0  0  0  0
  -23.6296   -8.2240   22.0748 C   0  0  0  0  0  0
  -22.4277   -8.0282   21.3542 C   0  0  0  0  0  0
  -21.9913   -9.0256   20.4644 C   0  0  0  0  0  0
  -22.7243  -10.2136   20.3057 C   0  0  0  0  0  0
  -21.6851   -6.0737   22.5279 C   0  0  0  0  0  0
  -21.4014   -6.5641   23.8213 C   0  0  0  0  0  0
  -21.3658   -5.6791   24.9172 C   0  0  0  0  0  0
  -21.6046   -4.3055   24.7222 C   0  0  0  0  0  0
  -21.8818   -3.8148   23.4343 C   0  0  0  0  0  0
  -21.9194   -4.6966   22.3402 C   0  0  0  0  0  0
  -22.7856  -13.5232   21.1863 C   0  0  0  0  0  0
  -22.1662   -4.2153   21.0981 F   0  0  0  0  0  0
  -21.5628   -3.4540   25.7735 F   0  0  0  0  0  0
  -30.0093  -13.4540   20.4229 N   0  0  0  0  0  0
  -26.2986  -12.9342   20.3310 N   0  0  0  0  0  0
  -25.9331  -11.6500   20.5763 N   0  0  0  0  0  0
  -22.0497  -12.8226   22.0417 N   0  0  0  0  0  0
  -25.4269  -15.1878   20.4045 N   0  0  0  0  0  0
  -31.7708  -14.8601   20.1338 O   0  0  0  0  0  0
  -21.6641   -6.8879   21.4237 O   0  0  0  0  0  0
  -22.3546  -14.5538   20.6703 O   0  0  0  0  0  0
  -24.6300  -31.8589   23.2029 C   0  0  0  0  0  0
  -25.9137  -32.4771   23.8361 C   0  0  1  0  0  0
  -27.2193  -27.2817   20.1064 C   0  0  0  0  0  0
  -25.5939  -33.8572   24.2278 N   0  0  0  0  0  0
  -23.4245  -30.4866   21.5466 C   0  0  2  0  0  0
  -24.8693  -28.9434   20.1121 C   0  0  0  0  0  0
  -22.7495  -29.4636   22.4924 C   0  0  0  0  0  0
  -18.0295  -28.1397   22.8484 C   0  0  0  0  0  0
  -24.1492  -36.7291   23.2632 C   0  0  0  0  0  0
  -25.9722  -30.7752   21.3845 C   0  0  0  0  0  0
  -26.0421  -29.4009   20.7246 C   0  0  0  0  0  0
  -27.2151  -28.5797   20.7198 C   0  0  0  0  0  0
  -26.0172  -26.9033   19.4560 C   0  0  0  0  0  0
  -24.8609  -27.6999   19.4719 C   0  0  0  0  0  0
  -23.6410  -29.8279   20.1610 C   0  0  0  0  0  0
  -25.4114  -36.3076   24.0325 C   0  0  1  0  0  0
  -20.5901  -28.3709   23.1272 C   0  0  2  0  0  0
  -20.6791  -26.9430   22.5407 C   0  0  0  0  0  0
  -19.5761  -26.6392   21.5217 C   0  0  0  0  0  0
  -18.1941  -26.7938   22.1629 C   0  0  0  0  0  0
  -19.1550  -28.8867   23.2873 C   0  0  0  0  0  0
  -18.9470  -30.1470   23.8890 C   0  0  0  0  0  0
  -17.6467  -30.6593   24.0571 C   0  0  0  0  0  0
  -25.9057  -34.9447   23.5100 C   0  0  0  0  0  0
  -16.5359  -29.9090   23.6336 C   0  0  0  0  0  0
  -16.7282  -28.6514   23.0344 C   0  0  0  0  0  0
  -26.4507  -31.6577   25.0733 C   0  0  0  0  0  0
  -25.3735  -31.3726   26.1452 C   0  0  0  0  0  0
  -27.0350  -30.2990   24.6216 C   0  0  0  0  0  0
  -27.6070  -32.4310   25.7501 C   0  0  0  0  0  0
  -27.5587  -37.1791   24.8454 C   0  0  0  0  0  0
  -21.4206  -29.3056   22.3657 N   0  0  0  0  0  0
  -26.4286  -37.3780   23.9420 N   0  0  0  0  0  0
  -24.6946  -31.0571   22.1003 N   0  0  0  0  0  0
  -23.4205  -28.8162   23.3006 O   0  0  0  0  0  0
  -28.3327  -26.4058   20.1523 O   0  0  0  0  0  0
  -26.5625  -34.8917   22.4668 O   0  0  0  0  0  0
  -23.5453  -32.1409   23.7331 O   0  0  0  0  0  0
  -28.5298  -19.3627   20.5690 C   0  0  0  0  0  0
  -28.5905  -17.9365   20.6310 C   0  0  0  0  0  0
  -30.9814  -18.0155   20.6302 C   0  0  0  0  0  0
  -29.6926  -20.1841   20.5612 C   0  0  0  0  0  0
  -29.8115  -17.2070   20.6645 C   0  0  0  0  0  0
  -30.9248  -19.4507   20.5901 C   0  0  0  0  0  0
  -28.9434  -23.9239   20.3485 C   0  0  0  0  0  0
  -30.1370  -23.9347   21.1626 C   0  0  0  0  0  0
  -28.6701  -22.5025   20.0187 C   0  0  0  0  0  0
  -28.1863  -25.0033   19.9303 C   0  0  0  0  0  0
  -30.6428  -22.4950   21.2693 C   0  0  0  0  0  0
  -29.6238  -21.6746   20.5801 N   0  0  0  0  0  0
  -29.7516  -15.7370   20.7855 N   0  0  0  0  0  0
  -30.6942  -24.9057   21.6866 O   0  0  0  0  0  0
  -27.7260  -22.0998   19.3285 O   0  0  0  0  0  0
  -32.1006  -20.1220   20.5736 F   0  0  0  0  0  0
  -31.4831  -12.5688   19.1487 H   0  0  0  0  0  0
  -30.4010  -11.4349   19.9095 H   0  0  0  0  0  0
  -29.7822  -11.7522   17.4922 H   0  0  0  0  0  0
  -29.6377  -13.4746   17.7321 H   0  0  0  0  0  0
  -27.8835  -11.2839   18.8851 H   0  0  0  0  0  0
  -27.3763  -12.5489   17.7982 H   0  0  0  0  0  0
  -27.6604  -14.2467   19.5038 H   0  0  0  0  0  0
  -28.7264  -12.0765   21.3824 H   0  0  0  0  0  0
  -28.4390  -13.7318   21.8369 H   0  0  0  0  0  0
  -25.2764   -9.5682   22.4760 H   0  0  0  0  0  0
  -24.0006   -7.4629   22.7466 H   0  0  0  0  0  0
  -21.0843   -8.8777   19.8951 H   0  0  0  0  0  0
  -22.3699  -10.9678   19.6175 H   0  0  0  0  0  0
  -21.2005   -7.6150   23.9717 H   0  0  0  0  0  0
  -21.1481   -6.0522   25.9076 H   0  0  0  0  0  0
  -22.0600   -2.7612   23.2842 H   0  0  0  0  0  0
  -22.4115  -11.9891   22.4810 H   0  0  0  0  0  0
  -21.1111  -13.1245   22.2614 H   0  0  0  0  0  0
  -24.6511  -15.8351   20.4939 H   0  0  0  0  0  0
  -26.2508  -15.6133   20.0017 H   0  0  0  0  0  0
  -26.7202  -32.5428   23.1106 H   0  0  0  0  0  0
  -25.0085  -33.9720   25.0419 H   0  0  0  0  0  0
  -22.7208  -31.3095   21.4058 H   0  0  0  0  0  0
  -23.3758  -35.9620   23.3275 H   0  0  0  0  0  0
  -24.3592  -36.8928   22.2054 H   0  0  0  0  0  0
  -23.7239  -37.6484   23.6668 H   0  0  0  0  0  0
  -26.1133  -31.5383   20.6178 H   0  0  0  0  0  0
  -26.8495  -30.8207   22.0180 H   0  0  0  0  0  0
  -28.1130  -28.9248   21.2134 H   0  0  0  0  0  0
  -25.9046  -25.9796   18.9168 H   0  0  0  0  0  0
  -23.9654  -27.3476   18.9785 H   0  0  0  0  0  0
  -23.7651  -30.6077   19.4092 H   0  0  0  0  0  0
  -22.7603  -29.2618   19.8530 H   0  0  0  0  0  0
  -25.1291  -36.1921   25.0819 H   0  0  0  0  0  0
  -20.9998  -28.3287   24.1391 H   0  0  0  0  0  0
  -20.5717  -26.2315   23.3612 H   0  0  0  0  0  0
  -21.6657  -26.7471   22.1186 H   0  0  0  0  0  0
  -19.6924  -25.6301   21.1247 H   0  0  0  0  0  0
  -19.6694  -27.3208   20.6756 H   0  0  0  0  0  0
  -17.4213  -26.6686   21.4031 H   0  0  0  0  0  0
  -18.0340  -26.0085   22.9033 H   0  0  0  0  0  0
  -19.7945  -30.7297   24.2247 H   0  0  0  0  0  0
  -17.5019  -31.6274   24.5176 H   0  0  0  0  0  0
  -15.5359  -30.2990   23.7669 H   0  0  0  0  0  0
  -15.8685  -28.0842   22.7044 H   0  0  0  0  0  0
  -24.5919  -30.7067   25.7770 H   0  0  0  0  0  0
  -24.8926  -32.2900   26.4861 H   0  0  0  0  0  0
  -25.8053  -30.8910   27.0235 H   0  0  0  0  0  0
  -26.2935  -29.6730   24.1236 H   0  0  0  0  0  0
  -27.4020  -29.7255   25.4737 H   0  0  0  0  0  0
  -27.8824  -30.4247   23.9473 H   0  0  0  0  0  0
  -27.2683  -33.3611   26.2077 H   0  0  0  0  0  0
  -28.3884  -32.6857   25.0327 H   0  0  0  0  0  0
  -28.0735  -31.8430   26.5415 H   0  0  0  0  0  0
  -28.2565  -38.0127   24.7559 H   0  0  0  0  0  0
  -28.1124  -36.2663   24.6202 H   0  0  0  0  0  0
  -27.2320  -37.1342   25.8857 H   0  0  0  0  0  0
  -20.9388  -29.8770   21.6857 H   0  0  0  0  0  0
  -26.0157  -38.2844   24.1455 H   0  0  0  0  0  0
  -27.5525  -19.8241   20.5620 H   0  0  0  0  0  0
  -27.6551  -17.3958   20.6619 H   0  0  0  0  0  0
  -31.9525  -17.5429   20.6581 H   0  0  0  0  0  0
  -27.3672  -24.7650   19.2805 H   0  0  0  0  0  0
  -30.7457  -22.1995   22.3134 H   0  0  0  0  0  0
  -31.6129  -22.4309   20.7784 H   0  0  0  0  0  0
  -28.8342  -15.3914   21.0214 H   0  0  0  0  0  0
  1 25  1  0  0  0
  1 30  2  0  0  0
  1 83  1  0  0  0
  2  3  1  0  0  0
  2 25  1  0  0  0
  2 87  1  0  0  0
  2 88  1  0  0  0
  3  4  1  0  0  0
  3 89  1  0  0  0
  3 90  1  0  0  0
  4  5  1  0  0  0
  4 91  1  0  0  0
  4 92  1  0  0  0
  5  6  1  0  0  0
  5 26  1  0  0  0
  5 93  1  0  0  0
  6 25  1  0  0  0
  6 94  1  0  0  0
  6 95  1  0  0  0
  7  8  2  0  0  0
  7 26  1  0  0  0
  7 29  1  0  0  0
  8  9  1  0  0  0
  8 22  1  0  0  0
  9 10  1  0  0  0
  9 27  2  0  0  0
 10 11  2  0  0  0
 10 15  1  0  0  0
 11 12  1  0  0  0
 11 96  1  0  0  0
 12 13  2  0  0  0
 12 97  1  0  0  0
 13 14  1  0  0  0
 13 31  1  0  0  0
 14 15  2  0  0  0
 14 98  1  0  0  0
 15 99  1  0  0  0
 16 17  2  0  0  0
 16 21  1  0  0  0
 16 31  1  0  0  0
 17 18  1  0  0  0
 17100  1  0  0  0
 18 19  2  0  0  0
 18101  1  0  0  0
 19 20  1  0  0  0
 19 24  1  0  0  0
 20 21  2  0  0  0
 20102  1  0  0  0
 21 23  1  0  0  0
 22 28  1  0  0  0
 22 32  2  0  0  0
 26 27  1  0  0  0
 28103  1  0  0  0
 28104  1  0  0  0
 29105  1  0  0  0
 29106  1  0  0  0
 33 34  1  0  0  0
 33 66  1  0  0  0
 33 70  2  0  0  0
 34 36  1  0  0  0
 34 59  1  0  0  0
 34107  1  0  0  0
 35 44  2  0  0  0
 35 45  1  0  0  0
 35 68  1  0  0  0
 36 56  1  0  0  0
 36108  1  0  0  0
 37 39  1  0  0  0
 37 47  1  0  0  0
 37 66  1  0  0  0
 37109  1  0  0  0
 38 43  2  0  0  0
 38 46  1  0  0  0
 38 47  1  0  0  0
 39 64  1  0  0  0
 39 67  2  0  0  0
 40 52  1  0  0  0
 40 53  2  0  0  0
 40 58  1  0  0  0
 41110  1  0  0  0
 41111  1  0  0  0
 41112  1  0  0  0
 41 48  1  0  0  0
 42 43  1  0  0  0
 42 66  1  0  0  0
 42113  1  0  0  0
 42114  1  0  0  0
 43 44  1  0  0  0
 44115  1  0  0  0
 45 46  2  0  0  0
 45116  1  0  0  0
 46117  1  0  0  0
 47118  1  0  0  0
 47119  1  0  0  0
 48 56  1  0  0  0
 48 65  1  0  0  0
 48120  1  0  0  0
 49 50  1  0  0  0
 49 53  1  0  0  0
 49 64  1  0  0  0
 49121  1  0  0  0
 50 51  1  0  0  0
 50122  1  0  0  0
 50123  1  0  0  0
 51 52  1  0  0  0
 51124  1  0  0  0
 51125  1  0  0  0
 52126  1  0  0  0
 52127  1  0  0  0
 53 54  1  0  0  0
 54 55  2  0  0  0
 54128  1  0  0  0
 55 57  1  0  0  0
 55129  1  0  0  0
 56 69  2  0  0  0
 57 58  2  0  0  0
 57130  1  0  0  0
 58131  1  0  0  0
 59 60  1  0  0  0
 59 61  1  0  0  0
 59 62  1  0  0  0
 60132  1  0  0  0
 60133  1  0  0  0
 60134  1  0  0  0
 61135  1  0  0  0
 61136  1  0  0  0
 61137  1  0  0  0
 62138  1  0  0  0
 62139  1  0  0  0
 62140  1  0  0  0
 63 65  1  0  0  0
 63141  1  0  0  0
 63142  1  0  0  0
 63143  1  0  0  0
 64144  1  0  0  0
 65145  1  0  0  0
 68 80  1  0  0  0
 71 72  2  0  0  0
 71 74  1  0  0  0
 71146  1  0  0  0
 72 75  1  0  0  0
 72147  1  0  0  0
 73 75  2  0  0  0
 73 76  1  0  0  0
 73148  1  0  0  0
 74 76  2  0  0  0
 74 82  1  0  0  0
 75 83  1  0  0  0
 76 86  1  0  0  0
 77 78  1  0  0  0
 77 79  1  0  0  0
 77 80  2  0  0  0
 78 81  1  0  0  0
 78 84  2  0  0  0
 79 82  1  0  0  0
 79 85  2  0  0  0
 80149  1  0  0  0
 81 82  1  0  0  0
 81150  1  0  0  0
 81151  1  0  0  0
 83152  1  0  0  0
M  ISO  4   1 100  68 101  80 101  83 100
M  END
> <chiral flag>
0

> <version>
0

> <s_m_source_file>
/data/baiqing/PycharmProjects/Reinvent-master-3.2/result/LINK_invent/BTK/process_docking_weight1_custom_product_contain_oxygen_bond_distance_aromatic_linkinvent_7_9_3/rearranged_h_0086.sdf

> <i_m_source_file_index>
54

> <r_mmod_Potential_Energy-OPLS-2005>
161.361877441406

> <r_mmod_Stretch_Energy-OPLS-2005>
97.3271484375

> <r_mmod_Bend_Energy-OPLS-2005>
201.855087280273

> <r_mmod_Torsional_Energy-OPLS-2005>
252.088851928711

> <r_mmod_Improper_Torsional_Energy-OPLS-2005>
5.01189279556274

> <r_mmod_Van_der_Waal_Energy-OPLS-2005>
145.238418579102

> <r_mmod_Electrostatic_Energy-OPLS-2005>
-373.483062744141

> <r_mmod_Solvation_Energy-OPLS-2005>
-233.745376586914

> <b_mmod_Minimization_Converged-OPLS-2005>
0

> <r_mmod_RMS_Derivative-OPLS-2005>
0.948245584964752

$$$$
54
                    3D
 Structure written by MMmdl.
153162  0  0  1  0            999 V2000
  -30.5983  -14.6959   20.4870 C   0  0  0  0  0  0
  -30.4467  -12.4280   19.4574 C   0  0  0  0  0  0
  -29.5122  -12.5203   18.2289 C   0  0  0  0  0  0
  -28.0367  -12.3452   18.6416 C   0  0  0  0  0  0
  -27.6528  -13.2202   19.8642 C   0  0  2  0  0  0
  -28.7008  -13.0918   20.9939 C   0  0  0  0  0  0
  -25.2544  -13.8148   20.5668 C   0  0  0  0  0  0
  -24.1817  -13.0417   20.9175 C   0  0  0  0  0  0
  -24.6401  -11.6895   20.8739 C   0  0  0  0  0  0
  -23.9069  -10.4282   21.0404 C   0  0  0  0  0  0
  -24.3616   -9.4203   21.9187 C   0  0  0  0  0  0
  -23.6290   -8.2242   22.0755 C   0  0  0  0  0  0
  -22.4276   -8.0279   21.3542 C   0  0  0  0  0  0
  -21.9911   -9.0250   20.4645 C   0  0  0  0  0  0
  -22.7240  -10.2126   20.3054 C   0  0  0  0  0  0
  -21.6850   -6.0736   22.5281 C   0  0  0  0  0  0
  -21.4012   -6.5640   23.8213 C   0  0  0  0  0  0
  -21.3663   -5.6793   24.9174 C   0  0  0  0  0  0
  -21.6046   -4.3055   24.7225 C   0  0  0  0  0  0
  -21.8819   -3.8147   23.4345 C   0  0  0  0  0  0
  -21.9191   -4.6964   22.3403 C   0  0  0  0  0  0
  -22.7842  -13.5224   21.1837 C   0  0  0  0  0  0
  -22.1659   -4.2154   21.0981 F   0  0  0  0  0  0
  -21.5632   -3.4539   25.7737 F   0  0  0  0  0  0
  -30.0111  -13.4540   20.4285 N   0  0  0  0  0  0
  -26.2995  -12.9346   20.3340 N   0  0  0  0  0  0
  -25.9338  -11.6499   20.5774 N   0  0  0  0  0  0
  -22.0478  -12.8227   22.0392 N   0  0  0  0  0  0
  -25.4207  -15.1861   20.4062 N   0  0  0  0  0  0
  -31.7619  -14.8650   20.1104 O   0  0  0  0  0  0
  -21.6636   -6.8877   21.4241 O   0  0  0  0  0  0
  -22.3535  -14.5539   20.6696 O   0  0  0  0  0  0
  -24.6286  -31.8575   23.2007 C   0  0  0  0  0  0
  -25.9125  -32.4767   23.8349 C   0  0  1  0  0  0
  -27.2322  -27.3004   20.1301 C   0  0  0  0  0  0
  -25.5936  -33.8570   24.2280 N   0  0  0  0  0  0
  -23.4250  -30.4782   21.5427 C   0  0  2  0  0  0
  -24.8763  -28.9274   20.1130 C   0  0  0  0  0  0
  -22.7491  -29.4609   22.4930 C   0  0  0  0  0  0
  -18.0288  -28.1395   22.8489 C   0  0  0  0  0  0
  -24.1489  -36.7281   23.2638 C   0  0  0  0  0  0
  -25.9666  -30.7821   21.3751 C   0  0  0  0  0  0
  -26.0444  -29.4057   20.7221 C   0  0  0  0  0  0
  -27.2271  -28.6037   20.7211 C   0  0  0  0  0  0
  -26.0445  -26.8784   19.4948 C   0  0  0  0  0  0
  -24.8786  -27.6690   19.4897 C   0  0  0  0  0  0
  -23.6441  -29.8094   20.1592 C   0  0  0  0  0  0
  -25.4118  -36.3076   24.0328 C   0  0  1  0  0  0
  -20.5891  -28.3699   23.1281 C   0  0  2  0  0  0
  -20.6776  -26.9416   22.5418 C   0  0  0  0  0  0
  -19.5750  -26.6389   21.5221 C   0  0  0  0  0  0
  -18.1926  -26.7944   22.1618 C   0  0  0  0  0  0
  -19.1541  -28.8865   23.2881 C   0  0  0  0  0  0
  -18.9462  -30.1469   23.8895 C   0  0  0  0  0  0
  -17.6460  -30.6595   24.0567 C   0  0  0  0  0  0
  -25.9055  -34.9443   23.5107 C   0  0  0  0  0  0
  -16.5352  -29.9089   23.6334 C   0  0  0  0  0  0
  -16.7274  -28.6508   23.0353 C   0  0  0  0  0  0
  -26.4503  -31.6576   25.0719 C   0  0  0  0  0  0
  -25.3736  -31.3703   26.1442 C   0  0  0  0  0  0
  -27.0342  -30.2997   24.6179 C   0  0  0  0  0  0
  -27.6076  -32.4296   25.7486 C   0  0  0  0  0  0
  -27.5585  -37.1795   24.8462 C   0  0  0  0  0  0
  -21.4200  -29.3048   22.3672 N   0  0  0  0  0  0
  -26.4292  -37.3775   23.9412 N   0  0  0  0  0  0
  -24.6920  -31.0566   22.0967 N   0  0  0  0  0  0
  -23.4198  -28.8154   23.3029 O   0  0  0  0  0  0
  -28.3299  -26.4211   20.1444 O   0  0  0  0  0  0
  -26.5622  -34.8914   22.4673 O   0  0  0  0  0  0
  -23.5442  -32.1381   23.7319 O   0  0  0  0  0  0
  -30.7401  -19.4487   20.1513 C   0  0  0  0  0  0
  -30.8678  -18.0227   20.2700 C   0  0  0  0  0  0
  -29.5279  -20.1697   20.4136 C   0  0  0  0  0  0
  -29.7765  -17.2023   20.6647 C   0  0  0  0  0  0
  -28.4357  -19.3272   20.7890 C   0  0  0  0  0  0
  -28.5685  -17.9071   20.9201 C   0  0  0  0  0  0
  -28.8560  -23.9473   20.2531 C   0  0  0  0  0  0
  -28.5609  -22.5822   20.7636 C   0  0  0  0  0  0
  -28.1171  -25.0785   20.5511 C   0  0  0  0  0  0
  -30.0761  -23.8636   19.3875 C   0  0  0  0  0  0
  -30.4615  -22.3666   19.4430 C   0  0  0  0  0  0
  -29.4464  -21.6561   20.2407 N   0  0  0  0  0  0
  -29.7640  -15.7348   20.8320 N   0  0  0  0  0  0
  -27.6754  -22.3258   21.5834 O   0  0  0  0  0  0
  -27.2049  -19.8505   20.9927 F   0  0  0  0  0  0
  -27.4802  -17.1888   21.2880 F   0  0  0  0  0  0
  -31.4851  -12.5682   19.1534 H   0  0  0  0  0  0
  -30.3992  -11.4341   19.9062 H   0  0  0  0  0  0
  -29.7857  -11.7670   17.4893 H   0  0  0  0  0  0
  -29.6426  -13.4873   17.7400 H   0  0  0  0  0  0
  -27.8845  -11.2916   18.8795 H   0  0  0  0  0  0
  -27.3796  -12.5641   17.7989 H   0  0  0  0  0  0
  -27.6629  -14.2535   19.5159 H   0  0  0  0  0  0
  -28.7264  -12.0715   21.3798 H   0  0  0  0  0  0
  -28.4394  -13.7230   21.8447 H   0  0  0  0  0  0
  -25.2757   -9.5683   22.4769 H   0  0  0  0  0  0
  -23.9997   -7.4637   22.7478 H   0  0  0  0  0  0
  -21.0841   -8.8764   19.8952 H   0  0  0  0  0  0
  -22.3698  -10.9663   19.6163 H   0  0  0  0  0  0
  -21.1999   -7.6146   23.9721 H   0  0  0  0  0  0
  -21.1486   -6.0519   25.9078 H   0  0  0  0  0  0
  -22.0597   -2.7611   23.2840 H   0  0  0  0  0  0
  -22.4077  -11.9877   22.4779 H   0  0  0  0  0  0
  -21.1099  -13.1264   22.2592 H   0  0  0  0  0  0
  -24.6551  -15.8369   20.5359 H   0  0  0  0  0  0
  -26.2832  -15.6440   20.1423 H   0  0  0  0  0  0
  -26.7197  -32.5439   23.1101 H   0  0  0  0  0  0
  -25.0111  -33.9716   25.0442 H   0  0  0  0  0  0
  -22.7205  -31.2993   21.3950 H   0  0  0  0  0  0
  -23.3765  -35.9599   23.3287 H   0  0  0  0  0  0
  -24.3584  -36.8914   22.2055 H   0  0  0  0  0  0
  -23.7220  -37.6469   23.6670 H   0  0  0  0  0  0
  -26.0984  -31.5424   20.6038 H   0  0  0  0  0  0
  -26.8463  -30.8354   22.0049 H   0  0  0  0  0  0
  -28.1248  -28.9651   21.2031 H   0  0  0  0  0  0
  -26.0122  -25.9106   19.0147 H   0  0  0  0  0  0
  -23.9851  -27.2972   19.0070 H   0  0  0  0  0  0
  -23.7664  -30.5845   19.4013 H   0  0  0  0  0  0
  -22.7642  -29.2387   19.8562 H   0  0  0  0  0  0
  -25.1299  -36.1926   25.0820 H   0  0  0  0  0  0
  -20.9983  -28.3276   24.1401 H   0  0  0  0  0  0
  -20.5677  -26.2312   23.3624 H   0  0  0  0  0  0
  -21.6643  -26.7443   22.1207 H   0  0  0  0  0  0
  -19.6907  -25.6297   21.1254 H   0  0  0  0  0  0
  -19.6697  -27.3199   20.6751 H   0  0  0  0  0  0
  -17.4210  -26.6728   21.4004 H   0  0  0  0  0  0
  -18.0292  -26.0073   22.8992 H   0  0  0  0  0  0
  -19.7936  -30.7295   24.2258 H   0  0  0  0  0  0
  -17.5006  -31.6273   24.5167 H   0  0  0  0  0  0
  -15.5350  -30.2990   23.7654 H   0  0  0  0  0  0
  -15.8675  -28.0826   22.7067 H   0  0  0  0  0  0
  -24.5962  -30.6986   25.7780 H   0  0  0  0  0  0
  -24.8863  -32.2849   26.4829 H   0  0  0  0  0  0
  -25.8070  -30.8935   27.0243 H   0  0  0  0  0  0
  -26.2910  -29.6743   24.1218 H   0  0  0  0  0  0
  -27.4047  -29.7259   25.4685 H   0  0  0  0  0  0
  -27.8776  -30.4279   23.9391 H   0  0  0  0  0  0
  -27.2723  -33.3621   26.2036 H   0  0  0  0  0  0
  -28.3902  -32.6804   25.0311 H   0  0  0  0  0  0
  -28.0721  -31.8422   26.5418 H   0  0  0  0  0  0
  -28.2591  -38.0105   24.7529 H   0  0  0  0  0  0
  -28.1089  -36.2637   24.6257 H   0  0  0  0  0  0
  -27.2307  -37.1401   25.8866 H   0  0  0  0  0  0
  -20.9385  -29.8777   21.6881 H   0  0  0  0  0  0
  -26.0169  -38.2844   24.1433 H   0  0  0  0  0  0
  -31.6230  -19.9898   19.8451 H   0  0  0  0  0  0
  -31.8239  -17.5677   20.0522 H   0  0  0  0  0  0
  -27.2527  -25.0053   21.1986 H   0  0  0  0  0  0
  -30.8686  -24.5020   19.7805 H   0  0  0  0  0  0
  -29.8406  -24.1837   18.3718 H   0  0  0  0  0  0
  -31.4416  -22.2555   19.9088 H   0  0  0  0  0  0
  -30.5190  -21.9413   18.4400 H   0  0  0  0  0  0
  -28.8716  -15.3931   21.1542 H   0  0  0  0  0  0
  1 25  1  0  0  0
  1 30  2  0  0  0
  1 83  1  0  0  0
  2  3  1  0  0  0
  2 25  1  0  0  0
  2 87  1  0  0  0
  2 88  1  0  0  0
  3  4  1  0  0  0
  3 89  1  0  0  0
  3 90  1  0  0  0
  4  5  1  0  0  0
  4 91  1  0  0  0
  4 92  1  0  0  0
  5  6  1  0  0  0
  5 26  1  0  0  0
  5 93  1  0  0  0
  6 25  1  0  0  0
  6 94  1  0  0  0
  6 95  1  0  0  0
  7  8  2  0  0  0
  7 26  1  0  0  0
  7 29  1  0  0  0
  8  9  1  0  0  0
  8 22  1  0  0  0
  9 10  1  0  0  0
  9 27  2  0  0  0
 10 11  2  0  0  0
 10 15  1  0  0  0
 11 12  1  0  0  0
 11 96  1  0  0  0
 12 13  2  0  0  0
 12 97  1  0  0  0
 13 14  1  0  0  0
 13 31  1  0  0  0
 14 15  2  0  0  0
 14 98  1  0  0  0
 15 99  1  0  0  0
 16 17  2  0  0  0
 16 21  1  0  0  0
 16 31  1  0  0  0
 17 18  1  0  0  0
 17100  1  0  0  0
 18 19  2  0  0  0
 18101  1  0  0  0
 19 20  1  0  0  0
 19 24  1  0  0  0
 20 21  2  0  0  0
 20102  1  0  0  0
 21 23  1  0  0  0
 22 28  1  0  0  0
 22 32  2  0  0  0
 26 27  1  0  0  0
 28103  1  0  0  0
 28104  1  0  0  0
 29105  1  0  0  0
 29106  1  0  0  0
 33 34  1  0  0  0
 33 66  1  0  0  0
 33 70  2  0  0  0
 34 36  1  0  0  0
 34 59  1  0  0  0
 34107  1  0  0  0
 35 44  2  0  0  0
 35 45  1  0  0  0
 35 68  1  0  0  0
 36 56  1  0  0  0
 36108  1  0  0  0
 37 39  1  0  0  0
 37 47  1  0  0  0
 37 66  1  0  0  0
 37109  1  0  0  0
 38 43  2  0  0  0
 38 46  1  0  0  0
 38 47  1  0  0  0
 39 64  1  0  0  0
 39 67  2  0  0  0
 40 52  1  0  0  0
 40 53  2  0  0  0
 40 58  1  0  0  0
 41110  1  0  0  0
 41111  1  0  0  0
 41112  1  0  0  0
 41 48  1  0  0  0
 42 43  1  0  0  0
 42 66  1  0  0  0
 42113  1  0  0  0
 42114  1  0  0  0
 43 44  1  0  0  0
 44115  1  0  0  0
 45 46  2  0  0  0
 45116  1  0  0  0
 46117  1  0  0  0
 47118  1  0  0  0
 47119  1  0  0  0
 48 56  1  0  0  0
 48 65  1  0  0  0
 48120  1  0  0  0
 49 50  1  0  0  0
 49 53  1  0  0  0
 49 64  1  0  0  0
 49121  1  0  0  0
 50 51  1  0  0  0
 50122  1  0  0  0
 50123  1  0  0  0
 51 52  1  0  0  0
 51124  1  0  0  0
 51125  1  0  0  0
 52126  1  0  0  0
 52127  1  0  0  0
 53 54  1  0  0  0
 54 55  2  0  0  0
 54128  1  0  0  0
 55 57  1  0  0  0
 55129  1  0  0  0
 56 69  2  0  0  0
 57 58  2  0  0  0
 57130  1  0  0  0
 58131  1  0  0  0
 59 60  1  0  0  0
 59 61  1  0  0  0
 59 62  1  0  0  0
 60132  1  0  0  0
 60133  1  0  0  0
 60134  1  0  0  0
 61135  1  0  0  0
 61136  1  0  0  0
 61137  1  0  0  0
 62138  1  0  0  0
 62139  1  0  0  0
 62140  1  0  0  0
 63 65  1  0  0  0
 63141  1  0  0  0
 63142  1  0  0  0
 63143  1  0  0  0
 64144  1  0  0  0
 65145  1  0  0  0
 68 79  1  0  0  0
 71 72  2  0  0  0
 71 73  1  0  0  0
 71146  1  0  0  0
 72 74  1  0  0  0
 72147  1  0  0  0
 73 75  2  0  0  0
 73 82  1  0  0  0
 74 76  2  0  0  0
 74 83  1  0  0  0
 75 76  1  0  0  0
 75 85  1  0  0  0
 76 86  1  0  0  0
 77 78  1  0  0  0
 77 79  2  0  0  0
 77 80  1  0  0  0
 78 82  1  0  0  0
 78 84  2  0  0  0
 79148  1  0  0  0
 80 81  1  0  0  0
 80149  1  0  0  0
 80150  1  0  0  0
 81 82  1  0  0  0
 81151  1  0  0  0
 81152  1  0  0  0
 83153  1  0  0  0
M  ISO  4   1 100  68 101  79 101  83 100
M  END
> <chiral flag>
0

> <version>
0

> <s_m_source_file>
/data/baiqing/PycharmProjects/Reinvent-master-3.2/result/LINK_invent/BTK/process_docking_weight1_custom_product_contain_oxygen_bond_distance_aromatic_linkinvent_7_9_3/rearranged_h_0086.sdf

> <i_m_source_file_index>
55

> <r_mmod_Potential_Energy-OPLS-2005>
182.634262084961

> <r_mmod_Stretch_Energy-OPLS-2005>
95.3067245483398

> <r_mmod_Bend_Energy-OPLS-2005>
176.359664916992

> <r_mmod_Torsional_Energy-OPLS-2005>
256.672821044922

> <r_mmod_Improper_Torsional_Energy-OPLS-2005>
4.07175874710083

> <r_mmod_Van_der_Waal_Energy-OPLS-2005>
141.121719360352

> <r_mmod_Electrostatic_Energy-OPLS-2005>
-349.402191162109

> <r_mmod_Solvation_Energy-OPLS-2005>
-205.00537109375

> <b_mmod_Minimization_Converged-OPLS-2005>
0

> <r_mmod_RMS_Derivative-OPLS-2005>
1.01406478881836

$$$$
55
                    3D
 Structure written by MMmdl.
151160  0  0  1  0            999 V2000
  -30.5614  -14.8220   20.3556 C   0  0  0  0  0  0
  -30.4470  -12.4750   19.4875 C   0  0  0  0  0  0
  -29.5219  -12.4426   18.2485 C   0  0  0  0  0  0
  -28.0406  -12.3010   18.6590 C   0  0  0  0  0  0
  -27.6348  -13.2188   19.8448 C   0  0  2  0  0  0
  -28.6884  -13.2105   20.9732 C   0  0  0  0  0  0
  -25.2527  -13.8148   20.5749 C   0  0  0  0  0  0
  -24.1798  -13.0419   20.9216 C   0  0  0  0  0  0
  -24.6368  -11.6887   20.8775 C   0  0  0  0  0  0
  -23.9041  -10.4282   21.0424 C   0  0  0  0  0  0
  -24.3606   -9.4195   21.9193 C   0  0  0  0  0  0
  -23.6287   -8.2232   22.0752 C   0  0  0  0  0  0
  -22.4271   -8.0272   21.3546 C   0  0  0  0  0  0
  -21.9904   -9.0243   20.4651 C   0  0  0  0  0  0
  -22.7223  -10.2126   20.3063 C   0  0  0  0  0  0
  -21.6846   -6.0734   22.5283 C   0  0  0  0  0  0
  -21.4012   -6.5639   23.8217 C   0  0  0  0  0  0
  -21.3656   -5.6791   24.9177 C   0  0  0  0  0  0
  -21.6043   -4.3056   24.7225 C   0  0  0  0  0  0
  -21.8820   -3.8147   23.4347 C   0  0  0  0  0  0
  -21.9193   -4.6964   22.3405 C   0  0  0  0  0  0
  -22.7824  -13.5216   21.1869 C   0  0  0  0  0  0
  -22.1665   -4.2153   21.0983 F   0  0  0  0  0  0
  -21.5622   -3.4535   25.7732 F   0  0  0  0  0  0
  -29.9774  -13.5688   20.3680 N   0  0  0  0  0  0
  -26.2922  -12.9311   20.3320 N   0  0  0  0  0  0
  -25.9297  -11.6472   20.5800 N   0  0  0  0  0  0
  -22.0459  -12.8221   22.0425 N   0  0  0  0  0  0
  -25.4263  -15.1881   20.4214 N   0  0  0  0  0  0
  -31.7861  -14.9121   20.2173 O   0  0  0  0  0  0
  -21.6631   -6.8877   21.4247 O   0  0  0  0  0  0
  -22.3523  -14.5520   20.6691 O   0  0  0  0  0  0
  -24.6334  -31.8535   23.1975 C   0  0  0  0  0  0
  -25.9156  -32.4738   23.8326 C   0  0  1  0  0  0
  -27.2223  -27.2340   20.1297 C   0  0  0  0  0  0
  -25.5943  -33.8542   24.2250 N   0  0  0  0  0  0
  -23.4307  -30.4767   21.5416 C   0  0  2  0  0  0
  -24.8783  -28.9214   20.1103 C   0  0  0  0  0  0
  -22.7511  -29.4591   22.4905 C   0  0  0  0  0  0
  -18.0299  -28.1375   22.8483 C   0  0  0  0  0  0
  -24.1485  -36.7275   23.2639 C   0  0  0  0  0  0
  -25.9794  -30.7581   21.3809 C   0  0  0  0  0  0
  -26.0513  -29.3786   20.7215 C   0  0  0  0  0  0
  -27.2222  -28.5480   20.7217 C   0  0  0  0  0  0
  -26.0155  -26.8500   19.4977 C   0  0  0  0  0  0
  -24.8667  -27.6648   19.4907 C   0  0  0  0  0  0
  -23.6497  -29.8109   20.1581 C   0  0  0  0  0  0
  -25.4111  -36.3060   24.0326 C   0  0  1  0  0  0
  -20.5901  -28.3688   23.1258 C   0  0  2  0  0  0
  -20.6779  -26.9399   22.5399 C   0  0  0  0  0  0
  -19.5754  -26.6367   21.5207 C   0  0  0  0  0  0
  -18.1939  -26.7914   22.1626 C   0  0  0  0  0  0
  -19.1554  -28.8849   23.2864 C   0  0  0  0  0  0
  -18.9471  -30.1451   23.8878 C   0  0  0  0  0  0
  -17.6469  -30.6578   24.0547 C   0  0  0  0  0  0
  -25.9057  -34.9430   23.5089 C   0  0  0  0  0  0
  -16.5360  -29.9070   23.6328 C   0  0  0  0  0  0
  -16.7283  -28.6485   23.0354 C   0  0  0  0  0  0
  -26.4515  -31.6566   25.0724 C   0  0  0  0  0  0
  -25.3729  -31.3750   26.1447 C   0  0  0  0  0  0
  -27.0358  -30.2968   24.6233 C   0  0  0  0  0  0
  -27.6045  -32.4324   25.7513 C   0  0  0  0  0  0
  -27.5574  -37.1796   24.8466 C   0  0  0  0  0  0
  -21.4216  -29.3042   22.3648 N   0  0  0  0  0  0
  -26.4284  -37.3757   23.9407 N   0  0  0  0  0  0
  -24.7008  -31.0481   22.0962 N   0  0  0  0  0  0
  -23.4204  -28.8136   23.3013 O   0  0  0  0  0  0
  -28.3163  -26.3258   20.2113 O   0  0  0  0  0  0
  -26.5623  -34.8915   22.4656 O   0  0  0  0  0  0
  -23.5478  -32.1367   23.7262 O   0  0  0  0  0  0
  -29.3212  -18.5011   17.7073 C   0  0  0  0  0  0
  -29.2644  -19.7397   18.3935 C   0  0  0  0  0  0
  -29.6058  -18.6601   20.6140 C   0  0  0  0  0  0
  -29.5314  -17.3801   18.5043 C   0  0  0  0  0  0
  -29.7106  -17.3810   19.9220 C   0  0  0  0  0  0
  -29.3563  -19.8907   19.8219 C   0  0  0  0  0  0
  -28.2206  -24.9437   19.8259 C   0  0  0  0  0  0
  -28.7840  -23.8002   20.3972 C   0  0  0  0  0  0
  -28.5779  -22.4124   19.8081 C   0  0  0  0  0  0
  -29.5630  -15.8918   18.4260 C   0  0  0  0  0  0
  -29.7258  -15.8687   19.9322 N   0  0  0  0  0  0
  -29.2216  -21.2936   20.3587 N   0  0  0  0  0  0
  -27.8037  -22.2608   18.8609 O   0  0  0  0  0  0
  -29.5374  -23.9188   21.4987 O   0  0  0  0  0  0
  -31.4849  -12.6186   19.1818 H   0  0  0  0  0  0
  -30.4179  -11.5216   20.0171 H   0  0  0  0  0  0
  -29.8016  -11.6107   17.6008 H   0  0  0  0  0  0
  -29.6640  -13.3356   17.6447 H   0  0  0  0  0  0
  -27.8889  -11.2586   18.9411 H   0  0  0  0  0  0
  -27.3912  -12.4775   17.8004 H   0  0  0  0  0  0
  -27.5918  -14.2258   19.4440 H   0  0  0  0  0  0
  -28.7414  -12.2328   21.4531 H   0  0  0  0  0  0
  -28.4209  -13.9278   21.7513 H   0  0  0  0  0  0
  -25.2759   -9.5661   22.4758 H   0  0  0  0  0  0
  -23.9992   -7.4618   22.7463 H   0  0  0  0  0  0
  -21.0827   -8.8762   19.8961 H   0  0  0  0  0  0
  -22.3689  -10.9659   19.6167 H   0  0  0  0  0  0
  -21.2010   -7.6149   23.9720 H   0  0  0  0  0  0
  -21.1474   -6.0524   25.9079 H   0  0  0  0  0  0
  -22.0604   -2.7607   23.2842 H   0  0  0  0  0  0
  -22.4060  -11.9893   22.4840 H   0  0  0  0  0  0
  -21.1074  -13.1249   22.2610 H   0  0  0  0  0  0
  -24.6677  -15.8476   20.5536 H   0  0  0  0  0  0
  -26.2952  -15.6319   20.1505 H   0  0  0  0  0  0
  -26.7216  -32.5390   23.1060 H   0  0  0  0  0  0
  -25.0086  -33.9677   25.0395 H   0  0  0  0  0  0
  -22.7270  -31.2985   21.3953 H   0  0  0  0  0  0
  -23.3747  -35.9607   23.3304 H   0  0  0  0  0  0
  -24.3568  -36.8895   22.2051 H   0  0  0  0  0  0
  -23.7250  -37.6479   23.6664 H   0  0  0  0  0  0
  -26.1212  -31.5174   20.6104 H   0  0  0  0  0  0
  -26.8555  -30.8076   22.0153 H   0  0  0  0  0  0
  -28.1180  -28.8937   21.2186 H   0  0  0  0  0  0
  -25.9036  -25.8853   19.0301 H   0  0  0  0  0  0
  -23.9662  -27.2991   19.0179 H   0  0  0  0  0  0
  -23.7751  -30.5871   19.4033 H   0  0  0  0  0  0
  -22.7662  -29.2465   19.8553 H   0  0  0  0  0  0
  -25.1293  -36.1897   25.0814 H   0  0  0  0  0  0
  -20.9993  -28.3265   24.1376 H   0  0  0  0  0  0
  -20.5660  -26.2301   23.3612 H   0  0  0  0  0  0
  -21.6651  -26.7404   22.1203 H   0  0  0  0  0  0
  -19.6911  -25.6278   21.1241 H   0  0  0  0  0  0
  -19.6685  -27.3168   20.6729 H   0  0  0  0  0  0
  -17.4197  -26.6647   21.4038 H   0  0  0  0  0  0
  -18.0343  -26.0062   22.9028 H   0  0  0  0  0  0
  -19.7949  -30.7273   24.2230 H   0  0  0  0  0  0
  -17.5023  -31.6258   24.5149 H   0  0  0  0  0  0
  -15.5360  -30.2958   23.7666 H   0  0  0  0  0  0
  -15.8685  -28.0794   22.7076 H   0  0  0  0  0  0
  -24.5886  -30.7113   25.7797 H   0  0  0  0  0  0
  -24.8953  -32.2940   26.4852 H   0  0  0  0  0  0
  -25.8037  -30.8946   27.0240 H   0  0  0  0  0  0
  -26.2956  -29.6725   24.1211 H   0  0  0  0  0  0
  -27.3974  -29.7225   25.4775 H   0  0  0  0  0  0
  -27.8863  -30.4228   23.9527 H   0  0  0  0  0  0
  -27.2614  -33.3615   26.2084 H   0  0  0  0  0  0
  -28.3864  -32.6904   25.0357 H   0  0  0  0  0  0
  -28.0703  -31.8463   26.5449 H   0  0  0  0  0  0
  -28.2588  -38.0093   24.7487 H   0  0  0  0  0  0
  -28.1076  -36.2622   24.6316 H   0  0  0  0  0  0
  -27.2294  -37.1464   25.8872 H   0  0  0  0  0  0
  -20.9397  -29.8772   21.6862 H   0  0  0  0  0  0
  -26.0164  -38.2831   24.1394 H   0  0  0  0  0  0
  -29.1860  -18.4314   16.6369 H   0  0  0  0  0  0
  -29.1248  -20.6044   17.7624 H   0  0  0  0  0  0
  -29.6539  -18.7009   21.6925 H   0  0  0  0  0  0
  -27.6396  -24.8333   18.9222 H   0  0  0  0  0  0
  -30.4225  -15.5474   17.8475 H   0  0  0  0  0  0
  -28.6280  -15.4925   18.0368 H   0  0  0  0  0  0
  -29.6985  -21.4872   21.2296 H   0  0  0  0  0  0
  -29.5594  -24.8420   21.7200 H   0  0  0  0  0  0
  1 25  1  0  0  0
  1 30  2  0  0  0
  1 81  1  0  0  0
  2  3  1  0  0  0
  2 25  1  0  0  0
  2 85  1  0  0  0
  2 86  1  0  0  0
  3  4  1  0  0  0
  3 87  1  0  0  0
  3 88  1  0  0  0
  4  5  1  0  0  0
  4 89  1  0  0  0
  4 90  1  0  0  0
  5  6  1  0  0  0
  5 26  1  0  0  0
  5 91  1  0  0  0
  6 25  1  0  0  0
  6 92  1  0  0  0
  6 93  1  0  0  0
  7  8  2  0  0  0
  7 26  1  0  0  0
  7 29  1  0  0  0
  8  9  1  0  0  0
  8 22  1  0  0  0
  9 10  1  0  0  0
  9 27  2  0  0  0
 10 11  2  0  0  0
 10 15  1  0  0  0
 11 12  1  0  0  0
 11 94  1  0  0  0
 12 13  2  0  0  0
 12 95  1  0  0  0
 13 14  1  0  0  0
 13 31  1  0  0  0
 14 15  2  0  0  0
 14 96  1  0  0  0
 15 97  1  0  0  0
 16 17  2  0  0  0
 16 21  1  0  0  0
 16 31  1  0  0  0
 17 18  1  0  0  0
 17 98  1  0  0  0
 18 19  2  0  0  0
 18 99  1  0  0  0
 19 20  1  0  0  0
 19 24  1  0  0  0
 20 21  2  0  0  0
 20100  1  0  0  0
 21 23  1  0  0  0
 22 28  1  0  0  0
 22 32  2  0  0  0
 26 27  1  0  0  0
 28101  1  0  0  0
 28102  1  0  0  0
 29103  1  0  0  0
 29104  1  0  0  0
 33 34  1  0  0  0
 33 66  1  0  0  0
 33 70  2  0  0  0
 34 36  1  0  0  0
 34 59  1  0  0  0
 34105  1  0  0  0
 35 44  2  0  0  0
 35 45  1  0  0  0
 35 68  1  0  0  0
 36 56  1  0  0  0
 36106  1  0  0  0
 37 39  1  0  0  0
 37 47  1  0  0  0
 37 66  1  0  0  0
 37107  1  0  0  0
 38 43  2  0  0  0
 38 46  1  0  0  0
 38 47  1  0  0  0
 39 64  1  0  0  0
 39 67  2  0  0  0
 40 52  1  0  0  0
 40 53  2  0  0  0
 40 58  1  0  0  0
 41108  1  0  0  0
 41109  1  0  0  0
 41110  1  0  0  0
 41 48  1  0  0  0
 42 43  1  0  0  0
 42 66  1  0  0  0
 42111  1  0  0  0
 42112  1  0  0  0
 43 44  1  0  0  0
 44113  1  0  0  0
 45 46  2  0  0  0
 45114  1  0  0  0
 46115  1  0  0  0
 47116  1  0  0  0
 47117  1  0  0  0
 48 56  1  0  0  0
 48 65  1  0  0  0
 48118  1  0  0  0
 49 50  1  0  0  0
 49 53  1  0  0  0
 49 64  1  0  0  0
 49119  1  0  0  0
 50 51  1  0  0  0
 50120  1  0  0  0
 50121  1  0  0  0
 51 52  1  0  0  0
 51122  1  0  0  0
 51123  1  0  0  0
 52124  1  0  0  0
 52125  1  0  0  0
 53 54  1  0  0  0
 54 55  2  0  0  0
 54126  1  0  0  0
 55 57  1  0  0  0
 55127  1  0  0  0
 56 69  2  0  0  0
 57 58  2  0  0  0
 57128  1  0  0  0
 58129  1  0  0  0
 59 60  1  0  0  0
 59 61  1  0  0  0
 59 62  1  0  0  0
 60130  1  0  0  0
 60131  1  0  0  0
 60132  1  0  0  0
 61133  1  0  0  0
 61134  1  0  0  0
 61135  1  0  0  0
 62136  1  0  0  0
 62137  1  0  0  0
 62138  1  0  0  0
 63 65  1  0  0  0
 63139  1  0  0  0
 63140  1  0  0  0
 63141  1  0  0  0
 64142  1  0  0  0
 65143  1  0  0  0
 68 77  1  0  0  0
 71 72  2  0  0  0
 71 74  1  0  0  0
 71144  1  0  0  0
 72 76  1  0  0  0
 72145  1  0  0  0
 73 75  1  0  0  0
 73 76  2  0  0  0
 73146  1  0  0  0
 74 75  2  0  0  0
 74 80  1  0  0  0
 75 81  1  0  0  0
 76 82  1  0  0  0
 77 78  2  0  0  0
 77147  1  0  0  0
 78 79  1  0  0  0
 78 84  1  0  0  0
 79 82  1  0  0  0
 79 83  2  0  0  0
 80 81  1  0  0  0
 80148  1  0  0  0
 80149  1  0  0  0
 82150  1  0  0  0
 84151  1  0  0  0
M  ISO  4   1 100  68 101  77 101  81 100
M  END
> <chiral flag>
0

> <version>
0

> <s_m_source_file>
/data/baiqing/PycharmProjects/Reinvent-master-3.2/result/LINK_invent/BTK/process_docking_weight1_custom_product_contain_oxygen_bond_distance_aromatic_linkinvent_7_9_3/rearranged_h_0086.sdf

> <i_m_source_file_index>
56

> <r_mmod_Potential_Energy-OPLS-2005>
768.414794921875

> <r_mmod_Stretch_Energy-OPLS-2005>
168.304000854492

> <r_mmod_Bend_Energy-OPLS-2005>
594.062622070312

> <r_mmod_Torsional_Energy-OPLS-2005>
297.004333496094

> <r_mmod_Improper_Torsional_Energy-OPLS-2005>
29.0173454284668

> <r_mmod_Van_der_Waal_Energy-OPLS-2005>
145.922943115234

> <r_mmod_Electrostatic_Energy-OPLS-2005>
-373.565582275391

> <r_mmod_Solvation_Energy-OPLS-2005>
-213.138977050781

> <b_mmod_Minimization_Converged-OPLS-2005>
0

> <r_mmod_RMS_Derivative-OPLS-2005>
1.75376915931702

$$$$
56
                    3D
 Structure written by MMmdl.
156165  0  0  1  0            999 V2000
  -30.6504  -14.5902   20.4864 C   0  0  0  0  0  0
  -30.4297  -12.3515   19.4600 C   0  0  0  0  0  0
  -29.5086  -12.4929   18.2285 C   0  0  0  0  0  0
  -28.0285  -12.3504   18.6351 C   0  0  0  0  0  0
  -27.6573  -13.2183   19.8675 C   0  0  2  0  0  0
  -28.6987  -13.0636   20.9995 C   0  0  0  0  0  0
  -25.2576  -13.8183   20.5685 C   0  0  0  0  0  0
  -24.1838  -13.0445   20.9178 C   0  0  0  0  0  0
  -24.6410  -11.6913   20.8740 C   0  0  0  0  0  0
  -23.9083  -10.4292   21.0405 C   0  0  0  0  0  0
  -24.3633   -9.4201   21.9183 C   0  0  0  0  0  0
  -23.6304   -8.2238   22.0750 C   0  0  0  0  0  0
  -22.4286   -8.0284   21.3535 C   0  0  0  0  0  0
  -21.9921   -9.0262   20.4642 C   0  0  0  0  0  0
  -22.7255  -10.2137   20.3053 C   0  0  0  0  0  0
  -21.6852   -6.0745   22.5281 C   0  0  0  0  0  0
  -21.4016   -6.5645   23.8217 C   0  0  0  0  0  0
  -21.3654   -5.6792   24.9173 C   0  0  0  0  0  0
  -21.6045   -4.3057   24.7219 C   0  0  0  0  0  0
  -21.8817   -3.8151   23.4338 C   0  0  0  0  0  0
  -21.9189   -4.6971   22.3396 C   0  0  0  0  0  0
  -22.7856  -13.5234   21.1832 C   0  0  0  0  0  0
  -22.1657   -4.2156   21.0975 F   0  0  0  0  0  0
  -21.5627   -3.4540   25.7730 F   0  0  0  0  0  0
  -30.0228  -13.3757   20.4425 N   0  0  0  0  0  0
  -26.3012  -12.9371   20.3336 N   0  0  0  0  0  0
  -25.9339  -11.6518   20.5761 N   0  0  0  0  0  0
  -22.0492  -12.8240   22.0401 N   0  0  0  0  0  0
  -25.4309  -15.1907   20.4122 N   0  0  0  0  0  0
  -31.8004  -14.7409   20.0649 O   0  0  0  0  0  0
  -21.6636   -6.8892   21.4244 O   0  0  0  0  0  0
  -22.3533  -14.5528   20.6668 O   0  0  0  0  0  0
  -24.6214  -31.8609   23.2035 C   0  0  0  0  0  0
  -25.9070  -32.4790   23.8360 C   0  0  1  0  0  0
  -27.2353  -27.3630   20.1018 C   0  0  0  0  0  0
  -25.5901  -33.8590   24.2288 N   0  0  0  0  0  0
  -23.4154  -30.4819   21.5437 C   0  0  2  0  0  0
  -24.8656  -28.9422   20.1038 C   0  0  0  0  0  0
  -22.7459  -29.4612   22.4938 C   0  0  0  0  0  0
  -18.0283  -28.1379   22.8491 C   0  0  0  0  0  0
  -24.1490  -36.7303   23.2640 C   0  0  0  0  0  0
  -25.9510  -30.8036   21.3695 C   0  0  0  0  0  0
  -26.0284  -29.4349   20.7094 C   0  0  0  0  0  0
  -27.2145  -28.6511   20.7070 C   0  0  0  0  0  0
  -26.0525  -26.9040   19.4832 C   0  0  0  0  0  0
  -24.8768  -27.6806   19.4839 C   0  0  0  0  0  0
  -23.6287  -29.8145   20.1581 C   0  0  0  0  0  0
  -25.4115  -36.3093   24.0332 C   0  0  1  0  0  0
  -20.5879  -28.3673   23.1297 C   0  0  2  0  0  0
  -20.6769  -26.9400   22.5417 C   0  0  0  0  0  0
  -19.5747  -26.6377   21.5215 C   0  0  0  0  0  0
  -18.1926  -26.7926   22.1622 C   0  0  0  0  0  0
  -19.1534  -28.8844   23.2891 C   0  0  0  0  0  0
  -18.9457  -30.1447   23.8903 C   0  0  0  0  0  0
  -17.6459  -30.6584   24.0560 C   0  0  0  0  0  0
  -25.9044  -34.9460   23.5112 C   0  0  0  0  0  0
  -16.5349  -29.9082   23.6324 C   0  0  0  0  0  0
  -16.7272  -28.6496   23.0352 C   0  0  0  0  0  0
  -26.4469  -31.6599   25.0722 C   0  0  0  0  0  0
  -25.3714  -31.3734   26.1462 C   0  0  0  0  0  0
  -27.0306  -30.3031   24.6151 C   0  0  0  0  0  0
  -27.6032  -32.4333   25.7485 C   0  0  0  0  0  0
  -27.5585  -37.1807   24.8461 C   0  0  0  0  0  0
  -21.4173  -29.3024   22.3688 N   0  0  0  0  0  0
  -26.4296  -37.3783   23.9405 N   0  0  0  0  0  0
  -24.6806  -31.0649   22.0966 N   0  0  0  0  0  0
  -23.4196  -28.8155   23.3008 O   0  0  0  0  0  0
  -28.3393  -26.5220   20.2169 O   0  0  0  0  0  0
  -26.5609  -34.8918   22.4678 O   0  0  0  0  0  0
  -23.5382  -32.1387   23.7381 O   0  0  0  0  0  0
  -29.0867  -17.8836   17.9448 C   0  0  0  0  0  0
  -28.8889  -19.1377   18.5514 C   0  0  0  0  0  0
  -29.4920  -16.7728   18.7050 C   0  0  0  0  0  0
  -29.5252  -18.1803   20.6933 C   0  0  0  0  0  0
  -29.1613  -19.3443   19.9244 C   0  0  0  0  0  0
  -29.6887  -16.8818   20.0997 C   0  0  0  0  0  0
  -28.8578  -24.2667   19.2922 C   0  0  0  0  0  0
  -28.6616  -25.6206   19.2129 C   0  0  0  0  0  0
  -28.8886  -20.7125   20.5803 C   0  0  0  0  0  0
  -29.3855  -23.4683   18.1296 C   0  0  0  0  0  0
  -28.6715  -23.2566   20.4383 C   0  0  0  0  0  0
  -29.9266  -22.1671   18.7396 C   0  0  0  0  0  0
  -29.1283  -21.9156   19.9463 N   0  0  0  0  0  0
  -29.9036  -15.6666   20.8689 N   0  0  0  0  0  0
  -28.4089  -20.7021   21.7182 O   0  0  0  0  0  0
  -31.4754  -12.4503   19.1641 H   0  0  0  0  0  0
  -30.3404  -11.3541   19.8934 H   0  0  0  0  0  0
  -29.7637  -11.7412   17.4805 H   0  0  0  0  0  0
  -29.6707  -13.4608   17.7531 H   0  0  0  0  0  0
  -27.8524  -11.2985   18.8627 H   0  0  0  0  0  0
  -27.3787  -12.5894   17.7924 H   0  0  0  0  0  0
  -27.6817  -14.2556   19.5328 H   0  0  0  0  0  0
  -28.6910  -12.0452   21.3899 H   0  0  0  0  0  0
  -28.4550  -13.7087   21.8442 H   0  0  0  0  0  0
  -25.2776   -9.5679   22.4758 H   0  0  0  0  0  0
  -24.0008   -7.4632   22.7476 H   0  0  0  0  0  0
  -21.0841   -8.8790   19.8962 H   0  0  0  0  0  0
  -22.3713  -10.9681   19.6166 H   0  0  0  0  0  0
  -21.2013   -7.6152   23.9728 H   0  0  0  0  0  0
  -21.1477   -6.0516   25.9081 H   0  0  0  0  0  0
  -22.0602   -2.7615   23.2830 H   0  0  0  0  0  0
  -22.4098  -11.9915   22.4817 H   0  0  0  0  0  0
  -21.1111  -13.1284   22.2593 H   0  0  0  0  0  0
  -24.6705  -15.8515   20.5315 H   0  0  0  0  0  0
  -26.2904  -15.6290   20.1047 H   0  0  0  0  0  0
  -26.7140  -32.5471   23.1113 H   0  0  0  0  0  0
  -25.0057  -33.9746   25.0438 H   0  0  0  0  0  0
  -22.7073  -31.3005   21.4003 H   0  0  0  0  0  0
  -23.3751  -35.9636   23.3305 H   0  0  0  0  0  0
  -24.3582  -36.8918   22.2054 H   0  0  0  0  0  0
  -23.7243  -37.6507   23.6656 H   0  0  0  0  0  0
  -26.0779  -31.5700   20.6039 H   0  0  0  0  0  0
  -26.8331  -30.8522   21.9961 H   0  0  0  0  0  0
  -28.1053  -29.0148   21.1997 H   0  0  0  0  0  0
  -26.0223  -25.9219   19.0325 H   0  0  0  0  0  0
  -23.9821  -27.2924   19.0164 H   0  0  0  0  0  0
  -23.7410  -30.5896   19.3993 H   0  0  0  0  0  0
  -22.7520  -29.2367   19.8600 H   0  0  0  0  0  0
  -25.1297  -36.1953   25.0825 H   0  0  0  0  0  0
  -20.9981  -28.3248   24.1414 H   0  0  0  0  0  0
  -20.5671  -26.2284   23.3614 H   0  0  0  0  0  0
  -21.6641  -26.7432   22.1210 H   0  0  0  0  0  0
  -19.6910  -25.6288   21.1242 H   0  0  0  0  0  0
  -19.6694  -27.3187   20.6746 H   0  0  0  0  0  0
  -17.4206  -26.6683   21.4014 H   0  0  0  0  0  0
  -18.0315  -26.0063   22.9010 H   0  0  0  0  0  0
  -19.7932  -30.7256   24.2283 H   0  0  0  0  0  0
  -17.5011  -31.6268   24.5152 H   0  0  0  0  0  0
  -15.5347  -30.2983   23.7645 H   0  0  0  0  0  0
  -15.8672  -28.0812   22.7069 H   0  0  0  0  0  0
  -24.5879  -30.7093   25.7796 H   0  0  0  0  0  0
  -24.8915  -32.2902   26.4897 H   0  0  0  0  0  0
  -25.8048  -30.8905   27.0232 H   0  0  0  0  0  0
  -26.2875  -29.6798   24.1169 H   0  0  0  0  0  0
  -27.4013  -29.7267   25.4637 H   0  0  0  0  0  0
  -27.8735  -30.4332   23.9359 H   0  0  0  0  0  0
  -27.2643  -33.3621   26.2084 H   0  0  0  0  0  0
  -28.3826  -32.6923   25.0306 H   0  0  0  0  0  0
  -28.0724  -31.8455   26.5385 H   0  0  0  0  0  0
  -28.2603  -38.0102   24.7510 H   0  0  0  0  0  0
  -28.1081  -36.2637   24.6285 H   0  0  0  0  0  0
  -27.2306  -37.1454   25.8864 H   0  0  0  0  0  0
  -20.9348  -29.8752   21.6904 H   0  0  0  0  0  0
  -26.0185  -38.2861   24.1400 H   0  0  0  0  0  0
  -28.8861  -17.7619   16.8890 H   0  0  0  0  0  0
  -28.4909  -19.9342   17.9403 H   0  0  0  0  0  0
  -29.5861  -15.8197   18.2050 H   0  0  0  0  0  0
  -29.6500  -18.2873   21.7620 H   0  0  0  0  0  0
  -28.8577  -26.1506   18.2902 H   0  0  0  0  0  0
  -30.1470  -24.0116   17.5683 H   0  0  0  0  0  0
  -28.5586  -23.2488   17.4527 H   0  0  0  0  0  0
  -27.6220  -23.2192   20.7334 H   0  0  0  0  0  0
  -29.2565  -23.5608   21.3071 H   0  0  0  0  0  0
  -30.9568  -22.3188   19.0647 H   0  0  0  0  0  0
  -29.9642  -21.3791   17.9962 H   0  0  0  0  0  0
  -29.1446  -15.4359   21.4927 H   0  0  0  0  0  0
  1 25  1  0  0  0
  1 30  2  0  0  0
  1 84  1  0  0  0
  2  3  1  0  0  0
  2 25  1  0  0  0
  2 86  1  0  0  0
  2 87  1  0  0  0
  3  4  1  0  0  0
  3 88  1  0  0  0
  3 89  1  0  0  0
  4  5  1  0  0  0
  4 90  1  0  0  0
  4 91  1  0  0  0
  5  6  1  0  0  0
  5 26  1  0  0  0
  5 92  1  0  0  0
  6 25  1  0  0  0
  6 93  1  0  0  0
  6 94  1  0  0  0
  7  8  2  0  0  0
  7 26  1  0  0  0
  7 29  1  0  0  0
  8  9  1  0  0  0
  8 22  1  0  0  0
  9 10  1  0  0  0
  9 27  2  0  0  0
 10 11  2  0  0  0
 10 15  1  0  0  0
 11 12  1  0  0  0
 11 95  1  0  0  0
 12 13  2  0  0  0
 12 96  1  0  0  0
 13 14  1  0  0  0
 13 31  1  0  0  0
 14 15  2  0  0  0
 14 97  1  0  0  0
 15 98  1  0  0  0
 16 17  2  0  0  0
 16 21  1  0  0  0
 16 31  1  0  0  0
 17 18  1  0  0  0
 17 99  1  0  0  0
 18 19  2  0  0  0
 18100  1  0  0  0
 19 20  1  0  0  0
 19 24  1  0  0  0
 20 21  2  0  0  0
 20101  1  0  0  0
 21 23  1  0  0  0
 22 28  1  0  0  0
 22 32  2  0  0  0
 26 27  1  0  0  0
 28102  1  0  0  0
 28103  1  0  0  0
 29104  1  0  0  0
 29105  1  0  0  0
 33 34  1  0  0  0
 33 66  1  0  0  0
 33 70  2  0  0  0
 34 36  1  0  0  0
 34 59  1  0  0  0
 34106  1  0  0  0
 35 44  2  0  0  0
 35 45  1  0  0  0
 35 68  1  0  0  0
 36 56  1  0  0  0
 36107  1  0  0  0
 37 39  1  0  0  0
 37 47  1  0  0  0
 37 66  1  0  0  0
 37108  1  0  0  0
 38 43  2  0  0  0
 38 46  1  0  0  0
 38 47  1  0  0  0
 39 64  1  0  0  0
 39 67  2  0  0  0
 40 52  1  0  0  0
 40 53  2  0  0  0
 40 58  1  0  0  0
 41109  1  0  0  0
 41110  1  0  0  0
 41111  1  0  0  0
 41 48  1  0  0  0
 42 43  1  0  0  0
 42 66  1  0  0  0
 42112  1  0  0  0
 42113  1  0  0  0
 43 44  1  0  0  0
 44114  1  0  0  0
 45 46  2  0  0  0
 45115  1  0  0  0
 46116  1  0  0  0
 47117  1  0  0  0
 47118  1  0  0  0
 48 56  1  0  0  0
 48 65  1  0  0  0
 48119  1  0  0  0
 49 50  1  0  0  0
 49 53  1  0  0  0
 49 64  1  0  0  0
 49120  1  0  0  0
 50 51  1  0  0  0
 50121  1  0  0  0
 50122  1  0  0  0
 51 52  1  0  0  0
 51123  1  0  0  0
 51124  1  0  0  0
 52125  1  0  0  0
 52126  1  0  0  0
 53 54  1  0  0  0
 54 55  2  0  0  0
 54127  1  0  0  0
 55 57  1  0  0  0
 55128  1  0  0  0
 56 69  2  0  0  0
 57 58  2  0  0  0
 57129  1  0  0  0
 58130  1  0  0  0
 59 60  1  0  0  0
 59 61  1  0  0  0
 59 62  1  0  0  0
 60131  1  0  0  0
 60132  1  0  0  0
 60133  1  0  0  0
 61134  1  0  0  0
 61135  1  0  0  0
 61136  1  0  0  0
 62137  1  0  0  0
 62138  1  0  0  0
 62139  1  0  0  0
 63 65  1  0  0  0
 63140  1  0  0  0
 63141  1  0  0  0
 63142  1  0  0  0
 64143  1  0  0  0
 65144  1  0  0  0
 68 78  1  0  0  0
 71 72  2  0  0  0
 71 73  1  0  0  0
 71145  1  0  0  0
 72 75  1  0  0  0
 72146  1  0  0  0
 73 76  2  0  0  0
 73147  1  0  0  0
 74 75  2  0  0  0
 74 76  1  0  0  0
 74148  1  0  0  0
 75 79  1  0  0  0
 76 84  1  0  0  0
 77 78  2  0  0  0
 77 80  1  0  0  0
 77 81  1  0  0  0
 78149  1  0  0  0
 79 83  1  0  0  0
 79 85  2  0  0  0
 80 82  1  0  0  0
 80150  1  0  0  0
 80151  1  0  0  0
 81 83  1  0  0  0
 81152  1  0  0  0
 81153  1  0  0  0
 82 83  1  0  0  0
 82154  1  0  0  0
 82155  1  0  0  0
 84156  1  0  0  0
M  ISO  4   1 100  68 101  78 101  84 100
M  END
> <chiral flag>
0

> <version>
0

> <s_m_source_file>
/data/baiqing/PycharmProjects/Reinvent-master-3.2/result/LINK_invent/BTK/process_docking_weight1_custom_product_contain_oxygen_bond_distance_aromatic_linkinvent_7_9_3/rearranged_h_0086.sdf

> <i_m_source_file_index>
57

> <r_mmod_Potential_Energy-OPLS-2005>
139.011199951172

> <r_mmod_Stretch_Energy-OPLS-2005>
64.3637390136719

> <r_mmod_Bend_Energy-OPLS-2005>
154.895568847656

> <r_mmod_Torsional_Energy-OPLS-2005>
314.000427246094

> <r_mmod_Improper_Torsional_Energy-OPLS-2005>
7.33708572387695

> <r_mmod_Van_der_Waal_Energy-OPLS-2005>
141.539093017578

> <r_mmod_Electrostatic_Energy-OPLS-2005>
-352.033874511719

> <r_mmod_Solvation_Energy-OPLS-2005>
-228.604476928711

> <b_mmod_Minimization_Converged-OPLS-2005>
0

> <r_mmod_RMS_Derivative-OPLS-2005>
1.08967339992523

$$$$
57
                    3D
 Structure written by MMmdl.
152161  0  0  1  0            999 V2000
  -30.6162  -14.8331   20.4230 C   0  0  0  0  0  0
  -30.4303  -12.5079   19.4966 C   0  0  0  0  0  0
  -29.5182  -12.5116   18.2504 C   0  0  0  0  0  0
  -28.0477  -12.3201   18.6646 C   0  0  0  0  0  0
  -27.6362  -13.2437   19.8422 C   0  0  2  0  0  0
  -28.6798  -13.2434   20.9814 C   0  0  0  0  0  0
  -25.2488  -13.8215   20.5696 C   0  0  0  0  0  0
  -24.1787  -13.0445   20.9193 C   0  0  0  0  0  0
  -24.6392  -11.6927   20.8736 C   0  0  0  0  0  0
  -23.9071  -10.4298   21.0399 C   0  0  0  0  0  0
  -24.3618   -9.4212   21.9173 C   0  0  0  0  0  0
  -23.6287   -8.2253   22.0756 C   0  0  0  0  0  0
  -22.4267   -8.0288   21.3549 C   0  0  0  0  0  0
  -21.9899   -9.0264   20.4652 C   0  0  0  0  0  0
  -22.7239  -10.2138   20.3055 C   0  0  0  0  0  0
  -21.6856   -6.0727   22.5273 C   0  0  0  0  0  0
  -21.4026   -6.5633   23.8206 C   0  0  0  0  0  0
  -21.3661   -5.6792   24.9169 C   0  0  0  0  0  0
  -21.6042   -4.3054   24.7224 C   0  0  0  0  0  0
  -21.8818   -3.8139   23.4346 C   0  0  0  0  0  0
  -21.9194   -4.6953   22.3399 C   0  0  0  0  0  0
  -22.7809  -13.5226   21.1841 C   0  0  0  0  0  0
  -22.1658   -4.2139   21.0979 F   0  0  0  0  0  0
  -21.5625   -3.4538   25.7738 F   0  0  0  0  0  0
  -29.9728  -13.6066   20.3881 N   0  0  0  0  0  0
  -26.2918  -12.9440   20.3261 N   0  0  0  0  0  0
  -25.9330  -11.6572   20.5735 N   0  0  0  0  0  0
  -22.0453  -12.8240   22.0409 N   0  0  0  0  0  0
  -25.4171  -15.1945   20.4137 N   0  0  0  0  0  0
  -31.8199  -14.8444   20.1548 O   0  0  0  0  0  0
  -21.6645   -6.8875   21.4236 O   0  0  0  0  0  0
  -22.3494  -14.5521   20.6668 O   0  0  0  0  0  0
  -24.6372  -31.8496   23.1952 C   0  0  0  0  0  0
  -25.9178  -32.4723   23.8309 C   0  0  1  0  0  0
  -27.2176  -27.2151   20.1348 C   0  0  0  0  0  0
  -25.5958  -33.8524   24.2240 N   0  0  0  0  0  0
  -23.4376  -30.4718   21.5389 C   0  0  2  0  0  0
  -24.8891  -28.9163   20.1054 C   0  0  0  0  0  0
  -22.7535  -29.4562   22.4873 C   0  0  0  0  0  0
  -18.0298  -28.1375   22.8473 C   0  0  0  0  0  0
  -24.1493  -36.7268   23.2635 C   0  0  0  0  0  0
  -25.9886  -30.7475   21.3846 C   0  0  0  0  0  0
  -26.0632  -29.3664   20.7244 C   0  0  0  0  0  0
  -27.2342  -28.5288   20.7297 C   0  0  0  0  0  0
  -26.0253  -26.8512   19.4747 C   0  0  0  0  0  0
  -24.8773  -27.6676   19.4670 C   0  0  0  0  0  0
  -23.6607  -29.8082   20.1548 C   0  0  0  0  0  0
  -25.4120  -36.3048   24.0323 C   0  0  1  0  0  0
  -20.5907  -28.3690   23.1237 C   0  0  2  0  0  0
  -20.6785  -26.9399   22.5394 C   0  0  0  0  0  0
  -19.5765  -26.6369   21.5194 C   0  0  0  0  0  0
  -18.1944  -26.7917   22.1609 C   0  0  0  0  0  0
  -19.1552  -28.8852   23.2850 C   0  0  0  0  0  0
  -18.9474  -30.1452   23.8872 C   0  0  0  0  0  0
  -17.6473  -30.6579   24.0548 C   0  0  0  0  0  0
  -25.9062  -34.9421   23.5083 C   0  0  0  0  0  0
  -16.5364  -29.9072   23.6326 C   0  0  0  0  0  0
  -16.7282  -28.6484   23.0354 C   0  0  0  0  0  0
  -26.4529  -31.6561   25.0719 C   0  0  0  0  0  0
  -25.3746  -31.3757   26.1448 C   0  0  0  0  0  0
  -27.0360  -30.2949   24.6256 C   0  0  0  0  0  0
  -27.6080  -32.4300   25.7497 C   0  0  0  0  0  0
  -27.5581  -37.1793   24.8462 C   0  0  0  0  0  0
  -21.4232  -29.3035   22.3625 N   0  0  0  0  0  0
  -26.4290  -37.3755   23.9412 N   0  0  0  0  0  0
  -24.7067  -31.0415   22.0951 N   0  0  0  0  0  0
  -23.4208  -28.8101   23.2990 O   0  0  0  0  0  0
  -28.2307  -26.2131   20.1992 O   0  0  0  0  0  0
  -26.5628  -34.8905   22.4647 O   0  0  0  0  0  0
  -23.5505  -32.1336   23.7217 O   0  0  0  0  0  0
  -31.8465  -19.1003   19.3278 C   0  0  0  0  0  0
  -31.0245  -20.2045   19.6156 C   0  0  0  0  0  0
  -31.4672  -17.7817   19.6405 C   0  0  0  0  0  0
  -29.7616  -20.0622   20.2366 C   0  0  0  0  0  0
  -30.2386  -17.4796   20.2761 C   0  0  0  0  0  0
  -29.3976  -18.6602   20.5596 C   0  0  0  0  0  0
  -28.1688  -23.5985   20.8142 C   0  0  0  0  0  0
  -27.4252  -22.7043   21.6985 C   0  0  0  0  0  0
  -29.1173  -22.6716   20.1058 C   0  0  0  0  0  0
  -27.8451  -24.9768   20.8282 C   0  0  0  0  0  0
  -27.8790  -21.2643   21.5112 C   0  0  0  0  0  0
  -28.9736  -21.3289   20.5427 N   0  0  0  0  0  0
  -29.8884  -16.0312   20.5682 N   0  0  0  0  0  0
  -26.5383  -23.0147   22.5025 O   0  0  0  0  0  0
  -29.9131  -23.0359   19.2328 O   0  0  0  0  0  0
  -28.2060  -18.4246   21.1593 F   0  0  0  0  0  0
  -31.4723  -12.6212   19.1931 H   0  0  0  0  0  0
  -30.3766  -11.5494   20.0148 H   0  0  0  0  0  0
  -29.8203  -11.7251   17.5576 H   0  0  0  0  0  0
  -29.6318  -13.4552   17.7139 H   0  0  0  0  0  0
  -27.9265  -11.2759   18.9557 H   0  0  0  0  0  0
  -27.3901  -12.4771   17.8092 H   0  0  0  0  0  0
  -27.6119  -14.2524   19.4294 H   0  0  0  0  0  0
  -28.7349  -12.2653   21.4623 H   0  0  0  0  0  0
  -28.3997  -13.9550   21.7598 H   0  0  0  0  0  0
  -25.2764   -9.5688   22.4751 H   0  0  0  0  0  0
  -23.9992   -7.4646   22.7484 H   0  0  0  0  0  0
  -21.0827   -8.8784   19.8968 H   0  0  0  0  0  0
  -22.3689  -10.9672   19.6168 H   0  0  0  0  0  0
  -21.2031   -7.6141   23.9705 H   0  0  0  0  0  0
  -21.1483   -6.0522   25.9069 H   0  0  0  0  0  0
  -22.0596   -2.7598   23.2855 H   0  0  0  0  0  0
  -22.4069  -11.9929   22.4842 H   0  0  0  0  0  0
  -21.1068  -13.1279   22.2591 H   0  0  0  0  0  0
  -24.6512  -15.8489   20.5299 H   0  0  0  0  0  0
  -26.2701  -15.6396   20.1005 H   0  0  0  0  0  0
  -26.7241  -32.5365   23.1043 H   0  0  0  0  0  0
  -25.0133  -33.9644   25.0407 H   0  0  0  0  0  0
  -22.7367  -31.2961   21.3908 H   0  0  0  0  0  0
  -23.3751  -35.9601   23.3294 H   0  0  0  0  0  0
  -24.3584  -36.8887   22.2048 H   0  0  0  0  0  0
  -23.7249  -37.6474   23.6656 H   0  0  0  0  0  0
  -26.1365  -31.5076   20.6169 H   0  0  0  0  0  0
  -26.8615  -30.7944   22.0229 H   0  0  0  0  0  0
  -28.1277  -28.8615   21.2388 H   0  0  0  0  0  0
  -25.9658  -25.8857   18.9923 H   0  0  0  0  0  0
  -23.9808  -27.3188   18.9740 H   0  0  0  0  0  0
  -23.7912  -30.5863   19.4019 H   0  0  0  0  0  0
  -22.7780  -29.2458   19.8463 H   0  0  0  0  0  0
  -25.1297  -36.1891   25.0815 H   0  0  0  0  0  0
  -20.9990  -28.3280   24.1360 H   0  0  0  0  0  0
  -20.5654  -26.2304   23.3605 H   0  0  0  0  0  0
  -21.6657  -26.7401   22.1205 H   0  0  0  0  0  0
  -19.6922  -25.6272   21.1236 H   0  0  0  0  0  0
  -19.6699  -27.3163   20.6712 H   0  0  0  0  0  0
  -17.4205  -26.6633   21.4026 H   0  0  0  0  0  0
  -18.0356  -26.0063   22.9011 H   0  0  0  0  0  0
  -19.7956  -30.7266   24.2227 H   0  0  0  0  0  0
  -17.5034  -31.6262   24.5144 H   0  0  0  0  0  0
  -15.5364  -30.2965   23.7669 H   0  0  0  0  0  0
  -15.8679  -28.0794   22.7092 H   0  0  0  0  0  0
  -24.5880  -30.7149   25.7793 H   0  0  0  0  0  0
  -24.9006  -32.2952   26.4882 H   0  0  0  0  0  0
  -25.8052  -30.8915   27.0220 H   0  0  0  0  0  0
  -26.2946  -29.6697   24.1264 H   0  0  0  0  0  0
  -27.3980  -29.7221   25.4806 H   0  0  0  0  0  0
  -27.8862  -30.4174   23.9544 H   0  0  0  0  0  0
  -27.2686  -33.3604   26.2060 H   0  0  0  0  0  0
  -28.3909  -32.6845   25.0342 H   0  0  0  0  0  0
  -28.0727  -31.8434   26.5433 H   0  0  0  0  0  0
  -28.2593  -38.0095   24.7513 H   0  0  0  0  0  0
  -28.1084  -36.2629   24.6276 H   0  0  0  0  0  0
  -27.2303  -37.1430   25.8866 H   0  0  0  0  0  0
  -20.9421  -29.8778   21.6840 H   0  0  0  0  0  0
  -26.0163  -38.2822   24.1419 H   0  0  0  0  0  0
  -32.8047  -19.2694   18.8536 H   0  0  0  0  0  0
  -31.4154  -21.1765   19.3593 H   0  0  0  0  0  0
  -32.1666  -17.0112   19.3621 H   0  0  0  0  0  0
  -27.0636  -25.2368   21.5305 H   0  0  0  0  0  0
  -27.0549  -20.6612   21.1325 H   0  0  0  0  0  0
  -28.2215  -20.8522   22.4601 H   0  0  0  0  0  0
  -28.9309  -15.8928   20.8532 H   0  0  0  0  0  0
  1 25  1  0  0  0
  1 30  2  0  0  0
  1 83  1  0  0  0
  2  3  1  0  0  0
  2 25  1  0  0  0
  2 87  1  0  0  0
  2 88  1  0  0  0
  3  4  1  0  0  0
  3 89  1  0  0  0
  3 90  1  0  0  0
  4  5  1  0  0  0
  4 91  1  0  0  0
  4 92  1  0  0  0
  5  6  1  0  0  0
  5 26  1  0  0  0
  5 93  1  0  0  0
  6 25  1  0  0  0
  6 94  1  0  0  0
  6 95  1  0  0  0
  7  8  2  0  0  0
  7 26  1  0  0  0
  7 29  1  0  0  0
  8  9  1  0  0  0
  8 22  1  0  0  0
  9 10  1  0  0  0
  9 27  2  0  0  0
 10 11  2  0  0  0
 10 15  1  0  0  0
 11 12  1  0  0  0
 11 96  1  0  0  0
 12 13  2  0  0  0
 12 97  1  0  0  0
 13 14  1  0  0  0
 13 31  1  0  0  0
 14 15  2  0  0  0
 14 98  1  0  0  0
 15 99  1  0  0  0
 16 17  2  0  0  0
 16 21  1  0  0  0
 16 31  1  0  0  0
 17 18  1  0  0  0
 17100  1  0  0  0
 18 19  2  0  0  0
 18101  1  0  0  0
 19 20  1  0  0  0
 19 24  1  0  0  0
 20 21  2  0  0  0
 20102  1  0  0  0
 21 23  1  0  0  0
 22 28  1  0  0  0
 22 32  2  0  0  0
 26 27  1  0  0  0
 28103  1  0  0  0
 28104  1  0  0  0
 29105  1  0  0  0
 29106  1  0  0  0
 33 34  1  0  0  0
 33 66  1  0  0  0
 33 70  2  0  0  0
 34 36  1  0  0  0
 34 59  1  0  0  0
 34107  1  0  0  0
 35 44  2  0  0  0
 35 45  1  0  0  0
 35 68  1  0  0  0
 36 56  1  0  0  0
 36108  1  0  0  0
 37 39  1  0  0  0
 37 47  1  0  0  0
 37 66  1  0  0  0
 37109  1  0  0  0
 38 43  2  0  0  0
 38 46  1  0  0  0
 38 47  1  0  0  0
 39 64  1  0  0  0
 39 67  2  0  0  0
 40 52  1  0  0  0
 40 53  2  0  0  0
 40 58  1  0  0  0
 41110  1  0  0  0
 41111  1  0  0  0
 41112  1  0  0  0
 41 48  1  0  0  0
 42 43  1  0  0  0
 42 66  1  0  0  0
 42113  1  0  0  0
 42114  1  0  0  0
 43 44  1  0  0  0
 44115  1  0  0  0
 45 46  2  0  0  0
 45116  1  0  0  0
 46117  1  0  0  0
 47118  1  0  0  0
 47119  1  0  0  0
 48 56  1  0  0  0
 48 65  1  0  0  0
 48120  1  0  0  0
 49 50  1  0  0  0
 49 53  1  0  0  0
 49 64  1  0  0  0
 49121  1  0  0  0
 50 51  1  0  0  0
 50122  1  0  0  0
 50123  1  0  0  0
 51 52  1  0  0  0
 51124  1  0  0  0
 51125  1  0  0  0
 52126  1  0  0  0
 52127  1  0  0  0
 53 54  1  0  0  0
 54 55  2  0  0  0
 54128  1  0  0  0
 55 57  1  0  0  0
 55129  1  0  0  0
 56 69  2  0  0  0
 57 58  2  0  0  0
 57130  1  0  0  0
 58131  1  0  0  0
 59 60  1  0  0  0
 59 61  1  0  0  0
 59 62  1  0  0  0
 60132  1  0  0  0
 60133  1  0  0  0
 60134  1  0  0  0
 61135  1  0  0  0
 61136  1  0  0  0
 61137  1  0  0  0
 62138  1  0  0  0
 62139  1  0  0  0
 62140  1  0  0  0
 63 65  1  0  0  0
 63141  1  0  0  0
 63142  1  0  0  0
 63143  1  0  0  0
 64144  1  0  0  0
 65145  1  0  0  0
 68 80  1  0  0  0
 71 72  2  0  0  0
 71 73  1  0  0  0
 71146  1  0  0  0
 72 74  1  0  0  0
 72147  1  0  0  0
 73 75  2  0  0  0
 73148  1  0  0  0
 74 76  2  0  0  0
 74 82  1  0  0  0
 75 76  1  0  0  0
 75 83  1  0  0  0
 76 86  1  0  0  0
 77 78  1  0  0  0
 77 79  1  0  0  0
 77 80  2  0  0  0
 78 81  1  0  0  0
 78 84  2  0  0  0
 79 82  1  0  0  0
 79 85  2  0  0  0
 80149  1  0  0  0
 81 82  1  0  0  0
 81150  1  0  0  0
 81151  1  0  0  0
 83152  1  0  0  0
M  ISO  4   1 100  68 101  80 101  83 100
M  END
> <chiral flag>
0

> <version>
0

> <s_m_source_file>
/data/baiqing/PycharmProjects/Reinvent-master-3.2/result/LINK_invent/BTK/process_docking_weight1_custom_product_contain_oxygen_bond_distance_aromatic_linkinvent_7_9_3/rearranged_h_0086.sdf

> <i_m_source_file_index>
58

> <r_mmod_Potential_Energy-OPLS-2005>
353.203979492188

> <r_mmod_Stretch_Energy-OPLS-2005>
175.163299560547

> <r_mmod_Bend_Energy-OPLS-2005>
276.114807128906

> <r_mmod_Torsional_Energy-OPLS-2005>
253.714904785156

> <r_mmod_Improper_Torsional_Energy-OPLS-2005>
4.19779348373413

> <r_mmod_Van_der_Waal_Energy-OPLS-2005>
145.604278564453

> <r_mmod_Electrostatic_Energy-OPLS-2005>
-409.689544677734

> <r_mmod_Solvation_Energy-OPLS-2005>
-224.991439819336

> <b_mmod_Minimization_Converged-OPLS-2005>
0

> <r_mmod_RMS_Derivative-OPLS-2005>
1.46003913879395

$$$$
58
                    3D
 Structure written by MMmdl.
158167  0  0  1  0            999 V2000
  -30.6268  -14.7462   20.2709 C   0  0  0  0  0  0
  -30.4412  -12.4007   19.4547 C   0  0  0  0  0  0
  -29.4917  -12.2777   18.2360 C   0  0  0  0  0  0
  -28.0069  -12.2585   18.6518 C   0  0  0  0  0  0
  -27.6345  -13.2007   19.8350 C   0  0  2  0  0  0
  -28.7087  -13.2045   20.9452 C   0  0  0  0  0  0
  -25.2527  -13.8172   20.5787 C   0  0  0  0  0  0
  -24.1795  -13.0435   20.9267 C   0  0  0  0  0  0
  -24.6343  -11.6914   20.8769 C   0  0  0  0  0  0
  -23.9004  -10.4302   21.0393 C   0  0  0  0  0  0
  -24.3580   -9.4234   21.9169 C   0  0  0  0  0  0
  -23.6275   -8.2252   22.0741 C   0  0  0  0  0  0
  -22.4251   -8.0274   21.3537 C   0  0  0  0  0  0
  -21.9881   -9.0235   20.4620 C   0  0  0  0  0  0
  -22.7190  -10.2138   20.3025 C   0  0  0  0  0  0
  -21.6880   -6.0720   22.5271 C   0  0  0  0  0  0
  -21.4028   -6.5612   23.8208 C   0  0  0  0  0  0
  -21.3650   -5.6771   24.9152 C   0  0  0  0  0  0
  -21.6058   -4.3037   24.7216 C   0  0  0  0  0  0
  -21.8826   -3.8125   23.4331 C   0  0  0  0  0  0
  -21.9210   -4.6938   22.3389 C   0  0  0  0  0  0
  -22.7816  -13.5212   21.1894 C   0  0  0  0  0  0
  -22.1676   -4.2140   21.0962 F   0  0  0  0  0  0
  -21.5586   -3.4491   25.7711 F   0  0  0  0  0  0
  -29.9904  -13.5215   20.3006 N   0  0  0  0  0  0
  -26.2919  -12.9304   20.3371 N   0  0  0  0  0  0
  -25.9269  -11.6479   20.5854 N   0  0  0  0  0  0
  -22.0465  -12.8190   22.0445 N   0  0  0  0  0  0
  -25.4199  -15.1909   20.4201 N   0  0  0  0  0  0
  -31.8585  -14.8016   20.2823 O   0  0  0  0  0  0
  -21.6634   -6.8864   21.4237 O   0  0  0  0  0  0
  -22.3462  -14.5503   20.6719 O   0  0  0  0  0  0
  -24.6266  -31.8617   23.2068 C   0  0  0  0  0  0
  -25.9092  -32.4781   23.8409 C   0  0  1  0  0  0
  -27.2248  -27.3164   20.1016 C   0  0  0  0  0  0
  -25.5920  -33.8591   24.2300 N   0  0  0  0  0  0
  -23.4198  -30.4867   21.5543 C   0  0  2  0  0  0
  -24.8639  -28.9490   20.1135 C   0  0  0  0  0  0
  -22.7477  -29.4625   22.4988 C   0  0  0  0  0  0
  -18.0289  -28.1361   22.8483 C   0  0  0  0  0  0
  -24.1481  -36.7303   23.2647 C   0  0  0  0  0  0
  -25.9639  -30.7835   21.3834 C   0  0  0  0  0  0
  -26.0357  -29.4134   20.7237 C   0  0  0  0  0  0
  -27.2143  -28.6077   20.7174 C   0  0  0  0  0  0
  -26.0297  -26.9277   19.4425 C   0  0  0  0  0  0
  -24.8634  -27.7091   19.4671 C   0  0  0  0  0  0
  -23.6340  -29.8312   20.1665 C   0  0  0  0  0  0
  -25.4103  -36.3109   24.0352 C   0  0  1  0  0  0
  -20.5878  -28.3699   23.1288 C   0  0  2  0  0  0
  -20.6758  -26.9422   22.5398 C   0  0  0  0  0  0
  -19.5757  -26.6381   21.5220 C   0  0  0  0  0  0
  -18.1947  -26.7901   22.1624 C   0  0  0  0  0  0
  -19.1526  -28.8848   23.2867 C   0  0  0  0  0  0
  -18.9457  -30.1448   23.8875 C   0  0  0  0  0  0
  -17.6443  -30.6539   24.0563 C   0  0  0  0  0  0
  -25.9042  -34.9461   23.5131 C   0  0  0  0  0  0
  -16.5340  -29.9030   23.6312 C   0  0  0  0  0  0
  -16.7274  -28.6467   23.0313 C   0  0  0  0  0  0
  -26.4469  -31.6610   25.0782 C   0  0  0  0  0  0
  -25.3707  -31.3713   26.1513 C   0  0  0  0  0  0
  -27.0322  -30.3049   24.6226 C   0  0  0  0  0  0
  -27.6025  -32.4368   25.7534 C   0  0  0  0  0  0
  -27.5585  -37.1833   24.8481 C   0  0  0  0  0  0
  -21.4182  -29.3081   22.3727 N   0  0  0  0  0  0
  -26.4311  -37.3805   23.9409 N   0  0  0  0  0  0
  -24.6891  -31.0616   22.1040 N   0  0  0  0  0  0
  -23.4206  -28.8160   23.3039 O   0  0  0  0  0  0
  -28.3320  -26.4418   20.1629 O   0  0  0  0  0  0
  -26.5621  -34.8939   22.4700 O   0  0  0  0  0  0
  -23.5429  -32.1415   23.7391 O   0  0  0  0  0  0
  -29.7735  -19.3027   21.3312 C   0  0  0  0  0  0
  -29.8577  -17.8768   21.1729 C   0  0  0  0  0  0
  -30.1247  -18.1964   18.8135 C   0  0  0  0  0  0
  -29.8100  -20.2027   20.2275 C   0  0  0  0  0  0
  -30.0114  -17.2622   19.8986 C   0  0  0  0  0  0
  -29.9952  -19.6064   18.9552 C   0  0  0  0  0  0
  -30.2860  -23.8396   20.6047 C   0  0  0  0  0  0
  -29.0287  -23.8512   20.1571 C   0  0  0  0  0  0
  -30.7289  -22.4601   20.7573 C   0  0  0  0  0  0
  -28.6450  -22.4346   20.0214 C   0  0  0  0  0  0
  -28.4342  -15.9276   17.7076 C   0  0  0  0  0  0
  -29.5572  -15.4960   18.3174 C   0  0  0  0  0  0
  -28.0982  -25.0377   19.7360 C   0  0  0  0  0  0
  -29.7077  -21.6630   20.3761 N   0  0  0  0  0  0
  -30.0306  -20.4034   17.8086 N   0  0  0  0  0  0
  -29.9400  -15.7911   19.6420 N   0  0  0  0  0  0
  -31.8305  -22.0799   21.1680 O   0  0  0  0  0  0
  -27.5493  -21.9962   19.6554 O   0  0  0  0  0  0
  -31.4724  -12.5253   19.1213 H   0  0  0  0  0  0
  -30.4220  -11.4770   20.0327 H   0  0  0  0  0  0
  -29.7209  -11.3451   17.7213 H   0  0  0  0  0  0
  -29.6626  -13.0271   17.4695 H   0  0  0  0  0  0
  -27.7890  -11.2251   18.9309 H   0  0  0  0  0  0
  -27.3756  -12.4719   17.7885 H   0  0  0  0  0  0
  -27.5954  -14.2047   19.4339 H   0  0  0  0  0  0
  -28.7480  -12.2426   21.4580 H   0  0  0  0  0  0
  -28.4704  -13.9537   21.7013 H   0  0  0  0  0  0
  -25.2734   -9.5716   22.4732 H   0  0  0  0  0  0
  -24.0015   -7.4629   22.7445 H   0  0  0  0  0  0
  -21.0830   -8.8713   19.8899 H   0  0  0  0  0  0
  -22.3639  -10.9656   19.6104 H   0  0  0  0  0  0
  -21.2023   -7.6126   23.9698 H   0  0  0  0  0  0
  -21.1467   -6.0486   25.9065 H   0  0  0  0  0  0
  -22.0624   -2.7592   23.2821 H   0  0  0  0  0  0
  -22.4038  -11.9859   22.4902 H   0  0  0  0  0  0
  -21.1061  -13.1198   22.2588 H   0  0  0  0  0  0
  -24.6511  -15.8392   20.5250 H   0  0  0  0  0  0
  -26.2781  -15.6457   20.1376 H   0  0  0  0  0  0
  -26.7132  -32.5426   23.1146 H   0  0  0  0  0  0
  -25.0111  -33.9736   25.0485 H   0  0  0  0  0  0
  -22.7152  -31.3089   21.4136 H   0  0  0  0  0  0
  -23.3782  -35.9611   23.3306 H   0  0  0  0  0  0
  -24.3579  -36.8925   22.2065 H   0  0  0  0  0  0
  -23.7205  -37.6500   23.6655 H   0  0  0  0  0  0
  -26.0998  -31.5442   20.6134 H   0  0  0  0  0  0
  -26.8426  -30.8306   22.0162 H   0  0  0  0  0  0
  -28.1071  -28.9639   21.2126 H   0  0  0  0  0  0
  -25.9428  -26.0044   18.8915 H   0  0  0  0  0  0
  -23.9683  -27.3524   18.9746 H   0  0  0  0  0  0
  -23.7616  -30.6134   19.4179 H   0  0  0  0  0  0
  -22.7505  -29.2695   19.8570 H   0  0  0  0  0  0
  -25.1284  -36.2004   25.0865 H   0  0  0  0  0  0
  -20.9963  -28.3293   24.1419 H   0  0  0  0  0  0
  -21.6605  -26.7467   22.1147 H   0  0  0  0  0  0
  -20.5685  -26.2292   23.3594 H   0  0  0  0  0  0
  -19.6917  -25.6296   21.1252 H   0  0  0  0  0  0
  -19.6641  -27.3192   20.6752 H   0  0  0  0  0  0
  -17.4194  -26.6671   21.4052 H   0  0  0  0  0  0
  -18.0338  -26.0029   22.9015 H   0  0  0  0  0  0
  -19.7919  -30.7293   24.2248 H   0  0  0  0  0  0
  -17.4967  -31.6189   24.5186 H   0  0  0  0  0  0
  -15.5331  -30.2886   23.7647 H   0  0  0  0  0  0
  -15.8700  -28.0782   22.6991 H   0  0  0  0  0  0
  -24.5874  -30.7063   25.7854 H   0  0  0  0  0  0
  -24.8894  -32.2847   26.5022 H   0  0  0  0  0  0
  -25.8048  -30.8850   27.0259 H   0  0  0  0  0  0
  -26.2886  -29.6802   24.1256 H   0  0  0  0  0  0
  -27.4044  -29.7296   25.4718 H   0  0  0  0  0  0
  -27.8743  -30.4359   23.9420 H   0  0  0  0  0  0
  -27.2629  -33.3689   26.2077 H   0  0  0  0  0  0
  -28.3836  -32.6934   25.0356 H   0  0  0  0  0  0
  -28.0691  -31.8535   26.5488 H   0  0  0  0  0  0
  -28.2651  -38.0091   24.7514 H   0  0  0  0  0  0
  -28.1035  -36.2636   24.6322 H   0  0  0  0  0  0
  -27.2291  -37.1492   25.8886 H   0  0  0  0  0  0
  -20.9356  -29.8848   21.6989 H   0  0  0  0  0  0
  -26.0198  -38.2909   24.1404 H   0  0  0  0  0  0
  -29.6535  -19.7053   22.3259 H   0  0  0  0  0  0
  -29.7546  -17.2591   22.0521 H   0  0  0  0  0  0
  -30.2596  -17.8320   17.8047 H   0  0  0  0  0  0
  -30.8975  -24.7118   20.7777 H   0  0  0  0  0  0
  -27.7049  -16.5435   18.2164 H   0  0  0  0  0  0
  -28.2273  -15.6668   16.6791 H   0  0  0  0  0  0
  -30.2930  -14.9141   17.7841 H   0  0  0  0  0  0
  -27.1199  -24.7168   20.0893 H   0  0  0  0  0  0
  -28.0760  -25.0308   18.6454 H   0  0  0  0  0  0
  -29.9525  -19.9172   16.9208 H   0  0  0  0  0  0
  -29.4060  -21.2007   17.8205 H   0  0  0  0  0  0
  1 25  1  0  0  0
  1 30  2  0  0  0
  1 86  1  0  0  0
  2  3  1  0  0  0
  2 25  1  0  0  0
  2 89  1  0  0  0
  2 90  1  0  0  0
  3  4  1  0  0  0
  3 91  1  0  0  0
  3 92  1  0  0  0
  4  5  1  0  0  0
  4 93  1  0  0  0
  4 94  1  0  0  0
  5  6  1  0  0  0
  5 26  1  0  0  0
  5 95  1  0  0  0
  6 25  1  0  0  0
  6 96  1  0  0  0
  6 97  1  0  0  0
  7  8  2  0  0  0
  7 26  1  0  0  0
  7 29  1  0  0  0
  8  9  1  0  0  0
  8 22  1  0  0  0
  9 10  1  0  0  0
  9 27  2  0  0  0
 10 11  2  0  0  0
 10 15  1  0  0  0
 11 12  1  0  0  0
 11 98  1  0  0  0
 12 13  2  0  0  0
 12 99  1  0  0  0
 13 14  1  0  0  0
 13 31  1  0  0  0
 14 15  2  0  0  0
 14100  1  0  0  0
 15101  1  0  0  0
 16 17  2  0  0  0
 16 21  1  0  0  0
 16 31  1  0  0  0
 17 18  1  0  0  0
 17102  1  0  0  0
 18 19  2  0  0  0
 18103  1  0  0  0
 19 20  1  0  0  0
 19 24  1  0  0  0
 20 21  2  0  0  0
 20104  1  0  0  0
 21 23  1  0  0  0
 22 28  1  0  0  0
 22 32  2  0  0  0
 26 27  1  0  0  0
 28105  1  0  0  0
 28106  1  0  0  0
 29107  1  0  0  0
 29108  1  0  0  0
 33 34  1  0  0  0
 33 66  1  0  0  0
 33 70  2  0  0  0
 34 36  1  0  0  0
 34 59  1  0  0  0
 34109  1  0  0  0
 35 44  2  0  0  0
 35 45  1  0  0  0
 35 68  1  0  0  0
 36 56  1  0  0  0
 36110  1  0  0  0
 37 39  1  0  0  0
 37 47  1  0  0  0
 37 66  1  0  0  0
 37111  1  0  0  0
 38 43  2  0  0  0
 38 46  1  0  0  0
 38 47  1  0  0  0
 39 64  1  0  0  0
 39 67  2  0  0  0
 40 52  1  0  0  0
 40 53  2  0  0  0
 40 58  1  0  0  0
 41112  1  0  0  0
 41113  1  0  0  0
 41114  1  0  0  0
 41 48  1  0  0  0
 42 43  1  0  0  0
 42 66  1  0  0  0
 42115  1  0  0  0
 42116  1  0  0  0
 43 44  1  0  0  0
 44117  1  0  0  0
 45 46  2  0  0  0
 45118  1  0  0  0
 46119  1  0  0  0
 47120  1  0  0  0
 47121  1  0  0  0
 48 56  1  0  0  0
 48 65  1  0  0  0
 48122  1  0  0  0
 49 50  1  0  0  0
 49 53  1  0  0  0
 49 64  1  0  0  0
 49123  1  0  0  0
 50 51  1  0  0  0
 50124  1  0  0  0
 50125  1  0  0  0
 51 52  1  0  0  0
 51126  1  0  0  0
 51127  1  0  0  0
 52128  1  0  0  0
 52129  1  0  0  0
 53 54  1  0  0  0
 54 55  2  0  0  0
 54130  1  0  0  0
 55 57  1  0  0  0
 55131  1  0  0  0
 56 69  2  0  0  0
 57 58  2  0  0  0
 57132  1  0  0  0
 58133  1  0  0  0
 59 60  1  0  0  0
 59 61  1  0  0  0
 59 62  1  0  0  0
 60134  1  0  0  0
 60135  1  0  0  0
 60136  1  0  0  0
 61137  1  0  0  0
 61138  1  0  0  0
 61139  1  0  0  0
 62140  1  0  0  0
 62141  1  0  0  0
 62142  1  0  0  0
 63 65  1  0  0  0
 63143  1  0  0  0
 63144  1  0  0  0
 63145  1  0  0  0
 64146  1  0  0  0
 65147  1  0  0  0
 68 83  1  0  0  0
 71 72  2  0  0  0
 71 74  1  0  0  0
 71148  1  0  0  0
 72 75  1  0  0  0
 72149  1  0  0  0
 73 75  2  0  0  0
 73 76  1  0  0  0
 73150  1  0  0  0
 74 76  2  0  0  0
 74 84  1  0  0  0
 75 86  1  0  0  0
 76 85  1  0  0  0
 77 78  2  0  0  0
 77 79  1  0  0  0
 77151  1  0  0  0
 78 80  1  0  0  0
 78 83  1  0  0  0
 79 84  1  0  0  0
 79 87  2  0  0  0
 80 84  1  0  0  0
 80 88  2  0  0  0
 81 82  2  0  0  0
 81152  1  0  0  0
 81153  1  0  0  0
 82 86  1  0  0  0
 82154  1  0  0  0
 83155  1  0  0  0
 83156  1  0  0  0
 85157  1  0  0  0
 85158  1  0  0  0
M  ISO  4   1 100  68 101  83 101  86 100
M  END
> <chiral flag>
0

> <version>
0

> <s_m_source_file>
/data/baiqing/PycharmProjects/Reinvent-master-3.2/result/LINK_invent/BTK/process_docking_weight1_custom_product_contain_oxygen_bond_distance_aromatic_linkinvent_7_9_3/rearranged_h_0086.sdf

> <i_m_source_file_index>
59

> <r_mmod_Potential_Energy-OPLS-2005>
319.7294921875

> <r_mmod_Stretch_Energy-OPLS-2005>
94.7883682250977

> <r_mmod_Bend_Energy-OPLS-2005>
193.48307800293

> <r_mmod_Torsional_Energy-OPLS-2005>
391.575439453125

> <r_mmod_Improper_Torsional_Energy-OPLS-2005>
27.6537532806396

> <r_mmod_Van_der_Waal_Energy-OPLS-2005>
169.400207519531

> <r_mmod_Electrostatic_Energy-OPLS-2005>
-415.195739746094

> <r_mmod_Solvation_Energy-OPLS-2005>
-240.663391113281

> <b_mmod_Minimization_Converged-OPLS-2005>
0

> <r_mmod_RMS_Derivative-OPLS-2005>
6.06044483184814

$$$$
59
                    3D
 Structure written by MMmdl.
160169  0  0  1  0            999 V2000
  -30.8059  -14.3523   20.7344 C   0  0  0  0  0  0
  -30.4144  -12.3051   19.3995 C   0  0  0  0  0  0
  -29.4854  -12.5396   18.1946 C   0  0  0  0  0  0
  -28.0135  -12.3728   18.6093 C   0  0  0  0  0  0
  -27.6657  -13.2009   19.8724 C   0  0  2  0  0  0
  -28.6992  -12.9599   20.9954 C   0  0  0  0  0  0
  -25.2621  -13.8146   20.5665 C   0  0  0  0  0  0
  -24.1863  -13.0428   20.9147 C   0  0  0  0  0  0
  -24.6411  -11.6890   20.8722 C   0  0  0  0  0  0
  -23.9084  -10.4273   21.0405 C   0  0  0  0  0  0
  -24.3631   -9.4184   21.9187 C   0  0  0  0  0  0
  -23.6292   -8.2226   22.0753 C   0  0  0  0  0  0
  -22.4276   -8.0271   21.3536 C   0  0  0  0  0  0
  -21.9912   -9.0257   20.4652 C   0  0  0  0  0  0
  -22.7249  -10.2131   20.3067 C   0  0  0  0  0  0
  -21.6845   -6.0728   22.5269 C   0  0  0  0  0  0
  -21.4007   -6.5636   23.8200 C   0  0  0  0  0  0
  -21.3667   -5.6790   24.9166 C   0  0  0  0  0  0
  -21.6051   -4.3051   24.7216 C   0  0  0  0  0  0
  -21.8824   -3.8136   23.4336 C   0  0  0  0  0  0
  -21.9191   -4.6954   22.3393 C   0  0  0  0  0  0
  -22.7893  -13.5249   21.1807 C   0  0  0  0  0  0
  -22.1671   -4.2138   21.0967 F   0  0  0  0  0  0
  -21.5630   -3.4542   25.7736 F   0  0  0  0  0  0
  -30.0498  -13.2493   20.4697 N   0  0  0  0  0  0
  -26.3049  -12.9303   20.3321 N   0  0  0  0  0  0
  -25.9334  -11.6468   20.5735 N   0  0  0  0  0  0
  -22.0524  -12.8270   22.0380 N   0  0  0  0  0  0
  -25.4358  -15.1869   20.4113 N   0  0  0  0  0  0
  -31.7764  -14.6416   20.0327 O   0  0  0  0  0  0
  -21.6631   -6.8874   21.4234 O   0  0  0  0  0  0
  -22.3583  -14.5554   20.6642 O   0  0  0  0  0  0
  -24.6104  -31.8697   23.2122 C   0  0  0  0  0  0
  -25.9010  -32.4826   23.8402 C   0  0  1  0  0  0
  -27.2300  -27.4674   20.0910 C   0  0  0  0  0  0
  -25.5888  -33.8631   24.2341 N   0  0  0  0  0  0
  -23.3961  -30.4922   21.5520 C   0  0  2  0  0  0
  -24.8430  -28.9633   20.1122 C   0  0  0  0  0  0
  -22.7385  -29.4655   22.5007 C   0  0  0  0  0  0
  -18.0265  -28.1346   22.8490 C   0  0  0  0  0  0
  -24.1493  -36.7320   23.2636 C   0  0  0  0  0  0
  -25.9208  -30.8455   21.3593 C   0  0  0  0  0  0
  -25.9994  -29.4820   20.7085 C   0  0  0  0  0  0
  -27.1991  -28.7394   20.6997 C   0  0  0  0  0  0
  -26.0645  -26.9550   19.4895 C   0  0  0  0  0  0
  -24.8674  -27.6968   19.5007 C   0  0  0  0  0  0
  -23.6005  -29.8224   20.1664 C   0  0  0  0  0  0
  -25.4108  -36.3113   24.0339 C   0  0  1  0  0  0
  -20.5861  -28.3636   23.1331 C   0  0  2  0  0  0
  -20.6758  -26.9374   22.5423 C   0  0  0  0  0  0
  -19.5749  -26.6362   21.5208 C   0  0  0  0  0  0
  -18.1921  -26.7900   22.1612 C   0  0  0  0  0  0
  -19.1516  -28.8805   23.2909 C   0  0  0  0  0  0
  -18.9448  -30.1417   23.8916 C   0  0  0  0  0  0
  -17.6453  -30.6565   24.0552 C   0  0  0  0  0  0
  -25.9032  -34.9480   23.5133 C   0  0  0  0  0  0
  -16.5342  -29.9067   23.6314 C   0  0  0  0  0  0
  -16.7257  -28.6473   23.0350 C   0  0  0  0  0  0
  -26.4468  -31.6596   25.0707 C   0  0  0  0  0  0
  -25.3752  -31.3716   26.1474 C   0  0  0  0  0  0
  -27.0274  -30.3039   24.6042 C   0  0  0  0  0  0
  -27.6071  -32.4295   25.7429 C   0  0  0  0  0  0
  -27.5596  -37.1793   24.8456 C   0  0  0  0  0  0
  -21.4121  -29.3009   22.3739 N   0  0  0  0  0  0
  -26.4295  -37.3795   23.9416 N   0  0  0  0  0  0
  -24.6602  -31.0838   22.0997 N   0  0  0  0  0  0
  -23.4177  -28.8201   23.3037 O   0  0  0  0  0  0
  -28.3652  -26.7038   20.0855 O   0  0  0  0  0  0
  -26.5585  -34.8925   22.4693 O   0  0  0  0  0  0
  -23.5310  -32.1424   23.7553 O   0  0  0  0  0  0
  -30.4848  -19.4778   22.6138 C   0  0  0  0  0  0
  -29.9448  -20.7776   22.6730 C   0  0  0  0  0  0
  -29.4176  -20.6645   20.3359 C   0  0  0  0  0  0
  -30.5147  -18.7579   21.4011 C   0  0  0  0  0  0
  -29.9377  -19.3464   20.2441 C   0  0  0  0  0  0
  -29.4199  -21.4232   21.5303 C   0  0  0  0  0  0
  -28.7716  -24.7168   21.3314 C   0  0  0  0  0  0
  -29.0406  -23.8497   22.4450 C   0  0  0  0  0  0
  -28.6172  -26.0498   21.2603 C   0  0  0  0  0  0
  -30.6261  -16.3772   22.2426 C   0  0  0  0  0  0
  -30.4591  -15.0573   21.9698 C   0  0  0  0  0  0
  -28.8695  -18.6450   18.3089 C   0  0  0  0  0  0
  -31.1980  -17.4281   21.3697 C   0  0  0  0  0  0
  -28.7645  -23.5615   20.3634 C   0  0  0  0  0  0
  -28.8000  -17.9615   16.9690 C   0  0  0  0  0  0
  -29.9236  -18.6530   19.0218 N   0  0  0  0  0  0
  -28.9237  -22.7576   21.5843 N   0  0  0  0  0  0
  -29.3660  -24.0690   23.5929 O   0  0  0  0  0  0
  -32.2338  -17.2696   20.7185 O   0  0  0  0  0  0
  -31.4588  -12.3944   19.0941 H   0  0  0  0  0  0
  -30.3121  -11.2823   19.7654 H   0  0  0  0  0  0
  -29.7248  -11.8427   17.3912 H   0  0  0  0  0  0
  -29.6480  -13.5420   17.7948 H   0  0  0  0  0  0
  -27.8408  -11.3132   18.8026 H   0  0  0  0  0  0
  -27.3557  -12.6439   17.7824 H   0  0  0  0  0  0
  -27.7196  -14.2527   19.5912 H   0  0  0  0  0  0
  -28.6633  -11.9241   21.3339 H   0  0  0  0  0  0
  -28.4066  -13.5567   21.8564 H   0  0  0  0  0  0
  -25.2781   -9.5643   22.4762 H   0  0  0  0  0  0
  -23.9984   -7.4629   22.7499 H   0  0  0  0  0  0
  -21.0826   -8.8817   19.8980 H   0  0  0  0  0  0
  -22.3730  -10.9690   19.6193 H   0  0  0  0  0  0
  -21.2001   -7.6147   23.9714 H   0  0  0  0  0  0
  -21.1495   -6.0511   25.9072 H   0  0  0  0  0  0
  -22.0597   -2.7599   23.2847 H   0  0  0  0  0  0
  -22.4127  -11.9960   22.4819 H   0  0  0  0  0  0
  -21.1154  -13.1339   22.2561 H   0  0  0  0  0  0
  -24.6770  -15.8455   20.5438 H   0  0  0  0  0  0
  -26.2994  -15.6293   20.1218 H   0  0  0  0  0  0
  -26.7081  -32.5555   23.1177 H   0  0  0  0  0  0
  -25.0053  -33.9799   25.0492 H   0  0  0  0  0  0
  -22.6816  -31.3067   21.4155 H   0  0  0  0  0  0
  -23.3744  -35.9666   23.3299 H   0  0  0  0  0  0
  -24.3603  -36.8928   22.2052 H   0  0  0  0  0  0
  -23.7258  -37.6531   23.6647 H   0  0  0  0  0  0
  -26.0264  -31.6115   20.5899 H   0  0  0  0  0  0
  -26.8115  -30.9019   21.9727 H   0  0  0  0  0  0
  -28.0942  -29.1332   21.1601 H   0  0  0  0  0  0
  -26.0839  -25.9797   19.0241 H   0  0  0  0  0  0
  -23.9767  -27.2916   19.0406 H   0  0  0  0  0  0
  -23.6947  -30.5941   19.4022 H   0  0  0  0  0  0
  -22.7265  -29.2346   19.8800 H   0  0  0  0  0  0
  -25.1278  -36.1980   25.0827 H   0  0  0  0  0  0
  -20.9942  -28.3188   24.1456 H   0  0  0  0  0  0
  -20.5643  -26.2238   23.3599 H   0  0  0  0  0  0
  -21.6644  -26.7407   22.1242 H   0  0  0  0  0  0
  -19.6923  -25.6277   21.1225 H   0  0  0  0  0  0
  -19.6702  -27.3178   20.6746 H   0  0  0  0  0  0
  -17.4199  -26.6642   21.4006 H   0  0  0  0  0  0
  -18.0323  -26.0032   22.8993 H   0  0  0  0  0  0
  -19.7924  -30.7220   24.2301 H   0  0  0  0  0  0
  -17.5007  -31.6258   24.5134 H   0  0  0  0  0  0
  -15.5348  -30.2976   23.7625 H   0  0  0  0  0  0
  -15.8652  -28.0791   22.7077 H   0  0  0  0  0  0
  -24.5908  -30.7067   25.7830 H   0  0  0  0  0  0
  -24.8960  -32.2884   26.4923 H   0  0  0  0  0  0
  -25.8121  -30.8888   27.0220 H   0  0  0  0  0  0
  -26.2777  -29.6793   24.1159 H   0  0  0  0  0  0
  -27.4126  -29.7290   25.4470 H   0  0  0  0  0  0
  -27.8586  -30.4369   23.9109 H   0  0  0  0  0  0
  -27.2721  -33.3586   26.2056 H   0  0  0  0  0  0
  -28.3840  -32.6864   25.0209 H   0  0  0  0  0  0
  -28.0777  -31.8373   26.5290 H   0  0  0  0  0  0
  -28.2605  -38.0101   24.7533 H   0  0  0  0  0  0
  -28.1102  -36.2641   24.6231 H   0  0  0  0  0  0
  -27.2327  -37.1381   25.8859 H   0  0  0  0  0  0
  -20.9258  -29.8722   21.6968 H   0  0  0  0  0  0
  -26.0188  -38.2868   24.1438 H   0  0  0  0  0  0
  -30.9072  -19.0506   23.5126 H   0  0  0  0  0  0
  -29.9627  -21.2952   23.6224 H   0  0  0  0  0  0
  -29.0141  -21.1208   19.4436 H   0  0  0  0  0  0
  -28.6640  -26.7089   22.1154 H   0  0  0  0  0  0
  -30.2896  -16.7199   23.2087 H   0  0  0  0  0  0
  -30.0409  -14.4725   22.7731 H   0  0  0  0  0  0
  -27.9382  -19.1314   18.6161 H   0  0  0  0  0  0
  -29.6194  -23.4886   19.6886 H   0  0  0  0  0  0
  -27.8334  -23.3336   19.8416 H   0  0  0  0  0  0
  -29.7940  -17.8804   16.5280 H   0  0  0  0  0  0
  -28.1674  -18.5334   16.2909 H   0  0  0  0  0  0
  -28.3795  -16.9625   17.0782 H   0  0  0  0  0  0
  1 25  1  0  0  0
  1 30  2  0  0  0
  1 81  1  0  0  0
  2  3  1  0  0  0
  2 25  1  0  0  0
  2 90  1  0  0  0
  2 91  1  0  0  0
  3  4  1  0  0  0
  3 92  1  0  0  0
  3 93  1  0  0  0
  4  5  1  0  0  0
  4 94  1  0  0  0
  4 95  1  0  0  0
  5  6  1  0  0  0
  5 26  1  0  0  0
  5 96  1  0  0  0
  6 25  1  0  0  0
  6 97  1  0  0  0
  6 98  1  0  0  0
  7  8  2  0  0  0
  7 26  1  0  0  0
  7 29  1  0  0  0
  8  9  1  0  0  0
  8 22  1  0  0  0
  9 10  1  0  0  0
  9 27  2  0  0  0
 10 11  2  0  0  0
 10 15  1  0  0  0
 11 12  1  0  0  0
 11 99  1  0  0  0
 12 13  2  0  0  0
 12100  1  0  0  0
 13 14  1  0  0  0
 13 31  1  0  0  0
 14 15  2  0  0  0
 14101  1  0  0  0
 15102  1  0  0  0
 16 17  2  0  0  0
 16 21  1  0  0  0
 16 31  1  0  0  0
 17 18  1  0  0  0
 17103  1  0  0  0
 18 19  2  0  0  0
 18104  1  0  0  0
 19 20  1  0  0  0
 19 24  1  0  0  0
 20 21  2  0  0  0
 20105  1  0  0  0
 21 23  1  0  0  0
 22 28  1  0  0  0
 22 32  2  0  0  0
 26 27  1  0  0  0
 28106  1  0  0  0
 28107  1  0  0  0
 29108  1  0  0  0
 29109  1  0  0  0
 33 34  1  0  0  0
 33 66  1  0  0  0
 33 70  2  0  0  0
 34 36  1  0  0  0
 34 59  1  0  0  0
 34110  1  0  0  0
 35 44  2  0  0  0
 35 45  1  0  0  0
 35 68  1  0  0  0
 36 56  1  0  0  0
 36111  1  0  0  0
 37 39  1  0  0  0
 37 47  1  0  0  0
 37 66  1  0  0  0
 37112  1  0  0  0
 38 43  2  0  0  0
 38 46  1  0  0  0
 38 47  1  0  0  0
 39 64  1  0  0  0
 39 67  2  0  0  0
 40 52  1  0  0  0
 40 53  2  0  0  0
 40 58  1  0  0  0
 41113  1  0  0  0
 41114  1  0  0  0
 41115  1  0  0  0
 41 48  1  0  0  0
 42 43  1  0  0  0
 42 66  1  0  0  0
 42116  1  0  0  0
 42117  1  0  0  0
 43 44  1  0  0  0
 44118  1  0  0  0
 45 46  2  0  0  0
 45119  1  0  0  0
 46120  1  0  0  0
 47121  1  0  0  0
 47122  1  0  0  0
 48 56  1  0  0  0
 48 65  1  0  0  0
 48123  1  0  0  0
 49 50  1  0  0  0
 49 53  1  0  0  0
 49 64  1  0  0  0
 49124  1  0  0  0
 50 51  1  0  0  0
 50125  1  0  0  0
 50126  1  0  0  0
 51 52  1  0  0  0
 51127  1  0  0  0
 51128  1  0  0  0
 52129  1  0  0  0
 52130  1  0  0  0
 53 54  1  0  0  0
 54 55  2  0  0  0
 54131  1  0  0  0
 55 57  1  0  0  0
 55132  1  0  0  0
 56 69  2  0  0  0
 57 58  2  0  0  0
 57133  1  0  0  0
 58134  1  0  0  0
 59 60  1  0  0  0
 59 61  1  0  0  0
 59 62  1  0  0  0
 60135  1  0  0  0
 60136  1  0  0  0
 60137  1  0  0  0
 61138  1  0  0  0
 61139  1  0  0  0
 61140  1  0  0  0
 62141  1  0  0  0
 62142  1  0  0  0
 62143  1  0  0  0
 63 65  1  0  0  0
 63144  1  0  0  0
 63145  1  0  0  0
 63146  1  0  0  0
 64147  1  0  0  0
 65148  1  0  0  0
 68 79  1  0  0  0
 71 72  2  0  0  0
 71 74  1  0  0  0
 71149  1  0  0  0
 72 76  1  0  0  0
 72150  1  0  0  0
 73 75  1  0  0  0
 73 76  2  0  0  0
 73151  1  0  0  0
 74 75  2  0  0  0
 74 83  1  0  0  0
 75 86  1  0  0  0
 76 87  1  0  0  0
 77 78  1  0  0  0
 77 79  2  0  0  0
 77 84  1  0  0  0
 78 87  1  0  0  0
 78 88  2  0  0  0
 79152  1  0  0  0
 80 81  2  0  0  0
 80 83  1  0  0  0
 80153  1  0  0  0
 81154  1  0  0  0
 82 85  1  0  0  0
 82 86  2  0  0  0
 82155  1  0  0  0
 83 89  2  0  0  0
 84 87  1  0  0  0
 84156  1  0  0  0
 84157  1  0  0  0
 85158  1  0  0  0
 85159  1  0  0  0
 85160  1  0  0  0
M  ISO  4   1 100  68 101  79 101  81 100
M  END
> <chiral flag>
0

> <version>
0

> <s_m_source_file>
/data/baiqing/PycharmProjects/Reinvent-master-3.2/result/LINK_invent/BTK/process_docking_weight1_custom_product_contain_oxygen_bond_distance_aromatic_linkinvent_7_9_3/rearranged_h_0086.sdf

> <i_m_source_file_index>
60

> <r_mmod_Potential_Energy-OPLS-2005>
60.7458572387695

> <r_mmod_Stretch_Energy-OPLS-2005>
37.505672454834

> <r_mmod_Bend_Energy-OPLS-2005>
175.46891784668

> <r_mmod_Torsional_Energy-OPLS-2005>
247.71647644043

> <r_mmod_Improper_Torsional_Energy-OPLS-2005>
7.02580499649048

> <r_mmod_Van_der_Waal_Energy-OPLS-2005>
160.594116210938

> <r_mmod_Electrostatic_Energy-OPLS-2005>
-329.046295166016

> <r_mmod_Solvation_Energy-OPLS-2005>
-246.672073364258

> <b_mmod_Minimization_Converged-OPLS-2005>
0

> <r_mmod_RMS_Derivative-OPLS-2005>
2.32326745986938

$$$$
60
                    3D
 Structure written by MMmdl.
150159  0  0  1  0            999 V2000
  -30.5729  -14.7439   20.4846 C   0  0  0  0  0  0
  -30.4506  -12.4572   19.4680 C   0  0  0  0  0  0
  -29.5163  -12.5185   18.2365 C   0  0  0  0  0  0
  -28.0410  -12.3387   18.6486 C   0  0  0  0  0  0
  -27.6511  -13.2227   19.8625 C   0  0  2  0  0  0
  -28.6967  -13.1104   20.9949 C   0  0  0  0  0  0
  -25.2544  -13.8170   20.5678 C   0  0  0  0  0  0
  -24.1818  -13.0431   20.9182 C   0  0  0  0  0  0
  -24.6402  -11.6908   20.8743 C   0  0  0  0  0  0
  -23.9073  -10.4290   21.0407 C   0  0  0  0  0  0
  -24.3622   -9.4205   21.9183 C   0  0  0  0  0  0
  -23.6295   -8.2241   22.0754 C   0  0  0  0  0  0
  -22.4276   -8.0281   21.3546 C   0  0  0  0  0  0
  -21.9913   -9.0257   20.4649 C   0  0  0  0  0  0
  -22.7245  -10.2134   20.3059 C   0  0  0  0  0  0
  -21.6853   -6.0733   22.5279 C   0  0  0  0  0  0
  -21.4013   -6.5637   23.8211 C   0  0  0  0  0  0
  -21.3659   -5.6792   24.9175 C   0  0  0  0  0  0
  -21.6045   -4.3054   24.7227 C   0  0  0  0  0  0
  -21.8821   -3.8146   23.4349 C   0  0  0  0  0  0
  -21.9193   -4.6961   22.3404 C   0  0  0  0  0  0
  -22.7841  -13.5223   21.1847 C   0  0  0  0  0  0
  -22.1658   -4.2144   21.0983 F   0  0  0  0  0  0
  -21.5636   -3.4538   25.7742 F   0  0  0  0  0  0
  -30.0028  -13.4897   20.4304 N   0  0  0  0  0  0
  -26.2985  -12.9366   20.3328 N   0  0  0  0  0  0
  -25.9337  -11.6516   20.5772 N   0  0  0  0  0  0
  -22.0491  -12.8218   22.0413 N   0  0  0  0  0  0
  -25.4238  -15.1887   20.4079 N   0  0  0  0  0  0
  -31.7307  -14.9218   20.0917 O   0  0  0  0  0  0
  -21.6643   -6.8876   21.4241 O   0  0  0  0  0  0
  -22.3518  -14.5524   20.6694 O   0  0  0  0  0  0
  -24.6312  -31.8552   23.1981 C   0  0  0  0  0  0
  -25.9133  -32.4756   23.8332 C   0  0  1  0  0  0
  -27.2254  -27.2666   20.1305 C   0  0  0  0  0  0
  -25.5925  -33.8558   24.2251 N   0  0  0  0  0  0
  -23.4299  -30.4766   21.5411 C   0  0  2  0  0  0
  -24.8814  -28.9256   20.1086 C   0  0  0  0  0  0
  -22.7508  -29.4596   22.4906 C   0  0  0  0  0  0
  -18.0296  -28.1381   22.8488 C   0  0  0  0  0  0
  -24.1489  -36.7288   23.2640 C   0  0  0  0  0  0
  -25.9760  -30.7680   21.3805 C   0  0  0  0  0  0
  -26.0526  -29.3912   20.7222 C   0  0  0  0  0  0
  -27.2300  -28.5729   20.7259 C   0  0  0  0  0  0
  -26.0365  -26.8730   19.4798 C   0  0  0  0  0  0
  -24.8778  -27.6733   19.4756 C   0  0  0  0  0  0
  -23.6499  -29.8102   20.1576 C   0  0  0  0  0  0
  -25.4116  -36.3072   24.0324 C   0  0  1  0  0  0
  -20.5899  -28.3698   23.1263 C   0  0  2  0  0  0
  -20.6780  -26.9414   22.5406 C   0  0  0  0  0  0
  -19.5753  -26.6379   21.5212 C   0  0  0  0  0  0
  -18.1937  -26.7921   22.1632 C   0  0  0  0  0  0
  -19.1550  -28.8857   23.2869 C   0  0  0  0  0  0
  -18.9470  -30.1459   23.8886 C   0  0  0  0  0  0
  -17.6468  -30.6585   24.0562 C   0  0  0  0  0  0
  -25.9055  -34.9441   23.5092 C   0  0  0  0  0  0
  -16.5359  -29.9082   23.6329 C   0  0  0  0  0  0
  -16.7282  -28.6498   23.0354 C   0  0  0  0  0  0
  -26.4499  -31.6580   25.0723 C   0  0  0  0  0  0
  -25.3722  -31.3746   26.1445 C   0  0  0  0  0  0
  -27.0342  -30.2990   24.6221 C   0  0  0  0  0  0
  -27.6045  -32.4328   25.7501 C   0  0  0  0  0  0
  -27.5579  -37.1799   24.8466 C   0  0  0  0  0  0
  -21.4213  -29.3045   22.3650 N   0  0  0  0  0  0
  -26.4293  -37.3768   23.9407 N   0  0  0  0  0  0
  -24.6978  -31.0512   22.0961 N   0  0  0  0  0  0
  -23.4203  -28.8140   23.3013 O   0  0  0  0  0  0
  -28.2755  -26.3192   20.1831 O   0  0  0  0  0  0
  -26.5635  -34.8917   22.4666 O   0  0  0  0  0  0
  -23.5459  -32.1376   23.7270 O   0  0  0  0  0  0
  -30.3145  -19.5787   20.0086 C   0  0  0  0  0  0
  -30.5504  -18.1502   20.0558 C   0  0  0  0  0  0
  -28.3987  -19.3223   21.3474 C   0  0  0  0  0  0
  -29.2225  -20.2587   20.6507 C   0  0  0  0  0  0
  -29.6892  -17.2567   20.7605 C   0  0  0  0  0  0
  -28.6057  -17.9086   21.4006 C   0  0  0  0  0  0
  -28.4365  -23.7433   20.6153 C   0  0  0  0  0  0
  -27.9263  -22.5486   21.2796 C   0  0  0  0  0  0
  -27.9439  -25.0446   20.7333 C   0  0  0  0  0  0
  -29.5123  -22.8520   19.9215 C   0  0  0  0  0  0
  -28.8910  -21.7178   20.6722 N   0  0  0  0  0  0
  -29.7381  -15.7750   20.8724 N   0  0  0  0  0  0
  -26.9982  -22.4039   22.0491 O   0  0  0  0  0  0
  -27.7206  -17.1472   22.0893 F   0  0  0  0  0  0
  -31.4870  -12.6091   19.1613 H   0  0  0  0  0  0
  -30.4182  -11.4692   19.9296 H   0  0  0  0  0  0
  -29.7977  -11.7532   17.5117 H   0  0  0  0  0  0
  -29.6392  -13.4774   17.7308 H   0  0  0  0  0  0
  -27.8952  -11.2872   18.8979 H   0  0  0  0  0  0
  -27.3831  -12.5438   17.8033 H   0  0  0  0  0  0
  -27.6575  -14.2525   19.5042 H   0  0  0  0  0  0
  -28.7333  -12.0916   21.3832 H   0  0  0  0  0  0
  -28.4234  -13.7411   21.8422 H   0  0  0  0  0  0
  -25.2768   -9.5677   22.4757 H   0  0  0  0  0  0
  -24.0004   -7.4632   22.7473 H   0  0  0  0  0  0
  -21.0844   -8.8778   19.8955 H   0  0  0  0  0  0
  -22.3704  -10.9674   19.6171 H   0  0  0  0  0  0
  -21.2001   -7.6143   23.9713 H   0  0  0  0  0  0
  -21.1480   -6.0522   25.9078 H   0  0  0  0  0  0
  -22.0599   -2.7606   23.2853 H   0  0  0  0  0  0
  -22.4114  -11.9884   22.4802 H   0  0  0  0  0  0
  -21.1115  -13.1246   22.2635 H   0  0  0  0  0  0
  -24.6615  -15.8447   20.5357 H   0  0  0  0  0  0
  -26.2880  -15.6369   20.1328 H   0  0  0  0  0  0
  -26.7203  -32.5410   23.1078 H   0  0  0  0  0  0
  -25.0051  -33.9694   25.0382 H   0  0  0  0  0  0
  -22.7265  -31.2988   21.3937 H   0  0  0  0  0  0
  -23.3748  -35.9625   23.3305 H   0  0  0  0  0  0
  -24.3576  -36.8910   22.2054 H   0  0  0  0  0  0
  -23.7250  -37.6493   23.6663 H   0  0  0  0  0  0
  -26.1156  -31.5286   20.6111 H   0  0  0  0  0  0
  -26.8523  -30.8172   22.0149 H   0  0  0  0  0  0
  -28.1233  -28.9176   21.2275 H   0  0  0  0  0  0
  -25.9923  -25.9065   18.9975 H   0  0  0  0  0  0
  -23.9827  -27.3111   18.9883 H   0  0  0  0  0  0
  -23.7723  -30.5864   19.4013 H   0  0  0  0  0  0
  -22.7695  -29.2415   19.8526 H   0  0  0  0  0  0
  -25.1300  -36.1918   25.0817 H   0  0  0  0  0  0
  -20.9995  -28.3277   24.1382 H   0  0  0  0  0  0
  -20.5676  -26.2312   23.3615 H   0  0  0  0  0  0
  -21.6647  -26.7430   22.1201 H   0  0  0  0  0  0
  -19.6914  -25.6288   21.1247 H   0  0  0  0  0  0
  -19.6683  -27.3186   20.6740 H   0  0  0  0  0  0
  -17.4201  -26.6662   21.4041 H   0  0  0  0  0  0
  -18.0349  -26.0063   22.9032 H   0  0  0  0  0  0
  -19.7947  -30.7278   24.2245 H   0  0  0  0  0  0
  -17.5024  -31.6263   24.5169 H   0  0  0  0  0  0
  -15.5359  -30.2983   23.7654 H   0  0  0  0  0  0
  -15.8683  -28.0814   22.7072 H   0  0  0  0  0  0
  -24.5856  -30.7150   25.7767 H   0  0  0  0  0  0
  -24.8970  -32.2933   26.4897 H   0  0  0  0  0  0
  -25.8023  -30.8883   27.0209 H   0  0  0  0  0  0
  -26.2930  -29.6739   24.1226 H   0  0  0  0  0  0
  -27.3995  -29.7251   25.4750 H   0  0  0  0  0  0
  -27.8825  -30.4253   23.9487 H   0  0  0  0  0  0
  -27.2630  -33.3619   26.2078 H   0  0  0  0  0  0
  -28.3852  -32.6907   25.0332 H   0  0  0  0  0  0
  -28.0715  -31.8461   26.5420 H   0  0  0  0  0  0
  -28.2598  -38.0093   24.7499 H   0  0  0  0  0  0
  -28.1070  -36.2622   24.6306 H   0  0  0  0  0  0
  -27.2294  -37.1467   25.8869 H   0  0  0  0  0  0
  -20.9401  -29.8775   21.6860 H   0  0  0  0  0  0
  -26.0171  -38.2845   24.1396 H   0  0  0  0  0  0
  -31.0171  -20.1776   19.4465 H   0  0  0  0  0  0
  -31.4023  -17.7474   19.5268 H   0  0  0  0  0  0
  -27.5371  -19.6972   21.8789 H   0  0  0  0  0  0
  -27.1021  -25.1664   21.4035 H   0  0  0  0  0  0
  -30.5540  -23.0043   20.2088 H   0  0  0  0  0  0
  -29.4314  -22.7135   18.8421 H   0  0  0  0  0  0
  -28.8870  -15.4125   21.2766 H   0  0  0  0  0  0
  1 25  1  0  0  0
  1 30  2  0  0  0
  1 82  1  0  0  0
  2  3  1  0  0  0
  2 25  1  0  0  0
  2 85  1  0  0  0
  2 86  1  0  0  0
  3  4  1  0  0  0
  3 87  1  0  0  0
  3 88  1  0  0  0
  4  5  1  0  0  0
  4 89  1  0  0  0
  4 90  1  0  0  0
  5  6  1  0  0  0
  5 26  1  0  0  0
  5 91  1  0  0  0
  6 25  1  0  0  0
  6 92  1  0  0  0
  6 93  1  0  0  0
  7  8  2  0  0  0
  7 26  1  0  0  0
  7 29  1  0  0  0
  8  9  1  0  0  0
  8 22  1  0  0  0
  9 10  1  0  0  0
  9 27  2  0  0  0
 10 11  2  0  0  0
 10 15  1  0  0  0
 11 12  1  0  0  0
 11 94  1  0  0  0
 12 13  2  0  0  0
 12 95  1  0  0  0
 13 14  1  0  0  0
 13 31  1  0  0  0
 14 15  2  0  0  0
 14 96  1  0  0  0
 15 97  1  0  0  0
 16 17  2  0  0  0
 16 21  1  0  0  0
 16 31  1  0  0  0
 17 18  1  0  0  0
 17 98  1  0  0  0
 18 19  2  0  0  0
 18 99  1  0  0  0
 19 20  1  0  0  0
 19 24  1  0  0  0
 20 21  2  0  0  0
 20100  1  0  0  0
 21 23  1  0  0  0
 22 28  1  0  0  0
 22 32  2  0  0  0
 26 27  1  0  0  0
 28101  1  0  0  0
 28102  1  0  0  0
 29103  1  0  0  0
 29104  1  0  0  0
 33 34  1  0  0  0
 33 66  1  0  0  0
 33 70  2  0  0  0
 34 36  1  0  0  0
 34 59  1  0  0  0
 34105  1  0  0  0
 35 44  2  0  0  0
 35 45  1  0  0  0
 35 68  1  0  0  0
 36 56  1  0  0  0
 36106  1  0  0  0
 37 39  1  0  0  0
 37 47  1  0  0  0
 37 66  1  0  0  0
 37107  1  0  0  0
 38 43  2  0  0  0
 38 46  1  0  0  0
 38 47  1  0  0  0
 39 64  1  0  0  0
 39 67  2  0  0  0
 40 52  1  0  0  0
 40 53  2  0  0  0
 40 58  1  0  0  0
 41108  1  0  0  0
 41109  1  0  0  0
 41110  1  0  0  0
 41 48  1  0  0  0
 42 43  1  0  0  0
 42 66  1  0  0  0
 42111  1  0  0  0
 42112  1  0  0  0
 43 44  1  0  0  0
 44113  1  0  0  0
 45 46  2  0  0  0
 45114  1  0  0  0
 46115  1  0  0  0
 47116  1  0  0  0
 47117  1  0  0  0
 48 56  1  0  0  0
 48 65  1  0  0  0
 48118  1  0  0  0
 49 50  1  0  0  0
 49 53  1  0  0  0
 49 64  1  0  0  0
 49119  1  0  0  0
 50 51  1  0  0  0
 50120  1  0  0  0
 50121  1  0  0  0
 51 52  1  0  0  0
 51122  1  0  0  0
 51123  1  0  0  0
 52124  1  0  0  0
 52125  1  0  0  0
 53 54  1  0  0  0
 54 55  2  0  0  0
 54126  1  0  0  0
 55 57  1  0  0  0
 55127  1  0  0  0
 56 69  2  0  0  0
 57 58  2  0  0  0
 57128  1  0  0  0
 58129  1  0  0  0
 59 60  1  0  0  0
 59 61  1  0  0  0
 59 62  1  0  0  0
 60130  1  0  0  0
 60131  1  0  0  0
 60132  1  0  0  0
 61133  1  0  0  0
 61134  1  0  0  0
 61135  1  0  0  0
 62136  1  0  0  0
 62137  1  0  0  0
 62138  1  0  0  0
 63 65  1  0  0  0
 63139  1  0  0  0
 63140  1  0  0  0
 63141  1  0  0  0
 64142  1  0  0  0
 65143  1  0  0  0
 68 79  1  0  0  0
 71 72  2  0  0  0
 71 74  1  0  0  0
 71144  1  0  0  0
 72 75  1  0  0  0
 72145  1  0  0  0
 73 74  2  0  0  0
 73 76  1  0  0  0
 73146  1  0  0  0
 74 81  1  0  0  0
 75 76  2  0  0  0
 75 82  1  0  0  0
 76 84  1  0  0  0
 77 78  1  0  0  0
 77 79  2  0  0  0
 77 80  1  0  0  0
 78 81  1  0  0  0
 78 83  2  0  0  0
 79147  1  0  0  0
 80 81  1  0  0  0
 80148  1  0  0  0
 80149  1  0  0  0
 82150  1  0  0  0
M  ISO  4   1 100  68 101  79 101  82 100
M  END
> <chiral flag>
0

> <version>
0

> <s_m_source_file>
/data/baiqing/PycharmProjects/Reinvent-master-3.2/result/LINK_invent/BTK/process_docking_weight1_custom_product_contain_oxygen_bond_distance_aromatic_linkinvent_7_9_3/rearranged_h_0086.sdf

> <i_m_source_file_index>
61

> <r_mmod_Potential_Energy-OPLS-2005>
198.142578125

> <r_mmod_Stretch_Energy-OPLS-2005>
106.317687988281

> <r_mmod_Bend_Energy-OPLS-2005>
271.832885742188

> <r_mmod_Torsional_Energy-OPLS-2005>
219.378356933594

> <r_mmod_Improper_Torsional_Energy-OPLS-2005>
3.23730540275574

> <r_mmod_Van_der_Waal_Energy-OPLS-2005>
133.984222412109

> <r_mmod_Electrostatic_Energy-OPLS-2005>
-415.522491455078

> <r_mmod_Solvation_Energy-OPLS-2005>
-209.682037353516

> <b_mmod_Minimization_Converged-OPLS-2005>
0

> <r_mmod_RMS_Derivative-OPLS-2005>
0.625052928924561

$$$$
61
                    3D
 Structure written by MMmdl.
160169  0  0  1  0            999 V2000
  -30.5719  -14.9133   20.5420 C   0  0  0  0  0  0
  -30.4874  -12.5584   19.5279 C   0  0  0  0  0  0
  -29.5430  -12.5095   18.2765 C   0  0  0  0  0  0
  -28.0635  -12.3073   18.6766 C   0  0  0  0  0  0
  -27.6626  -13.1968   19.8740 C   0  0  2  0  0  0
  -28.7165  -13.0561   20.9947 C   0  0  0  0  0  0
  -25.2568  -13.7875   20.5684 C   0  0  0  0  0  0
  -24.1775  -13.0296   20.9188 C   0  0  0  0  0  0
  -24.6326  -11.6781   20.8793 C   0  0  0  0  0  0
  -23.9021  -10.4179   21.0432 C   0  0  0  0  0  0
  -24.3600   -9.4161   21.9231 C   0  0  0  0  0  0
  -23.6272   -8.2213   22.0790 C   0  0  0  0  0  0
  -22.4270   -8.0265   21.3562 C   0  0  0  0  0  0
  -21.9892   -9.0240   20.4672 C   0  0  0  0  0  0
  -22.7216  -10.2109   20.3077 C   0  0  0  0  0  0
  -21.6843   -6.0763   22.5281 C   0  0  0  0  0  0
  -21.4006   -6.5657   23.8224 C   0  0  0  0  0  0
  -21.3647   -5.6797   24.9172 C   0  0  0  0  0  0
  -21.6044   -4.3069   24.7213 C   0  0  0  0  0  0
  -21.8811   -3.8174   23.4330 C   0  0  0  0  0  0
  -21.9189   -4.6989   22.3392 C   0  0  0  0  0  0
  -22.7857  -13.5243   21.1764 C   0  0  0  0  0  0
  -22.1675   -4.2183   21.0977 F   0  0  0  0  0  0
  -21.5617   -3.4546   25.7727 F   0  0  0  0  0  0
  -30.0017  -13.6197   20.4871 N   0  0  0  0  0  0
  -26.3026  -12.9034   20.3383 N   0  0  0  0  0  0
  -25.9309  -11.6328   20.5826 N   0  0  0  0  0  0
  -22.0560  -12.8256   22.0343 N   0  0  0  0  0  0
  -25.4378  -15.1581   20.4042 N   0  0  0  0  0  0
  -31.6885  -15.0600   20.0124 O   0  0  0  0  0  0
  -21.6647   -6.8909   21.4254 O   0  0  0  0  0  0
  -22.3482  -14.5522   20.6584 O   0  0  0  0  0  0
  -24.6232  -31.8515   23.1848 C   0  0  0  0  0  0
  -25.9063  -32.4679   23.8249 C   0  0  1  0  0  0
  -27.3880  -27.3699   20.1064 C   0  0  0  0  0  0
  -25.5969  -33.8418   24.2121 N   0  0  0  0  0  0
  -23.4426  -30.4599   21.5019 C   0  0  2  0  0  0
  -24.9619  -28.9459   20.0739 C   0  0  0  0  0  0
  -22.7275  -29.4824   22.4557 C   0  0  0  0  0  0
  -18.0235  -28.1265   22.8550 C   0  0  0  0  0  0
  -24.1666  -36.7200   23.2646 C   0  0  0  0  0  0
  -25.9767  -30.8341   21.3736 C   0  0  0  0  0  0
  -26.0998  -29.4359   20.7314 C   0  0  0  0  0  0
  -27.3011  -28.6582   20.7284 C   0  0  0  0  0  0
  -26.2013  -26.9300   19.4505 C   0  0  0  0  0  0
  -25.0285  -27.6942   19.4420 C   0  0  0  0  0  0
  -23.7043  -29.8029   20.0918 C   0  0  0  0  0  0
  -25.4198  -36.2786   24.0297 C   0  0  1  0  0  0
  -20.5964  -28.3671   23.1289 C   0  0  2  0  0  0
  -20.6760  -26.9323   22.5425 C   0  0  0  0  0  0
  -19.5710  -26.6342   21.5226 C   0  0  0  0  0  0
  -18.1935  -26.7836   22.1652 C   0  0  0  0  0  0
  -19.1507  -28.8707   23.2998 C   0  0  0  0  0  0
  -18.9468  -30.1370   23.8918 C   0  0  0  0  0  0
  -17.6477  -30.6536   24.0592 C   0  0  0  0  0  0
  -25.8962  -34.9298   23.4866 C   0  0  0  0  0  0
  -16.5357  -29.9005   23.6314 C   0  0  0  0  0  0
  -16.7278  -28.6394   23.0375 C   0  0  0  0  0  0
  -26.4475  -31.6348   25.0487 C   0  0  0  0  0  0
  -25.3900  -31.3677   26.1377 C   0  0  0  0  0  0
  -27.0476  -30.2762   24.6022 C   0  0  0  0  0  0
  -27.5854  -32.4188   25.7292 C   0  0  0  0  0  0
  -27.5604  -37.1714   24.8484 C   0  0  0  0  0  0
  -21.3957  -29.3022   22.3465 N   0  0  0  0  0  0
  -26.4348  -37.3484   23.9350 N   0  0  0  0  0  0
  -24.6981  -31.0731   22.0765 N   0  0  0  0  0  0
  -23.3710  -28.8532   23.3055 O   0  0  0  0  0  0
  -28.5359  -26.5509   20.2071 O   0  0  0  0  0  0
  -26.5333  -34.8667   22.4263 O   0  0  0  0  0  0
  -23.5441  -32.1293   23.6850 O   0  0  0  0  0  0
  -28.3210  -20.0030   19.9810 C   0  0  0  0  0  0
  -27.9088  -18.7772   19.4340 C   0  0  0  0  0  0
  -30.0934  -18.8089   21.2009 C   0  0  0  0  0  0
  -29.4572  -20.0929   20.8145 C   0  0  0  0  0  0
  -28.6162  -17.5720   19.6717 C   0  0  0  0  0  0
  -29.6839  -17.4959   20.6136 C   0  0  0  0  0  0
  -28.4817  -24.0560   21.9110 C   0  0  0  0  0  0
  -28.9511  -21.7510   22.4946 C   0  0  0  0  0  0
  -29.0239  -23.9410   20.6964 C   0  0  0  0  0  0
  -28.3938  -22.9447   22.8074 C   0  0  0  0  0  0
  -29.6948  -22.6009   20.3429 C   0  0  0  0  0  0
  -29.0045  -15.8019   22.2226 C   0  0  0  0  0  0
  -28.6925  -25.1254   19.6913 C   0  0  0  0  0  0
  -29.5986  -21.5077   21.2591 N   0  0  0  0  0  0
  -28.0534  -16.4454   19.0600 N   0  0  0  0  0  0
  -29.9245  -16.0624   21.1186 N   0  0  0  0  0  0
  -30.3574  -22.4355   19.2989 O   0  0  0  0  0  0
  -27.3879  -22.9620   23.6973 O   0  0  0  0  0  0
  -31.5363  -12.7410   19.2875 H   0  0  0  0  0  0
  -30.4763  -11.5788   20.0079 H   0  0  0  0  0  0
  -29.8511  -11.6829   17.6437 H   0  0  0  0  0  0
  -29.6179  -13.4159   17.6625 H   0  0  0  0  0  0
  -27.9608  -11.2596   18.9707 H   0  0  0  0  0  0
  -27.3861  -12.4291   17.8197 H   0  0  0  0  0  0
  -27.6625  -14.2112   19.5236 H   0  0  0  0  0  0
  -28.7760  -11.9923   21.1983 H   0  0  0  0  0  0
  -28.3955  -13.4237   21.9661 H   0  0  0  0  0  0
  -25.2761   -9.5649   22.4809 H   0  0  0  0  0  0
  -23.9996   -7.4597   22.7489 H   0  0  0  0  0  0
  -21.0848   -8.8790   19.8951 H   0  0  0  0  0  0
  -22.3721  -10.9707   19.6189 H   0  0  0  0  0  0
  -21.2013   -7.6165   23.9727 H   0  0  0  0  0  0
  -21.1473   -6.0539   25.9075 H   0  0  0  0  0  0
  -22.0607   -2.7640   23.2822 H   0  0  0  0  0  0
  -22.4191  -11.9920   22.4684 H   0  0  0  0  0  0
  -21.1203  -13.1319   22.2631 H   0  0  0  0  0  0
  -24.7224  -15.8640   20.5001 H   0  0  0  0  0  0
  -26.3528  -15.5004   20.1703 H   0  0  0  0  0  0
  -26.7201  -32.5407   23.1218 H   0  0  0  0  0  0
  -25.0632  -33.9851   25.0536 H   0  0  0  0  0  0
  -22.7449  -31.2870   21.3218 H   0  0  0  0  0  0
  -23.3676  -35.9749   23.3113 H   0  0  0  0  0  0
  -24.3928  -36.9006   22.2143 H   0  0  0  0  0  0
  -23.7742  -37.6460   23.6782 H   0  0  0  0  0  0
  -26.1100  -31.6255   20.6218 H   0  0  0  0  0  0
  -26.8622  -30.8480   22.0385 H   0  0  0  0  0  0
  -28.2112  -29.0363   21.2108 H   0  0  0  0  0  0
  -26.1674  -26.0115   18.8887 H   0  0  0  0  0  0
  -24.1502  -27.2679   18.9851 H   0  0  0  0  0  0
  -23.8919  -30.5594   19.3239 H   0  0  0  0  0  0
  -22.8327  -29.2466   19.7543 H   0  0  0  0  0  0
  -25.1405  -36.1461   25.0804 H   0  0  0  0  0  0
  -21.0191  -28.3378   24.1389 H   0  0  0  0  0  0
  -20.5664  -26.2282   23.3686 H   0  0  0  0  0  0
  -21.6649  -26.7345   22.1243 H   0  0  0  0  0  0
  -19.6983  -25.6318   21.1151 H   0  0  0  0  0  0
  -19.6683  -27.3222   20.6855 H   0  0  0  0  0  0
  -17.4228  -26.6666   21.4068 H   0  0  0  0  0  0
  -18.0337  -25.9975   22.9016 H   0  0  0  0  0  0
  -19.8002  -30.7211   24.2205 H   0  0  0  0  0  0
  -17.5095  -31.6273   24.5056 H   0  0  0  0  0  0
  -15.5383  -30.2947   23.7649 H   0  0  0  0  0  0
  -15.8721  -28.0815   22.6999 H   0  0  0  0  0  0
  -24.5798  -30.7271   25.8038 H   0  0  0  0  0  0
  -24.9469  -32.3017   26.4823 H   0  0  0  0  0  0
  -25.8492  -30.8963   27.0037 H   0  0  0  0  0  0
  -26.3332  -29.6243   24.1125 H   0  0  0  0  0  0
  -27.4298  -29.7275   25.4603 H   0  0  0  0  0  0
  -27.8902  -30.3954   23.9206 H   0  0  0  0  0  0
  -27.2109  -33.3294   26.1844 H   0  0  0  0  0  0
  -28.3606  -32.7020   25.0199 H   0  0  0  0  0  0
  -28.0373  -31.8295   26.5293 H   0  0  0  0  0  0
  -28.2319  -38.0249   24.7216 H   0  0  0  0  0  0
  -28.1321  -36.2647   24.6362 H   0  0  0  0  0  0
  -27.2270  -37.1426   25.8910 H   0  0  0  0  0  0
  -20.8696  -29.8804   21.7181 H   0  0  0  0  0  0
  -25.9999  -38.2401   24.1295 H   0  0  0  0  0  0
  -27.7439  -20.9130   19.8048 H   0  0  0  0  0  0
  -26.9979  -18.8109   18.8665 H   0  0  0  0  0  0
  -30.8809  -18.8386   21.9664 H   0  0  0  0  0  0
  -28.0214  -24.9997   22.2095 H   0  0  0  0  0  0
  -28.6500  -20.8567   23.0406 H   0  0  0  0  0  0
  -28.0423  -15.6103   21.7517 H   0  0  0  0  0  0
  -29.3389  -15.0050   22.9009 H   0  0  0  0  0  0
  -28.8439  -16.6968   22.8152 H   0  0  0  0  0  0
  -29.5134  -25.1313   18.9835 H   0  0  0  0  0  0
  -27.8093  -24.7837   19.1437 H   0  0  0  0  0  0
  -27.9991  -16.5600   18.0624 H   0  0  0  0  0  0
  -27.0712  -16.4250   19.2608 H   0  0  0  0  0  0
  -26.6866  -23.4965   23.2968 H   0  0  0  0  0  0
  1 25  1  0  0  0
  1 30  2  0  0  0
  1 86  1  0  0  0
  2  3  1  0  0  0
  2 25  1  0  0  0
  2 89  1  0  0  0
  2 90  1  0  0  0
  3  4  1  0  0  0
  3 91  1  0  0  0
  3 92  1  0  0  0
  4  5  1  0  0  0
  4 93  1  0  0  0
  4 94  1  0  0  0
  5  6  1  0  0  0
  5 26  1  0  0  0
  5 95  1  0  0  0
  6 25  1  0  0  0
  6 96  1  0  0  0
  6 97  1  0  0  0
  7  8  2  0  0  0
  7 26  1  0  0  0
  7 29  1  0  0  0
  8  9  1  0  0  0
  8 22  1  0  0  0
  9 10  1  0  0  0
  9 27  2  0  0  0
 10 11  2  0  0  0
 10 15  1  0  0  0
 11 12  1  0  0  0
 11 98  1  0  0  0
 12 13  2  0  0  0
 12 99  1  0  0  0
 13 14  1  0  0  0
 13 31  1  0  0  0
 14 15  2  0  0  0
 14100  1  0  0  0
 15101  1  0  0  0
 16 17  2  0  0  0
 16 21  1  0  0  0
 16 31  1  0  0  0
 17 18  1  0  0  0
 17102  1  0  0  0
 18 19  2  0  0  0
 18103  1  0  0  0
 19 20  1  0  0  0
 19 24  1  0  0  0
 20 21  2  0  0  0
 20104  1  0  0  0
 21 23  1  0  0  0
 22 28  1  0  0  0
 22 32  2  0  0  0
 26 27  1  0  0  0
 28105  1  0  0  0
 28106  1  0  0  0
 29107  1  0  0  0
 29108  1  0  0  0
 33 34  1  0  0  0
 33 66  1  0  0  0
 33 70  2  0  0  0
 34 36  1  0  0  0
 34 59  1  0  0  0
 34109  1  0  0  0
 35 44  2  0  0  0
 35 45  1  0  0  0
 35 68  1  0  0  0
 36 56  1  0  0  0
 36110  1  0  0  0
 37 39  1  0  0  0
 37 47  1  0  0  0
 37 66  1  0  0  0
 37111  1  0  0  0
 38 43  2  0  0  0
 38 46  1  0  0  0
 38 47  1  0  0  0
 39 64  1  0  0  0
 39 67  2  0  0  0
 40 52  1  0  0  0
 40 53  2  0  0  0
 40 58  1  0  0  0
 41112  1  0  0  0
 41113  1  0  0  0
 41114  1  0  0  0
 41 48  1  0  0  0
 42 43  1  0  0  0
 42 66  1  0  0  0
 42115  1  0  0  0
 42116  1  0  0  0
 43 44  1  0  0  0
 44117  1  0  0  0
 45 46  2  0  0  0
 45118  1  0  0  0
 46119  1  0  0  0
 47120  1  0  0  0
 47121  1  0  0  0
 48 56  1  0  0  0
 48 65  1  0  0  0
 48122  1  0  0  0
 49 50  1  0  0  0
 49 53  1  0  0  0
 49 64  1  0  0  0
 49123  1  0  0  0
 50 51  1  0  0  0
 50124  1  0  0  0
 50125  1  0  0  0
 51 52  1  0  0  0
 51126  1  0  0  0
 51127  1  0  0  0
 52128  1  0  0  0
 52129  1  0  0  0
 53 54  1  0  0  0
 54 55  2  0  0  0
 54130  1  0  0  0
 55 57  1  0  0  0
 55131  1  0  0  0
 56 69  2  0  0  0
 57 58  2  0  0  0
 57132  1  0  0  0
 58133  1  0  0  0
 59 60  1  0  0  0
 59 61  1  0  0  0
 59 62  1  0  0  0
 60134  1  0  0  0
 60135  1  0  0  0
 60136  1  0  0  0
 61137  1  0  0  0
 61138  1  0  0  0
 61139  1  0  0  0
 62140  1  0  0  0
 62141  1  0  0  0
 62142  1  0  0  0
 63 65  1  0  0  0
 63143  1  0  0  0
 63144  1  0  0  0
 63145  1  0  0  0
 64146  1  0  0  0
 65147  1  0  0  0
 68 83  1  0  0  0
 71 72  2  0  0  0
 71 74  1  0  0  0
 71148  1  0  0  0
 72 75  1  0  0  0
 72149  1  0  0  0
 73 74  2  0  0  0
 73 76  1  0  0  0
 73150  1  0  0  0
 74 84  1  0  0  0
 75 76  2  0  0  0
 75 85  1  0  0  0
 76 86  1  0  0  0
 77 79  2  0  0  0
 77 80  1  0  0  0
 77151  1  0  0  0
 78 80  2  0  0  0
 78 84  1  0  0  0
 78152  1  0  0  0
 79 81  1  0  0  0
 79 83  1  0  0  0
 80 88  1  0  0  0
 81 84  1  0  0  0
 81 87  2  0  0  0
 82 86  1  0  0  0
 82153  1  0  0  0
 82154  1  0  0  0
 82155  1  0  0  0
 83156  1  0  0  0
 83157  1  0  0  0
 85158  1  0  0  0
 85159  1  0  0  0
 88160  1  0  0  0
M  ISO  4   1 100  68 101  83 101  86 100
M  END
> <chiral flag>
0

> <version>
0

> <s_m_source_file>
/data/baiqing/PycharmProjects/Reinvent-master-3.2/result/LINK_invent/BTK/process_docking_weight1_custom_product_contain_oxygen_bond_distance_aromatic_linkinvent_7_9_3/rearranged_h_0086.sdf

> <i_m_source_file_index>
62

> <r_mmod_Potential_Energy-OPLS-2005>
708.725341796875

> <r_mmod_Stretch_Energy-OPLS-2005>
225.296081542969

> <r_mmod_Bend_Energy-OPLS-2005>
300.256195068359

> <r_mmod_Torsional_Energy-OPLS-2005>
432.209930419922

> <r_mmod_Improper_Torsional_Energy-OPLS-2005>
21.5687274932861

> <r_mmod_Van_der_Waal_Energy-OPLS-2005>
191.850326538086

> <r_mmod_Electrostatic_Energy-OPLS-2005>
-352.163330078125

> <r_mmod_Solvation_Energy-OPLS-2005>
-230.183364868164

> <b_mmod_Minimization_Converged-OPLS-2005>
0

> <r_mmod_RMS_Derivative-OPLS-2005>
42.427116394043

$$$$
62
                    3D
 Structure written by MMmdl.
157166  0  0  1  0            999 V2000
  -30.7497  -14.4408   20.5158 C   0  0  0  0  0  0
  -30.3964  -12.2678   19.4483 C   0  0  0  0  0  0
  -29.4934  -12.4841   18.2175 C   0  0  0  0  0  0
  -28.0115  -12.3643   18.6193 C   0  0  0  0  0  0
  -27.6557  -13.2185   19.8669 C   0  0  2  0  0  0
  -28.6932  -13.0383   20.9969 C   0  0  0  0  0  0
  -25.2561  -13.8195   20.5690 C   0  0  0  0  0  0
  -24.1823  -13.0453   20.9177 C   0  0  0  0  0  0
  -24.6392  -11.6924   20.8729 C   0  0  0  0  0  0
  -23.9066  -10.4301   21.0398 C   0  0  0  0  0  0
  -24.3619   -9.4217   21.9178 C   0  0  0  0  0  0
  -23.6296   -8.2251   22.0751 C   0  0  0  0  0  0
  -22.4277   -8.0285   21.3543 C   0  0  0  0  0  0
  -21.9910   -9.0258   20.4647 C   0  0  0  0  0  0
  -22.7235  -10.2140   20.3053 C   0  0  0  0  0  0
  -21.6857   -6.0738   22.5280 C   0  0  0  0  0  0
  -21.4016   -6.5641   23.8213 C   0  0  0  0  0  0
  -21.3660   -5.6793   24.9175 C   0  0  0  0  0  0
  -21.6044   -4.3055   24.7225 C   0  0  0  0  0  0
  -21.8818   -3.8148   23.4346 C   0  0  0  0  0  0
  -21.9194   -4.6965   22.3403 C   0  0  0  0  0  0
  -22.7845  -13.5241   21.1845 C   0  0  0  0  0  0
  -22.1661   -4.2151   21.0980 F   0  0  0  0  0  0
  -21.5629   -3.4538   25.7738 F   0  0  0  0  0  0
  -30.0303  -13.2889   20.4444 N   0  0  0  0  0  0
  -26.2995  -12.9388   20.3336 N   0  0  0  0  0  0
  -25.9321  -11.6535   20.5755 N   0  0  0  0  0  0
  -22.0493  -12.8233   22.0407 N   0  0  0  0  0  0
  -25.4290  -15.1915   20.4135 N   0  0  0  0  0  0
  -31.9147  -14.4934   20.1130 O   0  0  0  0  0  0
  -21.6643   -6.8880   21.4241 O   0  0  0  0  0  0
  -22.3526  -14.5545   20.6696 O   0  0  0  0  0  0
  -24.6113  -31.8701   23.2123 C   0  0  0  0  0  0
  -25.9018  -32.4836   23.8409 C   0  0  1  0  0  0
  -27.2292  -27.4672   20.0947 C   0  0  0  0  0  0
  -25.5884  -33.8635   24.2342 N   0  0  0  0  0  0
  -23.3982  -30.4933   21.5517 C   0  0  2  0  0  0
  -24.8460  -28.9651   20.1117 C   0  0  0  0  0  0
  -22.7395  -29.4662   22.4999 C   0  0  0  0  0  0
  -18.0269  -28.1372   22.8495 C   0  0  0  0  0  0
  -24.1485  -36.7325   23.2638 C   0  0  0  0  0  0
  -25.9230  -30.8470   21.3599 C   0  0  0  0  0  0
  -26.0032  -29.4837   20.7083 C   0  0  0  0  0  0
  -27.2023  -28.7401   20.7001 C   0  0  0  0  0  0
  -26.0647  -26.9553   19.4894 C   0  0  0  0  0  0
  -24.8698  -27.6989   19.4991 C   0  0  0  0  0  0
  -23.6050  -29.8263   20.1651 C   0  0  0  0  0  0
  -25.4104  -36.3123   24.0341 C   0  0  1  0  0  0
  -20.5856  -28.3653   23.1329 C   0  0  2  0  0  0
  -20.6759  -26.9392   22.5423 C   0  0  0  0  0  0
  -19.5740  -26.6380   21.5215 C   0  0  0  0  0  0
  -18.1918  -26.7919   22.1625 C   0  0  0  0  0  0
  -19.1517  -28.8829   23.2909 C   0  0  0  0  0  0
  -18.9446  -30.1437   23.8916 C   0  0  0  0  0  0
  -17.6449  -30.6580   24.0565 C   0  0  0  0  0  0
  -25.9027  -34.9486   23.5139 C   0  0  0  0  0  0
  -16.5340  -29.9084   23.6322 C   0  0  0  0  0  0
  -16.7259  -28.6500   23.0345 C   0  0  0  0  0  0
  -26.4465  -31.6604   25.0720 C   0  0  0  0  0  0
  -25.3749  -31.3698   26.1482 C   0  0  0  0  0  0
  -27.0290  -30.3053   24.6063 C   0  0  0  0  0  0
  -27.6054  -32.4315   25.7471 C   0  0  0  0  0  0
  -27.5585  -37.1811   24.8463 C   0  0  0  0  0  0
  -21.4126  -29.3025   22.3740 N   0  0  0  0  0  0
  -26.4295  -37.3803   23.9410 N   0  0  0  0  0  0
  -24.6623  -31.0832   22.1006 N   0  0  0  0  0  0
  -23.4182  -28.8204   23.3028 O   0  0  0  0  0  0
  -28.3606  -26.6973   20.1205 O   0  0  0  0  0  0
  -26.5589  -34.8931   22.4700 O   0  0  0  0  0  0
  -23.5313  -32.1434   23.7538 O   0  0  0  0  0  0
  -29.4502  -18.7409   21.4542 C   0  0  0  0  0  0
  -29.3298  -20.1442   21.5928 C   0  0  0  0  0  0
  -30.2631  -20.4436   19.3644 C   0  0  0  0  0  0
  -30.0288  -18.1868   20.2899 C   0  0  0  0  0  0
  -29.7766  -21.0088   20.5625 C   0  0  0  0  0  0
  -30.3891  -19.0519   19.2302 C   0  0  0  0  0  0
  -30.5476  -24.5383   20.8134 C   0  0  0  0  0  0
  -29.2229  -24.5740   20.9725 C   0  0  0  0  0  0
  -30.9396  -23.1607   20.6474 C   0  0  0  0  0  0
  -28.7259  -23.2133   20.9281 C   0  0  0  0  0  0
  -30.3691  -16.7598   20.1428 C   0  0  0  0  0  0
  -30.0574  -15.6730   20.8902 C   0  0  0  0  0  0
  -31.5340  -25.6938   20.8137 C   0  0  0  0  0  0
  -28.3545  -25.7908   21.2272 C   0  0  0  0  0  0
  -29.8062  -22.4310   20.7262 N   0  0  0  0  0  0
  -32.0851  -22.7238   20.4795 O   0  0  0  0  0  0
  -27.5569  -22.8254   21.0445 O   0  0  0  0  0  0
  -30.9113  -18.5558   18.0814 F   0  0  0  0  0  0
  -31.4474  -12.3046   19.1569 H   0  0  0  0  0  0
  -30.2447  -11.2705   19.8639 H   0  0  0  0  0  0
  -29.7304  -11.7536   17.4430 H   0  0  0  0  0  0
  -29.6833  -13.4667   17.7825 H   0  0  0  0  0  0
  -27.8115  -11.3113   18.8210 H   0  0  0  0  0  0
  -27.3698  -12.6382   17.7812 H   0  0  0  0  0  0
  -27.6918  -14.2619   19.5528 H   0  0  0  0  0  0
  -28.6500  -12.0231   21.3938 H   0  0  0  0  0  0
  -28.4681  -13.6926   21.8390 H   0  0  0  0  0  0
  -25.2766   -9.5696   22.4750 H   0  0  0  0  0  0
  -24.0009   -7.4644   22.7469 H   0  0  0  0  0  0
  -21.0840   -8.8775   19.8955 H   0  0  0  0  0  0
  -22.3689  -10.9677   19.6162 H   0  0  0  0  0  0
  -21.2008   -7.6150   23.9718 H   0  0  0  0  0  0
  -21.1483   -6.0523   25.9078 H   0  0  0  0  0  0
  -22.0597   -2.7611   23.2846 H   0  0  0  0  0  0
  -22.4112  -11.9897   22.4799 H   0  0  0  0  0  0
  -21.1113  -13.1260   22.2616 H   0  0  0  0  0  0
  -24.6695  -15.8525   20.5348 H   0  0  0  0  0  0
  -26.2951  -15.6311   20.1266 H   0  0  0  0  0  0
  -26.7093  -32.5566   23.1184 H   0  0  0  0  0  0
  -25.0043  -33.9805   25.0493 H   0  0  0  0  0  0
  -22.6851  -31.3087   21.4145 H   0  0  0  0  0  0
  -23.3742  -35.9663   23.3311 H   0  0  0  0  0  0
  -24.3581  -36.8926   22.2050 H   0  0  0  0  0  0
  -23.7242  -37.6537   23.6641 H   0  0  0  0  0  0
  -26.0276  -31.6140   20.5912 H   0  0  0  0  0  0
  -26.8139  -30.9037   21.9734 H   0  0  0  0  0  0
  -28.0960  -29.1305   21.1668 H   0  0  0  0  0  0
  -26.0810  -25.9786   19.0263 H   0  0  0  0  0  0
  -23.9799  -27.2934   19.0375 H   0  0  0  0  0  0
  -23.7073  -30.6014   19.4046 H   0  0  0  0  0  0
  -22.7309  -29.2421   19.8721 H   0  0  0  0  0  0
  -25.1280  -36.1997   25.0835 H   0  0  0  0  0  0
  -20.9950  -28.3215   24.1448 H   0  0  0  0  0  0
  -20.5660  -26.2260   23.3606 H   0  0  0  0  0  0
  -21.6632  -26.7438   22.1216 H   0  0  0  0  0  0
  -19.6900  -25.6295   21.1234 H   0  0  0  0  0  0
  -19.6682  -27.3200   20.6754 H   0  0  0  0  0  0
  -17.4190  -26.6669   21.4025 H   0  0  0  0  0  0
  -18.0317  -26.0056   22.9016 H   0  0  0  0  0  0
  -19.7923  -30.7246   24.2295 H   0  0  0  0  0  0
  -17.5006  -31.6263   24.5159 H   0  0  0  0  0  0
  -15.5342  -30.2994   23.7631 H   0  0  0  0  0  0
  -15.8659  -28.0826   22.7049 H   0  0  0  0  0  0
  -24.5908  -30.7060   25.7820 H   0  0  0  0  0  0
  -24.8957  -32.2851   26.4965 H   0  0  0  0  0  0
  -25.8116  -30.8839   27.0216 H   0  0  0  0  0  0
  -26.2814  -29.6810   24.1153 H   0  0  0  0  0  0
  -27.4116  -29.7290   25.4497 H   0  0  0  0  0  0
  -27.8624  -30.4387   23.9162 H   0  0  0  0  0  0
  -27.2685  -33.3601   26.2090 H   0  0  0  0  0  0
  -28.3836  -32.6896   25.0275 H   0  0  0  0  0  0
  -28.0754  -31.8414   26.5349 H   0  0  0  0  0  0
  -28.2608  -38.0105   24.7516 H   0  0  0  0  0  0
  -28.1076  -36.2640   24.6278 H   0  0  0  0  0  0
  -27.2306  -37.1451   25.8867 H   0  0  0  0  0  0
  -20.9277  -29.8755   21.6975 H   0  0  0  0  0  0
  -26.0190  -38.2883   24.1415 H   0  0  0  0  0  0
  -29.1579  -18.1004   22.2738 H   0  0  0  0  0  0
  -28.9388  -20.5505   22.5160 H   0  0  0  0  0  0
  -30.5934  -21.0741   18.5511 H   0  0  0  0  0  0
  -31.0277  -16.5915   19.3003 H   0  0  0  0  0  0
  -29.3831  -15.7243   21.7310 H   0  0  0  0  0  0
  -31.0297  -26.6524   20.9338 H   0  0  0  0  0  0
  -32.0870  -25.7163   19.8742 H   0  0  0  0  0  0
  -32.2491  -25.5788   21.6288 H   0  0  0  0  0  0
  -28.7330  -26.3096   22.1089 H   0  0  0  0  0  0
  -27.3436  -25.4604   21.4774 H   0  0  0  0  0  0
  1 25  1  0  0  0
  1 30  2  0  0  0
  1 82  1  0  0  0
  2  3  1  0  0  0
  2 25  1  0  0  0
  2 89  1  0  0  0
  2 90  1  0  0  0
  3  4  1  0  0  0
  3 91  1  0  0  0
  3 92  1  0  0  0
  4  5  1  0  0  0
  4 93  1  0  0  0
  4 94  1  0  0  0
  5  6  1  0  0  0
  5 26  1  0  0  0
  5 95  1  0  0  0
  6 25  1  0  0  0
  6 96  1  0  0  0
  6 97  1  0  0  0
  7  8  2  0  0  0
  7 26  1  0  0  0
  7 29  1  0  0  0
  8  9  1  0  0  0
  8 22  1  0  0  0
  9 10  1  0  0  0
  9 27  2  0  0  0
 10 11  2  0  0  0
 10 15  1  0  0  0
 11 12  1  0  0  0
 11 98  1  0  0  0
 12 13  2  0  0  0
 12 99  1  0  0  0
 13 14  1  0  0  0
 13 31  1  0  0  0
 14 15  2  0  0  0
 14100  1  0  0  0
 15101  1  0  0  0
 16 17  2  0  0  0
 16 21  1  0  0  0
 16 31  1  0  0  0
 17 18  1  0  0  0
 17102  1  0  0  0
 18 19  2  0  0  0
 18103  1  0  0  0
 19 20  1  0  0  0
 19 24  1  0  0  0
 20 21  2  0  0  0
 20104  1  0  0  0
 21 23  1  0  0  0
 22 28  1  0  0  0
 22 32  2  0  0  0
 26 27  1  0  0  0
 28105  1  0  0  0
 28106  1  0  0  0
 29107  1  0  0  0
 29108  1  0  0  0
 33 34  1  0  0  0
 33 66  1  0  0  0
 33 70  2  0  0  0
 34 36  1  0  0  0
 34 59  1  0  0  0
 34109  1  0  0  0
 35 44  2  0  0  0
 35 45  1  0  0  0
 35 68  1  0  0  0
 36 56  1  0  0  0
 36110  1  0  0  0
 37 39  1  0  0  0
 37 47  1  0  0  0
 37 66  1  0  0  0
 37111  1  0  0  0
 38 43  2  0  0  0
 38 46  1  0  0  0
 38 47  1  0  0  0
 39 64  1  0  0  0
 39 67  2  0  0  0
 40 52  1  0  0  0
 40 53  2  0  0  0
 40 58  1  0  0  0
 41112  1  0  0  0
 41113  1  0  0  0
 41114  1  0  0  0
 41 48  1  0  0  0
 42 43  1  0  0  0
 42 66  1  0  0  0
 42115  1  0  0  0
 42116  1  0  0  0
 43 44  1  0  0  0
 44117  1  0  0  0
 45 46  2  0  0  0
 45118  1  0  0  0
 46119  1  0  0  0
 47120  1  0  0  0
 47121  1  0  0  0
 48 56  1  0  0  0
 48 65  1  0  0  0
 48122  1  0  0  0
 49 50  1  0  0  0
 49 53  1  0  0  0
 49 64  1  0  0  0
 49123  1  0  0  0
 50 51  1  0  0  0
 50124  1  0  0  0
 50125  1  0  0  0
 51 52  1  0  0  0
 51126  1  0  0  0
 51127  1  0  0  0
 52128  1  0  0  0
 52129  1  0  0  0
 53 54  1  0  0  0
 54 55  2  0  0  0
 54130  1  0  0  0
 55 57  1  0  0  0
 55131  1  0  0  0
 56 69  2  0  0  0
 57 58  2  0  0  0
 57132  1  0  0  0
 58133  1  0  0  0
 59 60  1  0  0  0
 59 61  1  0  0  0
 59 62  1  0  0  0
 60134  1  0  0  0
 60135  1  0  0  0
 60136  1  0  0  0
 61137  1  0  0  0
 61138  1  0  0  0
 61139  1  0  0  0
 62140  1  0  0  0
 62141  1  0  0  0
 62142  1  0  0  0
 63 65  1  0  0  0
 63143  1  0  0  0
 63144  1  0  0  0
 63145  1  0  0  0
 64146  1  0  0  0
 65147  1  0  0  0
 68 84  1  0  0  0
 71 72  2  0  0  0
 71 74  1  0  0  0
 71148  1  0  0  0
 72 75  1  0  0  0
 72149  1  0  0  0
 73 75  2  0  0  0
 73 76  1  0  0  0
 73150  1  0  0  0
 74 76  2  0  0  0
 74 81  1  0  0  0
 75 85  1  0  0  0
 76 88  1  0  0  0
 77 78  2  0  0  0
 77 79  1  0  0  0
 77 83  1  0  0  0
 78 80  1  0  0  0
 78 84  1  0  0  0
 79 85  1  0  0  0
 79 86  2  0  0  0
 80 85  1  0  0  0
 80 87  2  0  0  0
 81 82  2  0  0  0
 81151  1  0  0  0
 82152  1  0  0  0
 83153  1  0  0  0
 83154  1  0  0  0
 83155  1  0  0  0
 84156  1  0  0  0
 84157  1  0  0  0
M  ISO  4   1 100  68 101  82 100  84 101
M  END
> <chiral flag>
0

> <version>
0

> <s_m_source_file>
/data/baiqing/PycharmProjects/Reinvent-master-3.2/result/LINK_invent/BTK/process_docking_weight1_custom_product_contain_oxygen_bond_distance_aromatic_linkinvent_7_9_3/rearranged_h_0086.sdf

> <i_m_source_file_index>
63

> <r_mmod_Potential_Energy-OPLS-2005>
93.9278945922852

> <r_mmod_Stretch_Energy-OPLS-2005>
34.8801956176758

> <r_mmod_Bend_Energy-OPLS-2005>
142.987228393555

> <r_mmod_Torsional_Energy-OPLS-2005>
256.577575683594

> <r_mmod_Improper_Torsional_Energy-OPLS-2005>
5.21473550796509

> <r_mmod_Van_der_Waal_Energy-OPLS-2005>
154.089599609375

> <r_mmod_Electrostatic_Energy-OPLS-2005>
-302.523071289062

> <r_mmod_Solvation_Energy-OPLS-2005>
-215.183776855469

> <b_mmod_Minimization_Converged-OPLS-2005>
0

> <r_mmod_RMS_Derivative-OPLS-2005>
0.267993360757828

$$$$
63
                    3D
 Structure written by MMmdl.
150158  0  0  1  0            999 V2000
  -30.7017  -14.5387   20.5293 C   0  0  0  0  0  0
  -30.4044  -12.3331   19.4558 C   0  0  0  0  0  0
  -29.4905  -12.5155   18.2256 C   0  0  0  0  0  0
  -28.0153  -12.3556   18.6353 C   0  0  0  0  0  0
  -27.6480  -13.2186   19.8741 C   0  0  2  0  0  0
  -28.6881  -13.0591   21.0059 C   0  0  0  0  0  0
  -25.2464  -13.8176   20.5671 C   0  0  0  0  0  0
  -24.1718  -13.0476   20.9203 C   0  0  0  0  0  0
  -24.6284  -11.6949   20.8690 C   0  0  0  0  0  0
  -23.8931  -10.4320   21.0367 C   0  0  0  0  0  0
  -24.3527   -9.4241   21.9151 C   0  0  0  0  0  0
  -23.6273   -8.2227   22.0715 C   0  0  0  0  0  0
  -22.4243   -8.0249   21.3502 C   0  0  0  0  0  0
  -21.9823   -9.0178   20.4609 C   0  0  0  0  0  0
  -22.7081  -10.2111   20.3020 C   0  0  0  0  0  0
  -21.6842   -6.0684   22.5270 C   0  0  0  0  0  0
  -21.3978   -6.5606   23.8193 C   0  0  0  0  0  0
  -21.3679   -5.6767   24.9169 C   0  0  0  0  0  0
  -21.6064   -4.3030   24.7214 C   0  0  0  0  0  0
  -21.8831   -3.8101   23.4349 C   0  0  0  0  0  0
  -21.9182   -4.6907   22.3398 C   0  0  0  0  0  0
  -22.7737  -13.5241   21.1845 C   0  0  0  0  0  0
  -22.1675   -4.2081   21.0974 F   0  0  0  0  0  0
  -21.5654   -3.4531   25.7739 F   0  0  0  0  0  0
  -30.0196  -13.3526   20.4608 N   0  0  0  0  0  0
  -26.2917  -12.9396   20.3362 N   0  0  0  0  0  0
  -25.9224  -11.6545   20.5760 N   0  0  0  0  0  0
  -22.0381  -12.8244   22.0459 N   0  0  0  0  0  0
  -25.4128  -15.1895   20.4052 N   0  0  0  0  0  0
  -31.8281  -14.6590   20.0322 O   0  0  0  0  0  0
  -21.6634   -6.8818   21.4220 O   0  0  0  0  0  0
  -22.3437  -14.5565   20.6747 O   0  0  0  0  0  0
  -24.6224  -31.8656   23.2025 C   0  0  0  0  0  0
  -25.9086  -32.4809   23.8349 C   0  0  1  0  0  0
  -27.2205  -27.3547   20.1130 C   0  0  0  0  0  0
  -25.5901  -33.8600   24.2284 N   0  0  0  0  0  0
  -23.4105  -30.4898   21.5449 C   0  0  2  0  0  0
  -24.8567  -28.9492   20.1078 C   0  0  0  0  0  0
  -22.7441  -29.4652   22.4934 C   0  0  0  0  0  0
  -18.0286  -28.1373   22.8484 C   0  0  0  0  0  0
  -24.1494  -36.7356   23.2622 C   0  0  0  0  0  0
  -25.9459  -30.8065   21.3614 C   0  0  0  0  0  0
  -26.0208  -29.4309   20.7204 C   0  0  0  0  0  0
  -27.2024  -28.6379   20.7302 C   0  0  0  0  0  0
  -26.0452  -26.9347   19.4461 C   0  0  0  0  0  0
  -24.8684  -27.7046   19.4617 C   0  0  0  0  0  0
  -23.6211  -29.8251   20.1602 C   0  0  0  0  0  0
  -25.4104  -36.3121   24.0329 C   0  0  1  0  0  0
  -20.5874  -28.3688   23.1304 C   0  0  2  0  0  0
  -20.6764  -26.9429   22.5403 C   0  0  0  0  0  0
  -19.5746  -26.6377   21.5211 C   0  0  0  0  0  0
  -18.1937  -26.7904   22.1624 C   0  0  0  0  0  0
  -19.1543  -28.8838   23.2886 C   0  0  0  0  0  0
  -18.9450  -30.1430   23.8927 C   0  0  0  0  0  0
  -17.6449  -30.6576   24.0566 C   0  0  0  0  0  0
  -25.9055  -34.9482   23.5107 C   0  0  0  0  0  0
  -16.5339  -29.9092   23.6299 C   0  0  0  0  0  0
  -16.7266  -28.6490   23.0349 C   0  0  0  0  0  0
  -26.4467  -31.6576   25.0691 C   0  0  0  0  0  0
  -25.3727  -31.3740   26.1461 C   0  0  0  0  0  0
  -27.0187  -30.2974   24.6037 C   0  0  0  0  0  0
  -27.6089  -32.4227   25.7459 C   0  0  0  0  0  0
  -27.5594  -37.1811   24.8430 C   0  0  0  0  0  0
  -21.4159  -29.3053   22.3703 N   0  0  0  0  0  0
  -26.4279  -37.3816   23.9415 N   0  0  0  0  0  0
  -24.6784  -31.0684   22.0962 N   0  0  0  0  0  0
  -23.4195  -28.8192   23.2993 O   0  0  0  0  0  0
  -28.3475  -26.5271   20.1604 O   0  0  0  0  0  0
  -26.5629  -34.8948   22.4674 O   0  0  0  0  0  0
  -23.5396  -32.1443   23.7381 O   0  0  0  0  0  0
  -29.7732  -19.5272   20.6353 C   0  0  0  0  0  0
  -29.7341  -20.1503   22.8988 C   0  0  0  0  0  0
  -29.6856  -20.5982   21.5996 C   0  0  0  0  0  0
  -29.9478  -18.2765   21.2137 C   0  0  0  0  0  0
  -29.1249  -24.2173   20.6151 C   0  0  0  0  0  0
  -28.1721  -25.1388   20.2964 C   0  0  0  0  0  0
  -30.3762  -17.0266   20.5687 C   0  0  0  0  0  0
  -28.8000  -22.7743   20.6851 C   0  0  0  0  0  0
  -29.7407  -22.0067   21.2915 N   0  0  0  0  0  0
  -30.0388  -15.7564   20.9937 N   0  0  0  0  0  0
  -31.1717  -17.2332   19.5016 N   0  3  0  0  0  0
  -27.7618  -22.2794   20.2387 O   0  0  0  0  0  0
  -29.8515  -18.4023   22.9601 S   0  0  0  0  0  0
  -31.4490  -12.4142   19.1494 H   0  0  0  0  0  0
  -30.3021  -11.3276   19.8669 H   0  0  0  0  0  0
  -29.7438  -11.7945   17.4472 H   0  0  0  0  0  0
  -29.6428  -13.5038   17.7910 H   0  0  0  0  0  0
  -27.8409  -11.3066   18.8611 H   0  0  0  0  0  0
  -27.3538  -12.5968   17.8032 H   0  0  0  0  0  0
  -27.6741  -14.2580   19.5513 H   0  0  0  0  0  0
  -28.6635  -12.0351   21.3846 H   0  0  0  0  0  0
  -28.4439  -13.6935   21.8555 H   0  0  0  0  0  0
  -25.2652   -9.5764   22.4726 H   0  0  0  0  0  0
  -23.9990   -7.4613   22.7429 H   0  0  0  0  0  0
  -21.0743   -8.8652   19.8946 H   0  0  0  0  0  0
  -22.3472  -10.9629   19.6141 H   0  0  0  0  0  0
  -21.1956   -7.6123   23.9670 H   0  0  0  0  0  0
  -21.1515   -6.0506   25.9065 H   0  0  0  0  0  0
  -22.0599   -2.7555   23.2856 H   0  0  0  0  0  0
  -22.3987  -11.9913   22.4874 H   0  0  0  0  0  0
  -21.0979  -13.1241   22.2653 H   0  0  0  0  0  0
  -24.6275  -15.8320   20.4452 H   0  0  0  0  0  0
  -26.2627  -15.6236   20.0650 H   0  0  0  0  0  0
  -26.7151  -32.5497   23.1108 H   0  0  0  0  0  0
  -24.9991  -33.9741   25.0385 H   0  0  0  0  0  0
  -22.7040  -31.3104   21.4060 H   0  0  0  0  0  0
  -23.3754  -35.9675   23.3201 H   0  0  0  0  0  0
  -24.3624  -36.9064   22.2046 H   0  0  0  0  0  0
  -23.7231  -37.6530   23.6689 H   0  0  0  0  0  0
  -26.0436  -31.5548   20.5727 H   0  0  0  0  0  0
  -26.8426  -30.8827   21.9657 H   0  0  0  0  0  0
  -28.0913  -28.9960   21.2255 H   0  0  0  0  0  0
  -26.0119  -26.0039   18.9002 H   0  0  0  0  0  0
  -23.9838  -27.3421   18.9596 H   0  0  0  0  0  0
  -23.7315  -30.6006   19.4017 H   0  0  0  0  0  0
  -22.7422  -29.2508   19.8628 H   0  0  0  0  0  0
  -25.1274  -36.1960   25.0825 H   0  0  0  0  0  0
  -20.9976  -28.3243   24.1408 H   0  0  0  0  0  0
  -20.5677  -26.2305   23.3593 H   0  0  0  0  0  0
  -21.6633  -26.7450   22.1194 H   0  0  0  0  0  0
  -19.6906  -25.6291   21.1256 H   0  0  0  0  0  0
  -19.6674  -27.3194   20.6749 H   0  0  0  0  0  0
  -17.4185  -26.6632   21.4045 H   0  0  0  0  0  0
  -18.0360  -26.0055   22.9049 H   0  0  0  0  0  0
  -19.7931  -30.7233   24.2332 H   0  0  0  0  0  0
  -17.5011  -31.6284   24.5134 H   0  0  0  0  0  0
  -15.5349  -30.3010   23.7602 H   0  0  0  0  0  0
  -15.8652  -28.0830   22.7045 H   0  0  0  0  0  0
  -24.5713  -30.7347   25.7747 H   0  0  0  0  0  0
  -24.9174  -32.2948   26.5110 H   0  0  0  0  0  0
  -25.8035  -30.8639   27.0087 H   0  0  0  0  0  0
  -26.2637  -29.6814   24.1125 H   0  0  0  0  0  0
  -27.3938  -29.7160   25.4471 H   0  0  0  0  0  0
  -27.8535  -30.4232   23.9141 H   0  0  0  0  0  0
  -27.2752  -33.3525   26.2079 H   0  0  0  0  0  0
  -28.3900  -32.6760   25.0279 H   0  0  0  0  0  0
  -28.0730  -31.8277   26.5335 H   0  0  0  0  0  0
  -28.2551  -38.0172   24.7570 H   0  0  0  0  0  0
  -28.1154  -36.2708   24.6124 H   0  0  0  0  0  0
  -27.2343  -37.1302   25.8838 H   0  0  0  0  0  0
  -20.9312  -29.8824   21.6979 H   0  0  0  0  0  0
  -26.0174  -38.2880   24.1446 H   0  0  0  0  0  0
  -29.8006  -19.7122   19.5699 H   0  0  0  0  0  0
  -29.7322  -20.7173   23.8231 H   0  0  0  0  0  0
  -30.1312  -24.5468   20.8063 H   0  0  0  0  0  0
  -27.1601  -24.8061   20.1237 H   0  0  0  0  0  0
  -30.5220  -22.5076   21.6864 H   0  0  0  0  0  0
  -29.2518  -15.7266   21.6165 H   0  0  0  0  0  0
  -31.4877  -18.1636   19.2764 H   0  0  0  0  0  0
  -31.6465  -16.4497   19.0641 H   0  0  0  0  0  0
  1 25  1  0  0  0
  1 30  2  0  0  0
  1 80  1  0  0  0
  2  3  1  0  0  0
  2 25  1  0  0  0
  2 84  1  0  0  0
  2 85  1  0  0  0
  3  4  1  0  0  0
  3 86  1  0  0  0
  3 87  1  0  0  0
  4  5  1  0  0  0
  4 88  1  0  0  0
  4 89  1  0  0  0
  5  6  1  0  0  0
  5 26  1  0  0  0
  5 90  1  0  0  0
  6 25  1  0  0  0
  6 91  1  0  0  0
  6 92  1  0  0  0
  7  8  2  0  0  0
  7 26  1  0  0  0
  7 29  1  0  0  0
  8  9  1  0  0  0
  8 22  1  0  0  0
  9 10  1  0  0  0
  9 27  2  0  0  0
 10 11  2  0  0  0
 10 15  1  0  0  0
 11 12  1  0  0  0
 11 93  1  0  0  0
 12 13  2  0  0  0
 12 94  1  0  0  0
 13 14  1  0  0  0
 13 31  1  0  0  0
 14 15  2  0  0  0
 14 95  1  0  0  0
 15 96  1  0  0  0
 16 17  2  0  0  0
 16 21  1  0  0  0
 16 31  1  0  0  0
 17 18  1  0  0  0
 17 97  1  0  0  0
 18 19  2  0  0  0
 18 98  1  0  0  0
 19 20  1  0  0  0
 19 24  1  0  0  0
 20 21  2  0  0  0
 20 99  1  0  0  0
 21 23  1  0  0  0
 22 28  1  0  0  0
 22 32  2  0  0  0
 26 27  1  0  0  0
 28100  1  0  0  0
 28101  1  0  0  0
 29102  1  0  0  0
 29103  1  0  0  0
 33 34  1  0  0  0
 33 66  1  0  0  0
 33 70  2  0  0  0
 34 36  1  0  0  0
 34 59  1  0  0  0
 34104  1  0  0  0
 35 44  2  0  0  0
 35 45  1  0  0  0
 35 68  1  0  0  0
 36 56  1  0  0  0
 36105  1  0  0  0
 37 39  1  0  0  0
 37 47  1  0  0  0
 37 66  1  0  0  0
 37106  1  0  0  0
 38 43  2  0  0  0
 38 46  1  0  0  0
 38 47  1  0  0  0
 39 64  1  0  0  0
 39 67  2  0  0  0
 40 52  1  0  0  0
 40 53  2  0  0  0
 40 58  1  0  0  0
 41107  1  0  0  0
 41108  1  0  0  0
 41109  1  0  0  0
 41 48  1  0  0  0
 42 43  1  0  0  0
 42 66  1  0  0  0
 42110  1  0  0  0
 42111  1  0  0  0
 43 44  1  0  0  0
 44112  1  0  0  0
 45 46  2  0  0  0
 45113  1  0  0  0
 46114  1  0  0  0
 47115  1  0  0  0
 47116  1  0  0  0
 48 56  1  0  0  0
 48 65  1  0  0  0
 48117  1  0  0  0
 49 50  1  0  0  0
 49 53  1  0  0  0
 49 64  1  0  0  0
 49118  1  0  0  0
 50 51  1  0  0  0
 50119  1  0  0  0
 50120  1  0  0  0
 51 52  1  0  0  0
 51121  1  0  0  0
 51122  1  0  0  0
 52123  1  0  0  0
 52124  1  0  0  0
 53 54  1  0  0  0
 54 55  2  0  0  0
 54125  1  0  0  0
 55 57  1  0  0  0
 55126  1  0  0  0
 56 69  2  0  0  0
 57 58  2  0  0  0
 57127  1  0  0  0
 58128  1  0  0  0
 59 60  1  0  0  0
 59 61  1  0  0  0
 59 62  1  0  0  0
 60129  1  0  0  0
 60130  1  0  0  0
 60131  1  0  0  0
 61132  1  0  0  0
 61133  1  0  0  0
 61134  1  0  0  0
 62135  1  0  0  0
 62136  1  0  0  0
 62137  1  0  0  0
 63 65  1  0  0  0
 63138  1  0  0  0
 63139  1  0  0  0
 63140  1  0  0  0
 64141  1  0  0  0
 65142  1  0  0  0
 68 76  1  0  0  0
 71 73  1  0  0  0
 71 74  2  0  0  0
 71143  1  0  0  0
 72 73  2  0  0  0
 72 83  1  0  0  0
 72144  1  0  0  0
 73 79  1  0  0  0
 74 77  1  0  0  0
 74 83  1  0  0  0
 75 76  2  0  0  0
 75 78  1  0  0  0
 75145  1  0  0  0
 76146  1  0  0  0
 77 80  1  0  0  0
 77 81  2  0  0  0
 78 79  1  0  0  0
 78 82  2  0  0  0
 79147  1  0  0  0
 80148  1  0  0  0
 81149  1  0  0  0
 81150  1  0  0  0
M  CHG  1  81   1
M  ISO  4   1 100  68 101  76 101  80 100
M  END
> <chiral flag>
0

> <version>
0

> <s_m_source_file>
/data/baiqing/PycharmProjects/Reinvent-master-3.2/result/LINK_invent/BTK/process_docking_weight1_custom_product_contain_oxygen_bond_distance_aromatic_linkinvent_7_9_3/rearranged_h_0086.sdf

> <i_m_source_file_index>
64

> <r_mmod_Potential_Energy-OPLS-2005>
-162.361434936523

> <r_mmod_Stretch_Energy-OPLS-2005>
56.4390563964844

> <r_mmod_Bend_Energy-OPLS-2005>
121.868392944336

> <r_mmod_Torsional_Energy-OPLS-2005>
250.849426269531

> <r_mmod_Improper_Torsional_Energy-OPLS-2005>
7.75113201141357

> <r_mmod_Van_der_Waal_Energy-OPLS-2005>
142.726287841797

> <r_mmod_Electrostatic_Energy-OPLS-2005>
-298.169952392578

> <r_mmod_Solvation_Energy-OPLS-2005>
-473.975860595703

> <b_mmod_Minimization_Converged-OPLS-2005>
0

> <r_mmod_RMS_Derivative-OPLS-2005>
6.43065977096558

$$$$
64
                    3D
 Structure written by MMmdl.
155164  0  0  1  0            999 V2000
  -30.6280  -14.7024   20.5568 C   0  0  0  0  0  0
  -30.4379  -12.4490   19.4659 C   0  0  0  0  0  0
  -29.5108  -12.5293   18.2313 C   0  0  0  0  0  0
  -28.0343  -12.3502   18.6347 C   0  0  0  0  0  0
  -27.6462  -13.2228   19.8558 C   0  0  2  0  0  0
  -28.6824  -13.0795   20.9860 C   0  0  0  0  0  0
  -25.2523  -13.8187   20.5667 C   0  0  0  0  0  0
  -24.1800  -13.0452   20.9171 C   0  0  0  0  0  0
  -24.6377  -11.6922   20.8726 C   0  0  0  0  0  0
  -23.9062  -10.4300   21.0411 C   0  0  0  0  0  0
  -24.3623   -9.4208   21.9184 C   0  0  0  0  0  0
  -23.6294   -8.2245   22.0750 C   0  0  0  0  0  0
  -22.4281   -8.0280   21.3540 C   0  0  0  0  0  0
  -21.9922   -9.0256   20.4650 C   0  0  0  0  0  0
  -22.7243  -10.2137   20.3055 C   0  0  0  0  0  0
  -21.6846   -6.0739   22.5278 C   0  0  0  0  0  0
  -21.4014   -6.5646   23.8211 C   0  0  0  0  0  0
  -21.3658   -5.6798   24.9178 C   0  0  0  0  0  0
  -21.6039   -4.3057   24.7235 C   0  0  0  0  0  0
  -21.8818   -3.8153   23.4354 C   0  0  0  0  0  0
  -21.9194   -4.6970   22.3409 C   0  0  0  0  0  0
  -22.7829  -13.5234   21.1869 C   0  0  0  0  0  0
  -22.1655   -4.2155   21.0982 F   0  0  0  0  0  0
  -21.5631   -3.4540   25.7745 F   0  0  0  0  0  0
  -29.9959  -13.4743   20.4436 N   0  0  0  0  0  0
  -26.2934  -12.9370   20.3250 N   0  0  0  0  0  0
  -25.9296  -11.6520   20.5707 N   0  0  0  0  0  0
  -22.0505  -12.8202   22.0434 N   0  0  0  0  0  0
  -25.4277  -15.1913   20.4162 N   0  0  0  0  0  0
  -31.7443  -14.8520   20.0444 O   0  0  0  0  0  0
  -21.6633   -6.8881   21.4239 O   0  0  0  0  0  0
  -22.3496  -14.5550   20.6748 O   0  0  0  0  0  0
  -24.6309  -31.8547   23.1981 C   0  0  0  0  0  0
  -25.9139  -32.4750   23.8327 C   0  0  1  0  0  0
  -27.2256  -27.2771   20.1062 C   0  0  0  0  0  0
  -25.5934  -33.8553   24.2249 N   0  0  0  0  0  0
  -23.4255  -30.4774   21.5425 C   0  0  2  0  0  0
  -24.8704  -28.9245   20.1098 C   0  0  0  0  0  0
  -22.7497  -29.4603   22.4932 C   0  0  0  0  0  0
  -18.0293  -28.1378   22.8484 C   0  0  0  0  0  0
  -24.1487  -36.7281   23.2641 C   0  0  0  0  0  0
  -25.9709  -30.7710   21.3748 C   0  0  0  0  0  0
  -26.0419  -29.3948   20.7155 C   0  0  0  0  0  0
  -27.2172  -28.5807   20.7065 C   0  0  0  0  0  0
  -26.0219  -26.8612   19.4926 C   0  0  0  0  0  0
  -24.8643  -27.6645   19.4922 C   0  0  0  0  0  0
  -23.6413  -29.8119   20.1582 C   0  0  0  0  0  0
  -25.4114  -36.3066   24.0322 C   0  0  1  0  0  0
  -20.5891  -28.3699   23.1279 C   0  0  2  0  0  0
  -20.6791  -26.9418   22.5424 C   0  0  0  0  0  0
  -19.5770  -26.6382   21.5220 C   0  0  0  0  0  0
  -18.1945  -26.7924   22.1624 C   0  0  0  0  0  0
  -19.1540  -28.8858   23.2867 C   0  0  0  0  0  0
  -18.9461  -30.1458   23.8880 C   0  0  0  0  0  0
  -17.6459  -30.6588   24.0547 C   0  0  0  0  0  0
  -25.9061  -34.9435   23.5091 C   0  0  0  0  0  0
  -16.5353  -29.9077   23.6322 C   0  0  0  0  0  0
  -16.7279  -28.6499   23.0342 C   0  0  0  0  0  0
  -26.4513  -31.6567   25.0711 C   0  0  0  0  0  0
  -25.3739  -31.3707   26.1435 C   0  0  0  0  0  0
  -27.0358  -30.2985   24.6179 C   0  0  0  0  0  0
  -27.6071  -32.4305   25.7481 C   0  0  0  0  0  0
  -27.5575  -37.1793   24.8471 C   0  0  0  0  0  0
  -21.4207  -29.3043   22.3674 N   0  0  0  0  0  0
  -26.4292  -37.3763   23.9412 N   0  0  0  0  0  0
  -24.6952  -31.0510   22.0959 N   0  0  0  0  0  0
  -23.4199  -28.8140   23.3030 O   0  0  0  0  0  0
  -28.3510  -26.4279   20.1767 O   0  0  0  0  0  0
  -26.5639  -34.8909   22.4664 O   0  0  0  0  0  0
  -23.5455  -32.1377   23.7266 O   0  0  0  0  0  0
  -30.4292  -19.5494   21.4162 C   0  0  0  0  0  0
  -30.6803  -18.1501   21.5108 C   0  0  0  0  0  0
  -28.7269  -19.0518   19.8461 C   0  0  0  0  0  0
  -29.3937  -20.0629   20.5967 C   0  0  0  0  0  0
  -29.9175  -17.1884   20.7934 C   0  0  0  0  0  0
  -28.4032  -23.5098   21.5238 C   0  0  0  0  0  0
  -28.5847  -23.7476   20.2226 C   0  0  0  0  0  0
  -28.6611  -22.1082   21.8082 C   0  0  0  0  0  0
  -28.9670  -22.4304   19.6461 C   0  0  0  0  0  0
  -29.4198  -16.1066   23.7528 C   0  0  0  0  0  0
  -29.8296  -15.5400   22.5980 C   0  0  0  0  0  0
  -28.4672  -25.1247   19.4467 C   0  0  0  0  0  0
  -28.9655  -17.6933   19.9500 N   0  0  0  0  0  0
  -29.0067  -21.5002   20.6515 N   0  0  0  0  0  0
  -29.9985  -15.7555   21.2158 N   0  0  0  0  0  0
  -28.5791  -21.5500   22.9067 O   0  0  0  0  0  0
  -29.2179  -22.1754   18.4644 O   0  0  0  0  0  0
  -30.3966  -11.4547   19.9141 H   0  0  0  0  0  0
  -31.4758  -12.5876   19.1598 H   0  0  0  0  0  0
  -29.7901  -11.7709   17.4980 H   0  0  0  0  0  0
  -29.6408  -13.4952   17.7402 H   0  0  0  0  0  0
  -27.8811  -11.2965   18.8720 H   0  0  0  0  0  0
  -27.3815  -12.5679   17.7894 H   0  0  0  0  0  0
  -27.6634  -14.2596   19.5170 H   0  0  0  0  0  0
  -28.7165  -12.0485   21.3441 H   0  0  0  0  0  0
  -28.3686  -13.6630   21.8467 H   0  0  0  0  0  0
  -25.2783   -9.5668   22.4754 H   0  0  0  0  0  0
  -24.0007   -7.4636   22.7470 H   0  0  0  0  0  0
  -21.0846   -8.8789   19.8956 H   0  0  0  0  0  0
  -22.3722  -10.9686   19.6167 H   0  0  0  0  0  0
  -21.1999   -7.6157   23.9709 H   0  0  0  0  0  0
  -21.1474   -6.0531   25.9075 H   0  0  0  0  0  0
  -22.0601   -2.7615   23.2853 H   0  0  0  0  0  0
  -22.4137  -11.9857   22.4798 H   0  0  0  0  0  0
  -21.1121  -13.1206   22.2655 H   0  0  0  0  0  0
  -24.6758  -15.8564   20.5566 H   0  0  0  0  0  0
  -26.2919  -15.6277   20.1199 H   0  0  0  0  0  0
  -26.7203  -32.5396   23.1067 H   0  0  0  0  0  0
  -25.0080  -33.9698   25.0392 H   0  0  0  0  0  0
  -22.7218  -31.2997   21.3968 H   0  0  0  0  0  0
  -23.3745  -35.9622   23.3312 H   0  0  0  0  0  0
  -24.3588  -36.8901   22.2059 H   0  0  0  0  0  0
  -23.7242  -37.6481   23.6666 H   0  0  0  0  0  0
  -26.1059  -31.5309   20.6040 H   0  0  0  0  0  0
  -26.8516  -30.8194   22.0044 H   0  0  0  0  0  0
  -28.1169  -28.9398   21.1858 H   0  0  0  0  0  0
  -25.9233  -25.8916   19.0317 H   0  0  0  0  0  0
  -23.9620  -27.2926   19.0252 H   0  0  0  0  0  0
  -23.7668  -30.5895   19.4034 H   0  0  0  0  0  0
  -22.7579  -29.2483   19.8528 H   0  0  0  0  0  0
  -25.1288  -36.1922   25.0812 H   0  0  0  0  0  0
  -20.9979  -28.3278   24.1404 H   0  0  0  0  0  0
  -20.5687  -26.2310   23.3628 H   0  0  0  0  0  0
  -21.6664  -26.7443   22.1222 H   0  0  0  0  0  0
  -19.6942  -25.6293   21.1257 H   0  0  0  0  0  0
  -19.6700  -27.3189   20.6746 H   0  0  0  0  0  0
  -17.4229  -26.6673   21.4016 H   0  0  0  0  0  0
  -18.0345  -26.0065   22.9016 H   0  0  0  0  0  0
  -19.7929  -30.7296   24.2216 H   0  0  0  0  0  0
  -17.4998  -31.6278   24.5121 H   0  0  0  0  0  0
  -15.5350  -30.2981   23.7620 H   0  0  0  0  0  0
  -15.8681  -28.0818   22.7059 H   0  0  0  0  0  0
  -24.5936  -30.7026   25.7770 H   0  0  0  0  0  0
  -24.8902  -32.2863   26.4836 H   0  0  0  0  0  0
  -25.8068  -30.8914   27.0223 H   0  0  0  0  0  0
  -26.2932  -29.6729   24.1214 H   0  0  0  0  0  0
  -27.4060  -29.7246   25.4683 H   0  0  0  0  0  0
  -27.8802  -30.4258   23.9407 H   0  0  0  0  0  0
  -27.2691  -33.3616   26.2037 H   0  0  0  0  0  0
  -28.3898  -32.6840   25.0322 H   0  0  0  0  0  0
  -28.0727  -31.8442   26.5411 H   0  0  0  0  0  0
  -28.2587  -38.0088   24.7500 H   0  0  0  0  0  0
  -28.1064  -36.2614   24.6311 H   0  0  0  0  0  0
  -27.2298  -37.1471   25.8875 H   0  0  0  0  0  0
  -20.9395  -29.8756   21.6876 H   0  0  0  0  0  0
  -26.0166  -38.2838   24.1406 H   0  0  0  0  0  0
  -31.0079  -20.2265   22.0293 H   0  0  0  0  0  0
  -31.4314  -17.8136   22.2108 H   0  0  0  0  0  0
  -27.9158  -19.3230   19.1875 H   0  0  0  0  0  0
  -28.1201  -24.2460   22.2590 H   0  0  0  0  0  0
  -29.8125  -15.7424   24.6922 H   0  0  0  0  0  0
  -28.7143  -16.9298   23.8270 H   0  0  0  0  0  0
  -28.8440  -15.8678   22.2927 H   0  0  0  0  0  0
  -27.7388  -25.0127   18.6487 H   0  0  0  0  0  0
  -29.4110  -25.2112   18.9078 H   0  0  0  0  0  0
  1 25  1  0  0  0
  1 30  2  0  0  0
  1 85  1  0  0  0
  2  3  1  0  0  0
  2 25  1  0  0  0
  2 88  1  0  0  0
  2 89  1  0  0  0
  3  4  1  0  0  0
  3 90  1  0  0  0
  3 91  1  0  0  0
  4  5  1  0  0  0
  4 92  1  0  0  0
  4 93  1  0  0  0
  5  6  1  0  0  0
  5 26  1  0  0  0
  5 94  1  0  0  0
  6 25  1  0  0  0
  6 95  1  0  0  0
  6 96  1  0  0  0
  7  8  2  0  0  0
  7 26  1  0  0  0
  7 29  1  0  0  0
  8  9  1  0  0  0
  8 22  1  0  0  0
  9 10  1  0  0  0
  9 27  2  0  0  0
 10 11  2  0  0  0
 10 15  1  0  0  0
 11 12  1  0  0  0
 11 97  1  0  0  0
 12 13  2  0  0  0
 12 98  1  0  0  0
 13 14  1  0  0  0
 13 31  1  0  0  0
 14 15  2  0  0  0
 14 99  1  0  0  0
 15100  1  0  0  0
 16 17  2  0  0  0
 16 21  1  0  0  0
 16 31  1  0  0  0
 17 18  1  0  0  0
 17101  1  0  0  0
 18 19  2  0  0  0
 18102  1  0  0  0
 19 20  1  0  0  0
 19 24  1  0  0  0
 20 21  2  0  0  0
 20103  1  0  0  0
 21 23  1  0  0  0
 22 28  1  0  0  0
 22 32  2  0  0  0
 26 27  1  0  0  0
 28104  1  0  0  0
 28105  1  0  0  0
 29106  1  0  0  0
 29107  1  0  0  0
 33 34  1  0  0  0
 33 66  1  0  0  0
 33 70  2  0  0  0
 34 36  1  0  0  0
 34 59  1  0  0  0
 34108  1  0  0  0
 35 44  2  0  0  0
 35 45  1  0  0  0
 35 68  1  0  0  0
 36 56  1  0  0  0
 36109  1  0  0  0
 37 39  1  0  0  0
 37 47  1  0  0  0
 37 66  1  0  0  0
 37110  1  0  0  0
 38 43  2  0  0  0
 38 46  1  0  0  0
 38 47  1  0  0  0
 39 64  1  0  0  0
 39 67  2  0  0  0
 40 52  1  0  0  0
 40 53  2  0  0  0
 40 58  1  0  0  0
 41111  1  0  0  0
 41112  1  0  0  0
 41113  1  0  0  0
 41 48  1  0  0  0
 42 43  1  0  0  0
 42 66  1  0  0  0
 42114  1  0  0  0
 42115  1  0  0  0
 43 44  1  0  0  0
 44116  1  0  0  0
 45 46  2  0  0  0
 45117  1  0  0  0
 46118  1  0  0  0
 47119  1  0  0  0
 47120  1  0  0  0
 48 56  1  0  0  0
 48 65  1  0  0  0
 48121  1  0  0  0
 49 50  1  0  0  0
 49 53  1  0  0  0
 49 64  1  0  0  0
 49122  1  0  0  0
 50 51  1  0  0  0
 50123  1  0  0  0
 50124  1  0  0  0
 51 52  1  0  0  0
 51125  1  0  0  0
 51126  1  0  0  0
 52127  1  0  0  0
 52128  1  0  0  0
 53 54  1  0  0  0
 54 55  2  0  0  0
 54129  1  0  0  0
 55 57  1  0  0  0
 55130  1  0  0  0
 56 69  2  0  0  0
 57 58  2  0  0  0
 57131  1  0  0  0
 58132  1  0  0  0
 59 60  1  0  0  0
 59 61  1  0  0  0
 59 62  1  0  0  0
 60133  1  0  0  0
 60134  1  0  0  0
 60135  1  0  0  0
 61136  1  0  0  0
 61137  1  0  0  0
 61138  1  0  0  0
 62139  1  0  0  0
 62140  1  0  0  0
 62141  1  0  0  0
 63 65  1  0  0  0
 63142  1  0  0  0
 63143  1  0  0  0
 63144  1  0  0  0
 64145  1  0  0  0
 65146  1  0  0  0
 68 82  1  0  0  0
 71 72  2  0  0  0
 71 74  1  0  0  0
 71147  1  0  0  0
 72 75  1  0  0  0
 72148  1  0  0  0
 73 74  2  0  0  0
 73 83  1  0  0  0
 73149  1  0  0  0
 74 84  1  0  0  0
 75 83  2  0  0  0
 75 85  1  0  0  0
 76 77  2  0  0  0
 76 78  1  0  0  0
 76150  1  0  0  0
 77 79  1  0  0  0
 77 82  1  0  0  0
 78 84  1  0  0  0
 78 86  2  0  0  0
 79 84  1  0  0  0
 79 87  2  0  0  0
 80 81  2  0  0  0
 80151  1  0  0  0
 80152  1  0  0  0
 81 85  1  0  0  0
 81153  1  0  0  0
 82154  1  0  0  0
 82155  1  0  0  0
M  ISO  4   1 100  68 101  82 101  85 100
M  END
> <chiral flag>
0

> <version>
0

> <s_m_source_file>
/data/baiqing/PycharmProjects/Reinvent-master-3.2/result/LINK_invent/BTK/process_docking_weight1_custom_product_contain_oxygen_bond_distance_aromatic_linkinvent_7_9_3/rearranged_h_0086.sdf

> <i_m_source_file_index>
65

> <r_mmod_Potential_Energy-OPLS-2005>
355.964752197266

> <r_mmod_Stretch_Energy-OPLS-2005>
110.103294372559

> <r_mmod_Bend_Energy-OPLS-2005>
395.160675048828

> <r_mmod_Torsional_Energy-OPLS-2005>
374.917388916016

> <r_mmod_Improper_Torsional_Energy-OPLS-2005>
34.3687973022461

> <r_mmod_Van_der_Waal_Energy-OPLS-2005>
151.262222290039

> <r_mmod_Electrostatic_Energy-OPLS-2005>
-552.435974121094

> <r_mmod_Solvation_Energy-OPLS-2005>
-223.136596679688

> <b_mmod_Minimization_Converged-OPLS-2005>
0

> <r_mmod_RMS_Derivative-OPLS-2005>
2.16595387458801

$$$$
65
                    3D
 Structure written by MMmdl.
152161  0  0  1  0            999 V2000
  -30.6278  -14.7060   20.4244 C   0  0  0  0  0  0
  -30.4450  -12.4225   19.4440 C   0  0  0  0  0  0
  -29.5053  -12.4886   18.2209 C   0  0  0  0  0  0
  -28.0308  -12.3332   18.6427 C   0  0  0  0  0  0
  -27.6538  -13.2239   19.8561 C   0  0  2  0  0  0
  -28.7131  -13.1265   20.9790 C   0  0  0  0  0  0
  -25.2576  -13.8195   20.5741 C   0  0  0  0  0  0
  -24.1841  -13.0440   20.9199 C   0  0  0  0  0  0
  -24.6435  -11.6922   20.8743 C   0  0  0  0  0  0
  -23.9082  -10.4299   21.0399 C   0  0  0  0  0  0
  -24.3620   -9.4213   21.9179 C   0  0  0  0  0  0
  -23.6300   -8.2243   22.0741 C   0  0  0  0  0  0
  -22.4280   -8.0282   21.3530 C   0  0  0  0  0  0
  -21.9918   -9.0266   20.4638 C   0  0  0  0  0  0
  -22.7243  -10.2153   20.3052 C   0  0  0  0  0  0
  -21.6860   -6.0741   22.5276 C   0  0  0  0  0  0
  -21.4015   -6.5638   23.8211 C   0  0  0  0  0  0
  -21.3653   -5.6787   24.9172 C   0  0  0  0  0  0
  -21.6046   -4.3049   24.7225 C   0  0  0  0  0  0
  -21.8815   -3.8144   23.4338 C   0  0  0  0  0  0
  -21.9201   -4.6967   22.3400 C   0  0  0  0  0  0
  -22.7850  -13.5220   21.1864 C   0  0  0  0  0  0
  -22.1661   -4.2147   21.0984 F   0  0  0  0  0  0
  -21.5633   -3.4542   25.7733 F   0  0  0  0  0  0
  -30.0183  -13.4719   20.3935 N   0  0  0  0  0  0
  -26.3025  -12.9393   20.3368 N   0  0  0  0  0  0
  -25.9369  -11.6538   20.5794 N   0  0  0  0  0  0
  -22.0496  -12.8212   22.0422 N   0  0  0  0  0  0
  -25.4290  -15.1927   20.4280 N   0  0  0  0  0  0
  -31.8064  -14.8400   20.0908 O   0  0  0  0  0  0
  -21.6637   -6.8885   21.4235 O   0  0  0  0  0  0
  -22.3522  -14.5522   20.6718 O   0  0  0  0  0  0
  -24.6256  -31.8571   23.1983 C   0  0  0  0  0  0
  -25.9074  -32.4774   23.8316 C   0  0  1  0  0  0
  -27.2499  -27.3140   20.1071 C   0  0  0  0  0  0
  -25.5873  -33.8573   24.2221 N   0  0  0  0  0  0
  -23.4251  -30.4780   21.5396 C   0  0  2  0  0  0
  -24.8779  -28.9263   20.1171 C   0  0  0  0  0  0
  -22.7481  -29.4608   22.4905 C   0  0  0  0  0  0
  -18.0287  -28.1405   22.8469 C   0  0  0  0  0  0
  -24.1492  -36.7321   23.2645 C   0  0  0  0  0  0
  -25.9657  -30.7878   21.3691 C   0  0  0  0  0  0
  -26.0475  -29.4100   20.7169 C   0  0  0  0  0  0
  -27.2357  -28.6154   20.7039 C   0  0  0  0  0  0
  -26.0542  -26.8866   19.4863 C   0  0  0  0  0  0
  -24.8805  -27.6657   19.4998 C   0  0  0  0  0  0
  -23.6433  -29.8039   20.1595 C   0  0  0  0  0  0
  -25.4118  -36.3086   24.0322 C   0  0  1  0  0  0
  -20.5890  -28.3711   23.1279 C   0  0  2  0  0  0
  -20.6772  -26.9424   22.5424 C   0  0  0  0  0  0
  -19.5745  -26.6396   21.5221 C   0  0  0  0  0  0
  -18.1937  -26.7942   22.1629 C   0  0  0  0  0  0
  -19.1546  -28.8866   23.2865 C   0  0  0  0  0  0
  -18.9459  -30.1482   23.8874 C   0  0  0  0  0  0
  -17.6459  -30.6598   24.0568 C   0  0  0  0  0  0
  -25.9037  -34.9453   23.5076 C   0  0  0  0  0  0
  -16.5347  -29.9110   23.6338 C   0  0  0  0  0  0
  -16.7275  -28.6538   23.0326 C   0  0  0  0  0  0
  -26.4463  -31.6589   25.0692 C   0  0  0  0  0  0
  -25.3676  -31.3719   26.1384 C   0  0  0  0  0  0
  -27.0347  -30.3025   24.6166 C   0  0  0  0  0  0
  -27.5972  -32.4365   25.7490 C   0  0  0  0  0  0
  -27.5549  -37.1854   24.8470 C   0  0  0  0  0  0
  -21.4191  -29.3052   22.3642 N   0  0  0  0  0  0
  -26.4319  -37.3754   23.9335 N   0  0  0  0  0  0
  -24.6899  -31.0585   22.0915 N   0  0  0  0  0  0
  -23.4199  -28.8168   23.2996 O   0  0  0  0  0  0
  -28.3709  -26.4583   20.0972 O   0  0  0  0  0  0
  -26.5640  -34.8940   22.4670 O   0  0  0  0  0  0
  -23.5403  -32.1333   23.7325 O   0  0  0  0  0  0
  -30.8854  -19.4471   19.8263 C   0  0  0  0  0  0
  -30.9612  -18.0140   19.9427 C   0  0  0  0  0  0
  -28.6972  -19.4240   20.7885 C   0  0  0  0  0  0
  -29.7505  -20.2197   20.2464 C   0  0  0  0  0  0
  -29.8943  -17.2455   20.4909 C   0  0  0  0  0  0
  -28.7635  -18.0035   20.8969 C   0  0  0  0  0  0
  -29.0109  -23.9830   20.1349 C   0  0  0  0  0  0
  -30.3281  -23.9448   19.5299 C   0  0  0  0  0  0
  -28.6687  -22.5838   20.4765 C   0  0  0  0  0  0
  -28.1854  -25.0748   20.3590 C   0  0  0  0  0  0
  -30.7958  -22.4837   19.5131 C   0  0  0  0  0  0
  -29.6846  -21.7112   20.1138 N   0  0  0  0  0  0
  -29.8010  -15.7810   20.6509 N   0  0  0  0  0  0
  -30.9996  -24.8909   19.0994 O   0  0  0  0  0  0
  -27.6117  -22.2439   21.0218 O   0  0  0  0  0  0
  -27.6980  -17.3364   21.4018 F   0  0  0  0  0  0
  -31.4805  -12.5512   19.1256 H   0  0  0  0  0  0
  -30.3989  -11.4413   19.9173 H   0  0  0  0  0  0
  -29.7681  -11.7129   17.5014 H   0  0  0  0  0  0
  -29.6348  -13.4371   17.7001 H   0  0  0  0  0  0
  -27.8755  -11.2838   18.8979 H   0  0  0  0  0  0
  -27.3677  -12.5398   17.8004 H   0  0  0  0  0  0
  -27.6534  -14.2498   19.4854 H   0  0  0  0  0  0
  -28.7443  -12.1175   21.3938 H   0  0  0  0  0  0
  -28.4654  -13.7882   21.8103 H   0  0  0  0  0  0
  -25.2791   -9.5684   22.4737 H   0  0  0  0  0  0
  -24.0018   -7.4628   22.7463 H   0  0  0  0  0  0
  -21.0835   -8.8785   19.8952 H   0  0  0  0  0  0
  -22.3703  -10.9685   19.6141 H   0  0  0  0  0  0
  -21.1995   -7.6144   23.9712 H   0  0  0  0  0  0
  -21.1479   -6.0521   25.9080 H   0  0  0  0  0  0
  -22.0605   -2.7605   23.2843 H   0  0  0  0  0  0
  -22.4141  -11.9879   22.4784 H   0  0  0  0  0  0
  -21.1114  -13.1212   22.2631 H   0  0  0  0  0  0
  -24.6722  -15.8495   20.5879 H   0  0  0  0  0  0
  -26.3110  -15.6513   20.2372 H   0  0  0  0  0  0
  -26.7158  -32.5456   23.1087 H   0  0  0  0  0  0
  -24.9897  -33.9682   25.0277 H   0  0  0  0  0  0
  -22.7212  -31.2990   21.3899 H   0  0  0  0  0  0
  -23.3624  -35.9818   23.3598 H   0  0  0  0  0  0
  -24.3488  -36.8628   22.1999 H   0  0  0  0  0  0
  -23.7478  -37.6724   23.6455 H   0  0  0  0  0  0
  -26.0884  -31.5478   20.5974 H   0  0  0  0  0  0
  -26.8471  -30.8476   21.9950 H   0  0  0  0  0  0
  -28.1378  -28.9816   21.1720 H   0  0  0  0  0  0
  -26.0213  -25.9247   18.9964 H   0  0  0  0  0  0
  -23.9809  -27.2869   19.0347 H   0  0  0  0  0  0
  -23.7609  -30.5733   19.3953 H   0  0  0  0  0  0
  -22.7672  -29.2289   19.8561 H   0  0  0  0  0  0
  -25.1340  -36.1959   25.0830 H   0  0  0  0  0  0
  -20.9989  -28.3309   24.1395 H   0  0  0  0  0  0
  -20.5680  -26.2320   23.3633 H   0  0  0  0  0  0
  -21.6648  -26.7454   22.1220 H   0  0  0  0  0  0
  -19.6913  -25.6309   21.1258 H   0  0  0  0  0  0
  -19.6705  -27.3205   20.6758 H   0  0  0  0  0  0
  -17.4208  -26.6671   21.4041 H   0  0  0  0  0  0
  -18.0339  -26.0108   22.9043 H   0  0  0  0  0  0
  -19.7942  -30.7308   24.2230 H   0  0  0  0  0  0
  -17.5021  -31.6271   24.5185 H   0  0  0  0  0  0
  -15.5364  -30.2997   23.7694 H   0  0  0  0  0  0
  -15.8675  -28.0892   22.7004 H   0  0  0  0  0  0
  -24.5997  -30.6887   25.7740 H   0  0  0  0  0  0
  -24.8673  -32.2855   26.4609 H   0  0  0  0  0  0
  -25.8009  -30.9115   27.0271 H   0  0  0  0  0  0
  -26.2958  -29.6787   24.1123 H   0  0  0  0  0  0
  -27.3966  -29.7278   25.4700 H   0  0  0  0  0  0
  -27.8842  -30.4314   23.9454 H   0  0  0  0  0  0
  -27.2477  -33.3563   26.2191 H   0  0  0  0  0  0
  -28.3721  -32.7111   25.0325 H   0  0  0  0  0  0
  -28.0728  -31.8448   26.5324 H   0  0  0  0  0  0
  -28.2708  -38.0000   24.7321 H   0  0  0  0  0  0
  -28.0914  -36.2545   24.6579 H   0  0  0  0  0  0
  -27.2231  -37.1851   25.8867 H   0  0  0  0  0  0
  -20.9371  -29.8738   21.6825 H   0  0  0  0  0  0
  -26.0216  -38.2875   24.1193 H   0  0  0  0  0  0
  -31.7372  -19.9490   19.3884 H   0  0  0  0  0  0
  -31.8500  -17.5093   19.5869 H   0  0  0  0  0  0
  -27.7838  -19.8763   21.1339 H   0  0  0  0  0  0
  -27.2215  -24.9032   20.8221 H   0  0  0  0  0  0
  -31.7121  -22.3821   20.0990 H   0  0  0  0  0  0
  -30.9959  -22.1660   18.4887 H   0  0  0  0  0  0
  -28.8781  -15.4932   20.9351 H   0  0  0  0  0  0
  1 25  1  0  0  0
  1 30  2  0  0  0
  1 83  1  0  0  0
  2  3  1  0  0  0
  2 25  1  0  0  0
  2 87  1  0  0  0
  2 88  1  0  0  0
  3  4  1  0  0  0
  3 89  1  0  0  0
  3 90  1  0  0  0
  4  5  1  0  0  0
  4 91  1  0  0  0
  4 92  1  0  0  0
  5  6  1  0  0  0
  5 26  1  0  0  0
  5 93  1  0  0  0
  6 25  1  0  0  0
  6 94  1  0  0  0
  6 95  1  0  0  0
  7  8  2  0  0  0
  7 26  1  0  0  0
  7 29  1  0  0  0
  8  9  1  0  0  0
  8 22  1  0  0  0
  9 10  1  0  0  0
  9 27  2  0  0  0
 10 11  2  0  0  0
 10 15  1  0  0  0
 11 12  1  0  0  0
 11 96  1  0  0  0
 12 13  2  0  0  0
 12 97  1  0  0  0
 13 14  1  0  0  0
 13 31  1  0  0  0
 14 15  2  0  0  0
 14 98  1  0  0  0
 15 99  1  0  0  0
 16 17  2  0  0  0
 16 21  1  0  0  0
 16 31  1  0  0  0
 17 18  1  0  0  0
 17100  1  0  0  0
 18 19  2  0  0  0
 18101  1  0  0  0
 19 20  1  0  0  0
 19 24  1  0  0  0
 20 21  2  0  0  0
 20102  1  0  0  0
 21 23  1  0  0  0
 22 28  1  0  0  0
 22 32  2  0  0  0
 26 27  1  0  0  0
 28103  1  0  0  0
 28104  1  0  0  0
 29105  1  0  0  0
 29106  1  0  0  0
 33 34  1  0  0  0
 33 66  1  0  0  0
 33 70  2  0  0  0
 34 36  1  0  0  0
 34 59  1  0  0  0
 34107  1  0  0  0
 35 44  2  0  0  0
 35 45  1  0  0  0
 35 68  1  0  0  0
 36 56  1  0  0  0
 36108  1  0  0  0
 37 39  1  0  0  0
 37 47  1  0  0  0
 37 66  1  0  0  0
 37109  1  0  0  0
 38 43  2  0  0  0
 38 46  1  0  0  0
 38 47  1  0  0  0
 39 64  1  0  0  0
 39 67  2  0  0  0
 40 52  1  0  0  0
 40 53  2  0  0  0
 40 58  1  0  0  0
 41110  1  0  0  0
 41111  1  0  0  0
 41112  1  0  0  0
 41 48  1  0  0  0
 42 43  1  0  0  0
 42 66  1  0  0  0
 42113  1  0  0  0
 42114  1  0  0  0
 43 44  1  0  0  0
 44115  1  0  0  0
 45 46  2  0  0  0
 45116  1  0  0  0
 46117  1  0  0  0
 47118  1  0  0  0
 47119  1  0  0  0
 48 56  1  0  0  0
 48 65  1  0  0  0
 48120  1  0  0  0
 49 50  1  0  0  0
 49 53  1  0  0  0
 49 64  1  0  0  0
 49121  1  0  0  0
 50 51  1  0  0  0
 50122  1  0  0  0
 50123  1  0  0  0
 51 52  1  0  0  0
 51124  1  0  0  0
 51125  1  0  0  0
 52126  1  0  0  0
 52127  1  0  0  0
 53 54  1  0  0  0
 54 55  2  0  0  0
 54128  1  0  0  0
 55 57  1  0  0  0
 55129  1  0  0  0
 56 69  2  0  0  0
 57 58  2  0  0  0
 57130  1  0  0  0
 58131  1  0  0  0
 59 60  1  0  0  0
 59 61  1  0  0  0
 59 62  1  0  0  0
 60132  1  0  0  0
 60133  1  0  0  0
 60134  1  0  0  0
 61135  1  0  0  0
 61136  1  0  0  0
 61137  1  0  0  0
 62138  1  0  0  0
 62139  1  0  0  0
 62140  1  0  0  0
 63 65  1  0  0  0
 63141  1  0  0  0
 63142  1  0  0  0
 63143  1  0  0  0
 64144  1  0  0  0
 65145  1  0  0  0
 68 80  1  0  0  0
 71 72  2  0  0  0
 71 74  1  0  0  0
 71146  1  0  0  0
 72 75  1  0  0  0
 72147  1  0  0  0
 73 74  2  0  0  0
 73 76  1  0  0  0
 73148  1  0  0  0
 74 82  1  0  0  0
 75 76  2  0  0  0
 75 83  1  0  0  0
 76 86  1  0  0  0
 77 78  1  0  0  0
 77 79  1  0  0  0
 77 80  2  0  0  0
 78 81  1  0  0  0
 78 84  2  0  0  0
 79 82  1  0  0  0
 79 85  2  0  0  0
 80149  1  0  0  0
 81 82  1  0  0  0
 81150  1  0  0  0
 81151  1  0  0  0
 83152  1  0  0  0
M  ISO  4   1 100  68 101  80 101  83 100
M  END
> <chiral flag>
0

> <version>
0

> <s_m_source_file>
/data/baiqing/PycharmProjects/Reinvent-master-3.2/result/LINK_invent/BTK/process_docking_weight1_custom_product_contain_oxygen_bond_distance_aromatic_linkinvent_7_9_3/rearranged_h_0086.sdf

> <i_m_source_file_index>
66

> <r_mmod_Potential_Energy-OPLS-2005>
118.460357666016

> <r_mmod_Stretch_Energy-OPLS-2005>
97.5153198242188

> <r_mmod_Bend_Energy-OPLS-2005>
204.578765869141

> <r_mmod_Torsional_Energy-OPLS-2005>
240.838745117188

> <r_mmod_Improper_Torsional_Energy-OPLS-2005>
4.36470556259155

> <r_mmod_Van_der_Waal_Energy-OPLS-2005>
139.613525390625

> <r_mmod_Electrostatic_Energy-OPLS-2005>
-403.190368652344

> <r_mmod_Solvation_Energy-OPLS-2005>
-227.410781860352

> <b_mmod_Minimization_Converged-OPLS-2005>
0

> <r_mmod_RMS_Derivative-OPLS-2005>
3.80190753936768

$$$$
66
                    3D
 Structure written by MMmdl.
150158  0  0  1  0            999 V2000
  -30.6248  -14.6240   20.5057 C   0  0  0  0  0  0
  -30.4355  -12.3844   19.4462 C   0  0  0  0  0  0
  -29.5063  -12.5139   18.2185 C   0  0  0  0  0  0
  -28.0249  -12.3644   18.6237 C   0  0  0  0  0  0
  -27.6536  -13.2179   19.8663 C   0  0  2  0  0  0
  -28.6991  -13.0537   20.9922 C   0  0  0  0  0  0
  -25.2553  -13.8179   20.5683 C   0  0  0  0  0  0
  -24.1825  -13.0438   20.9183 C   0  0  0  0  0  0
  -24.6394  -11.6912   20.8731 C   0  0  0  0  0  0
  -23.9056  -10.4298   21.0404 C   0  0  0  0  0  0
  -24.3617   -9.4214   21.9180 C   0  0  0  0  0  0
  -23.6289   -8.2249   22.0746 C   0  0  0  0  0  0
  -22.4272   -8.0285   21.3541 C   0  0  0  0  0  0
  -21.9900   -9.0259   20.4645 C   0  0  0  0  0  0
  -22.7222  -10.2144   20.3060 C   0  0  0  0  0  0
  -21.6861   -6.0734   22.5275 C   0  0  0  0  0  0
  -21.4024   -6.5644   23.8209 C   0  0  0  0  0  0
  -21.3655   -5.6791   24.9169 C   0  0  0  0  0  0
  -21.6044   -4.3054   24.7219 C   0  0  0  0  0  0
  -21.8819   -3.8141   23.4341 C   0  0  0  0  0  0
  -21.9196   -4.6961   22.3399 C   0  0  0  0  0  0
  -22.7844  -13.5233   21.1853 C   0  0  0  0  0  0
  -22.1660   -4.2147   21.0977 F   0  0  0  0  0  0
  -21.5622   -3.4537   25.7727 F   0  0  0  0  0  0
  -30.0158  -13.3988   20.4326 N   0  0  0  0  0  0
  -26.2986  -12.9360   20.3324 N   0  0  0  0  0  0
  -25.9323  -11.6510   20.5753 N   0  0  0  0  0  0
  -22.0493  -12.8236   22.0418 N   0  0  0  0  0  0
  -25.4248  -15.1902   20.4115 N   0  0  0  0  0  0
  -31.7829  -14.7881   20.1127 O   0  0  0  0  0  0
  -21.6644   -6.8875   21.4237 O   0  0  0  0  0  0
  -22.3528  -14.5540   20.6693 O   0  0  0  0  0  0
  -24.6253  -31.8617   23.2054 C   0  0  0  0  0  0
  -25.9103  -32.4786   23.8380 C   0  0  1  0  0  0
  -27.2125  -27.3195   20.1117 C   0  0  0  0  0  0
  -25.5925  -33.8589   24.2300 N   0  0  0  0  0  0
  -23.4184  -30.4876   21.5486 C   0  0  2  0  0  0
  -24.8624  -28.9491   20.1100 C   0  0  0  0  0  0
  -22.7470  -29.4626   22.4935 C   0  0  0  0  0  0
  -18.0292  -28.1375   22.8485 C   0  0  0  0  0  0
  -24.1483  -36.7296   23.2631 C   0  0  0  0  0  0
  -25.9614  -30.7915   21.3792 C   0  0  0  0  0  0
  -26.0333  -29.4211   20.7172 C   0  0  0  0  0  0
  -27.2126  -28.6176   20.7097 C   0  0  0  0  0  0
  -26.0168  -26.9052   19.4780 C   0  0  0  0  0  0
  -24.8562  -27.6971   19.4817 C   0  0  0  0  0  0
  -23.6330  -29.8310   20.1615 C   0  0  0  0  0  0
  -25.4100  -36.3082   24.0332 C   0  0  1  0  0  0
  -20.5890  -28.3679   23.1277 C   0  0  2  0  0  0
  -20.6775  -26.9400   22.5403 C   0  0  0  0  0  0
  -19.5752  -26.6371   21.5204 C   0  0  0  0  0  0
  -18.1940  -26.7912   22.1632 C   0  0  0  0  0  0
  -19.1543  -28.8842   23.2879 C   0  0  0  0  0  0
  -18.9465  -30.1442   23.8901 C   0  0  0  0  0  0
  -17.6465  -30.6576   24.0560 C   0  0  0  0  0  0
  -25.9048  -34.9454   23.5111 C   0  0  0  0  0  0
  -16.5357  -29.9077   23.6322 C   0  0  0  0  0  0
  -16.7280  -28.6493   23.0348 C   0  0  0  0  0  0
  -26.4484  -31.6596   25.0749 C   0  0  0  0  0  0
  -25.3723  -31.3766   26.1490 C   0  0  0  0  0  0
  -27.0319  -30.3012   24.6211 C   0  0  0  0  0  0
  -27.6057  -32.4325   25.7504 C   0  0  0  0  0  0
  -27.5597  -37.1768   24.8438 C   0  0  0  0  0  0
  -21.4186  -29.3036   22.3674 N   0  0  0  0  0  0
  -26.4268  -37.3790   23.9445 N   0  0  0  0  0  0
  -24.6872  -31.0624   22.1012 N   0  0  0  0  0  0
  -23.4197  -28.8154   23.3003 O   0  0  0  0  0  0
  -28.3192  -26.4577   20.1575 O   0  0  0  0  0  0
  -26.5612  -34.8917   22.4677 O   0  0  0  0  0  0
  -23.5415  -32.1428   23.7371 O   0  0  0  0  0  0
  -28.8122  -19.3407   21.0473 C   0  0  0  0  0  0
  -30.9590  -19.2343   19.9844 C   0  0  0  0  0  0
  -28.8259  -17.9210   21.1885 C   0  0  0  0  0  0
  -30.9744  -17.8140   20.1178 C   0  0  0  0  0  0
  -29.8861  -20.0458   20.4472 C   0  0  0  0  0  0
  -29.9036  -17.1132   20.7306 C   0  0  0  0  0  0
  -29.9400  -21.5577   20.2740 C   0  0  0  0  0  0
  -28.9945  -22.5278   20.4891 C   0  0  0  0  0  0
  -29.2331  -24.0184   20.2852 C   0  0  0  0  0  0
  -28.0194  -25.0045   20.1193 C   0  0  0  0  0  0
  -29.8201  -15.6619   20.8963 N   0  0  0  0  0  0
  -30.3764  -24.4855   20.2260 O   0  0  0  0  0  0
  -31.4766  -12.5100   19.1445 H   0  0  0  0  0  0
  -30.3686  -11.3850   19.8793 H   0  0  0  0  0  0
  -29.7643  -11.7635   17.4693 H   0  0  0  0  0  0
  -29.6604  -13.4842   17.7439 H   0  0  0  0  0  0
  -27.8402  -11.3100   18.8270 H   0  0  0  0  0  0
  -27.3810  -12.6285   17.7837 H   0  0  0  0  0  0
  -27.6750  -14.2580   19.5422 H   0  0  0  0  0  0
  -28.7076  -12.0256   21.3575 H   0  0  0  0  0  0
  -28.4484  -13.6720   21.8552 H   0  0  0  0  0  0
  -25.2773   -9.5686   22.4739 H   0  0  0  0  0  0
  -23.9999   -7.4647   22.7474 H   0  0  0  0  0  0
  -21.0821   -8.8781   19.8965 H   0  0  0  0  0  0
  -22.3677  -10.9683   19.6169 H   0  0  0  0  0  0
  -21.2030   -7.6153   23.9711 H   0  0  0  0  0  0
  -21.1471   -6.0523   25.9070 H   0  0  0  0  0  0
  -22.0603   -2.7600   23.2848 H   0  0  0  0  0  0
  -22.4122  -11.9913   22.4825 H   0  0  0  0  0  0
  -21.1115  -13.1272   22.2633 H   0  0  0  0  0  0
  -24.6548  -15.8417   20.5169 H   0  0  0  0  0  0
  -26.2663  -15.6300   20.0590 H   0  0  0  0  0  0
  -26.7174  -32.5453   23.1136 H   0  0  0  0  0  0
  -25.0070  -33.9744   25.0439 H   0  0  0  0  0  0
  -22.7112  -31.3078   21.4099 H   0  0  0  0  0  0
  -23.3758  -35.9611   23.3224 H   0  0  0  0  0  0
  -24.3606  -36.8986   22.2063 H   0  0  0  0  0  0
  -23.7201  -37.6465   23.6690 H   0  0  0  0  0  0
  -26.0976  -31.5578   20.6146 H   0  0  0  0  0  0
  -26.8398  -30.8354   22.0119 H   0  0  0  0  0  0
  -28.1095  -28.9710   21.1995 H   0  0  0  0  0  0
  -25.9408  -25.9572   18.9685 H   0  0  0  0  0  0
  -23.9601  -27.3350   18.9967 H   0  0  0  0  0  0
  -23.7542  -30.6133   19.4114 H   0  0  0  0  0  0
  -22.7521  -29.2652   19.8532 H   0  0  0  0  0  0
  -25.1259  -36.1928   25.0818 H   0  0  0  0  0  0
  -20.9986  -28.3252   24.1394 H   0  0  0  0  0  0
  -20.5664  -26.2289   23.3603 H   0  0  0  0  0  0
  -21.6644  -26.7419   22.1203 H   0  0  0  0  0  0
  -19.6908  -25.6276   21.1238 H   0  0  0  0  0  0
  -19.6682  -27.3178   20.6728 H   0  0  0  0  0  0
  -17.4193  -26.6632   21.4059 H   0  0  0  0  0  0
  -18.0369  -26.0066   22.9047 H   0  0  0  0  0  0
  -19.7941  -30.7252   24.2280 H   0  0  0  0  0  0
  -17.5020  -31.6255   24.5162 H   0  0  0  0  0  0
  -15.5357  -30.2981   23.7633 H   0  0  0  0  0  0
  -15.8687  -28.0806   22.7065 H   0  0  0  0  0  0
  -24.5843  -30.7177   25.7824 H   0  0  0  0  0  0
  -24.8988  -32.2958   26.4952 H   0  0  0  0  0  0
  -25.8036  -30.8899   27.0247 H   0  0  0  0  0  0
  -26.2900  -29.6774   24.1214 H   0  0  0  0  0  0
  -27.3986  -29.7259   25.4722 H   0  0  0  0  0  0
  -27.8784  -30.4291   23.9462 H   0  0  0  0  0  0
  -27.2680  -33.3629   26.2083 H   0  0  0  0  0  0
  -28.3861  -32.6881   25.0321 H   0  0  0  0  0  0
  -28.0731  -31.8454   26.5421 H   0  0  0  0  0  0
  -28.2503  -38.0173   24.7638 H   0  0  0  0  0  0
  -28.1201  -36.2717   24.6043 H   0  0  0  0  0  0
  -27.2354  -37.1147   25.8841 H   0  0  0  0  0  0
  -20.9345  -29.8794   21.6927 H   0  0  0  0  0  0
  -26.0138  -38.2837   24.1551 H   0  0  0  0  0  0
  -27.9585  -19.8896   21.4184 H   0  0  0  0  0  0
  -31.8060  -19.7071   19.5070 H   0  0  0  0  0  0
  -27.9741  -17.4517   21.6606 H   0  0  0  0  0  0
  -31.8288  -17.2760   19.7341 H   0  0  0  0  0  0
  -30.9012  -21.9145   19.9279 H   0  0  0  0  0  0
  -28.0103  -22.2418   20.8288 H   0  0  0  0  0  0
  -27.2730  -24.7659   20.8795 H   0  0  0  0  0  0
  -27.5773  -24.7511   19.1556 H   0  0  0  0  0  0
  -28.9371  -15.3372   21.2593 H   0  0  0  0  0  0
  1 25  1  0  0  0
  1 30  2  0  0  0
  1 81  1  0  0  0
  2  3  1  0  0  0
  2 25  1  0  0  0
  2 83  1  0  0  0
  2 84  1  0  0  0
  3  4  1  0  0  0
  3 85  1  0  0  0
  3 86  1  0  0  0
  4  5  1  0  0  0
  4 87  1  0  0  0
  4 88  1  0  0  0
  5  6  1  0  0  0
  5 26  1  0  0  0
  5 89  1  0  0  0
  6 25  1  0  0  0
  6 90  1  0  0  0
  6 91  1  0  0  0
  7  8  2  0  0  0
  7 26  1  0  0  0
  7 29  1  0  0  0
  8  9  1  0  0  0
  8 22  1  0  0  0
  9 10  1  0  0  0
  9 27  2  0  0  0
 10 11  2  0  0  0
 10 15  1  0  0  0
 11 12  1  0  0  0
 11 92  1  0  0  0
 12 13  2  0  0  0
 12 93  1  0  0  0
 13 14  1  0  0  0
 13 31  1  0  0  0
 14 15  2  0  0  0
 14 94  1  0  0  0
 15 95  1  0  0  0
 16 17  2  0  0  0
 16 21  1  0  0  0
 16 31  1  0  0  0
 17 18  1  0  0  0
 17 96  1  0  0  0
 18 19  2  0  0  0
 18 97  1  0  0  0
 19 20  1  0  0  0
 19 24  1  0  0  0
 20 21  2  0  0  0
 20 98  1  0  0  0
 21 23  1  0  0  0
 22 28  1  0  0  0
 22 32  2  0  0  0
 26 27  1  0  0  0
 28 99  1  0  0  0
 28100  1  0  0  0
 29101  1  0  0  0
 29102  1  0  0  0
 33 34  1  0  0  0
 33 66  1  0  0  0
 33 70  2  0  0  0
 34 36  1  0  0  0
 34 59  1  0  0  0
 34103  1  0  0  0
 35 44  2  0  0  0
 35 45  1  0  0  0
 35 68  1  0  0  0
 36 56  1  0  0  0
 36104  1  0  0  0
 37 39  1  0  0  0
 37 47  1  0  0  0
 37 66  1  0  0  0
 37105  1  0  0  0
 38 43  2  0  0  0
 38 46  1  0  0  0
 38 47  1  0  0  0
 39 64  1  0  0  0
 39 67  2  0  0  0
 40 52  1  0  0  0
 40 53  2  0  0  0
 40 58  1  0  0  0
 41106  1  0  0  0
 41107  1  0  0  0
 41108  1  0  0  0
 41 48  1  0  0  0
 42 43  1  0  0  0
 42 66  1  0  0  0
 42109  1  0  0  0
 42110  1  0  0  0
 43 44  1  0  0  0
 44111  1  0  0  0
 45 46  2  0  0  0
 45112  1  0  0  0
 46113  1  0  0  0
 47114  1  0  0  0
 47115  1  0  0  0
 48 56  1  0  0  0
 48 65  1  0  0  0
 48116  1  0  0  0
 49 50  1  0  0  0
 49 53  1  0  0  0
 49 64  1  0  0  0
 49117  1  0  0  0
 50 51  1  0  0  0
 50118  1  0  0  0
 50119  1  0  0  0
 51 52  1  0  0  0
 51120  1  0  0  0
 51121  1  0  0  0
 52122  1  0  0  0
 52123  1  0  0  0
 53 54  1  0  0  0
 54 55  2  0  0  0
 54124  1  0  0  0
 55 57  1  0  0  0
 55125  1  0  0  0
 56 69  2  0  0  0
 57 58  2  0  0  0
 57126  1  0  0  0
 58127  1  0  0  0
 59 60  1  0  0  0
 59 61  1  0  0  0
 59 62  1  0  0  0
 60128  1  0  0  0
 60129  1  0  0  0
 60130  1  0  0  0
 61131  1  0  0  0
 61132  1  0  0  0
 61133  1  0  0  0
 62134  1  0  0  0
 62135  1  0  0  0
 62136  1  0  0  0
 63 65  1  0  0  0
 63137  1  0  0  0
 63138  1  0  0  0
 63139  1  0  0  0
 64140  1  0  0  0
 65141  1  0  0  0
 68 80  1  0  0  0
 71 73  2  0  0  0
 71 75  1  0  0  0
 71142  1  0  0  0
 72 74  1  0  0  0
 72 75  2  0  0  0
 72143  1  0  0  0
 73 76  1  0  0  0
 73144  1  0  0  0
 74 76  2  0  0  0
 74145  1  0  0  0
 75 77  1  0  0  0
 76 81  1  0  0  0
 77 78  2  0  0  0
 77146  1  0  0  0
 78 79  1  0  0  0
 78147  1  0  0  0
 79 80  1  0  0  0
 79 82  2  0  0  0
 80148  1  0  0  0
 80149  1  0  0  0
 81150  1  0  0  0
M  ISO  4   1 100  68 101  80 101  81 100
M  END
> <chiral flag>
0

> <version>
0

> <s_m_source_file>
/data/baiqing/PycharmProjects/Reinvent-master-3.2/result/LINK_invent/BTK/process_docking_weight1_custom_product_contain_oxygen_bond_distance_aromatic_linkinvent_7_9_3/rearranged_h_0086.sdf

> <i_m_source_file_index>
67

> <r_mmod_Potential_Energy-OPLS-2005>
23.8420696258545

> <r_mmod_Stretch_Energy-OPLS-2005>
74.4892730712891

> <r_mmod_Bend_Energy-OPLS-2005>
126.707992553711

> <r_mmod_Torsional_Energy-OPLS-2005>
212.977691650391

> <r_mmod_Improper_Torsional_Energy-OPLS-2005>
3.77723622322083

> <r_mmod_Van_der_Waal_Energy-OPLS-2005>
147.550506591797

> <r_mmod_Electrostatic_Energy-OPLS-2005>
-355.719909667969

> <r_mmod_Solvation_Energy-OPLS-2005>
-232.577606201172

> <b_mmod_Minimization_Converged-OPLS-2005>
0

> <r_mmod_RMS_Derivative-OPLS-2005>
1.78848600387573

$$$$
67
                    3D
 Structure written by MMmdl.
151159  0  0  1  0            999 V2000
  -30.6086  -14.7965   20.4241 C   0  0  0  0  0  0
  -30.4251  -12.4801   19.4890 C   0  0  0  0  0  0
  -29.5094  -12.5062   18.2457 C   0  0  0  0  0  0
  -28.0377  -12.3254   18.6598 C   0  0  0  0  0  0
  -27.6363  -13.2393   19.8481 C   0  0  2  0  0  0
  -28.6800  -13.2137   20.9863 C   0  0  0  0  0  0
  -25.2490  -13.8207   20.5702 C   0  0  0  0  0  0
  -24.1799  -13.0442   20.9229 C   0  0  0  0  0  0
  -24.6403  -11.6925   20.8768 C   0  0  0  0  0  0
  -23.9091  -10.4299   21.0422 C   0  0  0  0  0  0
  -24.3639   -9.4208   21.9194 C   0  0  0  0  0  0
  -23.6309   -8.2243   22.0758 C   0  0  0  0  0  0
  -22.4288   -8.0290   21.3548 C   0  0  0  0  0  0
  -21.9932   -9.0269   20.4649 C   0  0  0  0  0  0
  -22.7267  -10.2144   20.3064 C   0  0  0  0  0  0
  -21.6860   -6.0746   22.5281 C   0  0  0  0  0  0
  -21.4020   -6.5650   23.8215 C   0  0  0  0  0  0
  -21.3654   -5.6801   24.9175 C   0  0  0  0  0  0
  -21.6039   -4.3063   24.7226 C   0  0  0  0  0  0
  -21.8820   -3.8157   23.4349 C   0  0  0  0  0  0
  -21.9195   -4.6973   22.3404 C   0  0  0  0  0  0
  -22.7819  -13.5216   21.1884 C   0  0  0  0  0  0
  -22.1665   -4.2162   21.0981 F   0  0  0  0  0  0
  -21.5625   -3.4542   25.7737 F   0  0  0  0  0  0
  -29.9756  -13.5672   20.3955 N   0  0  0  0  0  0
  -26.2918  -12.9430   20.3287 N   0  0  0  0  0  0
  -25.9333  -11.6566   20.5774 N   0  0  0  0  0  0
  -22.0475  -12.8190   22.0437 N   0  0  0  0  0  0
  -25.4157  -15.1933   20.4082 N   0  0  0  0  0  0
  -31.8096  -14.8242   20.1393 O   0  0  0  0  0  0
  -21.6644   -6.8890   21.4244 O   0  0  0  0  0  0
  -22.3498  -14.5523   20.6735 O   0  0  0  0  0  0
  -24.6345  -31.8510   23.1939 C   0  0  0  0  0  0
  -25.9157  -32.4728   23.8302 C   0  0  1  0  0  0
  -27.2233  -27.2291   20.1286 C   0  0  0  0  0  0
  -25.5937  -33.8532   24.2223 N   0  0  0  0  0  0
  -23.4330  -30.4711   21.5369 C   0  0  2  0  0  0
  -24.8812  -28.9113   20.1062 C   0  0  0  0  0  0
  -22.7521  -29.4577   22.4888 C   0  0  0  0  0  0
  -18.0292  -28.1395   22.8486 C   0  0  0  0  0  0
  -24.1491  -36.7275   23.2639 C   0  0  0  0  0  0
  -25.9803  -30.7537   21.3781 C   0  0  0  0  0  0
  -26.0516  -29.3733   20.7195 C   0  0  0  0  0  0
  -27.2205  -28.5428   20.7206 C   0  0  0  0  0  0
  -26.0251  -26.8368   19.4924 C   0  0  0  0  0  0
  -24.8750  -27.6533   19.4830 C   0  0  0  0  0  0
  -23.6532  -29.8013   20.1534 C   0  0  0  0  0  0
  -25.4120  -36.3048   24.0315 C   0  0  1  0  0  0
  -20.5899  -28.3708   23.1263 C   0  0  2  0  0  0
  -20.6778  -26.9420   22.5421 C   0  0  0  0  0  0
  -19.5756  -26.6379   21.5228 C   0  0  0  0  0  0
  -18.1931  -26.7933   22.1629 C   0  0  0  0  0  0
  -19.1550  -28.8870   23.2865 C   0  0  0  0  0  0
  -18.9474  -30.1472   23.8883 C   0  0  0  0  0  0
  -17.6474  -30.6602   24.0557 C   0  0  0  0  0  0
  -25.9065  -34.9421   23.5074 C   0  0  0  0  0  0
  -16.5360  -29.9100   23.6335 C   0  0  0  0  0  0
  -16.7280  -28.6517   23.0359 C   0  0  0  0  0  0
  -26.4510  -31.6575   25.0716 C   0  0  0  0  0  0
  -25.3719  -31.3755   26.1432 C   0  0  0  0  0  0
  -27.0366  -30.2979   24.6248 C   0  0  0  0  0  0
  -27.6046  -32.4335   25.7497 C   0  0  0  0  0  0
  -27.5575  -37.1791   24.8462 C   0  0  0  0  0  0
  -21.4227  -29.3041   22.3638 N   0  0  0  0  0  0
  -26.4289  -37.3753   23.9403 N   0  0  0  0  0  0
  -24.7017  -31.0452   22.0921 N   0  0  0  0  0  0
  -23.4205  -28.8130   23.3008 O   0  0  0  0  0  0
  -28.3259  -26.3391   20.2316 O   0  0  0  0  0  0
  -26.5644  -34.8907   22.4650 O   0  0  0  0  0  0
  -23.5490  -32.1348   23.7217 O   0  0  0  0  0  0
  -29.5285  -19.8987   20.1956 C   0  0  0  0  0  0
  -28.0704  -18.3440   21.3650 C   0  0  0  0  0  0
  -27.5080  -20.7488   21.2174 C   0  0  0  0  0  0
  -29.2597  -18.5230   20.6295 C   0  0  0  0  0  0
  -28.6726  -21.0539   20.4695 C   0  0  0  0  0  0
  -27.2137  -19.4312   21.6476 C   0  0  0  0  0  0
  -28.3427  -23.5612   20.3194 C   0  0  0  0  0  0
  -30.2271  -17.3069   20.3998 C   0  0  0  0  0  0
  -28.4358  -24.9884   19.5499 C   0  0  0  0  0  0
  -28.9147  -22.4130   19.9563 N   0  0  0  0  0  0
  -26.0456  -19.1909   22.3694 N   0  0  0  0  0  0
  -29.8493  -15.9668   20.5732 N   0  0  0  0  0  0
  -31.3662  -17.6098   20.0297 O   0  0  0  0  0  0
  -31.4669  -12.5907   19.1847 H   0  0  0  0  0  0
  -30.3668  -11.5139   19.9928 H   0  0  0  0  0  0
  -29.7988  -11.7222   17.5446 H   0  0  0  0  0  0
  -29.6301  -13.4531   17.7169 H   0  0  0  0  0  0
  -27.9031  -11.2792   18.9371 H   0  0  0  0  0  0
  -27.3786  -12.4997   17.8085 H   0  0  0  0  0  0
  -27.6189  -14.2532   19.4487 H   0  0  0  0  0  0
  -28.7241  -12.2306   21.4568 H   0  0  0  0  0  0
  -28.4081  -13.9179   21.7743 H   0  0  0  0  0  0
  -25.2782   -9.5675   22.4776 H   0  0  0  0  0  0
  -24.0016   -7.4629   22.7477 H   0  0  0  0  0  0
  -21.0863   -8.8800   19.8954 H   0  0  0  0  0  0
  -22.3736  -10.9692   19.6179 H   0  0  0  0  0  0
  -21.2022   -7.6159   23.9720 H   0  0  0  0  0  0
  -21.1469   -6.0532   25.9075 H   0  0  0  0  0  0
  -22.0603   -2.7622   23.2847 H   0  0  0  0  0  0
  -22.4109  -11.9835   22.4776 H   0  0  0  0  0  0
  -21.1099  -13.1207   22.2683 H   0  0  0  0  0  0
  -24.6385  -15.8373   20.5033 H   0  0  0  0  0  0
  -26.2398  -15.6268   20.0138 H   0  0  0  0  0  0
  -26.7221  -32.5368   23.1037 H   0  0  0  0  0  0
  -25.0058  -33.9662   25.0348 H   0  0  0  0  0  0
  -22.7297  -31.2926   21.3860 H   0  0  0  0  0  0
  -23.3751  -35.9610   23.3298 H   0  0  0  0  0  0
  -24.3574  -36.8913   22.2056 H   0  0  0  0  0  0
  -23.7259  -37.6474   23.6679 H   0  0  0  0  0  0
  -26.1240  -31.5143   20.6095 H   0  0  0  0  0  0
  -26.8554  -30.8007   22.0151 H   0  0  0  0  0  0
  -28.1156  -28.8892   21.2181 H   0  0  0  0  0  0
  -25.9302  -25.8667   19.0313 H   0  0  0  0  0  0
  -23.9753  -27.2907   19.0050 H   0  0  0  0  0  0
  -23.7797  -30.5752   19.3955 H   0  0  0  0  0  0
  -22.7720  -29.2338   19.8492 H   0  0  0  0  0  0
  -25.1309  -36.1877   25.0808 H   0  0  0  0  0  0
  -20.9999  -28.3296   24.1384 H   0  0  0  0  0  0
  -21.6644  -26.7433   22.1216 H   0  0  0  0  0  0
  -20.5672  -26.2326   23.3638 H   0  0  0  0  0  0
  -19.6923  -25.6286   21.1275 H   0  0  0  0  0  0
  -19.6705  -27.3183   20.6753 H   0  0  0  0  0  0
  -17.4203  -26.6668   21.4028 H   0  0  0  0  0  0
  -18.0332  -26.0074   22.9025 H   0  0  0  0  0  0
  -19.7948  -30.7294   24.2242 H   0  0  0  0  0  0
  -17.5027  -31.6286   24.5156 H   0  0  0  0  0  0
  -15.5363  -30.3006   23.7672 H   0  0  0  0  0  0
  -15.8673  -28.0838   22.7090 H   0  0  0  0  0  0
  -24.5893  -30.7099   25.7772 H   0  0  0  0  0  0
  -24.8914  -32.2938   26.4817 H   0  0  0  0  0  0
  -25.8026  -30.8965   27.0236 H   0  0  0  0  0  0
  -26.2966  -29.6709   24.1259 H   0  0  0  0  0  0
  -27.4007  -29.7264   25.4796 H   0  0  0  0  0  0
  -27.8860  -30.4231   23.9528 H   0  0  0  0  0  0
  -27.2631  -33.3642   26.2045 H   0  0  0  0  0  0
  -28.3873  -32.6893   25.0343 H   0  0  0  0  0  0
  -28.0695  -31.8488   26.5446 H   0  0  0  0  0  0
  -28.2585  -38.0091   24.7498 H   0  0  0  0  0  0
  -28.1074  -36.2618   24.6300 H   0  0  0  0  0  0
  -27.2288  -37.1456   25.8863 H   0  0  0  0  0  0
  -20.9428  -29.8753   21.6825 H   0  0  0  0  0  0
  -26.0158  -38.2823   24.1404 H   0  0  0  0  0  0
  -30.4329  -20.0713   19.6285 H   0  0  0  0  0  0
  -27.8153  -17.3592   21.7297 H   0  0  0  0  0  0
  -26.8033  -21.5316   21.4560 H   0  0  0  0  0  0
  -27.6864  -23.6059   21.1917 H   0  0  0  0  0  0
  -27.7800  -24.9406   18.6836 H   0  0  0  0  0  0
  -29.4295  -25.0079   19.1019 H   0  0  0  0  0  0
  -25.7000  -18.2375   22.4297 H   0  0  0  0  0  0
  -25.2956  -19.8743   22.3288 H   0  0  0  0  0  0
  -28.8827  -15.8224   20.8065 H   0  0  0  0  0  0
  1 25  1  0  0  0
  1 30  2  0  0  0
  1 82  1  0  0  0
  2  3  1  0  0  0
  2 25  1  0  0  0
  2 84  1  0  0  0
  2 85  1  0  0  0
  3  4  1  0  0  0
  3 86  1  0  0  0
  3 87  1  0  0  0
  4  5  1  0  0  0
  4 88  1  0  0  0
  4 89  1  0  0  0
  5  6  1  0  0  0
  5 26  1  0  0  0
  5 90  1  0  0  0
  6 25  1  0  0  0
  6 91  1  0  0  0
  6 92  1  0  0  0
  7  8  2  0  0  0
  7 26  1  0  0  0
  7 29  1  0  0  0
  8  9  1  0  0  0
  8 22  1  0  0  0
  9 10  1  0  0  0
  9 27  2  0  0  0
 10 11  2  0  0  0
 10 15  1  0  0  0
 11 12  1  0  0  0
 11 93  1  0  0  0
 12 13  2  0  0  0
 12 94  1  0  0  0
 13 14  1  0  0  0
 13 31  1  0  0  0
 14 15  2  0  0  0
 14 95  1  0  0  0
 15 96  1  0  0  0
 16 17  2  0  0  0
 16 21  1  0  0  0
 16 31  1  0  0  0
 17 18  1  0  0  0
 17 97  1  0  0  0
 18 19  2  0  0  0
 18 98  1  0  0  0
 19 20  1  0  0  0
 19 24  1  0  0  0
 20 21  2  0  0  0
 20 99  1  0  0  0
 21 23  1  0  0  0
 22 28  1  0  0  0
 22 32  2  0  0  0
 26 27  1  0  0  0
 28100  1  0  0  0
 28101  1  0  0  0
 29102  1  0  0  0
 29103  1  0  0  0
 33 34  1  0  0  0
 33 66  1  0  0  0
 33 70  2  0  0  0
 34 36  1  0  0  0
 34 59  1  0  0  0
 34104  1  0  0  0
 35 44  2  0  0  0
 35 45  1  0  0  0
 35 68  1  0  0  0
 36 56  1  0  0  0
 36105  1  0  0  0
 37 39  1  0  0  0
 37 47  1  0  0  0
 37 66  1  0  0  0
 37106  1  0  0  0
 38 43  2  0  0  0
 38 46  1  0  0  0
 38 47  1  0  0  0
 39 64  1  0  0  0
 39 67  2  0  0  0
 40 52  1  0  0  0
 40 53  2  0  0  0
 40 58  1  0  0  0
 41107  1  0  0  0
 41108  1  0  0  0
 41109  1  0  0  0
 41 48  1  0  0  0
 42 43  1  0  0  0
 42 66  1  0  0  0
 42110  1  0  0  0
 42111  1  0  0  0
 43 44  1  0  0  0
 44112  1  0  0  0
 45 46  2  0  0  0
 45113  1  0  0  0
 46114  1  0  0  0
 47115  1  0  0  0
 47116  1  0  0  0
 48 56  1  0  0  0
 48 65  1  0  0  0
 48117  1  0  0  0
 49 50  1  0  0  0
 49 53  1  0  0  0
 49 64  1  0  0  0
 49118  1  0  0  0
 50 51  1  0  0  0
 50119  1  0  0  0
 50120  1  0  0  0
 51 52  1  0  0  0
 51121  1  0  0  0
 51122  1  0  0  0
 52123  1  0  0  0
 52124  1  0  0  0
 53 54  1  0  0  0
 54 55  2  0  0  0
 54125  1  0  0  0
 55 57  1  0  0  0
 55126  1  0  0  0
 56 69  2  0  0  0
 57 58  2  0  0  0
 57127  1  0  0  0
 58128  1  0  0  0
 59 60  1  0  0  0
 59 61  1  0  0  0
 59 62  1  0  0  0
 60129  1  0  0  0
 60130  1  0  0  0
 60131  1  0  0  0
 61132  1  0  0  0
 61133  1  0  0  0
 61134  1  0  0  0
 62135  1  0  0  0
 62136  1  0  0  0
 62137  1  0  0  0
 63 65  1  0  0  0
 63138  1  0  0  0
 63139  1  0  0  0
 63140  1  0  0  0
 64141  1  0  0  0
 65142  1  0  0  0
 68 79  1  0  0  0
 71 74  2  0  0  0
 71 75  1  0  0  0
 71143  1  0  0  0
 72 74  1  0  0  0
 72 76  2  0  0  0
 72144  1  0  0  0
 73 75  2  0  0  0
 73 76  1  0  0  0
 73145  1  0  0  0
 74 78  1  0  0  0
 75 80  1  0  0  0
 76 81  1  0  0  0
 77 79  1  0  0  0
 77 80  2  0  0  0
 77146  1  0  0  0
 78 82  1  0  0  0
 78 83  2  0  0  0
 79147  1  0  0  0
 79148  1  0  0  0
 81149  1  0  0  0
 81150  1  0  0  0
 82151  1  0  0  0
M  ISO  4   1 100  68 101  79 101  82 100
M  END
> <chiral flag>
0

> <version>
0

> <s_m_source_file>
/data/baiqing/PycharmProjects/Reinvent-master-3.2/result/LINK_invent/BTK/process_docking_weight1_custom_product_contain_oxygen_bond_distance_aromatic_linkinvent_7_9_3/rearranged_h_0086.sdf

> <i_m_source_file_index>
68

> <r_mmod_Potential_Energy-OPLS-2005>
106.190612792969

> <r_mmod_Stretch_Energy-OPLS-2005>
149.794235229492

> <r_mmod_Bend_Energy-OPLS-2005>
193.77278137207

> <r_mmod_Torsional_Energy-OPLS-2005>
213.452438354492

> <r_mmod_Improper_Torsional_Energy-OPLS-2005>
8.35725021362305

> <r_mmod_Van_der_Waal_Energy-OPLS-2005>
141.972305297852

> <r_mmod_Electrostatic_Energy-OPLS-2005>
-462.471435546875

> <r_mmod_Solvation_Energy-OPLS-2005>
-246.03874206543

> <b_mmod_Minimization_Converged-OPLS-2005>
0

> <r_mmod_RMS_Derivative-OPLS-2005>
0.974892318248749

$$$$
68
                    3D
 Structure written by MMmdl.
147156  0  0  1  0            999 V2000
  -30.5709  -14.8940   20.4043 C   0  0  0  0  0  0
  -30.4360  -12.5456   19.4927 C   0  0  0  0  0  0
  -29.5187  -12.5153   18.2497 C   0  0  0  0  0  0
  -28.0485  -12.3186   18.6653 C   0  0  0  0  0  0
  -27.6322  -13.2459   19.8377 C   0  0  2  0  0  0
  -28.6766  -13.2577   20.9747 C   0  0  0  0  0  0
  -25.2484  -13.8222   20.5722 C   0  0  0  0  0  0
  -24.1795  -13.0447   20.9225 C   0  0  0  0  0  0
  -24.6405  -11.6929   20.8754 C   0  0  0  0  0  0
  -23.9090  -10.4300   21.0413 C   0  0  0  0  0  0
  -24.3636   -9.4209   21.9189 C   0  0  0  0  0  0
  -23.6304   -8.2245   22.0756 C   0  0  0  0  0  0
  -22.4287   -8.0286   21.3544 C   0  0  0  0  0  0
  -21.9929   -9.0269   20.4648 C   0  0  0  0  0  0
  -22.7262  -10.2149   20.3057 C   0  0  0  0  0  0
  -21.6856   -6.0736   22.5282 C   0  0  0  0  0  0
  -21.4016   -6.5639   23.8218 C   0  0  0  0  0  0
  -21.3657   -5.6792   24.9181 C   0  0  0  0  0  0
  -21.6044   -4.3054   24.7228 C   0  0  0  0  0  0
  -21.8819   -3.8142   23.4349 C   0  0  0  0  0  0
  -21.9194   -4.6961   22.3407 C   0  0  0  0  0  0
  -22.7814  -13.5219   21.1874 C   0  0  0  0  0  0
  -22.1656   -4.2141   21.0985 F   0  0  0  0  0  0
  -21.5636   -3.4537   25.7740 F   0  0  0  0  0  0
  -29.9613  -13.6448   20.3781 N   0  0  0  0  0  0
  -26.2902  -12.9448   20.3238 N   0  0  0  0  0  0
  -25.9331  -11.6577   20.5728 N   0  0  0  0  0  0
  -22.0465  -12.8209   22.0432 N   0  0  0  0  0  0
  -25.4160  -15.1959   20.4192 N   0  0  0  0  0  0
  -31.7778  -14.9291   20.1531 O   0  0  0  0  0  0
  -21.6648   -6.8881   21.4241 O   0  0  0  0  0  0
  -22.3487  -14.5515   20.6711 O   0  0  0  0  0  0
  -24.6400  -31.8470   23.1919 C   0  0  0  0  0  0
  -25.9186  -32.4713   23.8296 C   0  0  1  0  0  0
  -27.2180  -27.1686   20.1446 C   0  0  0  0  0  0
  -25.5941  -33.8518   24.2208 N   0  0  0  0  0  0
  -23.4437  -30.4681   21.5356 C   0  0  2  0  0  0
  -24.8957  -28.9018   20.1088 C   0  0  0  0  0  0
  -22.7554  -29.4566   22.4860 C   0  0  0  0  0  0
  -18.0302  -28.1396   22.8478 C   0  0  0  0  0  0
  -24.1492  -36.7273   23.2646 C   0  0  0  0  0  0
  -25.9980  -30.7285   21.3901 C   0  0  0  0  0  0
  -26.0712  -29.3427   20.7317 C   0  0  0  0  0  0
  -27.2356  -28.4895   20.7395 C   0  0  0  0  0  0
  -26.0234  -26.8291   19.4733 C   0  0  0  0  0  0
  -24.8816  -27.6557   19.4654 C   0  0  0  0  0  0
  -23.6707  -29.8004   20.1537 C   0  0  0  0  0  0
  -25.4126  -36.3047   24.0317 C   0  0  1  0  0  0
  -20.5917  -28.3727   23.1237 C   0  0  2  0  0  0
  -20.6787  -26.9432   22.5404 C   0  0  0  0  0  0
  -19.5760  -26.6380   21.5212 C   0  0  0  0  0  0
  -18.1943  -26.7930   22.1630 C   0  0  0  0  0  0
  -19.1560  -28.8877   23.2850 C   0  0  0  0  0  0
  -18.9478  -30.1471   23.8880 C   0  0  0  0  0  0
  -17.6476  -30.6594   24.0563 C   0  0  0  0  0  0
  -25.9064  -34.9416   23.5068 C   0  0  0  0  0  0
  -16.5366  -29.9091   23.6335 C   0  0  0  0  0  0
  -16.7287  -28.6509   23.0354 C   0  0  0  0  0  0
  -26.4513  -31.6570   25.0726 C   0  0  0  0  0  0
  -25.3701  -31.3764   26.1427 C   0  0  0  0  0  0
  -27.0373  -30.2962   24.6302 C   0  0  0  0  0  0
  -27.6038  -32.4334   25.7517 C   0  0  0  0  0  0
  -27.5565  -37.1817   24.8480 C   0  0  0  0  0  0
  -21.4249  -29.3058   22.3609 N   0  0  0  0  0  0
  -26.4305  -37.3742   23.9377 N   0  0  0  0  0  0
  -24.7134  -31.0348   22.0946 N   0  0  0  0  0  0
  -23.4201  -28.8104   23.3003 O   0  0  0  0  0  0
  -28.2455  -26.1653   20.1847 O   0  0  0  0  0  0
  -26.5651  -34.8906   22.4649 O   0  0  0  0  0  0
  -23.5525  -32.1337   23.7150 O   0  0  0  0  0  0
  -29.2031  -18.7622   20.6087 C   0  0  0  0  0  0
  -30.0352  -17.5529   20.2522 C   0  0  0  0  0  0
  -29.6469  -20.0552   20.1642 C   0  0  0  0  0  0
  -31.0891  -18.0128   19.5015 C   0  0  0  0  0  0
  -28.4326  -23.4931   20.3974 C   0  0  0  0  0  0
  -29.6348  -22.8369   19.8527 C   0  0  0  0  0  0
  -27.8806  -24.7951   20.5234 C   0  0  0  0  0  0
  -27.9364  -22.0575   20.8179 C   0  0  0  0  0  0
  -29.2002  -21.5180   20.2576 N   0  0  0  0  0  0
  -29.7948  -16.0712   20.5537 N   0  0  0  0  0  0
  -30.5943  -23.3021   19.2726 O   0  0  0  0  0  0
  -32.0257  -17.2351   18.9121 F   0  0  0  0  0  0
  -31.1338  -19.7564   19.2701 S   0  0  0  0  0  0
  -31.4728  -12.6838   19.1828 H   0  0  0  0  0  0
  -30.4091  -11.5904   20.0194 H   0  0  0  0  0  0
  -29.8252  -11.7167   17.5727 H   0  0  0  0  0  0
  -29.6238  -13.4466   17.6913 H   0  0  0  0  0  0
  -27.9310  -11.2763   18.9626 H   0  0  0  0  0  0
  -27.3885  -12.4662   17.8095 H   0  0  0  0  0  0
  -27.6010  -14.2517   19.4175 H   0  0  0  0  0  0
  -28.7471  -12.2797   21.4529 H   0  0  0  0  0  0
  -28.3882  -13.9633   21.7553 H   0  0  0  0  0  0
  -25.2782   -9.5675   22.4766 H   0  0  0  0  0  0
  -24.0006   -7.4630   22.7472 H   0  0  0  0  0  0
  -21.0859   -8.8794   19.8956 H   0  0  0  0  0  0
  -22.3720  -10.9693   19.6168 H   0  0  0  0  0  0
  -21.2002   -7.6146   23.9724 H   0  0  0  0  0  0
  -21.1480   -6.0518   25.9087 H   0  0  0  0  0  0
  -22.0596   -2.7601   23.2857 H   0  0  0  0  0  0
  -22.4087  -11.9878   22.4827 H   0  0  0  0  0  0
  -21.1081  -13.1239   22.2634 H   0  0  0  0  0  0
  -24.6488  -15.8473   20.5464 H   0  0  0  0  0  0
  -26.2625  -15.6441   20.0918 H   0  0  0  0  0  0
  -26.7252  -32.5329   23.1027 H   0  0  0  0  0  0
  -25.0045  -33.9639   25.0326 H   0  0  0  0  0  0
  -22.7455  -31.2936   21.3826 H   0  0  0  0  0  0
  -23.3730  -35.9638   23.3373 H   0  0  0  0  0  0
  -24.3549  -36.8835   22.2046 H   0  0  0  0  0  0
  -23.7298  -37.6511   23.6638 H   0  0  0  0  0  0
  -26.1517  -31.4850   20.6193 H   0  0  0  0  0  0
  -26.8694  -30.7775   22.0317 H   0  0  0  0  0  0
  -28.1299  -28.8174   21.2501 H   0  0  0  0  0  0
  -25.9545  -25.8736   18.9723 H   0  0  0  0  0  0
  -23.9876  -27.3155   18.9615 H   0  0  0  0  0  0
  -23.8066  -30.5769   19.4004 H   0  0  0  0  0  0
  -22.7866  -29.2419   19.8405 H   0  0  0  0  0  0
  -25.1326  -36.1893   25.0815 H   0  0  0  0  0  0
  -21.0008  -28.3316   24.1358 H   0  0  0  0  0  0
  -20.5680  -26.2344   23.3624 H   0  0  0  0  0  0
  -21.6652  -26.7435   22.1205 H   0  0  0  0  0  0
  -19.6927  -25.6281   21.1259 H   0  0  0  0  0  0
  -19.6694  -27.3178   20.6731 H   0  0  0  0  0  0
  -17.4209  -26.6669   21.4040 H   0  0  0  0  0  0
  -18.0357  -26.0079   22.9036 H   0  0  0  0  0  0
  -19.7954  -30.7291   24.2242 H   0  0  0  0  0  0
  -17.5031  -31.6271   24.5172 H   0  0  0  0  0  0
  -15.5367  -30.2992   23.7665 H   0  0  0  0  0  0
  -15.8686  -28.0823   22.7079 H   0  0  0  0  0  0
  -24.5859  -30.7142   25.7743 H   0  0  0  0  0  0
  -24.8924  -32.2958   26.4821 H   0  0  0  0  0  0
  -25.7980  -30.8940   27.0223 H   0  0  0  0  0  0
  -26.2989  -29.6694   24.1289 H   0  0  0  0  0  0
  -27.3959  -29.7253   25.4876 H   0  0  0  0  0  0
  -27.8911  -30.4195   23.9637 H   0  0  0  0  0  0
  -27.2608  -33.3627   26.2080 H   0  0  0  0  0  0
  -28.3860  -32.6909   25.0366 H   0  0  0  0  0  0
  -28.0696  -31.8478   26.5454 H   0  0  0  0  0  0
  -28.2648  -38.0040   24.7397 H   0  0  0  0  0  0
  -28.0986  -36.2562   24.6475 H   0  0  0  0  0  0
  -27.2253  -37.1675   25.8877 H   0  0  0  0  0  0
  -20.9453  -29.8780   21.6801 H   0  0  0  0  0  0
  -26.0181  -38.2833   24.1295 H   0  0  0  0  0  0
  -28.2983  -18.6359   21.1843 H   0  0  0  0  0  0
  -26.9241  -24.8220   21.0264 H   0  0  0  0  0  0
  -27.0675  -21.6591   20.2914 H   0  0  0  0  0  0
  -27.8508  -21.8492   21.8857 H   0  0  0  0  0  0
  -28.8538  -15.8691   20.8514 H   0  0  0  0  0  0
  1 25  1  0  0  0
  1 30  2  0  0  0
  1 80  1  0  0  0
  2  3  1  0  0  0
  2 25  1  0  0  0
  2 84  1  0  0  0
  2 85  1  0  0  0
  3  4  1  0  0  0
  3 86  1  0  0  0
  3 87  1  0  0  0
  4  5  1  0  0  0
  4 88  1  0  0  0
  4 89  1  0  0  0
  5  6  1  0  0  0
  5 26  1  0  0  0
  5 90  1  0  0  0
  6 25  1  0  0  0
  6 91  1  0  0  0
  6 92  1  0  0  0
  7  8  2  0  0  0
  7 26  1  0  0  0
  7 29  1  0  0  0
  8  9  1  0  0  0
  8 22  1  0  0  0
  9 10  1  0  0  0
  9 27  2  0  0  0
 10 11  2  0  0  0
 10 15  1  0  0  0
 11 12  1  0  0  0
 11 93  1  0  0  0
 12 13  2  0  0  0
 12 94  1  0  0  0
 13 14  1  0  0  0
 13 31  1  0  0  0
 14 15  2  0  0  0
 14 95  1  0  0  0
 15 96  1  0  0  0
 16 17  2  0  0  0
 16 21  1  0  0  0
 16 31  1  0  0  0
 17 18  1  0  0  0
 17 97  1  0  0  0
 18 19  2  0  0  0
 18 98  1  0  0  0
 19 20  1  0  0  0
 19 24  1  0  0  0
 20 21  2  0  0  0
 20 99  1  0  0  0
 21 23  1  0  0  0
 22 28  1  0  0  0
 22 32  2  0  0  0
 26 27  1  0  0  0
 28100  1  0  0  0
 28101  1  0  0  0
 29102  1  0  0  0
 29103  1  0  0  0
 33 34  1  0  0  0
 33 66  1  0  0  0
 33 70  2  0  0  0
 34 36  1  0  0  0
 34 59  1  0  0  0
 34104  1  0  0  0
 35 44  2  0  0  0
 35 45  1  0  0  0
 35 68  1  0  0  0
 36 56  1  0  0  0
 36105  1  0  0  0
 37 39  1  0  0  0
 37 47  1  0  0  0
 37 66  1  0  0  0
 37106  1  0  0  0
 38 43  2  0  0  0
 38 46  1  0  0  0
 38 47  1  0  0  0
 39 64  1  0  0  0
 39 67  2  0  0  0
 40 52  1  0  0  0
 40 53  2  0  0  0
 40 58  1  0  0  0
 41107  1  0  0  0
 41108  1  0  0  0
 41109  1  0  0  0
 41 48  1  0  0  0
 42 43  1  0  0  0
 42 66  1  0  0  0
 42110  1  0  0  0
 42111  1  0  0  0
 43 44  1  0  0  0
 44112  1  0  0  0
 45 46  2  0  0  0
 45113  1  0  0  0
 46114  1  0  0  0
 47115  1  0  0  0
 47116  1  0  0  0
 48 56  1  0  0  0
 48 65  1  0  0  0
 48117  1  0  0  0
 49 50  1  0  0  0
 49 53  1  0  0  0
 49 64  1  0  0  0
 49118  1  0  0  0
 50 51  1  0  0  0
 50119  1  0  0  0
 50120  1  0  0  0
 51 52  1  0  0  0
 51121  1  0  0  0
 51122  1  0  0  0
 52123  1  0  0  0
 52124  1  0  0  0
 53 54  1  0  0  0
 54 55  2  0  0  0
 54125  1  0  0  0
 55 57  1  0  0  0
 55126  1  0  0  0
 56 69  2  0  0  0
 57 58  2  0  0  0
 57127  1  0  0  0
 58128  1  0  0  0
 59 60  1  0  0  0
 59 61  1  0  0  0
 59 62  1  0  0  0
 60129  1  0  0  0
 60130  1  0  0  0
 60131  1  0  0  0
 61132  1  0  0  0
 61133  1  0  0  0
 61134  1  0  0  0
 62135  1  0  0  0
 62136  1  0  0  0
 62137  1  0  0  0
 63 65  1  0  0  0
 63138  1  0  0  0
 63139  1  0  0  0
 63140  1  0  0  0
 64141  1  0  0  0
 65142  1  0  0  0
 68 77  1  0  0  0
 71 72  1  0  0  0
 71 73  2  0  0  0
 71143  1  0  0  0
 72 74  2  0  0  0
 72 80  1  0  0  0
 73 79  1  0  0  0
 73 83  1  0  0  0
 74 82  1  0  0  0
 74 83  1  0  0  0
 75 76  1  0  0  0
 75 77  2  0  0  0
 75 78  1  0  0  0
 76 79  1  0  0  0
 76 81  2  0  0  0
 77144  1  0  0  0
 78 79  1  0  0  0
 78145  1  0  0  0
 78146  1  0  0  0
 80147  1  0  0  0
M  ISO  4   1 100  68 101  77 101  80 100
M  END
> <chiral flag>
0

> <version>
0

> <s_m_source_file>
/data/baiqing/PycharmProjects/Reinvent-master-3.2/result/LINK_invent/BTK/process_docking_weight1_custom_product_contain_oxygen_bond_distance_aromatic_linkinvent_7_9_3/rearranged_h_0086.sdf

> <i_m_source_file_index>
69

> <r_mmod_Potential_Energy-OPLS-2005>
405.116760253906

> <r_mmod_Stretch_Energy-OPLS-2005>
187.552719116211

> <r_mmod_Bend_Energy-OPLS-2005>
300.675201416016

> <r_mmod_Torsional_Energy-OPLS-2005>
222.448013305664

> <r_mmod_Improper_Torsional_Energy-OPLS-2005>
3.55916118621826

> <r_mmod_Van_der_Waal_Energy-OPLS-2005>
114.550033569336

> <r_mmod_Electrostatic_Energy-OPLS-2005>
-341.758697509766

> <r_mmod_Solvation_Energy-OPLS-2005>
-245.918655395508

> <b_mmod_Minimization_Converged-OPLS-2005>
0

> <r_mmod_RMS_Derivative-OPLS-2005>
1.10056066513062

$$$$
69
                    3D
 Structure written by MMmdl.
152161  0  0  1  0            999 V2000
  -30.6606  -14.6100   20.4888 C   0  0  0  0  0  0
  -30.4239  -12.3669   19.4602 C   0  0  0  0  0  0
  -29.5028  -12.4941   18.2273 C   0  0  0  0  0  0
  -28.0251  -12.3417   18.6377 C   0  0  0  0  0  0
  -27.6502  -13.2188   19.8628 C   0  0  2  0  0  0
  -28.6939  -13.0865   20.9947 C   0  0  0  0  0  0
  -25.2551  -13.8181   20.5715 C   0  0  0  0  0  0
  -24.1817  -13.0440   20.9193 C   0  0  0  0  0  0
  -24.6389  -11.6910   20.8744 C   0  0  0  0  0  0
  -23.9057  -10.4298   21.0405 C   0  0  0  0  0  0
  -24.3613   -9.4211   21.9182 C   0  0  0  0  0  0
  -23.6291   -8.2247   22.0752 C   0  0  0  0  0  0
  -22.4277   -8.0281   21.3541 C   0  0  0  0  0  0
  -21.9906   -9.0254   20.4644 C   0  0  0  0  0  0
  -22.7230  -10.2133   20.3054 C   0  0  0  0  0  0
  -21.6850   -6.0733   22.5282 C   0  0  0  0  0  0
  -21.4014   -6.5640   23.8213 C   0  0  0  0  0  0
  -21.3660   -5.6791   24.9179 C   0  0  0  0  0  0
  -21.6045   -4.3055   24.7225 C   0  0  0  0  0  0
  -21.8822   -3.8144   23.4348 C   0  0  0  0  0  0
  -21.9196   -4.6962   22.3404 C   0  0  0  0  0  0
  -22.7848  -13.5232   21.1866 C   0  0  0  0  0  0
  -22.1665   -4.2149   21.0978 F   0  0  0  0  0  0
  -21.5628   -3.4540   25.7737 F   0  0  0  0  0  0
  -30.0126  -13.4037   20.4287 N   0  0  0  0  0  0
  -26.2973  -12.9365   20.3330 N   0  0  0  0  0  0
  -25.9313  -11.6516   20.5760 N   0  0  0  0  0  0
  -22.0484  -12.8209   22.0407 N   0  0  0  0  0  0
  -25.4260  -15.1901   20.4148 N   0  0  0  0  0  0
  -31.8353  -14.6981   20.1180 O   0  0  0  0  0  0
  -21.6639   -6.8877   21.4243 O   0  0  0  0  0  0
  -22.3526  -14.5539   20.6715 O   0  0  0  0  0  0
  -24.6416  -31.8683   23.2099 C   0  0  0  0  0  0
  -25.9220  -32.4844   23.8441 C   0  0  1  0  0  0
  -27.2178  -27.3459   20.1141 C   0  0  0  0  0  0
  -25.5995  -33.8631   24.2348 N   0  0  0  0  0  0
  -23.4503  -30.4936   21.5652 C   0  0  2  0  0  0
  -24.8731  -28.9534   20.1113 C   0  0  0  0  0  0
  -22.7809  -29.4811   22.5196 C   0  0  0  0  0  0
  -17.9946  -28.1202   22.8707 C   0  0  0  0  0  0
  -24.1487  -36.7301   23.2634 C   0  0  0  0  0  0
  -25.9770  -30.8040   21.3757 C   0  0  0  0  0  0
  -26.0451  -29.4358   20.7115 C   0  0  0  0  0  0
  -27.2264  -28.6410   20.7068 C   0  0  0  0  0  0
  -26.0334  -26.9117   19.4841 C   0  0  0  0  0  0
  -24.8667  -27.6958   19.4854 C   0  0  0  0  0  0
  -23.6407  -29.8271   20.1765 C   0  0  0  0  0  0
  -25.4114  -36.3112   24.0333 C   0  0  1  0  0  0
  -20.4810  -28.4583   22.7795 C   0  0  2  0  0  0
  -20.6916  -26.9609   22.5318 C   0  0  0  0  0  0
  -19.5550  -26.4571   21.6179 C   0  0  0  0  0  0
  -18.1574  -26.7514   22.2047 C   0  0  0  0  0  0
  -19.1160  -28.8976   23.2505 C   0  0  0  0  0  0
  -18.9354  -30.1484   23.8755 C   0  0  0  0  0  0
  -17.6372  -30.6503   24.0793 C   0  0  0  0  0  0
  -25.9066  -34.9484   23.5129 C   0  0  0  0  0  0
  -16.5205  -29.8957   23.6743 C   0  0  0  0  0  0
  -16.6989  -28.6294   23.0880 C   0  0  0  0  0  0
  -26.4526  -31.6611   25.0797 C   0  0  0  0  0  0
  -25.3725  -31.3743   26.1488 C   0  0  0  0  0  0
  -27.0355  -30.3036   24.6237 C   0  0  0  0  0  0
  -27.6078  -32.4330   25.7588 C   0  0  0  0  0  0
  -27.5584  -37.1819   24.8469 C   0  0  0  0  0  0
  -21.4593  -29.4429   22.3932 N   0  0  0  0  0  0
  -26.4299  -37.3800   23.9409 N   0  0  0  0  0  0
  -24.7112  -31.0704   22.1076 N   0  0  0  0  0  0
  -23.4258  -28.7608   23.2834 O   0  0  0  0  0  0
  -28.2577  -26.4227   20.2189 O   0  0  0  0  0  0
  -26.5607  -34.8939   22.4677 O   0  0  0  0  0  0
  -23.5555  -32.1448   23.7395 O   0  0  0  0  0  0
  -27.1645  -18.6413   22.3625 C   0  0  0  0  0  0
  -28.0871  -17.6911   21.9088 C   0  0  0  0  0  0
  -27.3207  -20.0021   22.0481 C   0  0  0  0  0  0
  -29.2950  -19.5006   20.7888 C   0  0  0  0  0  0
  -29.1759  -18.0917   21.1085 C   0  0  0  0  0  0
  -28.3856  -20.5192   21.2610 C   0  0  0  0  0  0
  -28.1978  -23.9990   21.0372 C   0  0  0  0  0  0
  -28.9054  -23.0147   20.2186 C   0  0  0  0  0  0
  -27.9401  -25.3500   21.0653 C   0  0  0  0  0  0
  -30.2137  -17.0425   20.6810 C   0  0  0  0  0  0
  -27.6919  -22.8897   21.9448 C   0  0  0  0  0  0
  -28.4295  -21.9746   21.0585 N   0  0  0  0  0  0
  -29.8995  -15.7089   20.7958 N   0  0  0  0  0  0
  -29.5861  -23.1204   19.2186 O   0  0  0  0  0  0
  -31.2867  -17.4558   20.2276 O   0  0  0  0  0  0
  -31.4694  -12.4590   19.1595 H   0  0  0  0  0  0
  -30.3316  -11.3757   19.9073 H   0  0  0  0  0  0
  -29.7621  -11.7408   17.4819 H   0  0  0  0  0  0
  -29.6563  -13.4625   17.7487 H   0  0  0  0  0  0
  -27.8600  -11.2894   18.8724 H   0  0  0  0  0  0
  -27.3716  -12.5693   17.7951 H   0  0  0  0  0  0
  -27.6685  -14.2527   19.5173 H   0  0  0  0  0  0
  -28.6931  -12.0719   21.3950 H   0  0  0  0  0  0
  -28.4464  -13.7397   21.8316 H   0  0  0  0  0  0
  -25.2762   -9.5689   22.4751 H   0  0  0  0  0  0
  -24.0008   -7.4636   22.7463 H   0  0  0  0  0  0
  -21.0843   -8.8762   19.8945 H   0  0  0  0  0  0
  -22.3689  -10.9671   19.6159 H   0  0  0  0  0  0
  -21.2007   -7.6149   23.9717 H   0  0  0  0  0  0
  -21.1478   -6.0522   25.9077 H   0  0  0  0  0  0
  -22.0600   -2.7610   23.2844 H   0  0  0  0  0  0
  -22.4113  -11.9873   22.4801 H   0  0  0  0  0  0
  -21.1102  -13.1226   22.2625 H   0  0  0  0  0  0
  -24.6550  -15.8388   20.5257 H   0  0  0  0  0  0
  -26.2608  -15.6321   20.0541 H   0  0  0  0  0  0
  -26.7320  -32.5507   23.1228 H   0  0  0  0  0  0
  -25.0155  -33.9777   25.0503 H   0  0  0  0  0  0
  -22.7528  -31.3226   21.4196 H   0  0  0  0  0  0
  -23.3762  -35.9624   23.3309 H   0  0  0  0  0  0
  -24.3576  -36.8905   22.2048 H   0  0  0  0  0  0
  -23.7229  -37.6507   23.6638 H   0  0  0  0  0  0
  -26.1056  -31.5723   20.6122 H   0  0  0  0  0  0
  -26.8601  -30.8490   22.0022 H   0  0  0  0  0  0
  -28.1216  -28.9895   21.2012 H   0  0  0  0  0  0
  -25.9994  -25.9292   19.0350 H   0  0  0  0  0  0
  -23.9658  -27.3162   19.0212 H   0  0  0  0  0  0
  -23.7390  -30.6007   19.4148 H   0  0  0  0  0  0
  -22.7588  -29.2500   19.8914 H   0  0  0  0  0  0
  -25.1289  -36.1984   25.0829 H   0  0  0  0  0  0
  -20.1626  -28.6786   21.7597 H   0  0  0  0  0  0
  -20.6751  -26.4256   23.4818 H   0  0  0  0  0  0
  -21.6618  -26.7646   22.0745 H   0  0  0  0  0  0
  -19.6604  -25.3863   21.4420 H   0  0  0  0  0  0
  -19.6393  -26.9182   20.6323 H   0  0  0  0  0  0
  -17.4026  -26.6301   21.4256 H   0  0  0  0  0  0
  -17.9299  -26.0007   22.9630 H   0  0  0  0  0  0
  -19.7912  -30.7515   24.1486 H   0  0  0  0  0  0
  -17.4977  -31.6210   24.5361 H   0  0  0  0  0  0
  -15.5236  -30.2834   23.8282 H   0  0  0  0  0  0
  -15.8325  -28.0520   22.7943 H   0  0  0  0  0  0
  -24.5908  -30.7092   25.7792 H   0  0  0  0  0  0
  -24.8898  -32.2907   26.4901 H   0  0  0  0  0  0
  -25.8014  -30.8921   27.0282 H   0  0  0  0  0  0
  -26.2941  -29.6823   24.1202 H   0  0  0  0  0  0
  -27.3987  -29.7256   25.4747 H   0  0  0  0  0  0
  -27.8839  -30.4324   23.9514 H   0  0  0  0  0  0
  -27.2688  -33.3636   26.2161 H   0  0  0  0  0  0
  -28.3902  -32.6892   25.0425 H   0  0  0  0  0  0
  -28.0731  -31.8454   26.5514 H   0  0  0  0  0  0
  -28.2612  -38.0106   24.7517 H   0  0  0  0  0  0
  -28.1073  -36.2643   24.6299 H   0  0  0  0  0  0
  -27.2302  -37.1475   25.8872 H   0  0  0  0  0  0
  -21.0814  -30.1532   21.7808 H   0  0  0  0  0  0
  -26.0190  -38.2885   24.1398 H   0  0  0  0  0  0
  -26.3311  -18.3290   22.9776 H   0  0  0  0  0  0
  -27.9464  -16.6607   22.2021 H   0  0  0  0  0  0
  -26.5646  -20.6555   22.4529 H   0  0  0  0  0  0
  -30.1400  -19.8136   20.1906 H   0  0  0  0  0  0
  -27.3173  -25.7072   21.8762 H   0  0  0  0  0  0
  -26.6124  -22.7313   21.9230 H   0  0  0  0  0  0
  -28.0625  -22.8687   22.9708 H   0  0  0  0  0  0
  -28.9686  -15.5149   21.1189 H   0  0  0  0  0  0
  1 25  1  0  0  0
  1 30  2  0  0  0
  1 83  1  0  0  0
  2  3  1  0  0  0
  2 25  1  0  0  0
  2 86  1  0  0  0
  2 87  1  0  0  0
  3  4  1  0  0  0
  3 88  1  0  0  0
  3 89  1  0  0  0
  4  5  1  0  0  0
  4 90  1  0  0  0
  4 91  1  0  0  0
  5  6  1  0  0  0
  5 26  1  0  0  0
  5 92  1  0  0  0
  6 25  1  0  0  0
  6 93  1  0  0  0
  6 94  1  0  0  0
  7  8  2  0  0  0
  7 26  1  0  0  0
  7 29  1  0  0  0
  8  9  1  0  0  0
  8 22  1  0  0  0
  9 10  1  0  0  0
  9 27  2  0  0  0
 10 11  2  0  0  0
 10 15  1  0  0  0
 11 12  1  0  0  0
 11 95  1  0  0  0
 12 13  2  0  0  0
 12 96  1  0  0  0
 13 14  1  0  0  0
 13 31  1  0  0  0
 14 15  2  0  0  0
 14 97  1  0  0  0
 15 98  1  0  0  0
 16 17  2  0  0  0
 16 21  1  0  0  0
 16 31  1  0  0  0
 17 18  1  0  0  0
 17 99  1  0  0  0
 18 19  2  0  0  0
 18100  1  0  0  0
 19 20  1  0  0  0
 19 24  1  0  0  0
 20 21  2  0  0  0
 20101  1  0  0  0
 21 23  1  0  0  0
 22 28  1  0  0  0
 22 32  2  0  0  0
 26 27  1  0  0  0
 28102  1  0  0  0
 28103  1  0  0  0
 29104  1  0  0  0
 29105  1  0  0  0
 33 34  1  0  0  0
 33 66  1  0  0  0
 33 70  2  0  0  0
 34 36  1  0  0  0
 34 59  1  0  0  0
 34106  1  0  0  0
 35 44  2  0  0  0
 35 45  1  0  0  0
 35 68  1  0  0  0
 36 56  1  0  0  0
 36107  1  0  0  0
 37 39  1  0  0  0
 37 47  1  0  0  0
 37 66  1  0  0  0
 37108  1  0  0  0
 38 43  2  0  0  0
 38 46  1  0  0  0
 38 47  1  0  0  0
 39 64  1  0  0  0
 39 67  2  0  0  0
 40 52  1  0  0  0
 40 53  2  0  0  0
 40 58  1  0  0  0
 41109  1  0  0  0
 41110  1  0  0  0
 41111  1  0  0  0
 41 48  1  0  0  0
 42 43  1  0  0  0
 42 66  1  0  0  0
 42112  1  0  0  0
 42113  1  0  0  0
 43 44  1  0  0  0
 44114  1  0  0  0
 45 46  2  0  0  0
 45115  1  0  0  0
 46116  1  0  0  0
 47117  1  0  0  0
 47118  1  0  0  0
 48 56  1  0  0  0
 48 65  1  0  0  0
 48119  1  0  0  0
 49 50  1  0  0  0
 49 53  1  0  0  0
 49 64  1  0  0  0
 49120  1  0  0  0
 50 51  1  0  0  0
 50121  1  0  0  0
 50122  1  0  0  0
 51 52  1  0  0  0
 51123  1  0  0  0
 51124  1  0  0  0
 52125  1  0  0  0
 52126  1  0  0  0
 53 54  1  0  0  0
 54 55  2  0  0  0
 54127  1  0  0  0
 55 57  1  0  0  0
 55128  1  0  0  0
 56 69  2  0  0  0
 57 58  2  0  0  0
 57129  1  0  0  0
 58130  1  0  0  0
 59 60  1  0  0  0
 59 61  1  0  0  0
 59 62  1  0  0  0
 60131  1  0  0  0
 60132  1  0  0  0
 60133  1  0  0  0
 61134  1  0  0  0
 61135  1  0  0  0
 61136  1  0  0  0
 62137  1  0  0  0
 62138  1  0  0  0
 62139  1  0  0  0
 63 65  1  0  0  0
 63140  1  0  0  0
 63141  1  0  0  0
 63142  1  0  0  0
 64143  1  0  0  0
 65144  1  0  0  0
 68 79  1  0  0  0
 71 72  2  0  0  0
 71 73  1  0  0  0
 71145  1  0  0  0
 72 75  1  0  0  0
 72146  1  0  0  0
 73 76  2  0  0  0
 73147  1  0  0  0
 74 75  2  0  0  0
 74 76  1  0  0  0
 74148  1  0  0  0
 75 80  1  0  0  0
 76 82  1  0  0  0
 77 78  1  0  0  0
 77 79  2  0  0  0
 77 81  1  0  0  0
 78 82  1  0  0  0
 78 84  2  0  0  0
 79149  1  0  0  0
 80 83  1  0  0  0
 80 85  2  0  0  0
 81 82  1  0  0  0
 81150  1  0  0  0
 81151  1  0  0  0
 83152  1  0  0  0
M  ISO  4   1 100  68 101  79 101  83 100
M  END
> <chiral flag>
0

> <version>
0

> <s_m_source_file>
/data/baiqing/PycharmProjects/Reinvent-master-3.2/result/LINK_invent/BTK/process_docking_weight1_custom_product_contain_oxygen_bond_distance_aromatic_linkinvent_7_9_3/rearranged_h_0086.sdf

> <i_m_source_file_index>
70

> <r_mmod_Potential_Energy-OPLS-2005>
189.944732666016

> <r_mmod_Stretch_Energy-OPLS-2005>
67.1467590332031

> <r_mmod_Bend_Energy-OPLS-2005>
329.0849609375

> <r_mmod_Torsional_Energy-OPLS-2005>
239.714813232422

> <r_mmod_Improper_Torsional_Energy-OPLS-2005>
6.25810098648071

> <r_mmod_Van_der_Waal_Energy-OPLS-2005>
156.312866210938

> <r_mmod_Electrostatic_Energy-OPLS-2005>
-426.518463134766

> <r_mmod_Solvation_Energy-OPLS-2005>
-251.006057739258

> <b_mmod_Minimization_Converged-OPLS-2005>
0

> <r_mmod_RMS_Derivative-OPLS-2005>
2.41813516616821

$$$$
70
                    3D
 Structure written by MMmdl.
155164  0  0  1  0            999 V2000
  -30.6982  -14.5394   20.5302 C   0  0  0  0  0  0
  -30.4123  -12.3301   19.4513 C   0  0  0  0  0  0
  -29.4995  -12.4996   18.2205 C   0  0  0  0  0  0
  -28.0199  -12.3570   18.6264 C   0  0  0  0  0  0
  -27.6530  -13.2210   19.8632 C   0  0  2  0  0  0
  -28.6929  -13.0666   20.9939 C   0  0  0  0  0  0
  -25.2559  -13.8200   20.5700 C   0  0  0  0  0  0
  -24.1820  -13.0455   20.9180 C   0  0  0  0  0  0
  -24.6397  -11.6930   20.8734 C   0  0  0  0  0  0
  -23.9072  -10.4307   21.0406 C   0  0  0  0  0  0
  -24.3623   -9.4221   21.9182 C   0  0  0  0  0  0
  -23.6298   -8.2253   22.0757 C   0  0  0  0  0  0
  -22.4277   -8.0292   21.3550 C   0  0  0  0  0  0
  -21.9918   -9.0260   20.4644 C   0  0  0  0  0  0
  -22.7249  -10.2139   20.3052 C   0  0  0  0  0  0
  -21.6854   -6.0743   22.5281 C   0  0  0  0  0  0
  -21.4014   -6.5645   23.8216 C   0  0  0  0  0  0
  -21.3658   -5.6796   24.9177 C   0  0  0  0  0  0
  -21.6043   -4.3060   24.7225 C   0  0  0  0  0  0
  -21.8818   -3.8153   23.4346 C   0  0  0  0  0  0
  -21.9194   -4.6972   22.3405 C   0  0  0  0  0  0
  -22.7844  -13.5244   21.1845 C   0  0  0  0  0  0
  -22.1658   -4.2163   21.0982 F   0  0  0  0  0  0
  -21.5630   -3.4542   25.7735 F   0  0  0  0  0  0
  -30.0198  -13.3570   20.4348 N   0  0  0  0  0  0
  -26.2983  -12.9384   20.3325 N   0  0  0  0  0  0
  -25.9324  -11.6526   20.5748 N   0  0  0  0  0  0
  -22.0489  -12.8224   22.0391 N   0  0  0  0  0  0
  -25.4297  -15.1918   20.4172 N   0  0  0  0  0  0
  -31.8499  -14.6228   20.0935 O   0  0  0  0  0  0
  -21.6642   -6.8889   21.4244 O   0  0  0  0  0  0
  -22.3529  -14.5553   20.6714 O   0  0  0  0  0  0
  -24.6189  -31.8655   23.2087 C   0  0  0  0  0  0
  -25.9067  -32.4810   23.8399 C   0  0  1  0  0  0
  -27.2325  -27.4024   20.1083 C   0  0  0  0  0  0
  -25.5918  -33.8609   24.2331 N   0  0  0  0  0  0
  -23.4107  -30.4878   21.5487 C   0  0  2  0  0  0
  -24.8604  -28.9498   20.1143 C   0  0  0  0  0  0
  -22.7440  -29.4651   22.4978 C   0  0  0  0  0  0
  -18.0277  -28.1384   22.8492 C   0  0  0  0  0  0
  -24.1484  -36.7298   23.2643 C   0  0  0  0  0  0
  -25.9429  -30.8203   21.3693 C   0  0  0  0  0  0
  -26.0221  -29.4522   20.7170 C   0  0  0  0  0  0
  -27.2151  -28.6850   20.7146 C   0  0  0  0  0  0
  -26.0596  -26.9256   19.4938 C   0  0  0  0  0  0
  -24.8745  -27.6856   19.4994 C   0  0  0  0  0  0
  -23.6232  -29.8199   20.1634 C   0  0  0  0  0  0
  -25.4106  -36.3104   24.0344 C   0  0  1  0  0  0
  -20.5869  -28.3686   23.1299 C   0  0  2  0  0  0
  -20.6769  -26.9418   22.5410 C   0  0  0  0  0  0
  -19.5747  -26.6390   21.5213 C   0  0  0  0  0  0
  -18.1917  -26.7935   22.1611 C   0  0  0  0  0  0
  -19.1526  -28.8852   23.2889 C   0  0  0  0  0  0
  -18.9452  -30.1455   23.8906 C   0  0  0  0  0  0
  -17.6455  -30.6591   24.0569 C   0  0  0  0  0  0
  -25.9037  -34.9467   23.5128 C   0  0  0  0  0  0
  -16.5344  -29.9091   23.6336 C   0  0  0  0  0  0
  -16.7264  -28.6505   23.0364 C   0  0  0  0  0  0
  -26.4492  -31.6596   25.0740 C   0  0  0  0  0  0
  -25.3745  -31.3682   26.1477 C   0  0  0  0  0  0
  -27.0357  -30.3043   24.6139 C   0  0  0  0  0  0
  -27.6074  -32.4318   25.7490 C   0  0  0  0  0  0
  -27.5580  -37.1805   24.8469 C   0  0  0  0  0  0
  -21.4162  -29.3046   22.3706 N   0  0  0  0  0  0
  -26.4290  -37.3792   23.9417 N   0  0  0  0  0  0
  -24.6752  -31.0731   22.1003 N   0  0  0  0  0  0
  -23.4180  -28.8187   23.3043 O   0  0  0  0  0  0
  -28.3324  -26.5670   20.1071 O   0  0  0  0  0  0
  -26.5590  -34.8917   22.4685 O   0  0  0  0  0  0
  -23.5375  -32.1427   23.7452 O   0  0  0  0  0  0
  -29.1682  -18.5439   21.7439 C   0  0  0  0  0  0
  -28.9010  -19.9022   22.0514 C   0  0  0  0  0  0
  -29.5327  -20.5452   19.8176 C   0  0  0  0  0  0
  -29.6605  -18.1491   20.4785 C   0  0  0  0  0  0
  -29.1046  -20.9451   21.1065 C   0  0  0  0  0  0
  -29.8089  -19.1870   19.5026 C   0  0  0  0  0  0
  -28.8042  -24.6378   21.5886 C   0  0  0  0  0  0
  -29.0938  -24.1948   22.9327 C   0  0  0  0  0  0
  -28.7314  -23.4562   20.7244 C   0  0  0  0  0  0
  -30.0809  -16.7144   20.2172 C   0  0  0  0  0  0
  -28.6241  -25.9626   21.3123 C   0  0  0  0  0  0
  -29.1358  -22.6887   22.9220 C   0  0  0  0  0  0
  -29.9690  -15.6620   20.9670 N   0  0  0  0  0  0
  -28.9627  -22.3427   21.5028 N   0  0  0  0  0  0
  -30.2642  -18.9342   18.2038 N   0  0  0  0  0  0
  -29.2717  -24.8834   23.9448 O   0  0  0  0  0  0
  -28.4853  -23.4457   19.5125 O   0  0  0  0  0  0
  -31.4610  -12.3961   19.1566 H   0  0  0  0  0  0
  -30.2911  -11.3347   19.8816 H   0  0  0  0  0  0
  -29.7511  -11.7594   17.4600 H   0  0  0  0  0  0
  -29.6657  -13.4769   17.7651 H   0  0  0  0  0  0
  -27.8399  -11.3037   18.8443 H   0  0  0  0  0  0
  -27.3715  -12.6068   17.7856 H   0  0  0  0  0  0
  -27.6801  -14.2598   19.5343 H   0  0  0  0  0  0
  -28.6753  -12.0542   21.3994 H   0  0  0  0  0  0
  -28.4545  -13.7278   21.8286 H   0  0  0  0  0  0
  -25.2773   -9.5698   22.4750 H   0  0  0  0  0  0
  -24.0012   -7.4649   22.7480 H   0  0  0  0  0  0
  -21.0852   -8.8775   19.8947 H   0  0  0  0  0  0
  -22.3711  -10.9673   19.6150 H   0  0  0  0  0  0
  -21.2000   -7.6153   23.9725 H   0  0  0  0  0  0
  -21.1479   -6.0526   25.9081 H   0  0  0  0  0  0
  -22.0597   -2.7619   23.2843 H   0  0  0  0  0  0
  -22.4107  -11.9871   22.4757 H   0  0  0  0  0  0
  -21.1110  -13.1242   22.2604 H   0  0  0  0  0  0
  -24.6769  -15.8580   20.5539 H   0  0  0  0  0  0
  -26.3066  -15.6287   20.1614 H   0  0  0  0  0  0
  -26.7150  -32.5514   23.1174 H   0  0  0  0  0  0
  -25.0124  -33.9778   25.0513 H   0  0  0  0  0  0
  -22.7011  -31.3054   21.4061 H   0  0  0  0  0  0
  -23.3750  -35.9628   23.3310 H   0  0  0  0  0  0
  -24.3581  -36.8908   22.2057 H   0  0  0  0  0  0
  -23.7224  -37.6499   23.6651 H   0  0  0  0  0  0
  -26.0619  -31.5852   20.6009 H   0  0  0  0  0  0
  -26.8283  -30.8731   21.9910 H   0  0  0  0  0  0
  -28.1111  -29.0635   21.1862 H   0  0  0  0  0  0
  -26.0639  -25.9485   19.0308 H   0  0  0  0  0  0
  -23.9816  -27.2911   19.0340 H   0  0  0  0  0  0
  -23.7345  -30.5953   19.4047 H   0  0  0  0  0  0
  -22.7466  -29.2418   19.8661 H   0  0  0  0  0  0
  -25.1275  -36.1976   25.0834 H   0  0  0  0  0  0
  -20.9958  -28.3264   24.1428 H   0  0  0  0  0  0
  -20.5680  -26.2299   23.3601 H   0  0  0  0  0  0
  -21.6638  -26.7467   22.1204 H   0  0  0  0  0  0
  -19.6911  -25.6301   21.1238 H   0  0  0  0  0  0
  -19.6685  -27.3208   20.6745 H   0  0  0  0  0  0
  -17.4195  -26.6709   21.3999 H   0  0  0  0  0  0
  -18.0299  -26.0066   22.8988 H   0  0  0  0  0  0
  -19.7927  -30.7268   24.2280 H   0  0  0  0  0  0
  -17.5010  -31.6275   24.5169 H   0  0  0  0  0  0
  -15.5346  -30.2999   23.7663 H   0  0  0  0  0  0
  -15.8657  -28.0828   22.7088 H   0  0  0  0  0  0
  -24.5959  -30.6984   25.7806 H   0  0  0  0  0  0
  -24.8877  -32.2816   26.4902 H   0  0  0  0  0  0
  -25.8100  -30.8881   27.0247 H   0  0  0  0  0  0
  -26.2933  -29.6766   24.1200 H   0  0  0  0  0  0
  -27.4145  -29.7315   25.4611 H   0  0  0  0  0  0
  -27.8746  -30.4376   23.9307 H   0  0  0  0  0  0
  -27.2729  -33.3639   26.2054 H   0  0  0  0  0  0
  -28.3888  -32.6841   25.0307 H   0  0  0  0  0  0
  -28.0740  -31.8438   26.5408 H   0  0  0  0  0  0
  -28.2598  -38.0103   24.7537 H   0  0  0  0  0  0
  -28.1076  -36.2639   24.6276 H   0  0  0  0  0  0
  -27.2297  -37.1438   25.8870 H   0  0  0  0  0  0
  -20.9334  -29.8767   21.6919 H   0  0  0  0  0  0
  -26.0176  -38.2867   24.1425 H   0  0  0  0  0  0
  -29.0287  -17.7970   22.5128 H   0  0  0  0  0  0
  -28.5557  -20.1234   23.0511 H   0  0  0  0  0  0
  -29.7077  -21.2974   19.0619 H   0  0  0  0  0  0
  -30.5779  -16.6115   19.2464 H   0  0  0  0  0  0
  -28.7071  -26.7030   22.0969 H   0  0  0  0  0  0
  -28.3268  -22.2992   23.5394 H   0  0  0  0  0  0
  -30.0928  -22.3320   23.3027 H   0  0  0  0  0  0
  -30.1302  -19.6463   17.4928 H   0  0  0  0  0  0
  -30.2273  -17.9940   17.8251 H   0  0  0  0  0  0
  1 25  1  0  0  0
  1 30  2  0  0  0
  1 83  1  0  0  0
  2  3  1  0  0  0
  2 25  1  0  0  0
  2 88  1  0  0  0
  2 89  1  0  0  0
  3  4  1  0  0  0
  3 90  1  0  0  0
  3 91  1  0  0  0
  4  5  1  0  0  0
  4 92  1  0  0  0
  4 93  1  0  0  0
  5  6  1  0  0  0
  5 26  1  0  0  0
  5 94  1  0  0  0
  6 25  1  0  0  0
  6 95  1  0  0  0
  6 96  1  0  0  0
  7  8  2  0  0  0
  7 26  1  0  0  0
  7 29  1  0  0  0
  8  9  1  0  0  0
  8 22  1  0  0  0
  9 10  1  0  0  0
  9 27  2  0  0  0
 10 11  2  0  0  0
 10 15  1  0  0  0
 11 12  1  0  0  0
 11 97  1  0  0  0
 12 13  2  0  0  0
 12 98  1  0  0  0
 13 14  1  0  0  0
 13 31  1  0  0  0
 14 15  2  0  0  0
 14 99  1  0  0  0
 15100  1  0  0  0
 16 17  2  0  0  0
 16 21  1  0  0  0
 16 31  1  0  0  0
 17 18  1  0  0  0
 17101  1  0  0  0
 18 19  2  0  0  0
 18102  1  0  0  0
 19 20  1  0  0  0
 19 24  1  0  0  0
 20 21  2  0  0  0
 20103  1  0  0  0
 21 23  1  0  0  0
 22 28  1  0  0  0
 22 32  2  0  0  0
 26 27  1  0  0  0
 28104  1  0  0  0
 28105  1  0  0  0
 29106  1  0  0  0
 29107  1  0  0  0
 33 34  1  0  0  0
 33 66  1  0  0  0
 33 70  2  0  0  0
 34 36  1  0  0  0
 34 59  1  0  0  0
 34108  1  0  0  0
 35 44  2  0  0  0
 35 45  1  0  0  0
 35 68  1  0  0  0
 36 56  1  0  0  0
 36109  1  0  0  0
 37 39  1  0  0  0
 37 47  1  0  0  0
 37 66  1  0  0  0
 37110  1  0  0  0
 38 43  2  0  0  0
 38 46  1  0  0  0
 38 47  1  0  0  0
 39 64  1  0  0  0
 39 67  2  0  0  0
 40 52  1  0  0  0
 40 53  2  0  0  0
 40 58  1  0  0  0
 41111  1  0  0  0
 41112  1  0  0  0
 41113  1  0  0  0
 41 48  1  0  0  0
 42 43  1  0  0  0
 42 66  1  0  0  0
 42114  1  0  0  0
 42115  1  0  0  0
 43 44  1  0  0  0
 44116  1  0  0  0
 45 46  2  0  0  0
 45117  1  0  0  0
 46118  1  0  0  0
 47119  1  0  0  0
 47120  1  0  0  0
 48 56  1  0  0  0
 48 65  1  0  0  0
 48121  1  0  0  0
 49 50  1  0  0  0
 49 53  1  0  0  0
 49 64  1  0  0  0
 49122  1  0  0  0
 50 51  1  0  0  0
 50123  1  0  0  0
 50124  1  0  0  0
 51 52  1  0  0  0
 51125  1  0  0  0
 51126  1  0  0  0
 52127  1  0  0  0
 52128  1  0  0  0
 53 54  1  0  0  0
 54 55  2  0  0  0
 54129  1  0  0  0
 55 57  1  0  0  0
 55130  1  0  0  0
 56 69  2  0  0  0
 57 58  2  0  0  0
 57131  1  0  0  0
 58132  1  0  0  0
 59 60  1  0  0  0
 59 61  1  0  0  0
 59 62  1  0  0  0
 60133  1  0  0  0
 60134  1  0  0  0
 60135  1  0  0  0
 61136  1  0  0  0
 61137  1  0  0  0
 61138  1  0  0  0
 62139  1  0  0  0
 62140  1  0  0  0
 62141  1  0  0  0
 63 65  1  0  0  0
 63142  1  0  0  0
 63143  1  0  0  0
 63144  1  0  0  0
 64145  1  0  0  0
 65146  1  0  0  0
 68 81  1  0  0  0
 71 72  2  0  0  0
 71 74  1  0  0  0
 71147  1  0  0  0
 72 75  1  0  0  0
 72148  1  0  0  0
 73 75  2  0  0  0
 73 76  1  0  0  0
 73149  1  0  0  0
 74 76  2  0  0  0
 74 80  1  0  0  0
 75 84  1  0  0  0
 76 85  1  0  0  0
 77 78  1  0  0  0
 77 79  1  0  0  0
 77 81  2  0  0  0
 78 82  1  0  0  0
 78 86  2  0  0  0
 79 84  1  0  0  0
 79 87  2  0  0  0
 80 83  2  0  0  0
 80150  1  0  0  0
 81151  1  0  0  0
 82 84  1  0  0  0
 82152  1  0  0  0
 82153  1  0  0  0
 85154  1  0  0  0
 85155  1  0  0  0
M  ISO  4   1 100  68 101  81 101  83 100
M  END
> <chiral flag>
0

> <version>
0

> <s_m_source_file>
/data/baiqing/PycharmProjects/Reinvent-master-3.2/result/LINK_invent/BTK/process_docking_weight1_custom_product_contain_oxygen_bond_distance_aromatic_linkinvent_7_9_3/rearranged_h_0086.sdf

> <i_m_source_file_index>
71

> <r_mmod_Potential_Energy-OPLS-2005>
128.44255065918

> <r_mmod_Stretch_Energy-OPLS-2005>
58.8412590026855

> <r_mmod_Bend_Energy-OPLS-2005>
168.909545898438

> <r_mmod_Torsional_Energy-OPLS-2005>
228.221420288086

> <r_mmod_Improper_Torsional_Energy-OPLS-2005>
6.96368837356567

> <r_mmod_Van_der_Waal_Energy-OPLS-2005>
158.025573730469

> <r_mmod_Electrostatic_Energy-OPLS-2005>
-296.883636474609

> <r_mmod_Solvation_Energy-OPLS-2005>
-219.84977722168

> <b_mmod_Minimization_Converged-OPLS-2005>
0

> <r_mmod_RMS_Derivative-OPLS-2005>
1.3407244682312

$$$$
71
                    3D
 Structure written by MMmdl.
156165  0  0  1  0            999 V2000
  -30.6099  -14.6938   20.4659 C   0  0  0  0  0  0
  -30.4427  -12.4213   19.4551 C   0  0  0  0  0  0
  -29.5090  -12.5073   18.2267 C   0  0  0  0  0  0
  -28.0332  -12.3389   18.6423 C   0  0  0  0  0  0
  -27.6488  -13.2219   19.8600 C   0  0  2  0  0  0
  -28.7001  -13.1092   20.9875 C   0  0  0  0  0  0
  -25.2518  -13.8150   20.5749 C   0  0  0  0  0  0
  -24.1794  -13.0390   20.9182 C   0  0  0  0  0  0
  -24.6393  -11.6880   20.8724 C   0  0  0  0  0  0
  -23.9069  -10.4266   21.0387 C   0  0  0  0  0  0
  -24.3617   -9.4191   21.9175 C   0  0  0  0  0  0
  -23.6287   -8.2233   22.0753 C   0  0  0  0  0  0
  -22.4269   -8.0270   21.3543 C   0  0  0  0  0  0
  -21.9904   -9.0239   20.4643 C   0  0  0  0  0  0
  -22.7237  -10.2113   20.3043 C   0  0  0  0  0  0
  -21.6850   -6.0729   22.5279 C   0  0  0  0  0  0
  -21.4012   -6.5634   23.8212 C   0  0  0  0  0  0
  -21.3660   -5.6788   24.9175 C   0  0  0  0  0  0
  -21.6045   -4.3051   24.7225 C   0  0  0  0  0  0
  -21.8821   -3.8143   23.4346 C   0  0  0  0  0  0
  -21.9193   -4.6959   22.3402 C   0  0  0  0  0  0
  -22.7818  -13.5184   21.1853 C   0  0  0  0  0  0
  -22.1661   -4.2146   21.0979 F   0  0  0  0  0  0
  -21.5632   -3.4535   25.7738 F   0  0  0  0  0  0
  -30.0088  -13.4592   20.4120 N   0  0  0  0  0  0
  -26.2977  -12.9369   20.3353 N   0  0  0  0  0  0
  -25.9331  -11.6507   20.5761 N   0  0  0  0  0  0
  -22.0470  -12.8180   22.0420 N   0  0  0  0  0  0
  -25.4063  -15.1892   20.4338 N   0  0  0  0  0  0
  -31.7923  -14.8369   20.1409 O   0  0  0  0  0  0
  -21.6633   -6.8869   21.4241 O   0  0  0  0  0  0
  -22.3496  -14.5494   20.6711 O   0  0  0  0  0  0
  -24.6278  -31.8584   23.2021 C   0  0  0  0  0  0
  -25.9119  -32.4772   23.8355 C   0  0  1  0  0  0
  -27.2260  -27.2975   20.1236 C   0  0  0  0  0  0
  -25.5928  -33.8574   24.2278 N   0  0  0  0  0  0
  -23.4237  -30.4814   21.5442 C   0  0  2  0  0  0
  -24.8736  -28.9352   20.1100 C   0  0  0  0  0  0
  -22.7487  -29.4615   22.4923 C   0  0  0  0  0  0
  -18.0290  -28.1386   22.8487 C   0  0  0  0  0  0
  -24.1490  -36.7291   23.2638 C   0  0  0  0  0  0
  -25.9673  -30.7796   21.3808 C   0  0  0  0  0  0
  -26.0417  -29.4045   20.7253 C   0  0  0  0  0  0
  -27.2199  -28.5948   20.7295 C   0  0  0  0  0  0
  -26.0423  -26.8999   19.4604 C   0  0  0  0  0  0
  -24.8764  -27.6879   19.4685 C   0  0  0  0  0  0
  -23.6417  -29.8170   20.1595 C   0  0  0  0  0  0
  -25.4116  -36.3082   24.0328 C   0  0  1  0  0  0
  -20.5892  -28.3695   23.1275 C   0  0  2  0  0  0
  -20.6777  -26.9415   22.5409 C   0  0  0  0  0  0
  -19.5752  -26.6385   21.5212 C   0  0  0  0  0  0
  -18.1933  -26.7929   22.1626 C   0  0  0  0  0  0
  -19.1543  -28.8858   23.2876 C   0  0  0  0  0  0
  -18.9464  -30.1457   23.8895 C   0  0  0  0  0  0
  -17.6464  -30.6587   24.0565 C   0  0  0  0  0  0
  -25.9052  -34.9449   23.5104 C   0  0  0  0  0  0
  -16.5355  -29.9085   23.6331 C   0  0  0  0  0  0
  -16.7277  -28.6501   23.0355 C   0  0  0  0  0  0
  -26.4499  -31.6586   25.0731 C   0  0  0  0  0  0
  -25.3725  -31.3726   26.1453 C   0  0  0  0  0  0
  -27.0345  -30.3005   24.6203 C   0  0  0  0  0  0
  -27.6053  -32.4324   25.7504 C   0  0  0  0  0  0
  -27.5580  -37.1803   24.8466 C   0  0  0  0  0  0
  -21.4198  -29.3045   22.3666 N   0  0  0  0  0  0
  -26.4294  -37.3776   23.9407 N   0  0  0  0  0  0
  -24.6915  -31.0571   22.0988 N   0  0  0  0  0  0
  -23.4199  -28.8152   23.3011 O   0  0  0  0  0  0
  -28.3173  -26.4054   20.1667 O   0  0  0  0  0  0
  -26.5624  -34.8917   22.4672 O   0  0  0  0  0  0
  -23.5436  -32.1397   23.7330 O   0  0  0  0  0  0
  -28.5667  -19.3264   20.1036 C   0  0  0  0  0  0
  -30.8616  -19.4857   20.7783 C   0  0  0  0  0  0
  -29.6601  -20.1796   20.4252 C   0  0  0  0  0  0
  -28.6646  -17.9002   20.1372 C   0  0  0  0  0  0
  -30.9603  -18.0543   20.8504 C   0  0  0  0  0  0
  -29.8497  -17.2177   20.5351 C   0  0  0  0  0  0
  -28.8989  -23.9228   20.2891 C   0  0  0  0  0  0
  -30.3227  -23.9163   20.0362 C   0  0  0  0  0  0
  -28.4992  -22.5063   20.4781 C   0  0  0  0  0  0
  -28.0569  -25.0192   20.3567 C   0  0  0  0  0  0
  -30.8113  -22.4706   20.1351 C   0  0  0  0  0  0
  -29.5924  -21.6669   20.3509 N   0  0  0  0  0  0
  -27.5665  -17.1408   19.7284 N   0  0  0  0  0  0
  -32.1627  -17.4783   21.2588 N   0  0  0  0  0  0
  -29.7681  -15.7547   20.6912 N   0  0  0  0  0  0
  -31.0594  -24.8797   19.7979 O   0  0  0  0  0  0
  -27.3502  -22.1180   20.7208 O   0  0  0  0  0  0
  -31.4819  -12.5543   19.1490 H   0  0  0  0  0  0
  -30.3892  -11.4335   19.9154 H   0  0  0  0  0  0
  -29.7797  -11.7469   17.4930 H   0  0  0  0  0  0
  -29.6417  -13.4703   17.7307 H   0  0  0  0  0  0
  -27.8799  -11.2872   18.8877 H   0  0  0  0  0  0
  -27.3757  -12.5518   17.7985 H   0  0  0  0  0  0
  -27.6501  -14.2501   19.5008 H   0  0  0  0  0  0
  -28.7241  -12.0964   21.3924 H   0  0  0  0  0  0
  -28.4450  -13.7612   21.8247 H   0  0  0  0  0  0
  -25.2761   -9.5671   22.4748 H   0  0  0  0  0  0
  -23.9996   -7.4626   22.7473 H   0  0  0  0  0  0
  -21.0837   -8.8752   19.8949 H   0  0  0  0  0  0
  -22.3695  -10.9647   19.6148 H   0  0  0  0  0  0
  -21.2001   -7.6141   23.9716 H   0  0  0  0  0  0
  -21.1483   -6.0517   25.9078 H   0  0  0  0  0  0
  -22.0603   -2.7606   23.2846 H   0  0  0  0  0  0
  -22.4089  -11.9839   22.4800 H   0  0  0  0  0  0
  -21.1093  -13.1210   22.2644 H   0  0  0  0  0  0
  -24.6268  -15.8195   20.5818 H   0  0  0  0  0  0
  -26.2706  -15.6961   20.2422 H   0  0  0  0  0  0
  -26.7186  -32.5437   23.1100 H   0  0  0  0  0  0
  -25.0071  -33.9718   25.0421 H   0  0  0  0  0  0
  -22.7187  -31.3027   21.3996 H   0  0  0  0  0  0
  -23.3751  -35.9624   23.3306 H   0  0  0  0  0  0
  -24.3579  -36.8908   22.2052 H   0  0  0  0  0  0
  -23.7243  -37.6493   23.6659 H   0  0  0  0  0  0
  -26.1034  -31.5409   20.6114 H   0  0  0  0  0  0
  -26.8458  -30.8291   22.0123 H   0  0  0  0  0  0
  -28.1124  -28.9451   21.2288 H   0  0  0  0  0  0
  -26.0015  -25.9506   18.9453 H   0  0  0  0  0  0
  -23.9858  -27.3270   18.9728 H   0  0  0  0  0  0
  -23.7618  -30.5942   19.4038 H   0  0  0  0  0  0
  -22.7620  -29.2469   19.8553 H   0  0  0  0  0  0
  -25.1297  -36.1934   25.0821 H   0  0  0  0  0  0
  -20.9985  -28.3271   24.1395 H   0  0  0  0  0  0
  -20.5674  -26.2307   23.3612 H   0  0  0  0  0  0
  -21.6645  -26.7438   22.1203 H   0  0  0  0  0  0
  -19.6912  -25.6294   21.1245 H   0  0  0  0  0  0
  -19.6686  -27.3193   20.6740 H   0  0  0  0  0  0
  -17.4201  -26.6679   21.4029 H   0  0  0  0  0  0
  -18.0333  -26.0067   22.9019 H   0  0  0  0  0  0
  -19.7939  -30.7276   24.2263 H   0  0  0  0  0  0
  -17.5017  -31.6267   24.5167 H   0  0  0  0  0  0
  -15.5355  -30.2988   23.7652 H   0  0  0  0  0  0
  -15.8677  -28.0818   22.7074 H   0  0  0  0  0  0
  -24.5905  -30.7071   25.7779 H   0  0  0  0  0  0
  -24.8910  -32.2892   26.4869 H   0  0  0  0  0  0
  -25.8045  -30.8909   27.0234 H   0  0  0  0  0  0
  -26.2927  -29.6753   24.1220 H   0  0  0  0  0  0
  -27.4026  -29.7263   25.4716 H   0  0  0  0  0  0
  -27.8806  -30.4281   23.9446 H   0  0  0  0  0  0
  -27.2660  -33.3626   26.2074 H   0  0  0  0  0  0
  -28.3869  -32.6884   25.0338 H   0  0  0  0  0  0
  -28.0717  -31.8455   26.5427 H   0  0  0  0  0  0
  -28.2601  -38.0098   24.7509 H   0  0  0  0  0  0
  -28.1075  -36.2628   24.6300 H   0  0  0  0  0  0
  -27.2298  -37.1462   25.8870 H   0  0  0  0  0  0
  -20.9379  -29.8775   21.6880 H   0  0  0  0  0  0
  -26.0175  -38.2852   24.1402 H   0  0  0  0  0  0
  -27.6336  -19.7711   19.7893 H   0  0  0  0  0  0
  -31.7373  -20.0667   21.0291 H   0  0  0  0  0  0
  -27.0189  -24.8426   20.6012 H   0  0  0  0  0  0
  -31.5018  -22.3734   20.9726 H   0  0  0  0  0  0
  -31.3173  -22.1746   19.2162 H   0  0  0  0  0  0
  -26.8082  -17.6901   19.3370 H   0  0  0  0  0  0
  -27.8222  -16.4157   19.0678 H   0  0  0  0  0  0
  -33.0060  -18.0280   21.1342 H   0  0  0  0  0  0
  -32.2891  -16.5128   20.9474 H   0  0  0  0  0  0
  -28.8149  -15.4605   20.8328 H   0  0  0  0  0  0
  1 25  1  0  0  0
  1 30  2  0  0  0
  1 85  1  0  0  0
  2  3  1  0  0  0
  2 25  1  0  0  0
  2 88  1  0  0  0
  2 89  1  0  0  0
  3  4  1  0  0  0
  3 90  1  0  0  0
  3 91  1  0  0  0
  4  5  1  0  0  0
  4 92  1  0  0  0
  4 93  1  0  0  0
  5  6  1  0  0  0
  5 26  1  0  0  0
  5 94  1  0  0  0
  6 25  1  0  0  0
  6 95  1  0  0  0
  6 96  1  0  0  0
  7  8  2  0  0  0
  7 26  1  0  0  0
  7 29  1  0  0  0
  8  9  1  0  0  0
  8 22  1  0  0  0
  9 10  1  0  0  0
  9 27  2  0  0  0
 10 11  2  0  0  0
 10 15  1  0  0  0
 11 12  1  0  0  0
 11 97  1  0  0  0
 12 13  2  0  0  0
 12 98  1  0  0  0
 13 14  1  0  0  0
 13 31  1  0  0  0
 14 15  2  0  0  0
 14 99  1  0  0  0
 15100  1  0  0  0
 16 17  2  0  0  0
 16 21  1  0  0  0
 16 31  1  0  0  0
 17 18  1  0  0  0
 17101  1  0  0  0
 18 19  2  0  0  0
 18102  1  0  0  0
 19 20  1  0  0  0
 19 24  1  0  0  0
 20 21  2  0  0  0
 20103  1  0  0  0
 21 23  1  0  0  0
 22 28  1  0  0  0
 22 32  2  0  0  0
 26 27  1  0  0  0
 28104  1  0  0  0
 28105  1  0  0  0
 29106  1  0  0  0
 29107  1  0  0  0
 33 34  1  0  0  0
 33 66  1  0  0  0
 33 70  2  0  0  0
 34 36  1  0  0  0
 34 59  1  0  0  0
 34108  1  0  0  0
 35 44  2  0  0  0
 35 45  1  0  0  0
 35 68  1  0  0  0
 36 56  1  0  0  0
 36109  1  0  0  0
 37 39  1  0  0  0
 37 47  1  0  0  0
 37 66  1  0  0  0
 37110  1  0  0  0
 38 43  2  0  0  0
 38 46  1  0  0  0
 38 47  1  0  0  0
 39 64  1  0  0  0
 39 67  2  0  0  0
 40 52  1  0  0  0
 40 53  2  0  0  0
 40 58  1  0  0  0
 41111  1  0  0  0
 41112  1  0  0  0
 41113  1  0  0  0
 41 48  1  0  0  0
 42 43  1  0  0  0
 42 66  1  0  0  0
 42114  1  0  0  0
 42115  1  0  0  0
 43 44  1  0  0  0
 44116  1  0  0  0
 45 46  2  0  0  0
 45117  1  0  0  0
 46118  1  0  0  0
 47119  1  0  0  0
 47120  1  0  0  0
 48 56  1  0  0  0
 48 65  1  0  0  0
 48121  1  0  0  0
 49 50  1  0  0  0
 49 53  1  0  0  0
 49 64  1  0  0  0
 49122  1  0  0  0
 50 51  1  0  0  0
 50123  1  0  0  0
 50124  1  0  0  0
 51 52  1  0  0  0
 51125  1  0  0  0
 51126  1  0  0  0
 52127  1  0  0  0
 52128  1  0  0  0
 53 54  1  0  0  0
 54 55  2  0  0  0
 54129  1  0  0  0
 55 57  1  0  0  0
 55130  1  0  0  0
 56 69  2  0  0  0
 57 58  2  0  0  0
 57131  1  0  0  0
 58132  1  0  0  0
 59 60  1  0  0  0
 59 61  1  0  0  0
 59 62  1  0  0  0
 60133  1  0  0  0
 60134  1  0  0  0
 60135  1  0  0  0
 61136  1  0  0  0
 61137  1  0  0  0
 61138  1  0  0  0
 62139  1  0  0  0
 62140  1  0  0  0
 62141  1  0  0  0
 63 65  1  0  0  0
 63142  1  0  0  0
 63143  1  0  0  0
 63144  1  0  0  0
 64145  1  0  0  0
 65146  1  0  0  0
 68 80  1  0  0  0
 71 73  2  0  0  0
 71 74  1  0  0  0
 71147  1  0  0  0
 72 73  1  0  0  0
 72 75  2  0  0  0
 72148  1  0  0  0
 73 82  1  0  0  0
 74 76  2  0  0  0
 74 83  1  0  0  0
 75 76  1  0  0  0
 75 84  1  0  0  0
 76 85  1  0  0  0
 77 78  1  0  0  0
 77 79  1  0  0  0
 77 80  2  0  0  0
 78 81  1  0  0  0
 78 86  2  0  0  0
 79 82  1  0  0  0
 79 87  2  0  0  0
 80149  1  0  0  0
 81 82  1  0  0  0
 81150  1  0  0  0
 81151  1  0  0  0
 83152  1  0  0  0
 83153  1  0  0  0
 84154  1  0  0  0
 84155  1  0  0  0
 85156  1  0  0  0
M  ISO  4   1 100  68 101  80 101  85 100
M  END
> <chiral flag>
0

> <version>
0

> <s_m_source_file>
/data/baiqing/PycharmProjects/Reinvent-master-3.2/result/LINK_invent/BTK/process_docking_weight1_custom_product_contain_oxygen_bond_distance_aromatic_linkinvent_7_9_3/rearranged_h_0086.sdf

> <i_m_source_file_index>
72

> <r_mmod_Potential_Energy-OPLS-2005>
16.6991004943848

> <r_mmod_Stretch_Energy-OPLS-2005>
92.9879150390625

> <r_mmod_Bend_Energy-OPLS-2005>
196.00456237793

> <r_mmod_Torsional_Energy-OPLS-2005>
271.898834228516

> <r_mmod_Improper_Torsional_Energy-OPLS-2005>
15.5907363891602

> <r_mmod_Van_der_Waal_Energy-OPLS-2005>
150.558792114258

> <r_mmod_Electrostatic_Energy-OPLS-2005>
-538.5390625

> <r_mmod_Solvation_Energy-OPLS-2005>
-238.097839355469

> <b_mmod_Minimization_Converged-OPLS-2005>
0

> <r_mmod_RMS_Derivative-OPLS-2005>
0.306821525096893

$$$$
72
                    3D
 Structure written by MMmdl.
152161  0  0  1  0            999 V2000
  -30.6325  -14.6388   20.5913 C   0  0  0  0  0  0
  -30.4444  -12.4158   19.4532 C   0  0  0  0  0  0
  -29.5118  -12.5330   18.2263 C   0  0  0  0  0  0
  -28.0345  -12.3566   18.6315 C   0  0  0  0  0  0
  -27.6574  -13.2129   19.8685 C   0  0  2  0  0  0
  -28.6956  -13.0295   20.9940 C   0  0  0  0  0  0
  -25.2575  -13.8155   20.5672 C   0  0  0  0  0  0
  -24.1828  -13.0428   20.9157 C   0  0  0  0  0  0
  -24.6390  -11.6898   20.8713 C   0  0  0  0  0  0
  -23.9059  -10.4287   21.0395 C   0  0  0  0  0  0
  -24.3612   -9.4204   21.9176 C   0  0  0  0  0  0
  -23.6283   -8.2244   22.0759 C   0  0  0  0  0  0
  -22.4265   -8.0279   21.3548 C   0  0  0  0  0  0
  -21.9893   -9.0251   20.4652 C   0  0  0  0  0  0
  -22.7229  -10.2125   20.3051 C   0  0  0  0  0  0
  -21.6850   -6.0731   22.5276 C   0  0  0  0  0  0
  -21.4017   -6.5638   23.8210 C   0  0  0  0  0  0
  -21.3663   -5.6791   24.9172 C   0  0  0  0  0  0
  -21.6042   -4.3053   24.7223 C   0  0  0  0  0  0
  -21.8822   -3.8143   23.4346 C   0  0  0  0  0  0
  -21.9193   -4.6959   22.3399 C   0  0  0  0  0  0
  -22.7854  -13.5232   21.1830 C   0  0  0  0  0  0
  -22.1661   -4.2146   21.0977 F   0  0  0  0  0  0
  -21.5625   -3.4535   25.7738 F   0  0  0  0  0  0
  -30.0147  -13.4144   20.4574 N   0  0  0  0  0  0
  -26.3002  -12.9331   20.3310 N   0  0  0  0  0  0
  -25.9319  -11.6488   20.5723 N   0  0  0  0  0  0
  -22.0505  -12.8231   22.0398 N   0  0  0  0  0  0
  -25.4311  -15.1877   20.4138 N   0  0  0  0  0  0
  -31.7243  -14.8435   20.0519 O   0  0  0  0  0  0
  -21.6636   -6.8870   21.4239 O   0  0  0  0  0  0
  -22.3542  -14.5545   20.6689 O   0  0  0  0  0  0
  -24.6257  -31.8596   23.2022 C   0  0  0  0  0  0
  -25.9104  -32.4779   23.8351 C   0  0  1  0  0  0
  -27.2295  -27.3291   20.1187 C   0  0  0  0  0  0
  -25.5918  -33.8582   24.2274 N   0  0  0  0  0  0
  -23.4202  -30.4816   21.5449 C   0  0  2  0  0  0
  -24.8703  -28.9366   20.1116 C   0  0  0  0  0  0
  -22.7470  -29.4617   22.4945 C   0  0  0  0  0  0
  -18.0282  -28.1373   22.8486 C   0  0  0  0  0  0
  -24.1490  -36.7300   23.2643 C   0  0  0  0  0  0
  -25.9607  -30.7938   21.3730 C   0  0  0  0  0  0
  -26.0389  -29.4214   20.7153 C   0  0  0  0  0  0
  -27.2251  -28.6281   20.7110 C   0  0  0  0  0  0
  -26.0433  -26.8936   19.4924 C   0  0  0  0  0  0
  -24.8732  -27.6767   19.4916 C   0  0  0  0  0  0
  -23.6356  -29.8138   20.1614 C   0  0  0  0  0  0
  -25.4116  -36.3084   24.0329 C   0  0  1  0  0  0
  -20.5882  -28.3678   23.1282 C   0  0  2  0  0  0
  -20.6770  -26.9403   22.5408 C   0  0  0  0  0  0
  -19.5749  -26.6376   21.5209 C   0  0  0  0  0  0
  -18.1927  -26.7916   22.1622 C   0  0  0  0  0  0
  -19.1535  -28.8844   23.2878 C   0  0  0  0  0  0
  -18.9461  -30.1448   23.8894 C   0  0  0  0  0  0
  -17.6462  -30.6579   24.0563 C   0  0  0  0  0  0
  -25.9049  -34.9455   23.5102 C   0  0  0  0  0  0
  -16.5350  -29.9080   23.6329 C   0  0  0  0  0  0
  -16.7271  -28.6495   23.0354 C   0  0  0  0  0  0
  -26.4490  -31.6592   25.0725 C   0  0  0  0  0  0
  -25.3726  -31.3741   26.1453 C   0  0  0  0  0  0
  -27.0336  -30.3016   24.6187 C   0  0  0  0  0  0
  -27.6040  -32.4339   25.7494 C   0  0  0  0  0  0
  -27.5573  -37.1811   24.8468 C   0  0  0  0  0  0
  -21.4184  -29.3033   22.3681 N   0  0  0  0  0  0
  -26.4297  -37.3774   23.9396 N   0  0  0  0  0  0
  -24.6875  -31.0611   22.0971 N   0  0  0  0  0  0
  -23.4191  -28.8162   23.3029 O   0  0  0  0  0  0
  -28.3143  -26.4439   20.1473 O   0  0  0  0  0  0
  -26.5623  -34.8920   22.4671 O   0  0  0  0  0  0
  -23.5421  -32.1383   23.7356 O   0  0  0  0  0  0
  -30.8904  -19.1036   18.3804 C   0  0  0  0  0  0
  -30.6526  -18.0015   19.2198 C   0  0  0  0  0  0
  -30.4651  -20.3997   18.7376 C   0  0  0  0  0  0
  -29.9813  -18.1801   20.4411 C   0  0  0  0  0  0
  -29.7748  -20.6912   19.9400 C   0  0  0  0  0  0
  -29.5520  -19.5277   20.7731 C   0  0  0  0  0  0
  -28.6087  -23.9463   20.5313 C   0  0  0  0  0  0
  -29.5452  -23.3693   19.5844 C   0  0  0  0  0  0
  -29.7197  -17.0062   21.3700 C   0  0  0  0  0  0
  -28.0829  -25.1994   20.7673 C   0  0  0  0  0  0
  -29.9412  -15.6422   21.4497 C   0  0  0  0  0  0
  -28.4017  -22.5546   21.1665 C   0  0  0  0  0  0
  -29.4037  -22.0959   20.1902 N   0  0  0  0  0  0
  -30.1320  -23.8472   18.6356 O   0  0  0  0  0  0
  -28.9069  -19.7174   21.9507 F   0  0  0  0  0  0
  -31.4837  -12.5541   19.1514 H   0  0  0  0  0  0
  -30.3949  -11.4123   19.8775 H   0  0  0  0  0  0
  -29.7848  -11.7921   17.4737 H   0  0  0  0  0  0
  -29.6476  -13.5096   17.7587 H   0  0  0  0  0  0
  -27.8730  -11.3003   18.8515 H   0  0  0  0  0  0
  -27.3798  -12.5953   17.7929 H   0  0  0  0  0  0
  -27.6897  -14.2563   19.5537 H   0  0  0  0  0  0
  -28.7173  -11.9887   21.3196 H   0  0  0  0  0  0
  -28.3923  -13.5879   21.8760 H   0  0  0  0  0  0
  -25.2761   -9.5680   22.4743 H   0  0  0  0  0  0
  -23.9994   -7.4637   22.7477 H   0  0  0  0  0  0
  -21.0822   -8.8769   19.8957 H   0  0  0  0  0  0
  -22.3688  -10.9662   19.6154 H   0  0  0  0  0  0
  -21.2018   -7.6147   23.9711 H   0  0  0  0  0  0
  -21.1481   -6.0522   25.9073 H   0  0  0  0  0  0
  -22.0600   -2.7605   23.2847 H   0  0  0  0  0  0
  -22.4123  -11.9891   22.4782 H   0  0  0  0  0  0
  -21.1135  -13.1272   22.2628 H   0  0  0  0  0  0
  -24.6726  -15.8486   20.5393 H   0  0  0  0  0  0
  -26.2991  -15.6280   20.1353 H   0  0  0  0  0  0
  -26.7175  -32.5455   23.1104 H   0  0  0  0  0  0
  -25.0046  -33.9726   25.0407 H   0  0  0  0  0  0
  -22.7135  -31.3016   21.4007 H   0  0  0  0  0  0
  -23.3738  -35.9648   23.3336 H   0  0  0  0  0  0
  -24.3570  -36.8890   22.2048 H   0  0  0  0  0  0
  -23.7268  -37.6523   23.6647 H   0  0  0  0  0  0
  -26.0907  -31.5586   20.6065 H   0  0  0  0  0  0
  -26.8403  -30.8421   22.0033 H   0  0  0  0  0  0
  -28.1222  -28.9921   21.1918 H   0  0  0  0  0  0
  -26.0167  -25.9214   19.0215 H   0  0  0  0  0  0
  -23.9774  -27.2973   19.0195 H   0  0  0  0  0  0
  -23.7506  -30.5887   19.4029 H   0  0  0  0  0  0
  -22.7566  -29.2399   19.8620 H   0  0  0  0  0  0
  -25.1300  -36.1939   25.0823 H   0  0  0  0  0  0
  -20.9970  -28.3253   24.1405 H   0  0  0  0  0  0
  -20.5662  -26.2290   23.3609 H   0  0  0  0  0  0
  -21.6642  -26.7430   22.1211 H   0  0  0  0  0  0
  -19.6917  -25.6286   21.1239 H   0  0  0  0  0  0
  -19.6687  -27.3188   20.6740 H   0  0  0  0  0  0
  -17.4196  -26.6657   21.4025 H   0  0  0  0  0  0
  -18.0338  -26.0055   22.9017 H   0  0  0  0  0  0
  -19.7940  -30.7263   24.2260 H   0  0  0  0  0  0
  -17.5019  -31.6263   24.5160 H   0  0  0  0  0  0
  -15.5351  -30.2985   23.7656 H   0  0  0  0  0  0
  -15.8667  -28.0816   22.7075 H   0  0  0  0  0  0
  -24.5878  -30.7116   25.7783 H   0  0  0  0  0  0
  -24.8946  -32.2918   26.4893 H   0  0  0  0  0  0
  -25.8045  -30.8899   27.0218 H   0  0  0  0  0  0
  -26.2913  -29.6766   24.1203 H   0  0  0  0  0  0
  -27.4020  -29.7273   25.4698 H   0  0  0  0  0  0
  -27.8787  -30.4299   23.9419 H   0  0  0  0  0  0
  -27.2632  -33.3630   26.2072 H   0  0  0  0  0  0
  -28.3842  -32.6918   25.0321 H   0  0  0  0  0  0
  -28.0718  -31.8474   26.5409 H   0  0  0  0  0  0
  -28.2620  -38.0078   24.7470 H   0  0  0  0  0  0
  -28.1037  -36.2607   24.6350 H   0  0  0  0  0  0
  -27.2282  -37.1532   25.8870 H   0  0  0  0  0  0
  -20.9362  -29.8751   21.6889 H   0  0  0  0  0  0
  -26.0181  -38.2857   24.1366 H   0  0  0  0  0  0
  -31.4099  -18.9557   17.4440 H   0  0  0  0  0  0
  -30.9911  -17.0231   18.9140 H   0  0  0  0  0  0
  -30.6838  -21.2014   18.0469 H   0  0  0  0  0  0
  -29.1853  -17.3502   22.2442 H   0  0  0  0  0  0
  -27.3650  -25.3117   21.5684 H   0  0  0  0  0  0
  -29.5540  -15.2283   22.3680 H   0  0  0  0  0  0
  -27.4344  -22.0728   21.0124 H   0  0  0  0  0  0
  -28.7384  -22.4144   22.1949 H   0  0  0  0  0  0
  1 25  1  0  0  0
  1 30  2  0  0  0
  1 81  1  0  0  0
  2  3  1  0  0  0
  2 25  1  0  0  0
  2 86  1  0  0  0
  2 87  1  0  0  0
  3  4  1  0  0  0
  3 88  1  0  0  0
  3 89  1  0  0  0
  4  5  1  0  0  0
  4 90  1  0  0  0
  4 91  1  0  0  0
  5  6  1  0  0  0
  5 26  1  0  0  0
  5 92  1  0  0  0
  6 25  1  0  0  0
  6 93  1  0  0  0
  6 94  1  0  0  0
  7  8  2  0  0  0
  7 26  1  0  0  0
  7 29  1  0  0  0
  8  9  1  0  0  0
  8 22  1  0  0  0
  9 10  1  0  0  0
  9 27  2  0  0  0
 10 11  2  0  0  0
 10 15  1  0  0  0
 11 12  1  0  0  0
 11 95  1  0  0  0
 12 13  2  0  0  0
 12 96  1  0  0  0
 13 14  1  0  0  0
 13 31  1  0  0  0
 14 15  2  0  0  0
 14 97  1  0  0  0
 15 98  1  0  0  0
 16 17  2  0  0  0
 16 21  1  0  0  0
 16 31  1  0  0  0
 17 18  1  0  0  0
 17 99  1  0  0  0
 18 19  2  0  0  0
 18100  1  0  0  0
 19 20  1  0  0  0
 19 24  1  0  0  0
 20 21  2  0  0  0
 20101  1  0  0  0
 21 23  1  0  0  0
 22 28  1  0  0  0
 22 32  2  0  0  0
 26 27  1  0  0  0
 28102  1  0  0  0
 28103  1  0  0  0
 29104  1  0  0  0
 29105  1  0  0  0
 33 34  1  0  0  0
 33 66  1  0  0  0
 33 70  2  0  0  0
 34 36  1  0  0  0
 34 59  1  0  0  0
 34106  1  0  0  0
 35 44  2  0  0  0
 35 45  1  0  0  0
 35 68  1  0  0  0
 36 56  1  0  0  0
 36107  1  0  0  0
 37 39  1  0  0  0
 37 47  1  0  0  0
 37 66  1  0  0  0
 37108  1  0  0  0
 38 43  2  0  0  0
 38 46  1  0  0  0
 38 47  1  0  0  0
 39 64  1  0  0  0
 39 67  2  0  0  0
 40 52  1  0  0  0
 40 53  2  0  0  0
 40 58  1  0  0  0
 41109  1  0  0  0
 41110  1  0  0  0
 41111  1  0  0  0
 41 48  1  0  0  0
 42 43  1  0  0  0
 42 66  1  0  0  0
 42112  1  0  0  0
 42113  1  0  0  0
 43 44  1  0  0  0
 44114  1  0  0  0
 45 46  2  0  0  0
 45115  1  0  0  0
 46116  1  0  0  0
 47117  1  0  0  0
 47118  1  0  0  0
 48 56  1  0  0  0
 48 65  1  0  0  0
 48119  1  0  0  0
 49 50  1  0  0  0
 49 53  1  0  0  0
 49 64  1  0  0  0
 49120  1  0  0  0
 50 51  1  0  0  0
 50121  1  0  0  0
 50122  1  0  0  0
 51 52  1  0  0  0
 51123  1  0  0  0
 51124  1  0  0  0
 52125  1  0  0  0
 52126  1  0  0  0
 53 54  1  0  0  0
 54 55  2  0  0  0
 54127  1  0  0  0
 55 57  1  0  0  0
 55128  1  0  0  0
 56 69  2  0  0  0
 57 58  2  0  0  0
 57129  1  0  0  0
 58130  1  0  0  0
 59 60  1  0  0  0
 59 61  1  0  0  0
 59 62  1  0  0  0
 60131  1  0  0  0
 60132  1  0  0  0
 60133  1  0  0  0
 61134  1  0  0  0
 61135  1  0  0  0
 61136  1  0  0  0
 62137  1  0  0  0
 62138  1  0  0  0
 62139  1  0  0  0
 63 65  1  0  0  0
 63140  1  0  0  0
 63141  1  0  0  0
 63142  1  0  0  0
 64143  1  0  0  0
 65144  1  0  0  0
 68 80  1  0  0  0
 71 72  2  0  0  0
 71 73  1  0  0  0
 71145  1  0  0  0
 72 74  1  0  0  0
 72146  1  0  0  0
 73 75  2  0  0  0
 73147  1  0  0  0
 74 76  2  0  0  0
 74 79  1  0  0  0
 75 76  1  0  0  0
 75 83  1  0  0  0
 76 85  1  0  0  0
 77 78  1  0  0  0
 77 80  2  0  0  0
 77 82  1  0  0  0
 78 83  1  0  0  0
 78 84  2  0  0  0
 79 81  2  0  0  0
 79148  1  0  0  0
 80149  1  0  0  0
 81150  1  0  0  0
 82 83  1  0  0  0
 82151  1  0  0  0
 82152  1  0  0  0
M  ISO  4   1 100  68 101  80 101  81 100
M  END
> <chiral flag>
0

> <version>
0

> <s_m_source_file>
/data/baiqing/PycharmProjects/Reinvent-master-3.2/result/LINK_invent/BTK/process_docking_weight1_custom_product_contain_oxygen_bond_distance_aromatic_linkinvent_7_9_3/rearranged_h_0086.sdf

> <i_m_source_file_index>
73

> <r_mmod_Potential_Energy-OPLS-2005>
199.656204223633

> <r_mmod_Stretch_Energy-OPLS-2005>
80.7240447998047

> <r_mmod_Bend_Energy-OPLS-2005>
254.75114440918

> <r_mmod_Torsional_Energy-OPLS-2005>
191.486679077148

> <r_mmod_Improper_Torsional_Energy-OPLS-2005>
2.80231404304504

> <r_mmod_Van_der_Waal_Energy-OPLS-2005>
140.014373779297

> <r_mmod_Electrostatic_Energy-OPLS-2005>
-313.307312011719

> <r_mmod_Solvation_Energy-OPLS-2005>
-204.371520996094

> <b_mmod_Minimization_Converged-OPLS-2005>
0

> <r_mmod_RMS_Derivative-OPLS-2005>
1.00385189056396

$$$$
73
                    3D
 Structure written by MMmdl.
156164  0  0  1  0            999 V2000
  -30.6900  -14.4674   20.5587 C   0  0  0  0  0  0
  -30.4298  -12.2929   19.4347 C   0  0  0  0  0  0
  -29.5014  -12.4915   18.2174 C   0  0  0  0  0  0
  -28.0234  -12.3518   18.6308 C   0  0  0  0  0  0
  -27.6695  -13.1981   19.8831 C   0  0  2  0  0  0
  -28.7073  -12.9783   21.0065 C   0  0  0  0  0  0
  -25.2652  -13.8158   20.5704 C   0  0  0  0  0  0
  -24.1879  -13.0448   20.9165 C   0  0  0  0  0  0
  -24.6406  -11.6910   20.8726 C   0  0  0  0  0  0
  -23.9059  -10.4301   21.0395 C   0  0  0  0  0  0
  -24.3617   -9.4225   21.9181 C   0  0  0  0  0  0
  -23.6294   -8.2257   22.0774 C   0  0  0  0  0  0
  -22.4276   -8.0288   21.3556 C   0  0  0  0  0  0
  -21.9900   -9.0257   20.4657 C   0  0  0  0  0  0
  -22.7224  -10.2137   20.3057 C   0  0  0  0  0  0
  -21.6854   -6.0735   22.5275 C   0  0  0  0  0  0
  -21.4012   -6.5646   23.8206 C   0  0  0  0  0  0
  -21.3651   -5.6805   24.9173 C   0  0  0  0  0  0
  -21.6043   -4.3068   24.7223 C   0  0  0  0  0  0
  -21.8819   -3.8152   23.4346 C   0  0  0  0  0  0
  -21.9196   -4.6963   22.3400 C   0  0  0  0  0  0
  -22.7902  -13.5256   21.1810 C   0  0  0  0  0  0
  -22.1664   -4.2146   21.0976 F   0  0  0  0  0  0
  -21.5621   -3.4557   25.7736 F   0  0  0  0  0  0
  -30.0444  -13.2745   20.4605 N   0  0  0  0  0  0
  -26.3078  -12.9301   20.3409 N   0  0  0  0  0  0
  -25.9336  -11.6477   20.5786 N   0  0  0  0  0  0
  -22.0537  -12.8256   22.0370 N   0  0  0  0  0  0
  -25.4418  -15.1877   20.4153 N   0  0  0  0  0  0
  -31.8000  -14.6763   20.0595 O   0  0  0  0  0  0
  -21.6646   -6.8882   21.4239 O   0  0  0  0  0  0
  -22.3587  -14.5562   20.6656 O   0  0  0  0  0  0
  -24.6164  -31.8696   23.2115 C   0  0  0  0  0  0
  -25.9069  -32.4829   23.8398 C   0  0  1  0  0  0
  -27.2367  -27.4317   20.0844 C   0  0  0  0  0  0
  -25.5937  -33.8625   24.2337 N   0  0  0  0  0  0
  -23.4014  -30.4943   21.5538 C   0  0  2  0  0  0
  -24.8450  -28.9600   20.1197 C   0  0  0  0  0  0
  -22.7398  -29.4675   22.5002 C   0  0  0  0  0  0
  -18.0304  -28.1345   22.8485 C   0  0  0  0  0  0
  -24.1493  -36.7320   23.2628 C   0  0  0  0  0  0
  -25.9318  -30.8335   21.3643 C   0  0  0  0  0  0
  -26.0070  -29.4666   20.7123 C   0  0  0  0  0  0
  -27.2009  -28.7091   20.6937 C   0  0  0  0  0  0
  -26.0416  -26.9305   19.5117 C   0  0  0  0  0  0
  -24.8562  -27.6882   19.5251 C   0  0  0  0  0  0
  -23.6098  -29.8307   20.1672 C   0  0  0  0  0  0
  -25.4114  -36.3113   24.0328 C   0  0  1  0  0  0
  -20.5878  -28.3672   23.1345 C   0  0  2  0  0  0
  -20.6834  -26.9415   22.5439 C   0  0  0  0  0  0
  -19.5836  -26.6401   21.5211 C   0  0  0  0  0  0
  -18.2002  -26.7913   22.1602 C   0  0  0  0  0  0
  -19.1534  -28.8825   23.2918 C   0  0  0  0  0  0
  -18.9435  -30.1433   23.8911 C   0  0  0  0  0  0
  -17.6421  -30.6555   24.0526 C   0  0  0  0  0  0
  -25.9034  -34.9474   23.5120 C   0  0  0  0  0  0
  -16.5332  -29.9026   23.6259 C   0  0  0  0  0  0
  -16.7294  -28.6444   23.0303 C   0  0  0  0  0  0
  -26.4506  -31.6594   25.0718 C   0  0  0  0  0  0
  -25.3782  -31.3695   26.1472 C   0  0  0  0  0  0
  -27.0328  -30.3039   24.6085 C   0  0  0  0  0  0
  -27.6086  -32.4312   25.7489 C   0  0  0  0  0  0
  -27.5580  -37.1815   24.8455 C   0  0  0  0  0  0
  -21.4122  -29.3054   22.3753 N   0  0  0  0  0  0
  -26.4296  -37.3789   23.9389 N   0  0  0  0  0  0
  -24.6686  -31.0786   22.1033 N   0  0  0  0  0  0
  -23.4171  -28.8233   23.3054 O   0  0  0  0  0  0
  -28.4350  -26.7395   20.0811 O   0  0  0  0  0  0
  -26.5561  -34.8923   22.4661 O   0  0  0  0  0  0
  -23.5363  -32.1478   23.7506 O   0  0  0  0  0  0
  -29.7349  -18.4799   18.9216 C   0  0  0  0  0  0
  -30.1020  -17.1942   19.3709 C   0  0  0  0  0  0
  -28.8135  -18.9973   21.1095 C   0  0  0  0  0  0
  -29.0725  -19.3894   19.7763 C   0  0  0  0  0  0
  -29.7994  -16.7848   20.6919 C   0  0  0  0  0  0
  -29.1671  -17.7063   21.5572 C   0  0  0  0  0  0
  -28.5308  -20.6813   19.2182 C   0  0  0  0  0  0
  -28.5611  -24.2691   20.2289 C   0  0  0  0  0  0
  -26.3745  -22.9375   20.2428 C   0  0  0  0  0  0
  -28.5653  -25.5206   19.3258 C   0  0  0  0  0  0
  -27.8176  -23.0185   19.7127 C   0  0  2  0  0  0
  -29.9937  -15.4477   21.1579 N   0  0  0  0  0  0
  -28.5203  -21.7585   20.0196 N   0  0  0  0  0  0
  -28.1143  -20.7164   18.0584 O   0  0  0  0  0  0
  -29.1496  -24.2799   21.3166 O   0  0  0  0  0  0
  -28.8601  -17.3344   22.8239 F   0  0  0  0  0  0
  -31.4752  -12.3919   19.1364 H   0  0  0  0  0  0
  -30.3333  -11.2816   19.8341 H   0  0  0  0  0  0
  -29.7426  -11.7590   17.4461 H   0  0  0  0  0  0
  -29.6746  -13.4747   17.7762 H   0  0  0  0  0  0
  -27.8422  -11.2958   18.8392 H   0  0  0  0  0  0
  -27.3699  -12.6141   17.7982 H   0  0  0  0  0  0
  -27.7185  -14.2450   19.5847 H   0  0  0  0  0  0
  -28.6778  -11.9477   21.3615 H   0  0  0  0  0  0
  -28.4627  -13.5855   21.8786 H   0  0  0  0  0  0
  -25.2756   -9.5714   22.4767 H   0  0  0  0  0  0
  -23.9997   -7.4663   22.7520 H   0  0  0  0  0  0
  -21.0827   -8.8783   19.8974 H   0  0  0  0  0  0
  -22.3676  -10.9691   19.6187 H   0  0  0  0  0  0
  -21.2005   -7.6155   23.9704 H   0  0  0  0  0  0
  -21.1474   -6.0539   25.9074 H   0  0  0  0  0  0
  -22.0602   -2.7616   23.2849 H   0  0  0  0  0  0
  -22.4110  -11.9880   22.4720 H   0  0  0  0  0  0
  -21.1179  -13.1345   22.2604 H   0  0  0  0  0  0
  -24.6851  -15.8500   20.5419 H   0  0  0  0  0  0
  -26.3079  -15.6297   20.1323 H   0  0  0  0  0  0
  -26.7131  -32.5547   23.1155 H   0  0  0  0  0  0
  -25.0147  -33.9772   25.0523 H   0  0  0  0  0  0
  -22.6895  -31.3106   21.4185 H   0  0  0  0  0  0
  -23.3743  -35.9665   23.3312 H   0  0  0  0  0  0
  -24.3584  -36.8915   22.2040 H   0  0  0  0  0  0
  -23.7270  -37.6538   23.6632 H   0  0  0  0  0  0
  -26.0427  -31.6006   20.5967 H   0  0  0  0  0  0
  -26.8215  -30.8882   21.9806 H   0  0  0  0  0  0
  -28.1036  -29.1037   21.1427 H   0  0  0  0  0  0
  -25.9839  -25.9545   19.0583 H   0  0  0  0  0  0
  -23.9548  -27.2874   19.0827 H   0  0  0  0  0  0
  -23.7225  -30.6090   19.4125 H   0  0  0  0  0  0
  -22.7325  -29.2572   19.8651 H   0  0  0  0  0  0
  -25.1301  -36.1974   25.0823 H   0  0  0  0  0  0
  -20.9977  -28.3267   24.1457 H   0  0  0  0  0  0
  -20.5763  -26.2246   23.3610 H   0  0  0  0  0  0
  -21.6720  -26.7496   22.1236 H   0  0  0  0  0  0
  -19.6994  -25.6332   21.1208 H   0  0  0  0  0  0
  -19.6783  -27.3214   20.6751 H   0  0  0  0  0  0
  -17.4265  -26.6668   21.4006 H   0  0  0  0  0  0
  -18.0401  -26.0049   22.8977 H   0  0  0  0  0  0
  -19.7888  -30.7278   24.2272 H   0  0  0  0  0  0
  -17.4942  -31.6243   24.5079 H   0  0  0  0  0  0
  -15.5325  -30.2907   23.7526 H   0  0  0  0  0  0
  -15.8739  -28.0734   22.6959 H   0  0  0  0  0  0
  -24.5938  -30.7055   25.7809 H   0  0  0  0  0  0
  -24.8978  -32.2852   26.4939 H   0  0  0  0  0  0
  -25.8142  -30.8840   27.0215 H   0  0  0  0  0  0
  -26.2856  -29.6801   24.1156 H   0  0  0  0  0  0
  -27.4130  -29.7276   25.4523 H   0  0  0  0  0  0
  -27.8684  -30.4375   23.9213 H   0  0  0  0  0  0
  -27.2713  -33.3594   26.2107 H   0  0  0  0  0  0
  -28.3880  -32.6897   25.0313 H   0  0  0  0  0  0
  -28.0789  -31.8420   26.5366 H   0  0  0  0  0  0
  -28.2620  -38.0099   24.7492 H   0  0  0  0  0  0
  -28.1066  -36.2624   24.6311 H   0  0  0  0  0  0
  -27.2284  -37.1508   25.8857 H   0  0  0  0  0  0
  -20.9261  -29.8741   21.6969 H   0  0  0  0  0  0
  -26.0192  -38.2874   24.1369 H   0  0  0  0  0  0
  -29.9230  -18.7498   17.8901 H   0  0  0  0  0  0
  -30.5713  -16.5208   18.6682 H   0  0  0  0  0  0
  -28.2895  -19.6593   21.7837 H   0  0  0  0  0  0
  -25.8391  -22.0985   19.7985 H   0  0  0  0  0  0
  -25.8098  -23.8402   20.0143 H   0  0  0  0  0  0
  -26.3539  -22.8053   21.3268 H   0  0  0  0  0  0
  -27.8471  -25.4295   18.5131 H   0  0  0  0  0  0
  -29.5385  -25.5484   18.8343 H   0  0  0  0  0  0
  -27.7525  -23.1265   18.6284 H   0  0  0  0  0  0
  -29.2819  -15.1342   21.8004 H   0  0  0  0  0  0
  -28.9676  -21.6923   20.9236 H   0  0  0  0  0  0
  1 25  1  0  0  0
  1 30  2  0  0  0
  1 82  1  0  0  0
  2  3  1  0  0  0
  2 25  1  0  0  0
  2 87  1  0  0  0
  2 88  1  0  0  0
  3  4  1  0  0  0
  3 89  1  0  0  0
  3 90  1  0  0  0
  4  5  1  0  0  0
  4 91  1  0  0  0
  4 92  1  0  0  0
  5  6  1  0  0  0
  5 26  1  0  0  0
  5 93  1  0  0  0
  6 25  1  0  0  0
  6 94  1  0  0  0
  6 95  1  0  0  0
  7  8  2  0  0  0
  7 26  1  0  0  0
  7 29  1  0  0  0
  8  9  1  0  0  0
  8 22  1  0  0  0
  9 10  1  0  0  0
  9 27  2  0  0  0
 10 11  2  0  0  0
 10 15  1  0  0  0
 11 12  1  0  0  0
 11 96  1  0  0  0
 12 13  2  0  0  0
 12 97  1  0  0  0
 13 14  1  0  0  0
 13 31  1  0  0  0
 14 15  2  0  0  0
 14 98  1  0  0  0
 15 99  1  0  0  0
 16 17  2  0  0  0
 16 21  1  0  0  0
 16 31  1  0  0  0
 17 18  1  0  0  0
 17100  1  0  0  0
 18 19  2  0  0  0
 18101  1  0  0  0
 19 20  1  0  0  0
 19 24  1  0  0  0
 20 21  2  0  0  0
 20102  1  0  0  0
 21 23  1  0  0  0
 22 28  1  0  0  0
 22 32  2  0  0  0
 26 27  1  0  0  0
 28103  1  0  0  0
 28104  1  0  0  0
 29105  1  0  0  0
 29106  1  0  0  0
 33 34  1  0  0  0
 33 66  1  0  0  0
 33 70  2  0  0  0
 34 36  1  0  0  0
 34 59  1  0  0  0
 34107  1  0  0  0
 35 44  2  0  0  0
 35 45  1  0  0  0
 35 68  1  0  0  0
 36 56  1  0  0  0
 36108  1  0  0  0
 37 39  1  0  0  0
 37 47  1  0  0  0
 37 66  1  0  0  0
 37109  1  0  0  0
 38 43  2  0  0  0
 38 46  1  0  0  0
 38 47  1  0  0  0
 39 64  1  0  0  0
 39 67  2  0  0  0
 40 52  1  0  0  0
 40 53  2  0  0  0
 40 58  1  0  0  0
 41110  1  0  0  0
 41111  1  0  0  0
 41112  1  0  0  0
 41 48  1  0  0  0
 42 43  1  0  0  0
 42 66  1  0  0  0
 42113  1  0  0  0
 42114  1  0  0  0
 43 44  1  0  0  0
 44115  1  0  0  0
 45 46  2  0  0  0
 45116  1  0  0  0
 46117  1  0  0  0
 47118  1  0  0  0
 47119  1  0  0  0
 48 56  1  0  0  0
 48 65  1  0  0  0
 48120  1  0  0  0
 49 50  1  0  0  0
 49 53  1  0  0  0
 49 64  1  0  0  0
 49121  1  0  0  0
 50 51  1  0  0  0
 50122  1  0  0  0
 50123  1  0  0  0
 51 52  1  0  0  0
 51124  1  0  0  0
 51125  1  0  0  0
 52126  1  0  0  0
 52127  1  0  0  0
 53 54  1  0  0  0
 54 55  2  0  0  0
 54128  1  0  0  0
 55 57  1  0  0  0
 55129  1  0  0  0
 56 69  2  0  0  0
 57 58  2  0  0  0
 57130  1  0  0  0
 58131  1  0  0  0
 59 60  1  0  0  0
 59 61  1  0  0  0
 59 62  1  0  0  0
 60132  1  0  0  0
 60133  1  0  0  0
 60134  1  0  0  0
 61135  1  0  0  0
 61136  1  0  0  0
 61137  1  0  0  0
 62138  1  0  0  0
 62139  1  0  0  0
 62140  1  0  0  0
 63 65  1  0  0  0
 63141  1  0  0  0
 63142  1  0  0  0
 63143  1  0  0  0
 64144  1  0  0  0
 65145  1  0  0  0
 68 80  1  0  0  0
 71 72  2  0  0  0
 71 74  1  0  0  0
 71146  1  0  0  0
 72 75  1  0  0  0
 72147  1  0  0  0
 73 74  2  0  0  0
 73 76  1  0  0  0
 73148  1  0  0  0
 74 77  1  0  0  0
 75 76  2  0  0  0
 75 82  1  0  0  0
 76 86  1  0  0  0
 77 83  1  0  0  0
 77 84  2  0  0  0
 78 80  1  0  0  0
 78 81  1  0  0  0
 78 85  2  0  0  0
 79149  1  0  0  0
 79150  1  0  0  0
 79151  1  0  0  0
 79 81  1  0  0  0
 80152  1  0  0  0
 80153  1  0  0  0
 81 83  1  0  0  0
 81154  1  0  0  0
 82155  1  0  0  0
 83156  1  0  0  0
M  ISO  4   1 100  68 101  80 101  82 100
M  END
> <chiral flag>
0

> <version>
0

> <s_m_source_file>
/data/baiqing/PycharmProjects/Reinvent-master-3.2/result/LINK_invent/BTK/process_docking_weight1_custom_product_contain_oxygen_bond_distance_aromatic_linkinvent_7_9_3/rearranged_h_0086.sdf

> <i_m_source_file_index>
74

> <r_mmod_Potential_Energy-OPLS-2005>
-153.429046630859

> <r_mmod_Stretch_Energy-OPLS-2005>
37.5583534240723

> <r_mmod_Bend_Energy-OPLS-2005>
101.713005065918

> <r_mmod_Torsional_Energy-OPLS-2005>
245.756622314453

> <r_mmod_Improper_Torsional_Energy-OPLS-2005>
4.90842008590698

> <r_mmod_Van_der_Waal_Energy-OPLS-2005>
154.838470458984

> <r_mmod_Electrostatic_Energy-OPLS-2005>
-473.815002441406

> <r_mmod_Solvation_Energy-OPLS-2005>
-236.885818481445

> <b_mmod_Minimization_Converged-OPLS-2005>
0

> <r_mmod_RMS_Derivative-OPLS-2005>
2.7986843585968

$$$$
74
                    3D
 Structure written by MMmdl.
156165  0  0  1  0            999 V2000
  -30.6222  -14.6498   20.4961 C   0  0  0  0  0  0
  -30.4384  -12.3972   19.4554 C   0  0  0  0  0  0
  -29.5081  -12.5092   18.2270 C   0  0  0  0  0  0
  -28.0314  -12.3455   18.6396 C   0  0  0  0  0  0
  -27.6535  -13.2184   19.8658 C   0  0  2  0  0  0
  -28.6991  -13.0787   20.9956 C   0  0  0  0  0  0
  -25.2553  -13.8170   20.5692 C   0  0  0  0  0  0
  -24.1818  -13.0431   20.9172 C   0  0  0  0  0  0
  -24.6393  -11.6905   20.8729 C   0  0  0  0  0  0
  -23.9061  -10.4289   21.0396 C   0  0  0  0  0  0
  -24.3612   -9.4207   21.9178 C   0  0  0  0  0  0
  -23.6288   -8.2242   22.0751 C   0  0  0  0  0  0
  -22.4269   -8.0279   21.3542 C   0  0  0  0  0  0
  -21.9904   -9.0252   20.4646 C   0  0  0  0  0  0
  -22.7232  -10.2131   20.3051 C   0  0  0  0  0  0
  -21.6852   -6.0732   22.5277 C   0  0  0  0  0  0
  -21.4014   -6.5635   23.8210 C   0  0  0  0  0  0
  -21.3660   -5.6788   24.9173 C   0  0  0  0  0  0
  -21.6044   -4.3052   24.7224 C   0  0  0  0  0  0
  -21.8820   -3.8143   23.4345 C   0  0  0  0  0  0
  -21.9194   -4.6960   22.3401 C   0  0  0  0  0  0
  -22.7841  -13.5225   21.1845 C   0  0  0  0  0  0
  -22.1663   -4.2146   21.0979 F   0  0  0  0  0  0
  -21.5629   -3.4536   25.7738 F   0  0  0  0  0  0
  -30.0145  -13.4218   20.4310 N   0  0  0  0  0  0
  -26.2992  -12.9358   20.3344 N   0  0  0  0  0  0
  -25.9326  -11.6509   20.5761 N   0  0  0  0  0  0
  -22.0490  -12.8219   22.0410 N   0  0  0  0  0  0
  -25.4250  -15.1893   20.4154 N   0  0  0  0  0  0
  -31.7850  -14.8061   20.1123 O   0  0  0  0  0  0
  -21.6635   -6.8874   21.4238 O   0  0  0  0  0  0
  -22.3522  -14.5534   20.6701 O   0  0  0  0  0  0
  -24.6270  -31.8598   23.2034 C   0  0  0  0  0  0
  -25.9118  -32.4778   23.8361 C   0  0  1  0  0  0
  -27.2234  -27.3149   20.1117 C   0  0  0  0  0  0
  -25.5933  -33.8581   24.2287 N   0  0  0  0  0  0
  -23.4204  -30.4844   21.5470 C   0  0  2  0  0  0
  -24.8664  -28.9422   20.1104 C   0  0  0  0  0  0
  -22.7477  -29.4625   22.4946 C   0  0  0  0  0  0
  -18.0283  -28.1387   22.8489 C   0  0  0  0  0  0
  -24.1482  -36.7287   23.2634 C   0  0  0  0  0  0
  -25.9629  -30.7888   21.3761 C   0  0  0  0  0  0
  -26.0364  -29.4169   20.7161 C   0  0  0  0  0  0
  -27.2174  -28.6149   20.7084 C   0  0  0  0  0  0
  -26.0283  -26.9002   19.4764 C   0  0  0  0  0  0
  -24.8646  -27.6892   19.4824 C   0  0  0  0  0  0
  -23.6346  -29.8221   20.1615 C   0  0  0  0  0  0
  -25.4106  -36.3083   24.0329 C   0  0  1  0  0  0
  -20.5884  -28.3691   23.1286 C   0  0  2  0  0  0
  -20.6771  -26.9415   22.5413 C   0  0  0  0  0  0
  -19.5746  -26.6385   21.5216 C   0  0  0  0  0  0
  -18.1924  -26.7934   22.1623 C   0  0  0  0  0  0
  -19.1536  -28.8857   23.2881 C   0  0  0  0  0  0
  -18.9459  -30.1462   23.8893 C   0  0  0  0  0  0
  -17.6459  -30.6592   24.0561 C   0  0  0  0  0  0
  -25.9049  -34.9452   23.5105 C   0  0  0  0  0  0
  -16.5350  -29.9088   23.6334 C   0  0  0  0  0  0
  -16.7270  -28.6504   23.0358 C   0  0  0  0  0  0
  -26.4495  -31.6589   25.0734 C   0  0  0  0  0  0
  -25.3726  -31.3743   26.1465 C   0  0  0  0  0  0
  -27.0327  -30.3006   24.6194 C   0  0  0  0  0  0
  -27.6061  -32.4318   25.7499 C   0  0  0  0  0  0
  -27.5584  -37.1782   24.8451 C   0  0  0  0  0  0
  -21.4191  -29.3044   22.3685 N   0  0  0  0  0  0
  -26.4279  -37.3783   23.9421 N   0  0  0  0  0  0
  -24.6891  -31.0607   22.0989 N   0  0  0  0  0  0
  -23.4197  -28.8157   23.3022 O   0  0  0  0  0  0
  -28.3351  -26.4540   20.1686 O   0  0  0  0  0  0
  -26.5615  -34.8917   22.4670 O   0  0  0  0  0  0
  -23.5433  -32.1402   23.7357 O   0  0  0  0  0  0
  -31.0141  -19.2980   20.1026 C   0  0  0  0  0  0
  -31.0219  -17.8723   20.1894 C   0  0  0  0  0  0
  -28.8006  -19.3719   21.0200 C   0  0  0  0  0  0
  -29.9145  -20.1094   20.5277 C   0  0  0  0  0  0
  -29.9139  -17.1532   20.7065 C   0  0  0  0  0  0
  -28.8030  -17.9451   21.1045 C   0  0  0  0  0  0
  -30.3443  -24.4049   20.9375 C   0  0  0  0  0  0
  -29.1927  -23.9691   20.3995 C   0  0  0  0  0  0
  -28.9542  -22.4830   20.2693 C   0  0  0  0  0  0
  -31.4539  -23.4972   21.3905 C   0  0  0  0  0  0
  -31.3669  -22.1318   20.6977 C   0  0  0  0  0  0
  -28.0947  -25.0002   19.9634 C   0  0  0  0  0  0
  -29.9996  -21.5963   20.5308 N   0  0  0  0  0  0
  -29.8145  -15.6975   20.8519 N   0  0  0  0  0  0
  -27.8459  -22.0526   19.9348 O   0  0  0  0  0  0
  -27.7076  -17.3148   21.5932 F   0  0  0  0  0  0
  -31.4798  -12.5210   19.1532 H   0  0  0  0  0  0
  -30.3724  -11.4029   19.8995 H   0  0  0  0  0  0
  -29.7733  -11.7579   17.4819 H   0  0  0  0  0  0
  -29.6488  -13.4787   17.7464 H   0  0  0  0  0  0
  -27.8703  -11.2925   18.8737 H   0  0  0  0  0  0
  -27.3761  -12.5727   17.7980 H   0  0  0  0  0  0
  -27.6695  -14.2528   19.5219 H   0  0  0  0  0  0
  -28.7124  -12.0587   21.3826 H   0  0  0  0  0  0
  -28.4437  -13.7140   21.8449 H   0  0  0  0  0  0
  -25.2755   -9.5687   22.4753 H   0  0  0  0  0  0
  -23.9999   -7.4635   22.7472 H   0  0  0  0  0  0
  -21.0833   -8.8771   19.8953 H   0  0  0  0  0  0
  -22.3686  -10.9669   19.6161 H   0  0  0  0  0  0
  -21.2003   -7.6142   23.9712 H   0  0  0  0  0  0
  -21.1480   -6.0518   25.9076 H   0  0  0  0  0  0
  -22.0598   -2.7606   23.2845 H   0  0  0  0  0  0
  -22.4105  -11.9876   22.4788 H   0  0  0  0  0  0
  -21.1114  -13.1252   22.2631 H   0  0  0  0  0  0
  -24.6651  -15.8445   20.5610 H   0  0  0  0  0  0
  -26.2959  -15.6465   20.1775 H   0  0  0  0  0  0
  -26.7187  -32.5444   23.1110 H   0  0  0  0  0  0
  -25.0085  -33.9727   25.0436 H   0  0  0  0  0  0
  -22.7143  -31.3053   21.4059 H   0  0  0  0  0  0
  -23.3751  -35.9609   23.3281 H   0  0  0  0  0  0
  -24.3579  -36.8922   22.2052 H   0  0  0  0  0  0
  -23.7218  -37.6478   23.6664 H   0  0  0  0  0  0
  -26.0963  -31.5537   20.6097 H   0  0  0  0  0  0
  -26.8426  -30.8356   22.0063 H   0  0  0  0  0  0
  -28.1132  -28.9736   21.1956 H   0  0  0  0  0  0
  -25.9579  -25.9471   18.9745 H   0  0  0  0  0  0
  -23.9688  -27.3209   19.0015 H   0  0  0  0  0  0
  -23.7528  -30.5999   19.4063 H   0  0  0  0  0  0
  -22.7540  -29.2523   19.8591 H   0  0  0  0  0  0
  -25.1279  -36.1930   25.0818 H   0  0  0  0  0  0
  -20.9975  -28.3265   24.1407 H   0  0  0  0  0  0
  -20.5676  -26.2300   23.3611 H   0  0  0  0  0  0
  -21.6639  -26.7446   22.1204 H   0  0  0  0  0  0
  -19.6902  -25.6295   21.1248 H   0  0  0  0  0  0
  -19.6683  -27.3193   20.6743 H   0  0  0  0  0  0
  -17.4198  -26.6695   21.4019 H   0  0  0  0  0  0
  -18.0310  -26.0075   22.9014 H   0  0  0  0  0  0
  -19.7935  -30.7282   24.2256 H   0  0  0  0  0  0
  -17.5013  -31.6273   24.5160 H   0  0  0  0  0  0
  -15.5350  -30.2988   23.7661 H   0  0  0  0  0  0
  -15.8670  -28.0822   22.7078 H   0  0  0  0  0  0
  -24.5899  -30.7087   25.7805 H   0  0  0  0  0  0
  -24.8918  -32.2916   26.4876 H   0  0  0  0  0  0
  -25.8053  -30.8937   27.0249 H   0  0  0  0  0  0
  -26.2897  -29.6769   24.1208 H   0  0  0  0  0  0
  -27.4003  -29.7257   25.4704 H   0  0  0  0  0  0
  -27.8781  -30.4283   23.9429 H   0  0  0  0  0  0
  -27.2680  -33.3619   26.2081 H   0  0  0  0  0  0
  -28.3868  -32.6877   25.0324 H   0  0  0  0  0  0
  -28.0731  -31.8440   26.5411 H   0  0  0  0  0  0
  -28.2566  -38.0115   24.7563 H   0  0  0  0  0  0
  -28.1113  -36.2652   24.6187 H   0  0  0  0  0  0
  -27.2316  -37.1326   25.8854 H   0  0  0  0  0  0
  -20.9367  -29.8776   21.6904 H   0  0  0  0  0  0
  -26.0157  -38.2847   24.1464 H   0  0  0  0  0  0
  -31.9022  -19.7651   19.7009 H   0  0  0  0  0  0
  -31.9022  -17.3424   19.8561 H   0  0  0  0  0  0
  -27.9260  -19.8965   21.3749 H   0  0  0  0  0  0
  -30.5063  -25.4647   21.0779 H   0  0  0  0  0  0
  -31.3872  -23.3864   22.4739 H   0  0  0  0  0  0
  -32.4175  -23.9622   21.1775 H   0  0  0  0  0  0
  -31.9918  -21.4409   21.2647 H   0  0  0  0  0  0
  -31.8102  -22.2089   19.7034 H   0  0  0  0  0  0
  -27.1903  -24.7145   20.5034 H   0  0  0  0  0  0
  -27.9035  -24.8283   18.9034 H   0  0  0  0  0  0
  -28.9120  -15.3993   21.1904 H   0  0  0  0  0  0
  1 25  1  0  0  0
  1 30  2  0  0  0
  1 84  1  0  0  0
  2  3  1  0  0  0
  2 25  1  0  0  0
  2 87  1  0  0  0
  2 88  1  0  0  0
  3  4  1  0  0  0
  3 89  1  0  0  0
  3 90  1  0  0  0
  4  5  1  0  0  0
  4 91  1  0  0  0
  4 92  1  0  0  0
  5  6  1  0  0  0
  5 26  1  0  0  0
  5 93  1  0  0  0
  6 25  1  0  0  0
  6 94  1  0  0  0
  6 95  1  0  0  0
  7  8  2  0  0  0
  7 26  1  0  0  0
  7 29  1  0  0  0
  8  9  1  0  0  0
  8 22  1  0  0  0
  9 10  1  0  0  0
  9 27  2  0  0  0
 10 11  2  0  0  0
 10 15  1  0  0  0
 11 12  1  0  0  0
 11 96  1  0  0  0
 12 13  2  0  0  0
 12 97  1  0  0  0
 13 14  1  0  0  0
 13 31  1  0  0  0
 14 15  2  0  0  0
 14 98  1  0  0  0
 15 99  1  0  0  0
 16 17  2  0  0  0
 16 21  1  0  0  0
 16 31  1  0  0  0
 17 18  1  0  0  0
 17100  1  0  0  0
 18 19  2  0  0  0
 18101  1  0  0  0
 19 20  1  0  0  0
 19 24  1  0  0  0
 20 21  2  0  0  0
 20102  1  0  0  0
 21 23  1  0  0  0
 22 28  1  0  0  0
 22 32  2  0  0  0
 26 27  1  0  0  0
 28103  1  0  0  0
 28104  1  0  0  0
 29105  1  0  0  0
 29106  1  0  0  0
 33 34  1  0  0  0
 33 66  1  0  0  0
 33 70  2  0  0  0
 34 36  1  0  0  0
 34 59  1  0  0  0
 34107  1  0  0  0
 35 44  2  0  0  0
 35 45  1  0  0  0
 35 68  1  0  0  0
 36 56  1  0  0  0
 36108  1  0  0  0
 37 39  1  0  0  0
 37 47  1  0  0  0
 37 66  1  0  0  0
 37109  1  0  0  0
 38 43  2  0  0  0
 38 46  1  0  0  0
 38 47  1  0  0  0
 39 64  1  0  0  0
 39 67  2  0  0  0
 40 52  1  0  0  0
 40 53  2  0  0  0
 40 58  1  0  0  0
 41110  1  0  0  0
 41111  1  0  0  0
 41112  1  0  0  0
 41 48  1  0  0  0
 42 43  1  0  0  0
 42 66  1  0  0  0
 42113  1  0  0  0
 42114  1  0  0  0
 43 44  1  0  0  0
 44115  1  0  0  0
 45 46  2  0  0  0
 45116  1  0  0  0
 46117  1  0  0  0
 47118  1  0  0  0
 47119  1  0  0  0
 48 56  1  0  0  0
 48 65  1  0  0  0
 48120  1  0  0  0
 49 50  1  0  0  0
 49 53  1  0  0  0
 49 64  1  0  0  0
 49121  1  0  0  0
 50 51  1  0  0  0
 50122  1  0  0  0
 50123  1  0  0  0
 51 52  1  0  0  0
 51124  1  0  0  0
 51125  1  0  0  0
 52126  1  0  0  0
 52127  1  0  0  0
 53 54  1  0  0  0
 54 55  2  0  0  0
 54128  1  0  0  0
 55 57  1  0  0  0
 55129  1  0  0  0
 56 69  2  0  0  0
 57 58  2  0  0  0
 57130  1  0  0  0
 58131  1  0  0  0
 59 60  1  0  0  0
 59 61  1  0  0  0
 59 62  1  0  0  0
 60132  1  0  0  0
 60133  1  0  0  0
 60134  1  0  0  0
 61135  1  0  0  0
 61136  1  0  0  0
 61137  1  0  0  0
 62138  1  0  0  0
 62139  1  0  0  0
 62140  1  0  0  0
 63 65  1  0  0  0
 63141  1  0  0  0
 63142  1  0  0  0
 63143  1  0  0  0
 64144  1  0  0  0
 65145  1  0  0  0
 68 82  1  0  0  0
 71 72  2  0  0  0
 71 74  1  0  0  0
 71146  1  0  0  0
 72 75  1  0  0  0
 72147  1  0  0  0
 73 74  2  0  0  0
 73 76  1  0  0  0
 73148  1  0  0  0
 74 83  1  0  0  0
 75 76  2  0  0  0
 75 84  1  0  0  0
 76 86  1  0  0  0
 77 78  2  0  0  0
 77 80  1  0  0  0
 77149  1  0  0  0
 78 79  1  0  0  0
 78 82  1  0  0  0
 79 83  1  0  0  0
 79 85  2  0  0  0
 80 81  1  0  0  0
 80150  1  0  0  0
 80151  1  0  0  0
 81 83  1  0  0  0
 81152  1  0  0  0
 81153  1  0  0  0
 82154  1  0  0  0
 82155  1  0  0  0
 84156  1  0  0  0
M  ISO  4   1 100  68 101  82 101  84 100
M  END
> <chiral flag>
0

> <version>
0

> <s_m_source_file>
/data/baiqing/PycharmProjects/Reinvent-master-3.2/result/LINK_invent/BTK/process_docking_weight1_custom_product_contain_oxygen_bond_distance_aromatic_linkinvent_7_9_3/rearranged_h_0086.sdf

> <i_m_source_file_index>
75

> <r_mmod_Potential_Energy-OPLS-2005>
133.744094848633

> <r_mmod_Stretch_Energy-OPLS-2005>
94.5268096923828

> <r_mmod_Bend_Energy-OPLS-2005>
144.396911621094

> <r_mmod_Torsional_Energy-OPLS-2005>
245.792251586914

> <r_mmod_Improper_Torsional_Energy-OPLS-2005>
4.02774000167847

> <r_mmod_Van_der_Waal_Energy-OPLS-2005>
167.164672851562

> <r_mmod_Electrostatic_Energy-OPLS-2005>
-371.569702148438

> <r_mmod_Solvation_Energy-OPLS-2005>
-202.318176269531

> <b_mmod_Minimization_Converged-OPLS-2005>
0

> <r_mmod_RMS_Derivative-OPLS-2005>
0.457764327526093

$$$$
75
                    3D
 Structure written by MMmdl.
155164  0  0  1  0            999 V2000
  -30.7628  -14.5128   20.5381 C   0  0  0  0  0  0
  -30.3974  -12.3262   19.4469 C   0  0  0  0  0  0
  -29.4867  -12.4863   18.2160 C   0  0  0  0  0  0
  -28.0102  -12.3576   18.6289 C   0  0  0  0  0  0
  -27.6506  -13.2272   19.8640 C   0  0  2  0  0  0
  -28.6969  -13.0971   20.9953 C   0  0  0  0  0  0
  -25.2540  -13.8215   20.5724 C   0  0  0  0  0  0
  -24.1819  -13.0457   20.9213 C   0  0  0  0  0  0
  -24.6401  -11.6936   20.8763 C   0  0  0  0  0  0
  -23.9070  -10.4310   21.0415 C   0  0  0  0  0  0
  -24.3623   -9.4221   21.9188 C   0  0  0  0  0  0
  -23.6305   -8.2248   22.0746 C   0  0  0  0  0  0
  -22.4288   -8.0285   21.3535 C   0  0  0  0  0  0
  -21.9929   -9.0263   20.4646 C   0  0  0  0  0  0
  -22.7248  -10.2147   20.3062 C   0  0  0  0  0  0
  -21.6862   -6.0744   22.5278 C   0  0  0  0  0  0
  -21.4008   -6.5641   23.8212 C   0  0  0  0  0  0
  -21.3646   -5.6793   24.9173 C   0  0  0  0  0  0
  -21.6042   -4.3057   24.7233 C   0  0  0  0  0  0
  -21.8818   -3.8154   23.4350 C   0  0  0  0  0  0
  -21.9201   -4.6967   22.3406 C   0  0  0  0  0  0
  -22.7834  -13.5238   21.1851 C   0  0  0  0  0  0
  -22.1672   -4.2150   21.0984 F   0  0  0  0  0  0
  -21.5630   -3.4540   25.7745 F   0  0  0  0  0  0
  -30.0172  -13.3741   20.4168 N   0  0  0  0  0  0
  -26.2980  -12.9425   20.3371 N   0  0  0  0  0  0
  -25.9335  -11.6565   20.5796 N   0  0  0  0  0  0
  -22.0476  -12.8233   22.0405 N   0  0  0  0  0  0
  -25.4241  -15.1938   20.4112 N   0  0  0  0  0  0
  -31.9125  -14.5299   20.0927 O   0  0  0  0  0  0
  -21.6642   -6.8887   21.4238 O   0  0  0  0  0  0
  -22.3524  -14.5544   20.6688 O   0  0  0  0  0  0
  -24.6171  -31.8636   23.2090 C   0  0  0  0  0  0
  -25.9066  -32.4784   23.8378 C   0  0  1  0  0  0
  -27.2222  -27.4091   20.0889 C   0  0  0  0  0  0
  -25.5925  -33.8582   24.2337 N   0  0  0  0  0  0
  -23.4081  -30.4872   21.5479 C   0  0  2  0  0  0
  -24.8586  -28.9638   20.0952 C   0  0  0  0  0  0
  -22.7446  -29.4602   22.4952 C   0  0  0  0  0  0
  -18.0269  -28.1343   22.8483 C   0  0  0  0  0  0
  -24.1479  -36.7270   23.2636 C   0  0  0  0  0  0
  -25.9414  -30.8215   21.3691 C   0  0  0  0  0  0
  -26.0208  -29.4616   20.7001 C   0  0  0  0  0  0
  -27.2122  -28.6921   20.6954 C   0  0  0  0  0  0
  -26.0534  -26.9446   19.4562 C   0  0  0  0  0  0
  -24.8728  -27.7098   19.4620 C   0  0  0  0  0  0
  -23.6175  -29.8271   20.1585 C   0  0  0  0  0  0
  -25.4099  -36.3082   24.0351 C   0  0  1  0  0  0
  -20.5865  -28.3623   23.1298 C   0  0  2  0  0  0
  -20.6740  -26.9351   22.5416 C   0  0  0  0  0  0
  -19.5741  -26.6368   21.5181 C   0  0  0  0  0  0
  -18.1921  -26.7895   22.1598 C   0  0  0  0  0  0
  -19.1522  -28.8801   23.2889 C   0  0  0  0  0  0
  -18.9446  -30.1402   23.8909 C   0  0  0  0  0  0
  -17.6454  -30.6558   24.0539 C   0  0  0  0  0  0
  -25.9034  -34.9447   23.5142 C   0  0  0  0  0  0
  -16.5337  -29.9052   23.6319 C   0  0  0  0  0  0
  -16.7254  -28.6463   23.0368 C   0  0  0  0  0  0
  -26.4501  -31.6557   25.0702 C   0  0  0  0  0  0
  -25.3775  -31.3680   26.1461 C   0  0  0  0  0  0
  -27.0284  -30.2972   24.6092 C   0  0  0  0  0  0
  -27.6110  -32.4248   25.7448 C   0  0  0  0  0  0
  -27.5585  -37.1787   24.8475 C   0  0  0  0  0  0
  -21.4170  -29.2978   22.3702 N   0  0  0  0  0  0
  -26.4285  -37.3775   23.9433 N   0  0  0  0  0  0
  -24.6728  -31.0727   22.0990 N   0  0  0  0  0  0
  -23.4215  -28.8142   23.2998 O   0  0  0  0  0  0
  -28.2516  -26.5040   20.2614 O   0  0  0  0  0  0
  -26.5593  -34.8910   22.4698 O   0  0  0  0  0  0
  -23.5361  -32.1391   23.7475 O   0  0  0  0  0  0
  -30.8141  -19.3191   21.6660 C   0  0  0  0  0  0
  -30.2598  -20.6159   21.6412 C   0  0  0  0  0  0
  -28.7774  -18.3899   20.7460 C   0  0  0  0  0  0
  -30.0955  -18.1769   21.2235 C   0  0  0  0  0  0
  -28.9478  -20.8253   21.1785 C   0  0  0  0  0  0
  -28.2063  -19.6943   20.7413 C   0  0  0  0  0  0
  -28.0933  -24.3702   21.5911 C   0  0  0  0  0  0
  -28.6440  -23.2992   20.7551 C   0  0  0  0  0  0
  -27.9922  -25.7109   21.3700 C   0  0  0  0  0  0
  -30.8181  -16.8323   21.1968 C   0  0  0  0  0  0
  -27.5273  -23.7671   22.8458 C   0  0  0  0  0  0
  -27.4787  -22.2809   22.5294 C   0  0  0  0  0  0
  -28.3440  -22.1159   21.3689 N   0  0  0  0  0  0
  -30.1600  -15.6560   20.9787 N   0  0  0  0  0  0
  -29.2785  -23.4174   19.7019 O   0  0  0  0  0  0
  -32.0386  -16.8764   21.4077 O   0  0  0  0  0  0
  -26.9258  -19.8515   20.3325 F   0  0  0  0  0  0
  -31.4451  -12.3691   19.1444 H   0  0  0  0  0  0
  -30.2671  -11.3388   19.8919 H   0  0  0  0  0  0
  -29.7266  -11.7325   17.4648 H   0  0  0  0  0  0
  -29.6642  -13.4547   17.7457 H   0  0  0  0  0  0
  -27.8235  -11.3050   18.8476 H   0  0  0  0  0  0
  -27.3595  -12.6101   17.7903 H   0  0  0  0  0  0
  -27.6709  -14.2626   19.5222 H   0  0  0  0  0  0
  -28.6812  -12.0923   21.4201 H   0  0  0  0  0  0
  -28.4661  -13.7760   21.8172 H   0  0  0  0  0  0
  -25.2771   -9.5701   22.4762 H   0  0  0  0  0  0
  -24.0018   -7.4647   22.7470 H   0  0  0  0  0  0
  -21.0858   -8.8790   19.8970 H   0  0  0  0  0  0
  -22.3706  -10.9679   19.6174 H   0  0  0  0  0  0
  -21.1980   -7.6147   23.9710 H   0  0  0  0  0  0
  -21.1464   -6.0525   25.9074 H   0  0  0  0  0  0
  -22.0606   -2.7619   23.2857 H   0  0  0  0  0  0
  -22.4083  -11.9905   22.4817 H   0  0  0  0  0  0
  -21.1091  -13.1263   22.2586 H   0  0  0  0  0  0
  -24.6532  -15.8467   20.5039 H   0  0  0  0  0  0
  -26.2667  -15.6286   20.0589 H   0  0  0  0  0  0
  -26.7117  -32.5491   23.1114 H   0  0  0  0  0  0
  -25.0117  -33.9719   25.0518 H   0  0  0  0  0  0
  -22.6942  -31.3023   21.4110 H   0  0  0  0  0  0
  -23.3752  -35.9587   23.3293 H   0  0  0  0  0  0
  -24.3587  -36.8871   22.2051 H   0  0  0  0  0  0
  -23.7210  -37.6472   23.6634 H   0  0  0  0  0  0
  -26.0713  -31.5959   20.6119 H   0  0  0  0  0  0
  -26.8213  -30.8599   21.9990 H   0  0  0  0  0  0
  -28.0969  -29.0506   21.2018 H   0  0  0  0  0  0
  -26.0453  -25.9601   19.0099 H   0  0  0  0  0  0
  -23.9794  -27.3254   18.9890 H   0  0  0  0  0  0
  -23.7164  -30.6044   19.4001 H   0  0  0  0  0  0
  -22.7418  -29.2436   19.8667 H   0  0  0  0  0  0
  -25.1267  -36.1939   25.0842 H   0  0  0  0  0  0
  -20.9946  -28.3172   24.1418 H   0  0  0  0  0  0
  -20.5556  -26.2230   23.3601 H   0  0  0  0  0  0
  -21.6625  -26.7340   22.1263 H   0  0  0  0  0  0
  -19.6897  -25.6279   21.1215 H   0  0  0  0  0  0
  -19.6703  -27.3166   20.6699 H   0  0  0  0  0  0
  -17.4195  -26.6611   21.4002 H   0  0  0  0  0  0
  -18.0339  -26.0023   22.8984 H   0  0  0  0  0  0
  -19.7926  -30.7196   24.2312 H   0  0  0  0  0  0
  -17.5013  -31.6248   24.5110 H   0  0  0  0  0  0
  -15.5337  -30.2956   23.7636 H   0  0  0  0  0  0
  -15.8652  -28.0760   22.7117 H   0  0  0  0  0  0
  -24.6000  -30.6935   25.7857 H   0  0  0  0  0  0
  -24.8873  -32.2808   26.4843 H   0  0  0  0  0  0
  -25.8156  -30.8956   27.0260 H   0  0  0  0  0  0
  -26.2786  -29.6761   24.1166 H   0  0  0  0  0  0
  -27.4026  -29.7195   25.4559 H   0  0  0  0  0  0
  -27.8665  -30.4230   23.9229 H   0  0  0  0  0  0
  -27.2782  -33.3563   26.2035 H   0  0  0  0  0  0
  -28.3920  -32.6768   25.0262 H   0  0  0  0  0  0
  -28.0766  -31.8337   26.5347 H   0  0  0  0  0  0
  -28.2615  -38.0076   24.7529 H   0  0  0  0  0  0
  -28.1064  -36.2611   24.6273 H   0  0  0  0  0  0
  -27.2319  -37.1421   25.8884 H   0  0  0  0  0  0
  -20.9328  -29.8732   21.6953 H   0  0  0  0  0  0
  -26.0173  -38.2851   24.1443 H   0  0  0  0  0  0
  -31.8247  -19.2152   22.0366 H   0  0  0  0  0  0
  -30.8365  -21.4460   22.0260 H   0  0  0  0  0  0
  -28.1870  -17.5593   20.3864 H   0  0  0  0  0  0
  -27.5313  -26.3074   22.1481 H   0  0  0  0  0  0
  -26.5421  -24.1691   23.0862 H   0  0  0  0  0  0
  -28.2019  -23.9656   23.6795 H   0  0  0  0  0  0
  -26.4697  -21.9700   22.2563 H   0  0  0  0  0  0
  -27.8016  -21.6787   23.3788 H   0  0  0  0  0  0
  -29.1619  -15.6497   21.0924 H   0  0  0  0  0  0
  1 25  1  0  0  0
  1 30  2  0  0  0
  1 84  1  0  0  0
  2  3  1  0  0  0
  2 25  1  0  0  0
  2 88  1  0  0  0
  2 89  1  0  0  0
  3  4  1  0  0  0
  3 90  1  0  0  0
  3 91  1  0  0  0
  4  5  1  0  0  0
  4 92  1  0  0  0
  4 93  1  0  0  0
  5  6  1  0  0  0
  5 26  1  0  0  0
  5 94  1  0  0  0
  6 25  1  0  0  0
  6 95  1  0  0  0
  6 96  1  0  0  0
  7  8  2  0  0  0
  7 26  1  0  0  0
  7 29  1  0  0  0
  8  9  1  0  0  0
  8 22  1  0  0  0
  9 10  1  0  0  0
  9 27  2  0  0  0
 10 11  2  0  0  0
 10 15  1  0  0  0
 11 12  1  0  0  0
 11 97  1  0  0  0
 12 13  2  0  0  0
 12 98  1  0  0  0
 13 14  1  0  0  0
 13 31  1  0  0  0
 14 15  2  0  0  0
 14 99  1  0  0  0
 15100  1  0  0  0
 16 17  2  0  0  0
 16 21  1  0  0  0
 16 31  1  0  0  0
 17 18  1  0  0  0
 17101  1  0  0  0
 18 19  2  0  0  0
 18102  1  0  0  0
 19 20  1  0  0  0
 19 24  1  0  0  0
 20 21  2  0  0  0
 20103  1  0  0  0
 21 23  1  0  0  0
 22 28  1  0  0  0
 22 32  2  0  0  0
 26 27  1  0  0  0
 28104  1  0  0  0
 28105  1  0  0  0
 29106  1  0  0  0
 29107  1  0  0  0
 33 34  1  0  0  0
 33 66  1  0  0  0
 33 70  2  0  0  0
 34 36  1  0  0  0
 34 59  1  0  0  0
 34108  1  0  0  0
 35 44  2  0  0  0
 35 45  1  0  0  0
 35 68  1  0  0  0
 36 56  1  0  0  0
 36109  1  0  0  0
 37 39  1  0  0  0
 37 47  1  0  0  0
 37 66  1  0  0  0
 37110  1  0  0  0
 38 43  2  0  0  0
 38 46  1  0  0  0
 38 47  1  0  0  0
 39 64  1  0  0  0
 39 67  2  0  0  0
 40 52  1  0  0  0
 40 53  2  0  0  0
 40 58  1  0  0  0
 41111  1  0  0  0
 41112  1  0  0  0
 41113  1  0  0  0
 41 48  1  0  0  0
 42 43  1  0  0  0
 42 66  1  0  0  0
 42114  1  0  0  0
 42115  1  0  0  0
 43 44  1  0  0  0
 44116  1  0  0  0
 45 46  2  0  0  0
 45117  1  0  0  0
 46118  1  0  0  0
 47119  1  0  0  0
 47120  1  0  0  0
 48 56  1  0  0  0
 48 65  1  0  0  0
 48121  1  0  0  0
 49 50  1  0  0  0
 49 53  1  0  0  0
 49 64  1  0  0  0
 49122  1  0  0  0
 50 51  1  0  0  0
 50123  1  0  0  0
 50124  1  0  0  0
 51 52  1  0  0  0
 51125  1  0  0  0
 51126  1  0  0  0
 52127  1  0  0  0
 52128  1  0  0  0
 53 54  1  0  0  0
 54 55  2  0  0  0
 54129  1  0  0  0
 55 57  1  0  0  0
 55130  1  0  0  0
 56 69  2  0  0  0
 57 58  2  0  0  0
 57131  1  0  0  0
 58132  1  0  0  0
 59 60  1  0  0  0
 59 61  1  0  0  0
 59 62  1  0  0  0
 60133  1  0  0  0
 60134  1  0  0  0
 60135  1  0  0  0
 61136  1  0  0  0
 61137  1  0  0  0
 61138  1  0  0  0
 62139  1  0  0  0
 62140  1  0  0  0
 62141  1  0  0  0
 63 65  1  0  0  0
 63142  1  0  0  0
 63143  1  0  0  0
 63144  1  0  0  0
 64145  1  0  0  0
 65146  1  0  0  0
 68 79  1  0  0  0
 71 72  2  0  0  0
 71 74  1  0  0  0
 71147  1  0  0  0
 72 75  1  0  0  0
 72148  1  0  0  0
 73 74  2  0  0  0
 73 76  1  0  0  0
 73149  1  0  0  0
 74 80  1  0  0  0
 75 76  2  0  0  0
 75 83  1  0  0  0
 76 87  1  0  0  0
 77 78  1  0  0  0
 77 79  2  0  0  0
 77 81  1  0  0  0
 78 83  1  0  0  0
 78 85  2  0  0  0
 79150  1  0  0  0
 80 84  1  0  0  0
 80 86  2  0  0  0
 81 82  1  0  0  0
 81151  1  0  0  0
 81152  1  0  0  0
 82 83  1  0  0  0
 82153  1  0  0  0
 82154  1  0  0  0
 84155  1  0  0  0
M  ISO  4   1 100  68 101  79 101  84 100
M  END
> <chiral flag>
0

> <version>
0

> <s_m_source_file>
/data/baiqing/PycharmProjects/Reinvent-master-3.2/result/LINK_invent/BTK/process_docking_weight1_custom_product_contain_oxygen_bond_distance_aromatic_linkinvent_7_9_3/rearranged_h_0086.sdf

> <i_m_source_file_index>
76

> <r_mmod_Potential_Energy-OPLS-2005>
79.9205093383789

> <r_mmod_Stretch_Energy-OPLS-2005>
49.0382423400879

> <r_mmod_Bend_Energy-OPLS-2005>
168.994033813477

> <r_mmod_Torsional_Energy-OPLS-2005>
319.095794677734

> <r_mmod_Improper_Torsional_Energy-OPLS-2005>
6.95990657806396

> <r_mmod_Van_der_Waal_Energy-OPLS-2005>
157.916091918945

> <r_mmod_Electrostatic_Energy-OPLS-2005>
-425.381561279297

> <r_mmod_Solvation_Energy-OPLS-2005>
-233.944519042969

> <b_mmod_Minimization_Converged-OPLS-2005>
0

> <r_mmod_RMS_Derivative-OPLS-2005>
2.09608340263367

$$$$
76
                    3D
 Structure written by MMmdl.
143150  0  0  1  0            999 V2000
  -30.1419  -16.0861   20.2667 C   0  0  0  0  0  0
  -30.3885  -13.4006   19.5733 C   0  0  0  0  0  0
  -29.5721  -12.7836   18.3844 C   0  0  0  0  0  0
  -28.1767  -12.3363   18.8296 C   0  0  0  0  0  0
  -27.5809  -13.3692   19.8040 C   0  0  2  0  0  0
  -28.5544  -13.8880   20.9008 C   0  0  0  0  0  0
  -25.2242  -13.8388   20.5869 C   0  0  0  0  0  0
  -24.1679  -13.0443   20.9306 C   0  0  0  0  0  0
  -24.6469  -11.6990   20.8738 C   0  0  0  0  0  0
  -23.9185  -10.4308   21.0356 C   0  0  0  0  0  0
  -24.3698   -9.4220   21.9152 C   0  0  0  0  0  0
  -23.6341   -8.2268   22.0747 C   0  0  0  0  0  0
  -22.4320   -8.0305   21.3540 C   0  0  0  0  0  0
  -21.9984   -9.0281   20.4637 C   0  0  0  0  0  0
  -22.7343  -10.2139   20.3023 C   0  0  0  0  0  0
  -21.6876   -6.0759   22.5281 C   0  0  0  0  0  0
  -21.4025   -6.5652   23.8212 C   0  0  0  0  0  0
  -21.3666   -5.6795   24.9173 C   0  0  0  0  0  0
  -21.6034   -4.3056   24.7217 C   0  0  0  0  0  0
  -21.8815   -3.8162   23.4334 C   0  0  0  0  0  0
  -21.9204   -4.6985   22.3397 C   0  0  0  0  0  0
  -22.7679  -13.5127   21.1940 C   0  0  0  0  0  0
  -22.1670   -4.2169   21.0975 F   0  0  0  0  0  0
  -21.5629   -3.4540   25.7730 F   0  0  0  0  0  0
  -29.6869  -14.6308   20.2567 N   0  0  0  0  0  0
  -26.2748  -12.9840   20.3248 N   0  0  0  0  0  0
  -25.9430  -11.6839   20.5616 N   0  0  0  0  0  0
  -22.0367  -12.8082   22.0492 N   0  0  0  0  0  0
  -25.3771  -15.2142   20.4372 N   0  0  0  0  0  0
  -31.3637  -15.9305   20.0381 O   0  0  0  0  0  0
  -21.6661   -6.8910   21.4247 O   0  0  0  0  0  0
  -22.3330  -14.5413   20.6773 O   0  0  0  0  0  0
  -24.7132  -31.7618   23.1260 C   0  0  0  0  0  0
  -25.9568  -32.4281   23.7914 C   0  0  1  0  0  0
  -27.2472  -26.3912   20.2307 C   0  0  0  0  0  0
  -25.6021  -33.8126   24.1777 N   0  0  0  0  0  0
  -23.5557  -30.3498   21.4845 C   0  0  2  0  0  0
  -25.0177  -28.6248   20.1213 C   0  0  0  0  0  0
  -22.7898  -29.4115   22.4607 C   0  0  0  0  0  0
  -18.0356  -28.1441   22.8444 C   0  0  0  0  0  0
  -24.1489  -36.7072   23.2658 C   0  0  0  0  0  0
  -26.1466  -30.3887   21.4394 C   0  0  0  0  0  0
  -26.2084  -28.9197   20.7922 C   0  0  0  0  0  0
  -27.2870  -27.8393   20.8108 C   0  0  0  0  0  0
  -26.0245  -26.3881   19.4863 C   0  0  0  0  0  0
  -24.9844  -27.3898   19.4418 C   0  0  0  0  0  0
  -23.8287  -29.6189   20.1327 C   0  0  0  0  0  0
  -25.4153  -36.2787   24.0258 C   0  0  1  0  0  0
  -20.6009  -28.3811   23.1081 C   0  0  2  0  0  0
  -20.6802  -26.9440   22.5408 C   0  0  0  0  0  0
  -19.5784  -26.6363   21.5220 C   0  0  0  0  0  0
  -18.1969  -26.7964   22.1621 C   0  0  0  0  0  0
  -19.1631  -28.8956   23.2737 C   0  0  0  0  0  0
  -18.9529  -30.1529   23.8799 C   0  0  0  0  0  0
  -17.6517  -30.6611   24.0549 C   0  0  0  0  0  0
  -25.9160  -34.9186   23.4881 C   0  0  0  0  0  0
  -16.5408  -29.9089   23.6359 C   0  0  0  0  0  0
  -16.7336  -28.6515   23.0376 C   0  0  0  0  0  0
  -26.4650  -31.6455   25.0666 C   0  0  0  0  0  0
  -25.3649  -31.3881   26.1239 C   0  0  0  0  0  0
  -27.0629  -30.2753   24.6812 C   0  0  0  0  0  0
  -27.6021  -32.4395   25.7513 C   0  0  0  0  0  0
  -27.5556  -37.1685   24.8459 C   0  0  0  0  0  0
  -21.4517  -29.3004   22.3360 N   0  0  0  0  0  0
  -26.4249  -37.3592   23.9417 N   0  0  0  0  0  0
  -24.8323  -30.8749   22.0688 N   0  0  0  0  0  0
  -23.4190  -28.7754   23.3088 O   0  0  0  0  0  0
  -28.1714  -25.0348   20.3597 O   0  0  0  0  0  0
  -26.5830  -34.8830   22.4521 O   0  0  0  0  0  0
  -23.6088  -32.0837   23.6021 O   0  0  0  0  0  0
  -30.4556  -19.5344   19.0445 C   0  0  0  0  0  0
  -29.4372  -19.1996   20.1088 C   0  0  0  0  0  0
  -29.4045  -21.4039   21.9274 C   0  0  0  0  0  0
  -28.3299  -23.1513   19.9691 C   0  0  0  0  0  0
  -28.7123  -21.1357   20.5846 C   0  0  1  0  0  0
  -29.3607  -17.6527   20.4772 N   0  0  0  0  0  0
  -31.2084  -18.6975   18.5314 O   0  0  0  0  0  0
  -31.3603  -13.6902   19.1723 H   0  0  0  0  0  0
  -30.6273  -12.6288   20.3070 H   0  0  0  0  0  0
  -30.1111  -11.9434   17.9438 H   0  0  0  0  0  0
  -29.4777  -13.5303   17.5957 H   0  0  0  0  0  0
  -28.2728  -11.3746   19.3350 H   0  0  0  0  0  0
  -27.5225  -12.1754   17.9710 H   0  0  0  0  0  0
  -27.3858  -14.2312   19.1645 H   0  0  0  0  0  0
  -28.8899  -13.0831   21.5549 H   0  0  0  0  0  0
  -28.0350  -14.5975   21.5448 H   0  0  0  0  0  0
  -25.2832   -9.5702   22.4740 H   0  0  0  0  0  0
  -24.0050   -7.4666   22.7470 H   0  0  0  0  0  0
  -21.0926   -8.8804   19.8938 H   0  0  0  0  0  0
  -22.3801  -10.9673   19.6134 H   0  0  0  0  0  0
  -21.2019   -7.6157   23.9732 H   0  0  0  0  0  0
  -21.1491   -6.0517   25.9075 H   0  0  0  0  0  0
  -22.0593   -2.7626   23.2822 H   0  0  0  0  0  0
  -22.4048  -11.9785   22.4904 H   0  0  0  0  0  0
  -21.0953  -13.1022   22.2659 H   0  0  0  0  0  0
  -24.6169  -15.8695   20.5838 H   0  0  0  0  0  0
  -26.2390  -15.6653   20.1546 H   0  0  0  0  0  0
  -26.7673  -32.4677   23.0632 H   0  0  0  0  0  0
  -25.0048  -33.9109   24.9856 H   0  0  0  0  0  0
  -22.9001  -31.1959   21.2671 H   0  0  0  0  0  0
  -23.3790  -35.9362   23.3223 H   0  0  0  0  0  0
  -24.3553  -36.8856   22.2094 H   0  0  0  0  0  0
  -23.7209  -37.6194   23.6826 H   0  0  0  0  0  0
  -26.3847  -31.0928   20.6413 H   0  0  0  0  0  0
  -26.9862  -30.4659   22.1173 H   0  0  0  0  0  0
  -28.1716  -28.0816   21.3821 H   0  0  0  0  0  0
  -25.8098  -25.4739   18.9512 H   0  0  0  0  0  0
  -24.0979  -27.1519   18.8712 H   0  0  0  0  0  0
  -24.0334  -30.3673   19.3658 H   0  0  0  0  0  0
  -22.9275  -29.1032   19.7964 H   0  0  0  0  0  0
  -25.1373  -36.1504   25.0745 H   0  0  0  0  0  0
  -21.0088  -28.3469   24.1212 H   0  0  0  0  0  0
  -20.5627  -26.2448   23.3702 H   0  0  0  0  0  0
  -21.6656  -26.7323   22.1251 H   0  0  0  0  0  0
  -19.6925  -25.6244   21.1314 H   0  0  0  0  0  0
  -19.6732  -27.3117   20.6705 H   0  0  0  0  0  0
  -17.4234  -26.6711   21.4024 H   0  0  0  0  0  0
  -18.0342  -26.0122   22.9032 H   0  0  0  0  0  0
  -19.8005  -30.7367   24.2127 H   0  0  0  0  0  0
  -17.5070  -31.6281   24.5170 H   0  0  0  0  0  0
  -15.5404  -30.2966   23.7738 H   0  0  0  0  0  0
  -15.8738  -28.0804   22.7149 H   0  0  0  0  0  0
  -24.5832  -30.7230   25.7545 H   0  0  0  0  0  0
  -24.8851  -32.3148   26.4397 H   0  0  0  0  0  0
  -25.7767  -30.9206   27.0194 H   0  0  0  0  0  0
  -26.3393  -29.6255   24.1872 H   0  0  0  0  0  0
  -27.3988  -29.7342   25.5671 H   0  0  0  0  0  0
  -27.9409  -30.3795   24.0434 H   0  0  0  0  0  0
  -27.2487  -33.3781   26.1804 H   0  0  0  0  0  0
  -28.3989  -32.6835   25.0471 H   0  0  0  0  0  0
  -28.0521  -31.8729   26.5680 H   0  0  0  0  0  0
  -28.2493  -38.0052   24.7545 H   0  0  0  0  0  0
  -28.1125  -36.2570   24.6231 H   0  0  0  0  0  0
  -27.2272  -37.1248   25.8857 H   0  0  0  0  0  0
  -20.9880  -29.8640   21.6369 H   0  0  0  0  0  0
  -26.0042  -38.2617   24.1474 H   0  0  0  0  0  0
  -30.4897  -20.5838   18.7480 H   0  0  0  0  0  0
  -29.3985  -20.5198   22.5654 H   0  0  0  0  0  0
  -28.9062  -22.2075   22.4710 H   0  0  0  0  0  0
  -30.4422  -21.6991   21.7737 H   0  0  0  0  0  0
  -27.4415  -23.0203   19.3512 H   0  0  0  0  0  0
  -29.1224  -23.2447   19.2274 H   0  0  0  0  0  0
  -27.6914  -20.8675   20.8553 H   0  0  0  0  0  0
  1 25  1  0  0  0
  1 30  2  0  0  0
  1 76  1  0  0  0
  2  3  1  0  0  0
  2 25  1  0  0  0
  2 78  1  0  0  0
  2 79  1  0  0  0
  3  4  1  0  0  0
  3 80  1  0  0  0
  3 81  1  0  0  0
  4  5  1  0  0  0
  4 82  1  0  0  0
  4 83  1  0  0  0
  5  6  1  0  0  0
  5 26  1  0  0  0
  5 84  1  0  0  0
  6 25  1  0  0  0
  6 85  1  0  0  0
  6 86  1  0  0  0
  7  8  2  0  0  0
  7 26  1  0  0  0
  7 29  1  0  0  0
  8  9  1  0  0  0
  8 22  1  0  0  0
  9 10  1  0  0  0
  9 27  2  0  0  0
 10 11  2  0  0  0
 10 15  1  0  0  0
 11 12  1  0  0  0
 11 87  1  0  0  0
 12 13  2  0  0  0
 12 88  1  0  0  0
 13 14  1  0  0  0
 13 31  1  0  0  0
 14 15  2  0  0  0
 14 89  1  0  0  0
 15 90  1  0  0  0
 16 17  2  0  0  0
 16 21  1  0  0  0
 16 31  1  0  0  0
 17 18  1  0  0  0
 17 91  1  0  0  0
 18 19  2  0  0  0
 18 92  1  0  0  0
 19 20  1  0  0  0
 19 24  1  0  0  0
 20 21  2  0  0  0
 20 93  1  0  0  0
 21 23  1  0  0  0
 22 28  1  0  0  0
 22 32  2  0  0  0
 26 27  1  0  0  0
 28 94  1  0  0  0
 28 95  1  0  0  0
 29 96  1  0  0  0
 29 97  1  0  0  0
 33 34  1  0  0  0
 33 66  1  0  0  0
 33 70  2  0  0  0
 34 36  1  0  0  0
 34 59  1  0  0  0
 34 98  1  0  0  0
 35 44  2  0  0  0
 35 45  1  0  0  0
 35 68  1  0  0  0
 36 56  1  0  0  0
 36 99  1  0  0  0
 37 39  1  0  0  0
 37 47  1  0  0  0
 37 66  1  0  0  0
 37100  1  0  0  0
 38 43  2  0  0  0
 38 46  1  0  0  0
 38 47  1  0  0  0
 39 64  1  0  0  0
 39 67  2  0  0  0
 40 52  1  0  0  0
 40 53  2  0  0  0
 40 58  1  0  0  0
 41101  1  0  0  0
 41102  1  0  0  0
 41103  1  0  0  0
 41 48  1  0  0  0
 42 43  1  0  0  0
 42 66  1  0  0  0
 42104  1  0  0  0
 42105  1  0  0  0
 43 44  1  0  0  0
 44106  1  0  0  0
 45 46  2  0  0  0
 45107  1  0  0  0
 46108  1  0  0  0
 47109  1  0  0  0
 47110  1  0  0  0
 48 56  1  0  0  0
 48 65  1  0  0  0
 48111  1  0  0  0
 49 50  1  0  0  0
 49 53  1  0  0  0
 49 64  1  0  0  0
 49112  1  0  0  0
 50 51  1  0  0  0
 50113  1  0  0  0
 50114  1  0  0  0
 51 52  1  0  0  0
 51115  1  0  0  0
 51116  1  0  0  0
 52117  1  0  0  0
 52118  1  0  0  0
 53 54  1  0  0  0
 54 55  2  0  0  0
 54119  1  0  0  0
 55 57  1  0  0  0
 55120  1  0  0  0
 56 69  2  0  0  0
 57 58  2  0  0  0
 57121  1  0  0  0
 58122  1  0  0  0
 59 60  1  0  0  0
 59 61  1  0  0  0
 59 62  1  0  0  0
 60123  1  0  0  0
 60124  1  0  0  0
 60125  1  0  0  0
 61126  1  0  0  0
 61127  1  0  0  0
 61128  1  0  0  0
 62129  1  0  0  0
 62130  1  0  0  0
 62131  1  0  0  0
 63 65  1  0  0  0
 63132  1  0  0  0
 63133  1  0  0  0
 63134  1  0  0  0
 64135  1  0  0  0
 65136  1  0  0  0
 68 74  1  0  0  0
 71 72  1  0  0  0
 71 77  2  0  0  0
 71137  1  0  0  0
 72 75  1  0  0  0
 72 76  2  0  0  0
 73138  1  0  0  0
 73139  1  0  0  0
 73140  1  0  0  0
 73 75  1  0  0  0
 74 75  1  0  0  0
 74141  1  0  0  0
 74142  1  0  0  0
 75143  1  0  0  0
M  ISO  4   1 100  68 101  74 101  76 100
M  END
> <chiral flag>
0

> <version>
0

> <s_m_source_file>
/data/baiqing/PycharmProjects/Reinvent-master-3.2/result/LINK_invent/BTK/process_docking_weight1_custom_product_contain_oxygen_bond_distance_aromatic_linkinvent_7_9_3/rearranged_h_0086.sdf

> <i_m_source_file_index>
77

> <r_mmod_Potential_Energy-OPLS-2005>
4518.12646484375

> <r_mmod_Stretch_Energy-OPLS-2005>
2105.53686523438

> <r_mmod_Bend_Energy-OPLS-2005>
934.820556640625

> <r_mmod_Torsional_Energy-OPLS-2005>
192.120040893555

> <r_mmod_Improper_Torsional_Energy-OPLS-2005>
2.03197383880615

> <r_mmod_Van_der_Waal_Energy-OPLS-2005>
112.175262451172

> <r_mmod_Electrostatic_Energy-OPLS-2005>
-302.374542236328

> <r_mmod_Solvation_Energy-OPLS-2005>
-213.453796386719

> <b_mmod_Minimization_Converged-OPLS-2005>
0

> <r_mmod_RMS_Derivative-OPLS-2005>
2.34429478645325

$$$$
77
                    3D
 Structure written by MMmdl.
152160  0  0  1  0            999 V2000
  -30.5984  -14.9452   20.3502 C   0  0  0  0  0  0
  -30.4236  -12.5776   19.4964 C   0  0  0  0  0  0
  -29.5116  -12.4979   18.2517 C   0  0  0  0  0  0
  -28.0504  -12.2802   18.6818 C   0  0  0  0  0  0
  -27.6211  -13.2437   19.8201 C   0  0  2  0  0  0
  -28.6710  -13.3425   20.9480 C   0  0  0  0  0  0
  -25.2438  -13.8182   20.5719 C   0  0  0  0  0  0
  -24.1780  -13.0443   20.9218 C   0  0  0  0  0  0
  -24.6380  -11.6896   20.8710 C   0  0  0  0  0  0
  -23.9000  -10.4273   21.0336 C   0  0  0  0  0  0
  -24.3587   -9.4203   21.9134 C   0  0  0  0  0  0
  -23.6296   -8.2237   22.0717 C   0  0  0  0  0  0
  -22.4263   -8.0226   21.3496 C   0  0  0  0  0  0
  -21.9887   -9.0194   20.4628 C   0  0  0  0  0  0
  -22.7176  -10.2096   20.3023 C   0  0  0  0  0  0
  -21.6881   -6.0695   22.5227 C   0  0  0  0  0  0
  -21.4040   -6.5607   23.8181 C   0  0  0  0  0  0
  -21.3687   -5.6755   24.9147 C   0  0  0  0  0  0
  -21.6055   -4.3027   24.7193 C   0  0  0  0  0  0
  -21.8823   -3.8107   23.4350 C   0  0  0  0  0  0
  -21.9219   -4.6916   22.3392 C   0  0  0  0  0  0
  -22.7777  -13.5151   21.1881 C   0  0  0  0  0  0
  -22.1663   -4.2091   21.0981 F   0  0  0  0  0  0
  -21.5656   -3.4523   25.7746 F   0  0  0  0  0  0
  -29.9424  -13.7180   20.3198 N   0  0  0  0  0  0
  -26.2872  -12.9411   20.3249 N   0  0  0  0  0  0
  -25.9291  -11.6519   20.5723 N   0  0  0  0  0  0
  -22.0512  -12.8141   22.0496 N   0  0  0  0  0  0
  -25.4176  -15.1925   20.4170 N   0  0  0  0  0  0
  -31.8233  -14.8873   20.1952 O   0  0  0  0  0  0
  -21.6660   -6.8837   21.4208 O   0  0  0  0  0  0
  -22.3443  -14.5466   20.6763 O   0  0  0  0  0  0
  -24.6320  -31.8491   23.2025 C   0  0  0  0  0  0
  -25.9138  -32.4758   23.8321 C   0  0  1  0  0  0
  -27.2396  -27.2363   20.0879 C   0  0  0  0  0  0
  -25.5881  -33.8540   24.2243 N   0  0  0  0  0  0
  -23.4369  -30.4698   21.5461 C   0  0  2  0  0  0
  -24.8848  -28.9045   20.1082 C   0  0  0  0  0  0
  -22.7509  -29.4614   22.5000 C   0  0  0  0  0  0
  -18.0281  -28.1378   22.8488 C   0  0  0  0  0  0
  -24.1496  -36.7285   23.2669 C   0  0  0  0  0  0
  -25.9896  -30.7482   21.3823 C   0  0  0  0  0  0
  -26.0539  -29.3611   20.7258 C   0  0  0  0  0  0
  -27.2247  -28.5303   20.7202 C   0  0  0  0  0  0
  -26.0519  -26.8809   19.4151 C   0  0  0  0  0  0
  -24.8907  -27.6755   19.4395 C   0  0  0  0  0  0
  -23.6481  -29.7787   20.1711 C   0  0  0  0  0  0
  -25.4123  -36.3067   24.0341 C   0  0  1  0  0  0
  -20.5887  -28.3675   23.1311 C   0  0  2  0  0  0
  -20.6774  -26.9384   22.5439 C   0  0  0  0  0  0
  -19.5753  -26.6364   21.5245 C   0  0  0  0  0  0
  -18.1925  -26.7919   22.1640 C   0  0  0  0  0  0
  -19.1525  -28.8848   23.2899 C   0  0  0  0  0  0
  -18.9453  -30.1456   23.8896 C   0  0  0  0  0  0
  -17.6458  -30.6580   24.0546 C   0  0  0  0  0  0
  -25.9031  -34.9438   23.5101 C   0  0  0  0  0  0
  -16.5354  -29.9047   23.6339 C   0  0  0  0  0  0
  -16.7281  -28.6482   23.0358 C   0  0  0  0  0  0
  -26.4499  -31.6562   25.0698 C   0  0  0  0  0  0
  -25.3716  -31.3677   26.1414 C   0  0  0  0  0  0
  -27.0330  -30.2974   24.6189 C   0  0  0  0  0  0
  -27.6070  -32.4286   25.7399 C   0  0  0  0  0  0
  -27.5537  -37.1861   24.8524 C   0  0  0  0  0  0
  -21.4202  -29.3004   22.3667 N   0  0  0  0  0  0
  -26.4330  -37.3733   23.9347 N   0  0  0  0  0  0
  -24.7077  -31.0429   22.0985 N   0  0  0  0  0  0
  -23.4222  -28.8066   23.3045 O   0  0  0  0  0  0
  -28.3456  -26.3405   20.1306 O   0  0  0  0  0  0
  -26.5644  -34.8893   22.4697 O   0  0  0  0  0  0
  -23.5425  -32.1294   23.7305 O   0  0  0  0  0  0
  -29.2091  -20.0049   20.8934 C   0  0  0  0  0  0
  -29.7139  -18.9419   20.0072 C   0  0  0  0  0  0
  -29.7388  -19.6573   18.8090 C   0  0  0  0  0  0
  -28.9813  -21.2153   20.2063 C   0  0  0  0  0  0
  -30.4316  -17.5156   20.1988 C   0  0  0  0  0  0
  -28.0348  -23.6804   20.5199 C   0  0  0  0  0  0
  -30.2270  -19.3258   17.4357 C   0  0  0  0  0  0
  -26.9579  -24.1869   21.4617 C   0  0  0  0  0  0
  -28.3727  -24.9261   19.5389 C   0  0  0  0  0  0
  -28.3322  -22.3869   20.7382 N   0  0  0  0  0  0
  -29.9077  -16.1938   20.2931 N   0  0  0  0  0  0
  -31.6607  -17.6511   20.2638 O   0  0  0  0  0  0
  -29.2762  -20.9741   18.9058 O   0  0  0  0  0  0
  -31.4601  -12.6952   19.1772 H   0  0  0  0  0  0
  -30.3870  -11.6512   20.0734 H   0  0  0  0  0  0
  -29.8333  -11.6876   17.5979 H   0  0  0  0  0  0
  -29.5867  -13.4197   17.6749 H   0  0  0  0  0  0
  -27.9618  -11.2481   19.0239 H   0  0  0  0  0  0
  -27.3757  -12.3780   17.8311 H   0  0  0  0  0  0
  -27.5613  -14.2266   19.3508 H   0  0  0  0  0  0
  -28.7565  -12.4004   21.4912 H   0  0  0  0  0  0
  -28.3717  -14.0977   21.6769 H   0  0  0  0  0  0
  -25.2714   -9.5722   22.4692 H   0  0  0  0  0  0
  -24.0012   -7.4637   22.7388 H   0  0  0  0  0  0
  -21.0827   -8.8661   19.8914 H   0  0  0  0  0  0
  -22.3543  -10.9637   19.6131 H   0  0  0  0  0  0
  -21.2007   -7.6103   23.9653 H   0  0  0  0  0  0
  -21.1523   -6.0503   25.9050 H   0  0  0  0  0  0
  -22.0598   -2.7559   23.2849 H   0  0  0  0  0  0
  -22.4184  -11.9837   22.4922 H   0  0  0  0  0  0
  -21.1094  -13.1082   22.2676 H   0  0  0  0  0  0
  -24.6654  -15.8533   20.5640 H   0  0  0  0  0  0
  -26.2798  -15.6336   20.1352 H   0  0  0  0  0  0
  -26.7183  -32.5434   23.1004 H   0  0  0  0  0  0
  -24.9996  -33.9679   25.0369 H   0  0  0  0  0  0
  -22.7310  -31.2904   21.3818 H   0  0  0  0  0  0
  -23.3682  -35.9719   23.3526 H   0  0  0  0  0  0
  -24.3532  -36.8692   22.2036 H   0  0  0  0  0  0
  -23.7338  -37.6596   23.6535 H   0  0  0  0  0  0
  -26.1156  -31.4923   20.5937 H   0  0  0  0  0  0
  -26.8689  -30.8213   22.0161 H   0  0  0  0  0  0
  -28.1087  -28.8788   21.2247 H   0  0  0  0  0  0
  -25.9622  -25.9625   18.8659 H   0  0  0  0  0  0
  -23.9846  -27.3315   18.9445 H   0  0  0  0  0  0
  -23.7661  -30.5327   19.3945 H   0  0  0  0  0  0
  -22.7738  -29.1845   19.8903 H   0  0  0  0  0  0
  -25.1336  -36.1961   25.0850 H   0  0  0  0  0  0
  -20.9970  -28.3249   24.1450 H   0  0  0  0  0  0
  -20.5715  -26.2266   23.3641 H   0  0  0  0  0  0
  -21.6642  -26.7454   22.1212 H   0  0  0  0  0  0
  -19.6929  -25.6280   21.1270 H   0  0  0  0  0  0
  -19.6690  -27.3193   20.6791 H   0  0  0  0  0  0
  -17.4204  -26.6683   21.4017 H   0  0  0  0  0  0
  -18.0301  -26.0066   22.9033 H   0  0  0  0  0  0
  -19.7954  -30.7251   24.2259 H   0  0  0  0  0  0
  -17.5033  -31.6286   24.5083 H   0  0  0  0  0  0
  -15.5358  -30.2935   23.7701 H   0  0  0  0  0  0
  -15.8693  -28.0803   22.7063 H   0  0  0  0  0  0
  -24.5894  -30.7038   25.7690 H   0  0  0  0  0  0
  -24.8905  -32.2832   26.4881 H   0  0  0  0  0  0
  -25.8042  -30.8783   27.0149 H   0  0  0  0  0  0
  -26.2904  -29.6689   24.1255 H   0  0  0  0  0  0
  -27.4015  -29.7276   25.4723 H   0  0  0  0  0  0
  -27.8781  -30.4225   23.9413 H   0  0  0  0  0  0
  -27.2720  -33.3570   26.2018 H   0  0  0  0  0  0
  -28.3800  -32.6864   25.0145 H   0  0  0  0  0  0
  -28.0818  -31.8378   26.5232 H   0  0  0  0  0  0
  -28.2803  -37.9902   24.7257 H   0  0  0  0  0  0
  -28.0763  -36.2445   24.6774 H   0  0  0  0  0  0
  -27.2232  -37.2057   25.8929 H   0  0  0  0  0  0
  -20.9391  -29.8631   21.6764 H   0  0  0  0  0  0
  -26.0244  -38.2882   24.1068 H   0  0  0  0  0  0
  -29.0574  -19.9142   21.9596 H   0  0  0  0  0  0
  -29.7379  -18.4329   17.0453 H   0  0  0  0  0  0
  -31.3028  -19.1546   17.4453 H   0  0  0  0  0  0
  -30.0300  -20.1544   16.7518 H   0  0  0  0  0  0
  -26.5739  -23.3863   22.0868 H   0  0  0  0  0  0
  -26.1155  -24.5934   20.8971 H   0  0  0  0  0  0
  -27.3295  -24.9743   22.1186 H   0  0  0  0  0  0
  -27.7156  -24.8476   18.6677 H   0  0  0  0  0  0
  -29.3574  -24.8118   19.0860 H   0  0  0  0  0  0
  -28.8998  -16.1410   20.2725 H   0  0  0  0  0  0
  1 25  1  0  0  0
  1 30  2  0  0  0
  1 81  1  0  0  0
  2  3  1  0  0  0
  2 25  1  0  0  0
  2 84  1  0  0  0
  2 85  1  0  0  0
  3  4  1  0  0  0
  3 86  1  0  0  0
  3 87  1  0  0  0
  4  5  1  0  0  0
  4 88  1  0  0  0
  4 89  1  0  0  0
  5  6  1  0  0  0
  5 26  1  0  0  0
  5 90  1  0  0  0
  6 25  1  0  0  0
  6 91  1  0  0  0
  6 92  1  0  0  0
  7  8  2  0  0  0
  7 26  1  0  0  0
  7 29  1  0  0  0
  8  9  1  0  0  0
  8 22  1  0  0  0
  9 10  1  0  0  0
  9 27  2  0  0  0
 10 11  2  0  0  0
 10 15  1  0  0  0
 11 12  1  0  0  0
 11 93  1  0  0  0
 12 13  2  0  0  0
 12 94  1  0  0  0
 13 14  1  0  0  0
 13 31  1  0  0  0
 14 15  2  0  0  0
 14 95  1  0  0  0
 15 96  1  0  0  0
 16 17  2  0  0  0
 16 21  1  0  0  0
 16 31  1  0  0  0
 17 18  1  0  0  0
 17 97  1  0  0  0
 18 19  2  0  0  0
 18 98  1  0  0  0
 19 20  1  0  0  0
 19 24  1  0  0  0
 20 21  2  0  0  0
 20 99  1  0  0  0
 21 23  1  0  0  0
 22 28  1  0  0  0
 22 32  2  0  0  0
 26 27  1  0  0  0
 28100  1  0  0  0
 28101  1  0  0  0
 29102  1  0  0  0
 29103  1  0  0  0
 33 34  1  0  0  0
 33 66  1  0  0  0
 33 70  2  0  0  0
 34 36  1  0  0  0
 34 59  1  0  0  0
 34104  1  0  0  0
 35 44  2  0  0  0
 35 45  1  0  0  0
 35 68  1  0  0  0
 36 56  1  0  0  0
 36105  1  0  0  0
 37 39  1  0  0  0
 37 47  1  0  0  0
 37 66  1  0  0  0
 37106  1  0  0  0
 38 43  2  0  0  0
 38 46  1  0  0  0
 38 47  1  0  0  0
 39 64  1  0  0  0
 39 67  2  0  0  0
 40 52  1  0  0  0
 40 53  2  0  0  0
 40 58  1  0  0  0
 41107  1  0  0  0
 41108  1  0  0  0
 41109  1  0  0  0
 41 48  1  0  0  0
 42 43  1  0  0  0
 42 66  1  0  0  0
 42110  1  0  0  0
 42111  1  0  0  0
 43 44  1  0  0  0
 44112  1  0  0  0
 45 46  2  0  0  0
 45113  1  0  0  0
 46114  1  0  0  0
 47115  1  0  0  0
 47116  1  0  0  0
 48 56  1  0  0  0
 48 65  1  0  0  0
 48117  1  0  0  0
 49 50  1  0  0  0
 49 53  1  0  0  0
 49 64  1  0  0  0
 49118  1  0  0  0
 50 51  1  0  0  0
 50119  1  0  0  0
 50120  1  0  0  0
 51 52  1  0  0  0
 51121  1  0  0  0
 51122  1  0  0  0
 52123  1  0  0  0
 52124  1  0  0  0
 53 54  1  0  0  0
 54 55  2  0  0  0
 54125  1  0  0  0
 55 57  1  0  0  0
 55126  1  0  0  0
 56 69  2  0  0  0
 57 58  2  0  0  0
 57127  1  0  0  0
 58128  1  0  0  0
 59 60  1  0  0  0
 59 61  1  0  0  0
 59 62  1  0  0  0
 60129  1  0  0  0
 60130  1  0  0  0
 60131  1  0  0  0
 61132  1  0  0  0
 61133  1  0  0  0
 61134  1  0  0  0
 62135  1  0  0  0
 62136  1  0  0  0
 62137  1  0  0  0
 63 65  1  0  0  0
 63138  1  0  0  0
 63139  1  0  0  0
 63140  1  0  0  0
 64141  1  0  0  0
 65142  1  0  0  0
 68 79  1  0  0  0
 71 72  1  0  0  0
 71 74  2  0  0  0
 71143  1  0  0  0
 72 73  2  0  0  0
 72 75  1  0  0  0
 73 77  1  0  0  0
 73 83  1  0  0  0
 74 80  1  0  0  0
 74 83  1  0  0  0
 75 81  1  0  0  0
 75 82  2  0  0  0
 76 78  1  0  0  0
 76 79  1  0  0  0
 76 80  2  0  0  0
 77144  1  0  0  0
 77145  1  0  0  0
 77146  1  0  0  0
 78147  1  0  0  0
 78148  1  0  0  0
 78149  1  0  0  0
 79150  1  0  0  0
 79151  1  0  0  0
 81152  1  0  0  0
M  ISO  4   1 100  68 101  79 101  81 100
M  END
> <chiral flag>
0

> <version>
0

> <s_m_source_file>
/data/baiqing/PycharmProjects/Reinvent-master-3.2/result/LINK_invent/BTK/process_docking_weight1_custom_product_contain_oxygen_bond_distance_aromatic_linkinvent_7_9_3/rearranged_h_0086.sdf

> <i_m_source_file_index>
78

> <r_mmod_Potential_Energy-OPLS-2005>
383.461151123047

> <r_mmod_Stretch_Energy-OPLS-2005>
186.474243164062

> <r_mmod_Bend_Energy-OPLS-2005>
345.613037109375

> <r_mmod_Torsional_Energy-OPLS-2005>
244.016403198242

> <r_mmod_Improper_Torsional_Energy-OPLS-2005>
10.8426198959351

> <r_mmod_Van_der_Waal_Energy-OPLS-2005>
122.943511962891

> <r_mmod_Electrostatic_Energy-OPLS-2005>
-456.618988037109

> <r_mmod_Solvation_Energy-OPLS-2005>
-228.909637451172

> <b_mmod_Minimization_Converged-OPLS-2005>
0

> <r_mmod_RMS_Derivative-OPLS-2005>
12.0213012695312

$$$$
78
                    3D
 Structure written by MMmdl.
158167  0  0  1  0            999 V2000
  -30.6144  -14.6643   20.4978 C   0  0  0  0  0  0
  -30.4453  -12.4098   19.4535 C   0  0  0  0  0  0
  -29.5116  -12.5093   18.2265 C   0  0  0  0  0  0
  -28.0361  -12.3376   18.6395 C   0  0  0  0  0  0
  -27.6532  -13.2151   19.8596 C   0  0  2  0  0  0
  -28.6990  -13.0830   20.9908 C   0  0  0  0  0  0
  -25.2566  -13.8163   20.5677 C   0  0  0  0  0  0
  -24.1829  -13.0437   20.9190 C   0  0  0  0  0  0
  -24.6391  -11.6907   20.8730 C   0  0  0  0  0  0
  -23.9053  -10.4299   21.0396 C   0  0  0  0  0  0
  -24.3606   -9.4217   21.9176 C   0  0  0  0  0  0
  -23.6287   -8.2249   22.0751 C   0  0  0  0  0  0
  -22.4265   -8.0287   21.3549 C   0  0  0  0  0  0
  -21.9895   -9.0258   20.4649 C   0  0  0  0  0  0
  -22.7219  -10.2136   20.3053 C   0  0  0  0  0  0
  -21.6857   -6.0735   22.5279 C   0  0  0  0  0  0
  -21.4017   -6.5632   23.8211 C   0  0  0  0  0  0
  -21.3660   -5.6784   24.9172 C   0  0  0  0  0  0
  -21.6037   -4.3045   24.7221 C   0  0  0  0  0  0
  -21.8822   -3.8145   23.4342 C   0  0  0  0  0  0
  -21.9194   -4.6964   22.3399 C   0  0  0  0  0  0
  -22.7853  -13.5239   21.1845 C   0  0  0  0  0  0
  -22.1664   -4.2152   21.0974 F   0  0  0  0  0  0
  -21.5625   -3.4523   25.7735 F   0  0  0  0  0  0
  -30.0142  -13.4324   20.4272 N   0  0  0  0  0  0
  -26.2988  -12.9336   20.3294 N   0  0  0  0  0  0
  -25.9316  -11.6496   20.5736 N   0  0  0  0  0  0
  -22.0481  -12.8252   22.0404 N   0  0  0  0  0  0
  -25.4269  -15.1882   20.4073 N   0  0  0  0  0  0
  -31.7841  -14.8295   20.1384 O   0  0  0  0  0  0
  -21.6638   -6.8880   21.4243 O   0  0  0  0  0  0
  -22.3540  -14.5537   20.6677 O   0  0  0  0  0  0
  -24.6274  -31.8598   23.2033 C   0  0  0  0  0  0
  -25.9120  -32.4783   23.8359 C   0  0  1  0  0  0
  -27.2254  -27.3203   20.1209 C   0  0  0  0  0  0
  -25.5934  -33.8580   24.2290 N   0  0  0  0  0  0
  -23.4208  -30.4841   21.5467 C   0  0  2  0  0  0
  -24.8682  -28.9389   20.1125 C   0  0  0  0  0  0
  -22.7475  -29.4625   22.4940 C   0  0  0  0  0  0
  -18.0292  -28.1398   22.8486 C   0  0  0  0  0  0
  -24.1489  -36.7294   23.2632 C   0  0  0  0  0  0
  -25.9612  -30.7920   21.3734 C   0  0  0  0  0  0
  -26.0372  -29.4184   20.7180 C   0  0  0  0  0  0
  -27.2205  -28.6213   20.7110 C   0  0  0  0  0  0
  -26.0385  -26.8970   19.4830 C   0  0  0  0  0  0
  -24.8706  -27.6830   19.4866 C   0  0  0  0  0  0
  -23.6365  -29.8204   20.1615 C   0  0  0  0  0  0
  -25.4107  -36.3081   24.0330 C   0  0  1  0  0  0
  -20.5892  -28.3695   23.1290 C   0  0  2  0  0  0
  -20.6788  -26.9416   22.5416 C   0  0  0  0  0  0
  -19.5761  -26.6389   21.5221 C   0  0  0  0  0  0
  -18.1937  -26.7941   22.1626 C   0  0  0  0  0  0
  -19.1543  -28.8859   23.2886 C   0  0  0  0  0  0
  -18.9461  -30.1465   23.8900 C   0  0  0  0  0  0
  -17.6458  -30.6593   24.0565 C   0  0  0  0  0  0
  -25.9039  -34.9453   23.5100 C   0  0  0  0  0  0
  -16.5351  -29.9087   23.6332 C   0  0  0  0  0  0
  -16.7279  -28.6513   23.0339 C   0  0  0  0  0  0
  -26.4503  -31.6595   25.0729 C   0  0  0  0  0  0
  -25.3741  -31.3759   26.1467 C   0  0  0  0  0  0
  -27.0322  -30.3010   24.6179 C   0  0  0  0  0  0
  -27.6067  -32.4327   25.7498 C   0  0  0  0  0  0
  -27.5580  -37.1797   24.8459 C   0  0  0  0  0  0
  -21.4191  -29.3050   22.3685 N   0  0  0  0  0  0
  -26.4286  -37.3776   23.9408 N   0  0  0  0  0  0
  -24.6887  -31.0612   22.0986 N   0  0  0  0  0  0
  -23.4199  -28.8146   23.3009 O   0  0  0  0  0  0
  -28.3390  -26.4675   20.1391 O   0  0  0  0  0  0
  -26.5592  -34.8921   22.4658 O   0  0  0  0  0  0
  -23.5441  -32.1391   23.7369 O   0  0  0  0  0  0
  -28.6664  -19.2924   20.0896 C   0  0  0  0  0  0
  -28.6887  -17.8761   20.2537 C   0  0  0  0  0  0
  -31.0079  -17.9609   20.8606 C   0  0  0  0  0  0
  -30.9862  -19.3901   20.7361 C   0  0  0  0  0  0
  -29.8124  -20.1021   20.3062 C   0  0  0  0  0  0
  -29.8614  -17.1601   20.6149 C   0  0  0  0  0  0
  -30.0762  -24.2444   19.1942 C   0  0  0  0  0  0
  -30.7929  -21.9562   19.0697 C   0  0  0  0  0  0
  -29.0810  -23.9439   20.0546 C   0  0  0  0  0  0
  -30.9625  -23.2286   18.6745 C   0  0  0  0  0  0
  -28.9153  -22.5044   20.4943 C   0  0  0  0  0  0
  -32.2551  -20.1399   21.1200 C   0  0  0  0  0  0
  -28.1152  -25.0642   20.5769 C   0  0  0  0  0  0
  -29.8023  -21.5522   19.9887 N   0  0  0  0  0  0
  -29.7786  -15.7084   20.8067 N   0  0  0  0  0  0
  -28.0255  -22.1737   21.2859 O   0  0  0  0  0  0
  -31.9342  -23.5399   17.8104 O   0  0  0  0  0  0
  -31.4843  -12.5467   19.1475 H   0  0  0  0  0  0
  -30.3916  -11.4164   19.9007 H   0  0  0  0  0  0
  -29.7807  -11.7586   17.4828 H   0  0  0  0  0  0
  -29.6457  -13.4788   17.7434 H   0  0  0  0  0  0
  -27.8835  -11.2849   18.8832 H   0  0  0  0  0  0
  -27.3790  -12.5531   17.7960 H   0  0  0  0  0  0
  -27.6671  -14.2463   19.5062 H   0  0  0  0  0  0
  -28.7176  -12.0645   21.3806 H   0  0  0  0  0  0
  -28.4391  -13.7209   21.8369 H   0  0  0  0  0  0
  -25.2752   -9.5691   22.4748 H   0  0  0  0  0  0
  -23.9998   -7.4635   22.7465 H   0  0  0  0  0  0
  -21.0825   -8.8766   19.8955 H   0  0  0  0  0  0
  -22.3672  -10.9668   19.6158 H   0  0  0  0  0  0
  -21.2013   -7.6144   23.9712 H   0  0  0  0  0  0
  -21.1472   -6.0515   25.9070 H   0  0  0  0  0  0
  -22.0600   -2.7609   23.2839 H   0  0  0  0  0  0
  -22.4075  -11.9922   22.4826 H   0  0  0  0  0  0
  -21.1099  -13.1300   22.2579 H   0  0  0  0  0  0
  -24.6567  -15.8405   20.5105 H   0  0  0  0  0  0
  -26.2625  -15.6196   20.0369 H   0  0  0  0  0  0
  -26.7186  -32.5453   23.1111 H   0  0  0  0  0  0
  -25.0132  -33.9724   25.0467 H   0  0  0  0  0  0
  -22.7155  -31.3058   21.4061 H   0  0  0  0  0  0
  -23.3754  -35.9623   23.3291 H   0  0  0  0  0  0
  -24.3589  -36.8913   22.2048 H   0  0  0  0  0  0
  -23.7244  -37.6497   23.6652 H   0  0  0  0  0  0
  -26.0883  -31.5546   20.6041 H   0  0  0  0  0  0
  -26.8435  -30.8453   21.9992 H   0  0  0  0  0  0
  -28.1186  -28.9855   21.1898 H   0  0  0  0  0  0
  -26.0001  -25.9440   18.9753 H   0  0  0  0  0  0
  -23.9767  -27.3124   19.0041 H   0  0  0  0  0  0
  -23.7590  -30.6002   19.4090 H   0  0  0  0  0  0
  -22.7552  -29.2543   19.8550 H   0  0  0  0  0  0
  -25.1290  -36.1931   25.0822 H   0  0  0  0  0  0
  -20.9991  -28.3274   24.1407 H   0  0  0  0  0  0
  -20.5720  -26.2286   23.3607 H   0  0  0  0  0  0
  -21.6650  -26.7463   22.1188 H   0  0  0  0  0  0
  -19.6914  -25.6296   21.1254 H   0  0  0  0  0  0
  -19.6709  -27.3198   20.6750 H   0  0  0  0  0  0
  -17.4209  -26.6701   21.4024 H   0  0  0  0  0  0
  -18.0323  -26.0094   22.9029 H   0  0  0  0  0  0
  -19.7927  -30.7292   24.2263 H   0  0  0  0  0  0
  -17.5003  -31.6273   24.5162 H   0  0  0  0  0  0
  -15.5349  -30.2978   23.7659 H   0  0  0  0  0  0
  -15.8685  -28.0833   22.7037 H   0  0  0  0  0  0
  -24.5901  -30.7116   25.7816 H   0  0  0  0  0  0
  -24.8956  -32.2940   26.4885 H   0  0  0  0  0  0
  -25.8073  -30.8949   27.0244 H   0  0  0  0  0  0
  -26.2875  -29.6783   24.1207 H   0  0  0  0  0  0
  -27.4010  -29.7257   25.4682 H   0  0  0  0  0  0
  -27.8760  -30.4285   23.9394 H   0  0  0  0  0  0
  -27.2678  -33.3630   26.2068 H   0  0  0  0  0  0
  -28.3881  -32.6879   25.0327 H   0  0  0  0  0  0
  -28.0729  -31.8457   26.5423 H   0  0  0  0  0  0
  -28.2591  -38.0100   24.7503 H   0  0  0  0  0  0
  -28.1084  -36.2632   24.6280 H   0  0  0  0  0  0
  -27.2300  -37.1438   25.8862 H   0  0  0  0  0  0
  -20.9354  -29.8774   21.6906 H   0  0  0  0  0  0
  -26.0173  -38.2848   24.1427 H   0  0  0  0  0  0
  -27.7455  -19.7574   19.7650 H   0  0  0  0  0  0
  -27.7730  -17.3327   20.0735 H   0  0  0  0  0  0
  -31.9203  -17.4771   21.1827 H   0  0  0  0  0  0
  -30.2001  -25.2708   18.8760 H   0  0  0  0  0  0
  -31.4078  -21.1511   18.6936 H   0  0  0  0  0  0
  -32.7919  -19.6170   21.9120 H   0  0  0  0  0  0
  -32.0316  -21.1386   21.4973 H   0  0  0  0  0  0
  -32.9269  -20.2341   20.2670 H   0  0  0  0  0  0
  -28.1804  -25.0628   21.6657 H   0  0  0  0  0  0
  -27.1061  -24.7211   20.3549 H   0  0  0  0  0  0
  -28.8528  -15.3788   21.0337 H   0  0  0  0  0  0
  -31.9240  -24.4815   17.6846 H   0  0  0  0  0  0
  1 25  1  0  0  0
  1 30  2  0  0  0
  1 85  1  0  0  0
  2  3  1  0  0  0
  2 25  1  0  0  0
  2 88  1  0  0  0
  2 89  1  0  0  0
  3  4  1  0  0  0
  3 90  1  0  0  0
  3 91  1  0  0  0
  4  5  1  0  0  0
  4 92  1  0  0  0
  4 93  1  0  0  0
  5  6  1  0  0  0
  5 26  1  0  0  0
  5 94  1  0  0  0
  6 25  1  0  0  0
  6 95  1  0  0  0
  6 96  1  0  0  0
  7  8  2  0  0  0
  7 26  1  0  0  0
  7 29  1  0  0  0
  8  9  1  0  0  0
  8 22  1  0  0  0
  9 10  1  0  0  0
  9 27  2  0  0  0
 10 11  2  0  0  0
 10 15  1  0  0  0
 11 12  1  0  0  0
 11 97  1  0  0  0
 12 13  2  0  0  0
 12 98  1  0  0  0
 13 14  1  0  0  0
 13 31  1  0  0  0
 14 15  2  0  0  0
 14 99  1  0  0  0
 15100  1  0  0  0
 16 17  2  0  0  0
 16 21  1  0  0  0
 16 31  1  0  0  0
 17 18  1  0  0  0
 17101  1  0  0  0
 18 19  2  0  0  0
 18102  1  0  0  0
 19 20  1  0  0  0
 19 24  1  0  0  0
 20 21  2  0  0  0
 20103  1  0  0  0
 21 23  1  0  0  0
 22 28  1  0  0  0
 22 32  2  0  0  0
 26 27  1  0  0  0
 28104  1  0  0  0
 28105  1  0  0  0
 29106  1  0  0  0
 29107  1  0  0  0
 33 34  1  0  0  0
 33 66  1  0  0  0
 33 70  2  0  0  0
 34 36  1  0  0  0
 34 59  1  0  0  0
 34108  1  0  0  0
 35 44  2  0  0  0
 35 45  1  0  0  0
 35 68  1  0  0  0
 36 56  1  0  0  0
 36109  1  0  0  0
 37 39  1  0  0  0
 37 47  1  0  0  0
 37 66  1  0  0  0
 37110  1  0  0  0
 38 43  2  0  0  0
 38 46  1  0  0  0
 38 47  1  0  0  0
 39 64  1  0  0  0
 39 67  2  0  0  0
 40 52  1  0  0  0
 40 53  2  0  0  0
 40 58  1  0  0  0
 41111  1  0  0  0
 41112  1  0  0  0
 41113  1  0  0  0
 41 48  1  0  0  0
 42 43  1  0  0  0
 42 66  1  0  0  0
 42114  1  0  0  0
 42115  1  0  0  0
 43 44  1  0  0  0
 44116  1  0  0  0
 45 46  2  0  0  0
 45117  1  0  0  0
 46118  1  0  0  0
 47119  1  0  0  0
 47120  1  0  0  0
 48 56  1  0  0  0
 48 65  1  0  0  0
 48121  1  0  0  0
 49 50  1  0  0  0
 49 53  1  0  0  0
 49 64  1  0  0  0
 49122  1  0  0  0
 50 51  1  0  0  0
 50123  1  0  0  0
 50124  1  0  0  0
 51 52  1  0  0  0
 51125  1  0  0  0
 51126  1  0  0  0
 52127  1  0  0  0
 52128  1  0  0  0
 53 54  1  0  0  0
 54 55  2  0  0  0
 54129  1  0  0  0
 55 57  1  0  0  0
 55130  1  0  0  0
 56 69  2  0  0  0
 57 58  2  0  0  0
 57131  1  0  0  0
 58132  1  0  0  0
 59 60  1  0  0  0
 59 61  1  0  0  0
 59 62  1  0  0  0
 60133  1  0  0  0
 60134  1  0  0  0
 60135  1  0  0  0
 61136  1  0  0  0
 61137  1  0  0  0
 61138  1  0  0  0
 62139  1  0  0  0
 62140  1  0  0  0
 62141  1  0  0  0
 63 65  1  0  0  0
 63142  1  0  0  0
 63143  1  0  0  0
 63144  1  0  0  0
 64145  1  0  0  0
 65146  1  0  0  0
 68 83  1  0  0  0
 71 72  2  0  0  0
 71 75  1  0  0  0
 71147  1  0  0  0
 72 76  1  0  0  0
 72148  1  0  0  0
 73 74  1  0  0  0
 73 76  2  0  0  0
 73149  1  0  0  0
 74 75  2  0  0  0
 74 82  1  0  0  0
 75 84  1  0  0  0
 76 85  1  0  0  0
 77 79  2  0  0  0
 77 80  1  0  0  0
 77150  1  0  0  0
 78 80  2  0  0  0
 78 84  1  0  0  0
 78151  1  0  0  0
 79 81  1  0  0  0
 79 83  1  0  0  0
 80 87  1  0  0  0
 81 84  1  0  0  0
 81 86  2  0  0  0
 82152  1  0  0  0
 82153  1  0  0  0
 82154  1  0  0  0
 83155  1  0  0  0
 83156  1  0  0  0
 85157  1  0  0  0
 87158  1  0  0  0
M  ISO  4   1 100  68 101  83 101  85 100
M  END
> <chiral flag>
0

> <version>
0

> <s_m_source_file>
/data/baiqing/PycharmProjects/Reinvent-master-3.2/result/LINK_invent/BTK/process_docking_weight1_custom_product_contain_oxygen_bond_distance_aromatic_linkinvent_7_9_3/rearranged_h_0086.sdf

> <i_m_source_file_index>
79

> <r_mmod_Potential_Energy-OPLS-2005>
148.240234375

> <r_mmod_Stretch_Energy-OPLS-2005>
95.10107421875

> <r_mmod_Bend_Energy-OPLS-2005>
136.081665039062

> <r_mmod_Torsional_Energy-OPLS-2005>
270.420440673828

> <r_mmod_Improper_Torsional_Energy-OPLS-2005>
5.49455785751343

> <r_mmod_Van_der_Waal_Energy-OPLS-2005>
166.243499755859

> <r_mmod_Electrostatic_Energy-OPLS-2005>
-349.846069335938

> <r_mmod_Solvation_Energy-OPLS-2005>
-227.925369262695

> <b_mmod_Minimization_Converged-OPLS-2005>
0

> <r_mmod_RMS_Derivative-OPLS-2005>
1.4194073677063

$$$$
79
                    3D
 Structure written by MMmdl.
154162  0  0  1  0            999 V2000
  -30.5591  -14.7103   20.5131 C   0  0  0  0  0  0
  -30.4562  -12.4436   19.4613 C   0  0  0  0  0  0
  -29.5190  -12.5226   18.2313 C   0  0  0  0  0  0
  -28.0405  -12.3455   18.6375 C   0  0  0  0  0  0
  -27.6542  -13.2155   19.8642 C   0  0  2  0  0  0
  -28.6952  -13.0694   20.9953 C   0  0  0  0  0  0
  -25.2582  -13.8143   20.5727 C   0  0  0  0  0  0
  -24.1835  -13.0409   20.9163 C   0  0  0  0  0  0
  -24.6405  -11.6887   20.8713 C   0  0  0  0  0  0
  -23.9061  -10.4280   21.0385 C   0  0  0  0  0  0
  -24.3621   -9.4207   21.9165 C   0  0  0  0  0  0
  -23.6309   -8.2239   22.0743 C   0  0  0  0  0  0
  -22.4282   -8.0268   21.3537 C   0  0  0  0  0  0
  -21.9900   -9.0240   20.4632 C   0  0  0  0  0  0
  -22.7227  -10.2124   20.3039 C   0  0  0  0  0  0
  -21.6852   -6.0731   22.5286 C   0  0  0  0  0  0
  -21.4019   -6.5639   23.8221 C   0  0  0  0  0  0
  -21.3662   -5.6788   24.9179 C   0  0  0  0  0  0
  -21.6051   -4.3049   24.7221 C   0  0  0  0  0  0
  -21.8828   -3.8144   23.4339 C   0  0  0  0  0  0
  -21.9195   -4.6961   22.3404 C   0  0  0  0  0  0
  -22.7859  -13.5212   21.1834 C   0  0  0  0  0  0
  -22.1659   -4.2154   21.0975 F   0  0  0  0  0  0
  -21.5649   -3.4530   25.7735 F   0  0  0  0  0  0
  -30.0044  -13.4544   20.4428 N   0  0  0  0  0  0
  -26.2987  -12.9318   20.3303 N   0  0  0  0  0  0
  -25.9328  -11.6472   20.5723 N   0  0  0  0  0  0
  -22.0502  -12.8226   22.0404 N   0  0  0  0  0  0
  -25.4321  -15.1882   20.4311 N   0  0  0  0  0  0
  -31.7066  -14.9207   20.1042 O   0  0  0  0  0  0
  -21.6641   -6.8867   21.4243 O   0  0  0  0  0  0
  -22.3553  -14.5519   20.6677 O   0  0  0  0  0  0
  -24.6269  -31.8583   23.1999 C   0  0  0  0  0  0
  -25.9114  -32.4772   23.8340 C   0  0  1  0  0  0
  -27.2232  -27.2931   20.1301 C   0  0  0  0  0  0
  -25.5921  -33.8569   24.2263 N   0  0  0  0  0  0
  -23.4216  -30.4810   21.5428 C   0  0  2  0  0  0
  -24.8705  -28.9320   20.1100 C   0  0  0  0  0  0
  -22.7479  -29.4622   22.4924 C   0  0  0  0  0  0
  -18.0297  -28.1384   22.8494 C   0  0  0  0  0  0
  -24.1490  -36.7291   23.2630 C   0  0  0  0  0  0
  -25.9637  -30.7837   21.3722 C   0  0  0  0  0  0
  -26.0401  -29.4087   20.7138 C   0  0  0  0  0  0
  -27.2198  -28.6026   20.7109 C   0  0  0  0  0  0
  -26.0273  -26.8740   19.5018 C   0  0  0  0  0  0
  -24.8676  -27.6717   19.4932 C   0  0  0  0  0  0
  -23.6376  -29.8124   20.1590 C   0  0  0  0  0  0
  -25.4104  -36.3064   24.0325 C   0  0  1  0  0  0
  -20.5895  -28.3692   23.1283 C   0  0  2  0  0  0
  -20.6789  -26.9417   22.5416 C   0  0  0  0  0  0
  -19.5754  -26.6382   21.5231 C   0  0  0  0  0  0
  -18.1934  -26.7932   22.1639 C   0  0  0  0  0  0
  -19.1548  -28.8855   23.2883 C   0  0  0  0  0  0
  -18.9465  -30.1461   23.8896 C   0  0  0  0  0  0
  -17.6462  -30.6591   24.0563 C   0  0  0  0  0  0
  -25.9055  -34.9443   23.5093 C   0  0  0  0  0  0
  -16.5359  -29.9087   23.6326 C   0  0  0  0  0  0
  -16.7280  -28.6498   23.0356 C   0  0  0  0  0  0
  -26.4488  -31.6589   25.0717 C   0  0  0  0  0  0
  -25.3715  -31.3750   26.1441 C   0  0  0  0  0  0
  -27.0330  -30.3003   24.6191 C   0  0  0  0  0  0
  -27.6032  -32.4336   25.7497 C   0  0  0  0  0  0
  -27.5593  -37.1771   24.8439 C   0  0  0  0  0  0
  -21.4191  -29.3047   22.3671 N   0  0  0  0  0  0
  -26.4270  -37.3771   23.9435 N   0  0  0  0  0  0
  -24.6901  -31.0572   22.0960 N   0  0  0  0  0  0
  -23.4200  -28.8150   23.3000 O   0  0  0  0  0  0
  -28.3357  -26.4304   20.1899 O   0  0  0  0  0  0
  -26.5619  -34.8915   22.4657 O   0  0  0  0  0  0
  -23.5430  -32.1399   23.7316 O   0  0  0  0  0  0
  -30.1683  -19.4637   19.9665 C   0  0  0  0  0  0
  -28.2609  -19.2158   21.3913 C   0  0  0  0  0  0
  -30.4329  -18.0497   20.0646 C   0  0  0  0  0  0
  -28.5251  -17.8160   21.4990 C   0  0  0  0  0  0
  -29.0588  -20.0918   20.6049 C   0  0  0  0  0  0
  -29.6056  -17.1740   20.8305 C   0  0  0  0  0  0
  -28.6633  -21.5807   20.4241 C   0  0  0  0  0  0
  -29.3564  -24.0004   20.4453 C   0  0  0  0  0  0
  -30.6224  -24.8077   20.6533 C   0  0  0  0  0  0
  -28.1256  -24.9493   20.1032 C   0  0  0  0  0  0
  -29.4996  -22.6889   20.5549 N   0  0  0  0  0  0
  -29.7106  -15.7052   20.9569 N   0  0  0  0  0  0
  -27.4219  -21.7651   20.0971 N   0  3  0  0  0  0
  -31.4927  -12.6088   19.1593 H   0  0  0  0  0  0
  -30.4302  -11.4469   19.9037 H   0  0  0  0  0  0
  -29.7979  -11.7667   17.4966 H   0  0  0  0  0  0
  -29.6487  -13.4861   17.7362 H   0  0  0  0  0  0
  -27.8859  -11.2902   18.8654 H   0  0  0  0  0  0
  -27.3868  -12.5725   17.7957 H   0  0  0  0  0  0
  -27.6661  -14.2509   19.5239 H   0  0  0  0  0  0
  -28.7267  -12.0389   21.3529 H   0  0  0  0  0  0
  -28.4247  -13.6741   21.8630 H   0  0  0  0  0  0
  -25.2764   -9.5704   22.4724 H   0  0  0  0  0  0
  -24.0023   -7.4633   22.7463 H   0  0  0  0  0  0
  -21.0821   -8.8758   19.8949 H   0  0  0  0  0  0
  -22.3668  -10.9664   19.6154 H   0  0  0  0  0  0
  -21.2019   -7.6147   23.9725 H   0  0  0  0  0  0
  -21.1466   -6.0512   25.9088 H   0  0  0  0  0  0
  -22.0604   -2.7594   23.2839 H   0  0  0  0  0  0
  -22.4098  -11.9896   22.4835 H   0  0  0  0  0  0
  -21.1120  -13.1277   22.2574 H   0  0  0  0  0  0
  -24.6797  -15.8454   20.6053 H   0  0  0  0  0  0
  -26.2927  -15.6384   20.1501 H   0  0  0  0  0  0
  -26.7173  -32.5420   23.1084 H   0  0  0  0  0  0
  -25.0050  -33.9718   25.0394 H   0  0  0  0  0  0
  -22.7162  -31.3021   21.3965 H   0  0  0  0  0  0
  -23.3777  -35.9595   23.3204 H   0  0  0  0  0  0
  -24.3612  -36.9008   22.2068 H   0  0  0  0  0  0
  -23.7219  -37.6449   23.6717 H   0  0  0  0  0  0
  -26.0944  -31.5469   20.6042 H   0  0  0  0  0  0
  -26.8437  -30.8334   22.0018 H   0  0  0  0  0  0
  -28.1157  -28.9652   21.1975 H   0  0  0  0  0  0
  -25.9592  -25.9100   19.0235 H   0  0  0  0  0  0
  -23.9710  -27.3006   19.0187 H   0  0  0  0  0  0
  -23.7550  -30.5887   19.4023 H   0  0  0  0  0  0
  -22.7580  -29.2421   19.8548 H   0  0  0  0  0  0
  -25.1282  -36.1890   25.0814 H   0  0  0  0  0  0
  -20.9992  -28.3268   24.1401 H   0  0  0  0  0  0
  -20.5715  -26.2299   23.3613 H   0  0  0  0  0  0
  -21.6646  -26.7460   22.1184 H   0  0  0  0  0  0
  -19.6915  -25.6287   21.1262 H   0  0  0  0  0  0
  -19.6699  -27.3197   20.6758 H   0  0  0  0  0  0
  -17.4217  -26.6697   21.4031 H   0  0  0  0  0  0
  -18.0323  -26.0075   22.9026 H   0  0  0  0  0  0
  -19.7935  -30.7285   24.2266 H   0  0  0  0  0  0
  -17.5009  -31.6268   24.5162 H   0  0  0  0  0  0
  -15.5353  -30.2984   23.7640 H   0  0  0  0  0  0
  -15.8684  -28.0807   22.7071 H   0  0  0  0  0  0
  -24.5873  -30.7126   25.7763 H   0  0  0  0  0  0
  -24.8943  -32.2939   26.4855 H   0  0  0  0  0  0
  -25.8025  -30.8922   27.0222 H   0  0  0  0  0  0
  -26.2910  -29.6761   24.1205 H   0  0  0  0  0  0
  -27.3997  -29.7253   25.4705 H   0  0  0  0  0  0
  -27.8787  -30.4269   23.9431 H   0  0  0  0  0  0
  -27.2615  -33.3627   26.2066 H   0  0  0  0  0  0
  -28.3847  -32.6926   25.0344 H   0  0  0  0  0  0
  -28.0696  -31.8487   26.5433 H   0  0  0  0  0  0
  -28.2506  -38.0169   24.7608 H   0  0  0  0  0  0
  -28.1197  -36.2707   24.6094 H   0  0  0  0  0  0
  -27.2337  -37.1195   25.8840 H   0  0  0  0  0  0
  -20.9372  -29.8752   21.6861 H   0  0  0  0  0  0
  -26.0139  -38.2816   24.1530 H   0  0  0  0  0  0
  -30.8117  -20.0790   19.3562 H   0  0  0  0  0  0
  -27.4104  -19.6191   21.9196 H   0  0  0  0  0  0
  -31.2721  -17.6467   19.5174 H   0  0  0  0  0  0
  -27.8548  -17.2270   22.1097 H   0  0  0  0  0  0
  -30.4527  -25.6330   21.3441 H   0  0  0  0  0  0
  -30.9588  -25.2132   19.6992 H   0  0  0  0  0  0
  -31.4295  -24.1977   21.0616 H   0  0  0  0  0  0
  -27.2931  -24.6729   20.7543 H   0  0  0  0  0  0
  -27.8256  -24.7145   19.0824 H   0  0  0  0  0  0
  -28.8891  -15.2911   21.3702 H   0  0  0  0  0  0
  -26.7901  -20.9825   19.9307 H   0  0  0  0  0  0
  -26.9952  -22.6719   19.9515 H   0  0  0  0  0  0
  1 25  1  0  0  0
  1 30  2  0  0  0
  1 82  1  0  0  0
  2  3  1  0  0  0
  2 25  1  0  0  0
  2 84  1  0  0  0
  2 85  1  0  0  0
  3  4  1  0  0  0
  3 86  1  0  0  0
  3 87  1  0  0  0
  4  5  1  0  0  0
  4 88  1  0  0  0
  4 89  1  0  0  0
  5  6  1  0  0  0
  5 26  1  0  0  0
  5 90  1  0  0  0
  6 25  1  0  0  0
  6 91  1  0  0  0
  6 92  1  0  0  0
  7  8  2  0  0  0
  7 26  1  0  0  0
  7 29  1  0  0  0
  8  9  1  0  0  0
  8 22  1  0  0  0
  9 10  1  0  0  0
  9 27  2  0  0  0
 10 11  2  0  0  0
 10 15  1  0  0  0
 11 12  1  0  0  0
 11 93  1  0  0  0
 12 13  2  0  0  0
 12 94  1  0  0  0
 13 14  1  0  0  0
 13 31  1  0  0  0
 14 15  2  0  0  0
 14 95  1  0  0  0
 15 96  1  0  0  0
 16 17  2  0  0  0
 16 21  1  0  0  0
 16 31  1  0  0  0
 17 18  1  0  0  0
 17 97  1  0  0  0
 18 19  2  0  0  0
 18 98  1  0  0  0
 19 20  1  0  0  0
 19 24  1  0  0  0
 20 21  2  0  0  0
 20 99  1  0  0  0
 21 23  1  0  0  0
 22 28  1  0  0  0
 22 32  2  0  0  0
 26 27  1  0  0  0
 28100  1  0  0  0
 28101  1  0  0  0
 29102  1  0  0  0
 29103  1  0  0  0
 33 34  1  0  0  0
 33 66  1  0  0  0
 33 70  2  0  0  0
 34 36  1  0  0  0
 34 59  1  0  0  0
 34104  1  0  0  0
 35 44  2  0  0  0
 35 45  1  0  0  0
 35 68  1  0  0  0
 36 56  1  0  0  0
 36105  1  0  0  0
 37 39  1  0  0  0
 37 47  1  0  0  0
 37 66  1  0  0  0
 37106  1  0  0  0
 38 43  2  0  0  0
 38 46  1  0  0  0
 38 47  1  0  0  0
 39 64  1  0  0  0
 39 67  2  0  0  0
 40 52  1  0  0  0
 40 53  2  0  0  0
 40 58  1  0  0  0
 41107  1  0  0  0
 41108  1  0  0  0
 41109  1  0  0  0
 41 48  1  0  0  0
 42 43  1  0  0  0
 42 66  1  0  0  0
 42110  1  0  0  0
 42111  1  0  0  0
 43 44  1  0  0  0
 44112  1  0  0  0
 45 46  2  0  0  0
 45113  1  0  0  0
 46114  1  0  0  0
 47115  1  0  0  0
 47116  1  0  0  0
 48 56  1  0  0  0
 48 65  1  0  0  0
 48117  1  0  0  0
 49 50  1  0  0  0
 49 53  1  0  0  0
 49 64  1  0  0  0
 49118  1  0  0  0
 50 51  1  0  0  0
 50119  1  0  0  0
 50120  1  0  0  0
 51 52  1  0  0  0
 51121  1  0  0  0
 51122  1  0  0  0
 52123  1  0  0  0
 52124  1  0  0  0
 53 54  1  0  0  0
 54 55  2  0  0  0
 54125  1  0  0  0
 55 57  1  0  0  0
 55126  1  0  0  0
 56 69  2  0  0  0
 57 58  2  0  0  0
 57127  1  0  0  0
 58128  1  0  0  0
 59 60  1  0  0  0
 59 61  1  0  0  0
 59 62  1  0  0  0
 60129  1  0  0  0
 60130  1  0  0  0
 60131  1  0  0  0
 61132  1  0  0  0
 61133  1  0  0  0
 61134  1  0  0  0
 62135  1  0  0  0
 62136  1  0  0  0
 62137  1  0  0  0
 63 65  1  0  0  0
 63138  1  0  0  0
 63139  1  0  0  0
 63140  1  0  0  0
 64141  1  0  0  0
 65142  1  0  0  0
 68 80  1  0  0  0
 71 73  2  0  0  0
 71 75  1  0  0  0
 71143  1  0  0  0
 72 74  1  0  0  0
 72 75  2  0  0  0
 72144  1  0  0  0
 73 76  1  0  0  0
 73145  1  0  0  0
 74 76  2  0  0  0
 74146  1  0  0  0
 75 77  1  0  0  0
 76 82  1  0  0  0
 77 81  1  0  0  0
 77 83  2  0  0  0
 78 79  1  0  0  0
 78 80  1  0  0  0
 78 81  2  0  0  0
 79147  1  0  0  0
 79148  1  0  0  0
 79149  1  0  0  0
 80150  1  0  0  0
 80151  1  0  0  0
 82152  1  0  0  0
 83153  1  0  0  0
 83154  1  0  0  0
M  CHG  1  83   1
M  ISO  4   1 100  68 101  80 101  82 100
M  END
> <chiral flag>
0

> <version>
0

> <s_m_source_file>
/data/baiqing/PycharmProjects/Reinvent-master-3.2/result/LINK_invent/BTK/process_docking_weight1_custom_product_contain_oxygen_bond_distance_aromatic_linkinvent_7_9_3/rearranged_h_0086.sdf

> <i_m_source_file_index>
80

> <r_mmod_Potential_Energy-OPLS-2005>
115.777496337891

> <r_mmod_Stretch_Energy-OPLS-2005>
109.505142211914

> <r_mmod_Bend_Energy-OPLS-2005>
196.357925415039

> <r_mmod_Torsional_Energy-OPLS-2005>
223.079360961914

> <r_mmod_Improper_Torsional_Energy-OPLS-2005>
3.36541962623596

> <r_mmod_Van_der_Waal_Energy-OPLS-2005>
142.807083129883

> <r_mmod_Electrostatic_Energy-OPLS-2005>
-152.099914550781

> <r_mmod_Solvation_Energy-OPLS-2005>
-476.805480957031

> <b_mmod_Minimization_Converged-OPLS-2005>
0

> <r_mmod_RMS_Derivative-OPLS-2005>
2.82205009460449

$$$$
80
                    3D
 Structure written by MMmdl.
155164  0  0  1  0            999 V2000
  -30.6127  -14.5331   20.5334 C   0  0  0  0  0  0
  -30.4390  -12.3367   19.4145 C   0  0  0  0  0  0
  -29.5087  -12.5314   18.1997 C   0  0  0  0  0  0
  -28.0282  -12.3764   18.6058 C   0  0  0  0  0  0
  -27.6672  -13.1954   19.8751 C   0  0  2  0  0  0
  -28.7097  -12.9447   20.9886 C   0  0  0  0  0  0
  -25.2659  -13.8128   20.5650 C   0  0  0  0  0  0
  -24.1911  -13.0437   20.9184 C   0  0  0  0  0  0
  -24.6445  -11.6897   20.8756 C   0  0  0  0  0  0
  -23.9085  -10.4325   21.0406 C   0  0  0  0  0  0
  -24.3669   -9.4240   21.9148 C   0  0  0  0  0  0
  -23.6358   -8.2261   22.0725 C   0  0  0  0  0  0
  -22.4337   -8.0304   21.3502 C   0  0  0  0  0  0
  -21.9956   -9.0281   20.4592 C   0  0  0  0  0  0
  -22.7281  -10.2166   20.3030 C   0  0  0  0  0  0
  -21.6884   -6.0776   22.5284 C   0  0  0  0  0  0
  -21.4041   -6.5674   23.8226 C   0  0  0  0  0  0
  -21.3646   -5.6790   24.9151 C   0  0  0  0  0  0
  -21.6052   -4.3054   24.7175 C   0  0  0  0  0  0
  -21.8831   -3.8177   23.4278 C   0  0  0  0  0  0
  -21.9209   -4.7003   22.3366 C   0  0  0  0  0  0
  -22.7938  -13.5253   21.1836 C   0  0  0  0  0  0
  -22.1662   -4.2204   21.0932 F   0  0  0  0  0  0
  -21.5622   -3.4517   25.7677 F   0  0  0  0  0  0
  -30.0326  -13.3008   20.4473 N   0  0  0  0  0  0
  -26.3062  -12.9250   20.3310 N   0  0  0  0  0  0
  -25.9374  -11.6435   20.5766 N   0  0  0  0  0  0
  -22.0595  -12.8238   22.0363 N   0  0  0  0  0  0
  -25.4389  -15.1832   20.4018 N   0  0  0  0  0  0
  -31.7279  -14.7845   20.0647 O   0  0  0  0  0  0
  -21.6653   -6.8929   21.4272 O   0  0  0  0  0  0
  -22.3643  -14.5570   20.6716 O   0  0  0  0  0  0
  -24.6194  -31.8592   23.2039 C   0  0  0  0  0  0
  -25.9019  -32.4797   23.8360 C   0  0  1  0  0  0
  -27.2326  -27.3931   20.0774 C   0  0  0  0  0  0
  -25.5793  -33.8588   24.2302 N   0  0  0  0  0  0
  -23.4127  -30.4773   21.5520 C   0  0  2  0  0  0
  -24.8573  -28.9432   20.0970 C   0  0  0  0  0  0
  -22.7488  -29.4551   22.5036 C   0  0  0  0  0  0
  -18.0248  -28.1400   22.8469 C   0  0  0  0  0  0
  -24.1458  -36.7319   23.2641 C   0  0  0  0  0  0
  -25.9416  -30.8191   21.3489 C   0  0  0  0  0  0
  -26.0202  -29.4495   20.6916 C   0  0  0  0  0  0
  -27.2112  -28.6828   20.6705 C   0  0  0  0  0  0
  -26.0545  -26.9174   19.4626 C   0  0  0  0  0  0
  -24.8755  -27.6878   19.4656 C   0  0  0  0  0  0
  -23.6176  -29.8071   20.1641 C   0  0  0  0  0  0
  -25.4073  -36.3111   24.0358 C   0  0  1  0  0  0
  -20.5856  -28.3652   23.1380 C   0  0  2  0  0  0
  -20.6739  -26.9395   22.5461 C   0  0  0  0  0  0
  -19.5715  -26.6394   21.5247 C   0  0  0  0  0  0
  -18.1889  -26.7927   22.1639 C   0  0  0  0  0  0
  -19.1501  -28.8849   23.2896 C   0  0  0  0  0  0
  -18.9418  -30.1454   23.8913 C   0  0  0  0  0  0
  -17.6411  -30.6583   24.0570 C   0  0  0  0  0  0
  -25.8981  -34.9474   23.5155 C   0  0  0  0  0  0
  -16.5308  -29.9079   23.6329 C   0  0  0  0  0  0
  -16.7236  -28.6514   23.0325 C   0  0  0  0  0  0
  -26.4446  -31.6568   25.0677 C   0  0  0  0  0  0
  -25.3714  -31.3592   26.1419 C   0  0  0  0  0  0
  -27.0246  -30.3029   24.5949 C   0  0  0  0  0  0
  -27.6054  -32.4247   25.7411 C   0  0  0  0  0  0
  -27.5591  -37.1783   24.8464 C   0  0  0  0  0  0
  -21.4205  -29.2977   22.3799 N   0  0  0  0  0  0
  -26.4265  -37.3800   23.9433 N   0  0  0  0  0  0
  -24.6795  -31.0646   22.0959 N   0  0  0  0  0  0
  -23.4251  -28.8088   23.3083 O   0  0  0  0  0  0
  -28.3450  -26.5847   20.2411 O   0  0  0  0  0  0
  -26.5607  -34.8971   22.4758 O   0  0  0  0  0  0
  -23.5368  -32.1322   23.7437 O   0  0  0  0  0  0
  -29.2611  -18.9993   19.7963 C   0  0  0  0  0  0
  -29.6913  -17.6381   19.7928 C   0  0  0  0  0  0
  -29.1089  -18.9440   22.2042 C   0  0  0  0  0  0
  -28.9710  -19.6941   21.0088 C   0  0  0  0  0  0
  -29.7690  -16.9038   21.0026 C   0  0  0  0  0  0
  -29.4811  -17.5830   22.2022 C   0  0  0  0  0  0
  -28.8771  -24.2997   19.4782 C   0  0  0  0  0  0
  -28.2959  -23.4738   20.5430 C   0  0  0  0  0  0
  -28.7670  -25.6513   19.3104 C   0  0  0  0  0  0
  -28.3111  -21.0810   21.1026 C   0  0  0  0  0  0
  -29.7143  -23.4248   18.5981 C   0  0  0  0  0  0
  -29.8558  -22.1486   19.4268 C   0  0  0  0  0  0
  -28.7620  -22.1828   20.4045 N   0  0  0  0  0  0
  -29.8127  -15.4711   21.0820 N   0  0  0  0  0  0
  -27.4893  -23.8773   21.3866 O   0  0  0  0  0  0
  -27.3669  -21.1420   21.8969 O   0  0  0  0  0  0
  -29.4802  -16.8863   23.3640 F   0  0  0  0  0  0
  -31.4800  -12.4697   19.1204 H   0  0  0  0  0  0
  -30.3637  -11.3174   19.7929 H   0  0  0  0  0  0
  -29.7735  -11.8237   17.4118 H   0  0  0  0  0  0
  -29.6646  -13.5228   17.7688 H   0  0  0  0  0  0
  -27.8439  -11.3181   18.7817 H   0  0  0  0  0  0
  -27.3820  -12.6520   17.7743 H   0  0  0  0  0  0
  -27.7154  -14.2485   19.6002 H   0  0  0  0  0  0
  -28.7026  -11.8925   21.2843 H   0  0  0  0  0  0
  -28.4675  -13.4952   21.8970 H   0  0  0  0  0  0
  -25.2869   -9.5714   22.4669 H   0  0  0  0  0  0
  -24.0065   -7.4680   22.7495 H   0  0  0  0  0  0
  -21.0863   -8.8882   19.8919 H   0  0  0  0  0  0
  -22.3820  -10.9717   19.6124 H   0  0  0  0  0  0
  -21.2083   -7.6191   23.9760 H   0  0  0  0  0  0
  -21.1431   -6.0476   25.9060 H   0  0  0  0  0  0
  -22.0636   -2.7651   23.2744 H   0  0  0  0  0  0
  -22.4254  -11.9851   22.4653 H   0  0  0  0  0  0
  -21.1246  -13.1270   22.2699 H   0  0  0  0  0  0
  -24.6821  -15.8427   20.5537 H   0  0  0  0  0  0
  -26.2533  -15.6110   19.9839 H   0  0  0  0  0  0
  -26.7090  -32.5510   23.1136 H   0  0  0  0  0  0
  -24.9856  -33.9704   25.0388 H   0  0  0  0  0  0
  -22.7009  -31.2955   21.4169 H   0  0  0  0  0  0
  -23.3741  -35.9623   23.3265 H   0  0  0  0  0  0
  -24.3598  -36.8941   22.2062 H   0  0  0  0  0  0
  -23.7170  -37.6497   23.6674 H   0  0  0  0  0  0
  -26.0332  -31.5834   20.5759 H   0  0  0  0  0  0
  -26.8419  -30.8946   21.9477 H   0  0  0  0  0  0
  -28.1158  -29.0605   21.1234 H   0  0  0  0  0  0
  -26.0343  -25.9359   19.0123 H   0  0  0  0  0  0
  -23.9828  -27.3063   18.9871 H   0  0  0  0  0  0
  -23.7178  -30.5811   19.4020 H   0  0  0  0  0  0
  -22.7406  -29.2222   19.8767 H   0  0  0  0  0  0
  -25.1263  -36.1972   25.0849 H   0  0  0  0  0  0
  -20.9896  -28.3166   24.1525 H   0  0  0  0  0  0
  -20.5659  -26.2226   23.3622 H   0  0  0  0  0  0
  -21.6610  -26.7438   22.1254 H   0  0  0  0  0  0
  -19.6871  -25.6317   21.1242 H   0  0  0  0  0  0
  -19.6671  -27.3241   20.6810 H   0  0  0  0  0  0
  -17.4182  -26.6671   21.4030 H   0  0  0  0  0  0
  -18.0262  -26.0096   22.9060 H   0  0  0  0  0  0
  -19.7890  -30.7274   24.2297 H   0  0  0  0  0  0
  -17.4954  -31.6263   24.5184 H   0  0  0  0  0  0
  -15.5304  -30.2974   23.7666 H   0  0  0  0  0  0
  -15.8635  -28.0864   22.7001 H   0  0  0  0  0  0
  -24.5909  -30.6924   25.7741 H   0  0  0  0  0  0
  -24.8881  -32.2687   26.4968 H   0  0  0  0  0  0
  -25.8072  -30.8689   27.0123 H   0  0  0  0  0  0
  -26.2721  -29.6778   24.1114 H   0  0  0  0  0  0
  -27.4173  -29.7246   25.4314 H   0  0  0  0  0  0
  -27.8500  -30.4398   23.8961 H   0  0  0  0  0  0
  -27.2720  -33.3533   26.2055 H   0  0  0  0  0  0
  -28.3812  -32.6776   25.0179 H   0  0  0  0  0  0
  -28.0776  -31.8294   26.5229 H   0  0  0  0  0  0
  -28.2589  -38.0108   24.7611 H   0  0  0  0  0  0
  -28.1103  -36.2655   24.6169 H   0  0  0  0  0  0
  -27.2345  -37.1299   25.8871 H   0  0  0  0  0  0
  -20.9397  -29.8699   21.7015 H   0  0  0  0  0  0
  -26.0171  -38.2859   24.1492 H   0  0  0  0  0  0
  -29.0597  -19.4520   18.8383 H   0  0  0  0  0  0
  -29.8419  -17.1314   18.8474 H   0  0  0  0  0  0
  -28.8278  -19.3831   23.1494 H   0  0  0  0  0  0
  -29.2626  -26.1446   18.4842 H   0  0  0  0  0  0
  -30.6819  -23.8806   18.3840 H   0  0  0  0  0  0
  -29.1853  -23.2297   17.6636 H   0  0  0  0  0  0
  -30.8062  -22.1361   19.9686 H   0  0  0  0  0  0
  -29.8554  -21.3008   18.7564 H   0  0  0  0  0  0
  -29.0107  -15.0870   21.5530 H   0  0  0  0  0  0
  1 25  1  0  0  0
  1 30  2  0  0  0
  1 84  1  0  0  0
  2  3  1  0  0  0
  2 25  1  0  0  0
  2 88  1  0  0  0
  2 89  1  0  0  0
  3  4  1  0  0  0
  3 90  1  0  0  0
  3 91  1  0  0  0
  4  5  1  0  0  0
  4 92  1  0  0  0
  4 93  1  0  0  0
  5  6  1  0  0  0
  5 26  1  0  0  0
  5 94  1  0  0  0
  6 25  1  0  0  0
  6 95  1  0  0  0
  6 96  1  0  0  0
  7  8  2  0  0  0
  7 26  1  0  0  0
  7 29  1  0  0  0
  8  9  1  0  0  0
  8 22  1  0  0  0
  9 10  1  0  0  0
  9 27  2  0  0  0
 10 11  2  0  0  0
 10 15  1  0  0  0
 11 12  1  0  0  0
 11 97  1  0  0  0
 12 13  2  0  0  0
 12 98  1  0  0  0
 13 14  1  0  0  0
 13 31  1  0  0  0
 14 15  2  0  0  0
 14 99  1  0  0  0
 15100  1  0  0  0
 16 17  2  0  0  0
 16 21  1  0  0  0
 16 31  1  0  0  0
 17 18  1  0  0  0
 17101  1  0  0  0
 18 19  2  0  0  0
 18102  1  0  0  0
 19 20  1  0  0  0
 19 24  1  0  0  0
 20 21  2  0  0  0
 20103  1  0  0  0
 21 23  1  0  0  0
 22 28  1  0  0  0
 22 32  2  0  0  0
 26 27  1  0  0  0
 28104  1  0  0  0
 28105  1  0  0  0
 29106  1  0  0  0
 29107  1  0  0  0
 33 34  1  0  0  0
 33 66  1  0  0  0
 33 70  2  0  0  0
 34 36  1  0  0  0
 34 59  1  0  0  0
 34108  1  0  0  0
 35 44  2  0  0  0
 35 45  1  0  0  0
 35 68  1  0  0  0
 36 56  1  0  0  0
 36109  1  0  0  0
 37 39  1  0  0  0
 37 47  1  0  0  0
 37 66  1  0  0  0
 37110  1  0  0  0
 38 43  2  0  0  0
 38 46  1  0  0  0
 38 47  1  0  0  0
 39 64  1  0  0  0
 39 67  2  0  0  0
 40 52  1  0  0  0
 40 53  2  0  0  0
 40 58  1  0  0  0
 41111  1  0  0  0
 41112  1  0  0  0
 41113  1  0  0  0
 41 48  1  0  0  0
 42 43  1  0  0  0
 42 66  1  0  0  0
 42114  1  0  0  0
 42115  1  0  0  0
 43 44  1  0  0  0
 44116  1  0  0  0
 45 46  2  0  0  0
 45117  1  0  0  0
 46118  1  0  0  0
 47119  1  0  0  0
 47120  1  0  0  0
 48 56  1  0  0  0
 48 65  1  0  0  0
 48121  1  0  0  0
 49 50  1  0  0  0
 49 53  1  0  0  0
 49 64  1  0  0  0
 49122  1  0  0  0
 50 51  1  0  0  0
 50123  1  0  0  0
 50124  1  0  0  0
 51 52  1  0  0  0
 51125  1  0  0  0
 51126  1  0  0  0
 52127  1  0  0  0
 52128  1  0  0  0
 53 54  1  0  0  0
 54 55  2  0  0  0
 54129  1  0  0  0
 55 57  1  0  0  0
 55130  1  0  0  0
 56 69  2  0  0  0
 57 58  2  0  0  0
 57131  1  0  0  0
 58132  1  0  0  0
 59 60  1  0  0  0
 59 61  1  0  0  0
 59 62  1  0  0  0
 60133  1  0  0  0
 60134  1  0  0  0
 60135  1  0  0  0
 61136  1  0  0  0
 61137  1  0  0  0
 61138  1  0  0  0
 62139  1  0  0  0
 62140  1  0  0  0
 62141  1  0  0  0
 63 65  1  0  0  0
 63142  1  0  0  0
 63143  1  0  0  0
 63144  1  0  0  0
 64145  1  0  0  0
 65146  1  0  0  0
 68 79  1  0  0  0
 71 72  2  0  0  0
 71 74  1  0  0  0
 71147  1  0  0  0
 72 75  1  0  0  0
 72148  1  0  0  0
 73 74  2  0  0  0
 73 76  1  0  0  0
 73149  1  0  0  0
 74 80  1  0  0  0
 75 76  2  0  0  0
 75 84  1  0  0  0
 76 87  1  0  0  0
 77 78  1  0  0  0
 77 79  2  0  0  0
 77 81  1  0  0  0
 78 83  1  0  0  0
 78 85  2  0  0  0
 79150  1  0  0  0
 80 83  1  0  0  0
 80 86  2  0  0  0
 81 82  1  0  0  0
 81151  1  0  0  0
 81152  1  0  0  0
 82 83  1  0  0  0
 82153  1  0  0  0
 82154  1  0  0  0
 84155  1  0  0  0
M  ISO  4   1 100  68 101  79 101  84 100
M  END
> <chiral flag>
0

> <version>
0

> <s_m_source_file>
/data/baiqing/PycharmProjects/Reinvent-master-3.2/result/LINK_invent/BTK/process_docking_weight1_custom_product_contain_oxygen_bond_distance_aromatic_linkinvent_7_9_3/rearranged_h_0086.sdf

> <i_m_source_file_index>
81

> <r_mmod_Potential_Energy-OPLS-2005>
97.6811828613281

> <r_mmod_Stretch_Energy-OPLS-2005>
55.3816719055176

> <r_mmod_Bend_Energy-OPLS-2005>
174.620681762695

> <r_mmod_Torsional_Energy-OPLS-2005>
309.912689208984

> <r_mmod_Improper_Torsional_Energy-OPLS-2005>
8.83916759490967

> <r_mmod_Van_der_Waal_Energy-OPLS-2005>
152.766357421875

> <r_mmod_Electrostatic_Energy-OPLS-2005>
-395.2333984375

> <r_mmod_Solvation_Energy-OPLS-2005>
-237.198303222656

> <b_mmod_Minimization_Converged-OPLS-2005>
0

> <r_mmod_RMS_Derivative-OPLS-2005>
7.13583517074585

$$$$
81
                    3D
 Structure written by MMmdl.
151159  0  0  1  0            999 V2000
  -30.6172  -14.6556   20.4964 C   0  0  0  0  0  0
  -30.4403  -12.4033   19.4541 C   0  0  0  0  0  0
  -29.5089  -12.5134   18.2264 C   0  0  0  0  0  0
  -28.0328  -12.3447   18.6393 C   0  0  0  0  0  0
  -27.6528  -13.2184   19.8649 C   0  0  2  0  0  0
  -28.6986  -13.0814   20.9942 C   0  0  0  0  0  0
  -25.2554  -13.8167   20.5679 C   0  0  0  0  0  0
  -24.1821  -13.0428   20.9161 C   0  0  0  0  0  0
  -24.6401  -11.6903   20.8730 C   0  0  0  0  0  0
  -23.9072  -10.4288   21.0397 C   0  0  0  0  0  0
  -24.3621   -9.4208   21.9177 C   0  0  0  0  0  0
  -23.6293   -8.2245   22.0753 C   0  0  0  0  0  0
  -22.4276   -8.0280   21.3545 C   0  0  0  0  0  0
  -21.9910   -9.0254   20.4650 C   0  0  0  0  0  0
  -22.7240  -10.2131   20.3055 C   0  0  0  0  0  0
  -21.6856   -6.0736   22.5279 C   0  0  0  0  0  0
  -21.4015   -6.5640   23.8212 C   0  0  0  0  0  0
  -21.3663   -5.6793   24.9175 C   0  0  0  0  0  0
  -21.6048   -4.3055   24.7227 C   0  0  0  0  0  0
  -21.8820   -3.8147   23.4349 C   0  0  0  0  0  0
  -21.9193   -4.6963   22.3404 C   0  0  0  0  0  0
  -22.7846  -13.5225   21.1836 C   0  0  0  0  0  0
  -22.1659   -4.2152   21.0980 F   0  0  0  0  0  0
  -21.5631   -3.4538   25.7740 F   0  0  0  0  0  0
  -30.0123  -13.4270   20.4285 N   0  0  0  0  0  0
  -26.2995  -12.9356   20.3346 N   0  0  0  0  0  0
  -25.9336  -11.6506   20.5769 N   0  0  0  0  0  0
  -22.0496  -12.8222   22.0401 N   0  0  0  0  0  0
  -25.4233  -15.1892   20.4132 N   0  0  0  0  0  0
  -31.7842  -14.8111   20.1248 O   0  0  0  0  0  0
  -21.6639   -6.8879   21.4243 O   0  0  0  0  0  0
  -22.3525  -14.5532   20.6690 O   0  0  0  0  0  0
  -24.6264  -31.8606   23.2026 C   0  0  0  0  0  0
  -25.9111  -32.4784   23.8352 C   0  0  1  0  0  0
  -27.2220  -27.3194   20.1159 C   0  0  0  0  0  0
  -25.5929  -33.8587   24.2285 N   0  0  0  0  0  0
  -23.4190  -30.4845   21.5463 C   0  0  2  0  0  0
  -24.8641  -28.9398   20.1108 C   0  0  0  0  0  0
  -22.7473  -29.4632   22.4951 C   0  0  0  0  0  0
  -18.0285  -28.1384   22.8493 C   0  0  0  0  0  0
  -24.1489  -36.7296   23.2635 C   0  0  0  0  0  0
  -25.9596  -30.7920   21.3725 C   0  0  0  0  0  0
  -26.0332  -29.4188   20.7152 C   0  0  0  0  0  0
  -27.2150  -28.6203   20.7078 C   0  0  0  0  0  0
  -26.0294  -26.8945   19.4855 C   0  0  0  0  0  0
  -24.8641  -27.6831   19.4874 C   0  0  0  0  0  0
  -23.6322  -29.8199   20.1612 C   0  0  0  0  0  0
  -25.4115  -36.3092   24.0328 C   0  0  1  0  0  0
  -20.5885  -28.3693   23.1290 C   0  0  2  0  0  0
  -20.6780  -26.9420   22.5411 C   0  0  0  0  0  0
  -19.5750  -26.6385   21.5222 C   0  0  0  0  0  0
  -18.1930  -26.7926   22.1632 C   0  0  0  0  0  0
  -19.1537  -28.8857   23.2885 C   0  0  0  0  0  0
  -18.9459  -30.1459   23.8903 C   0  0  0  0  0  0
  -17.6458  -30.6589   24.0568 C   0  0  0  0  0  0
  -25.9052  -34.9460   23.5108 C   0  0  0  0  0  0
  -16.5350  -29.9088   23.6329 C   0  0  0  0  0  0
  -16.7271  -28.6502   23.0356 C   0  0  0  0  0  0
  -26.4493  -31.6590   25.0721 C   0  0  0  0  0  0
  -25.3730  -31.3734   26.1451 C   0  0  0  0  0  0
  -27.0322  -30.3013   24.6163 C   0  0  0  0  0  0
  -27.6060  -32.4314   25.7488 C   0  0  0  0  0  0
  -27.5587  -37.1799   24.8459 C   0  0  0  0  0  0
  -21.4190  -29.3048   22.3690 N   0  0  0  0  0  0
  -26.4291  -37.3785   23.9413 N   0  0  0  0  0  0
  -24.6873  -31.0618   22.0977 N   0  0  0  0  0  0
  -23.4199  -28.8176   23.3031 O   0  0  0  0  0  0
  -28.3411  -26.4727   20.1707 O   0  0  0  0  0  0
  -26.5623  -34.8926   22.4677 O   0  0  0  0  0  0
  -23.5431  -32.1407   23.7360 O   0  0  0  0  0  0
  -31.1162  -19.3034   20.3510 C   0  0  0  0  0  0
  -31.1004  -17.8774   20.3973 C   0  0  0  0  0  0
  -28.7759  -19.3897   20.8855 C   0  0  0  0  0  0
  -29.9660  -20.1095   20.5997 C   0  0  0  0  0  0
  -29.9153  -17.1624   20.7048 C   0  0  0  0  0  0
  -28.7574  -17.9595   20.9348 C   0  0  0  0  0  0
  -30.1119  -21.6471   20.6956 C   0  0  0  0  0  0
  -29.3045  -24.0448   20.4876 C   0  0  0  0  0  0
  -28.1343  -25.0109   20.0206 C   0  0  0  0  0  0
  -29.7979  -15.7053   20.8234 N   0  0  0  0  0  0
  -29.1186  -22.5419   20.3987 N   0  0  0  0  0  0
  -31.2177  -22.0799   21.0286 O   0  0  0  0  0  0
  -27.5944  -17.3289   21.2274 F   0  0  0  0  0  0
  -31.4809  -12.5318   19.1513 H   0  0  0  0  0  0
  -30.3779  -11.4091   19.8992 H   0  0  0  0  0  0
  -29.7773  -11.7659   17.4794 H   0  0  0  0  0  0
  -29.6460  -13.4847   17.7481 H   0  0  0  0  0  0
  -27.8756  -11.2908   18.8731 H   0  0  0  0  0  0
  -27.3772  -12.5695   17.7975 H   0  0  0  0  0  0
  -27.6662  -14.2524   19.5197 H   0  0  0  0  0  0
  -28.7146  -12.0619   21.3828 H   0  0  0  0  0  0
  -28.4431  -13.7187   21.8424 H   0  0  0  0  0  0
  -25.2766   -9.5686   22.4753 H   0  0  0  0  0  0
  -24.0007   -7.4639   22.7472 H   0  0  0  0  0  0
  -21.0845   -8.8774   19.8954 H   0  0  0  0  0  0
  -22.3697  -10.9673   19.6166 H   0  0  0  0  0  0
  -21.2002   -7.6147   23.9719 H   0  0  0  0  0  0
  -21.1485   -6.0520   25.9079 H   0  0  0  0  0  0
  -22.0596   -2.7611   23.2848 H   0  0  0  0  0  0
  -22.4109  -11.9888   22.4799 H   0  0  0  0  0  0
  -21.1119  -13.1258   22.2613 H   0  0  0  0  0  0
  -24.6607  -15.8416   20.5557 H   0  0  0  0  0  0
  -26.2944  -15.6527   20.1882 H   0  0  0  0  0  0
  -26.7181  -32.5453   23.1102 H   0  0  0  0  0  0
  -25.0081  -33.9731   25.0434 H   0  0  0  0  0  0
  -22.7130  -31.3053   21.4043 H   0  0  0  0  0  0
  -23.3762  -35.9616   23.3279 H   0  0  0  0  0  0
  -24.3586  -36.8938   22.2053 H   0  0  0  0  0  0
  -23.7222  -37.6486   23.6668 H   0  0  0  0  0  0
  -26.0881  -31.5549   20.6035 H   0  0  0  0  0  0
  -26.8413  -30.8427   21.9997 H   0  0  0  0  0  0
  -28.1112  -28.9832   21.1912 H   0  0  0  0  0  0
  -25.9688  -25.9356   18.9931 H   0  0  0  0  0  0
  -23.9683  -27.3112   19.0096 H   0  0  0  0  0  0
  -23.7502  -30.5963   19.4044 H   0  0  0  0  0  0
  -22.7520  -29.2488   19.8598 H   0  0  0  0  0  0
  -25.1294  -36.1945   25.0820 H   0  0  0  0  0  0
  -20.9973  -28.3265   24.1411 H   0  0  0  0  0  0
  -20.5700  -26.2306   23.3611 H   0  0  0  0  0  0
  -21.6647  -26.7463   22.1194 H   0  0  0  0  0  0
  -19.6915  -25.6296   21.1253 H   0  0  0  0  0  0
  -19.6683  -27.3199   20.6754 H   0  0  0  0  0  0
  -17.4203  -26.6682   21.4029 H   0  0  0  0  0  0
  -18.0326  -26.0065   22.9024 H   0  0  0  0  0  0
  -19.7934  -30.7276   24.2274 H   0  0  0  0  0  0
  -17.5010  -31.6269   24.5167 H   0  0  0  0  0  0
  -15.5350  -30.2992   23.7644 H   0  0  0  0  0  0
  -15.8674  -28.0819   22.7075 H   0  0  0  0  0  0
  -24.5855  -30.7150   25.7763 H   0  0  0  0  0  0
  -24.8984  -32.2913   26.4932 H   0  0  0  0  0  0
  -25.8038  -30.8838   27.0193 H   0  0  0  0  0  0
  -26.2884  -29.6772   24.1192 H   0  0  0  0  0  0
  -27.4028  -29.7259   25.4657 H   0  0  0  0  0  0
  -27.8754  -30.4302   23.9374 H   0  0  0  0  0  0
  -27.2675  -33.3603   26.2090 H   0  0  0  0  0  0
  -28.3855  -32.6890   25.0305 H   0  0  0  0  0  0
  -28.0745  -31.8422   26.5382 H   0  0  0  0  0  0
  -28.2586  -38.0115   24.7543 H   0  0  0  0  0  0
  -28.1102  -36.2649   24.6237 H   0  0  0  0  0  0
  -27.2311  -37.1394   25.8861 H   0  0  0  0  0  0
  -20.9371  -29.8773   21.6901 H   0  0  0  0  0  0
  -26.0176  -38.2858   24.1430 H   0  0  0  0  0  0
  -32.0595  -19.7920   20.1480 H   0  0  0  0  0  0
  -32.0237  -17.3470   20.2155 H   0  0  0  0  0  0
  -27.8672  -19.9294   21.1088 H   0  0  0  0  0  0
  -29.5403  -24.2846   21.5251 H   0  0  0  0  0  0
  -30.1960  -24.3070   19.9163 H   0  0  0  0  0  0
  -27.2386  -24.7253   20.5743 H   0  0  0  0  0  0
  -27.9302  -24.8070   18.9688 H   0  0  0  0  0  0
  -28.8759  -15.4081   21.1053 H   0  0  0  0  0  0
  -28.2158  -22.1849   20.1167 H   0  0  0  0  0  0
  1 25  1  0  0  0
  1 30  2  0  0  0
  1 80  1  0  0  0
  2  3  1  0  0  0
  2 25  1  0  0  0
  2 84  1  0  0  0
  2 85  1  0  0  0
  3  4  1  0  0  0
  3 86  1  0  0  0
  3 87  1  0  0  0
  4  5  1  0  0  0
  4 88  1  0  0  0
  4 89  1  0  0  0
  5  6  1  0  0  0
  5 26  1  0  0  0
  5 90  1  0  0  0
  6 25  1  0  0  0
  6 91  1  0  0  0
  6 92  1  0  0  0
  7  8  2  0  0  0
  7 26  1  0  0  0
  7 29  1  0  0  0
  8  9  1  0  0  0
  8 22  1  0  0  0
  9 10  1  0  0  0
  9 27  2  0  0  0
 10 11  2  0  0  0
 10 15  1  0  0  0
 11 12  1  0  0  0
 11 93  1  0  0  0
 12 13  2  0  0  0
 12 94  1  0  0  0
 13 14  1  0  0  0
 13 31  1  0  0  0
 14 15  2  0  0  0
 14 95  1  0  0  0
 15 96  1  0  0  0
 16 17  2  0  0  0
 16 21  1  0  0  0
 16 31  1  0  0  0
 17 18  1  0  0  0
 17 97  1  0  0  0
 18 19  2  0  0  0
 18 98  1  0  0  0
 19 20  1  0  0  0
 19 24  1  0  0  0
 20 21  2  0  0  0
 20 99  1  0  0  0
 21 23  1  0  0  0
 22 28  1  0  0  0
 22 32  2  0  0  0
 26 27  1  0  0  0
 28100  1  0  0  0
 28101  1  0  0  0
 29102  1  0  0  0
 29103  1  0  0  0
 33 34  1  0  0  0
 33 66  1  0  0  0
 33 70  2  0  0  0
 34 36  1  0  0  0
 34 59  1  0  0  0
 34104  1  0  0  0
 35 44  2  0  0  0
 35 45  1  0  0  0
 35 68  1  0  0  0
 36 56  1  0  0  0
 36105  1  0  0  0
 37 39  1  0  0  0
 37 47  1  0  0  0
 37 66  1  0  0  0
 37106  1  0  0  0
 38 43  2  0  0  0
 38 46  1  0  0  0
 38 47  1  0  0  0
 39 64  1  0  0  0
 39 67  2  0  0  0
 40 52  1  0  0  0
 40 53  2  0  0  0
 40 58  1  0  0  0
 41107  1  0  0  0
 41108  1  0  0  0
 41109  1  0  0  0
 41 48  1  0  0  0
 42 43  1  0  0  0
 42 66  1  0  0  0
 42110  1  0  0  0
 42111  1  0  0  0
 43 44  1  0  0  0
 44112  1  0  0  0
 45 46  2  0  0  0
 45113  1  0  0  0
 46114  1  0  0  0
 47115  1  0  0  0
 47116  1  0  0  0
 48 56  1  0  0  0
 48 65  1  0  0  0
 48117  1  0  0  0
 49 50  1  0  0  0
 49 53  1  0  0  0
 49 64  1  0  0  0
 49118  1  0  0  0
 50 51  1  0  0  0
 50119  1  0  0  0
 50120  1  0  0  0
 51 52  1  0  0  0
 51121  1  0  0  0
 51122  1  0  0  0
 52123  1  0  0  0
 52124  1  0  0  0
 53 54  1  0  0  0
 54 55  2  0  0  0
 54125  1  0  0  0
 55 57  1  0  0  0
 55126  1  0  0  0
 56 69  2  0  0  0
 57 58  2  0  0  0
 57127  1  0  0  0
 58128  1  0  0  0
 59 60  1  0  0  0
 59 61  1  0  0  0
 59 62  1  0  0  0
 60129  1  0  0  0
 60130  1  0  0  0
 60131  1  0  0  0
 61132  1  0  0  0
 61133  1  0  0  0
 61134  1  0  0  0
 62135  1  0  0  0
 62136  1  0  0  0
 62137  1  0  0  0
 63 65  1  0  0  0
 63138  1  0  0  0
 63139  1  0  0  0
 63140  1  0  0  0
 64141  1  0  0  0
 65142  1  0  0  0
 68 79  1  0  0  0
 71 72  2  0  0  0
 71 74  1  0  0  0
 71143  1  0  0  0
 72 75  1  0  0  0
 72144  1  0  0  0
 73 74  2  0  0  0
 73 76  1  0  0  0
 73145  1  0  0  0
 74 77  1  0  0  0
 75 76  2  0  0  0
 75 80  1  0  0  0
 76 83  1  0  0  0
 77 81  1  0  0  0
 77 82  2  0  0  0
 78 79  1  0  0  0
 78 81  1  0  0  0
 78146  1  0  0  0
 78147  1  0  0  0
 79148  1  0  0  0
 79149  1  0  0  0
 80150  1  0  0  0
 81151  1  0  0  0
M  ISO  4   1 100  68 101  79 101  80 100
M  END
> <chiral flag>
0

> <version>
0

> <s_m_source_file>
/data/baiqing/PycharmProjects/Reinvent-master-3.2/result/LINK_invent/BTK/process_docking_weight1_custom_product_contain_oxygen_bond_distance_aromatic_linkinvent_7_9_3/rearranged_h_0086.sdf

> <i_m_source_file_index>
82

> <r_mmod_Potential_Energy-OPLS-2005>
-77.2847366333008

> <r_mmod_Stretch_Energy-OPLS-2005>
78.8824691772461

> <r_mmod_Bend_Energy-OPLS-2005>
141.790603637695

> <r_mmod_Torsional_Energy-OPLS-2005>
217.442764282227

> <r_mmod_Improper_Torsional_Energy-OPLS-2005>
4.70903921127319

> <r_mmod_Van_der_Waal_Energy-OPLS-2005>
148.05241394043

> <r_mmod_Electrostatic_Energy-OPLS-2005>
-492.010955810547

> <r_mmod_Solvation_Energy-OPLS-2005>
-227.451812744141

> <b_mmod_Minimization_Converged-OPLS-2005>
0

> <r_mmod_RMS_Derivative-OPLS-2005>
0.871422171592712

$$$$
82
                    3D
 Structure written by MMmdl.
152161  0  0  1  0            999 V2000
  -30.6262  -14.7859   20.4441 C   0  0  0  0  0  0
  -30.4222  -12.4790   19.4853 C   0  0  0  0  0  0
  -29.5082  -12.5070   18.2418 C   0  0  0  0  0  0
  -28.0363  -12.3275   18.6563 C   0  0  0  0  0  0
  -27.6355  -13.2409   19.8457 C   0  0  2  0  0  0
  -28.6797  -13.2150   20.9833 C   0  0  0  0  0  0
  -25.2479  -13.8217   20.5707 C   0  0  0  0  0  0
  -24.1785  -13.0447   20.9221 C   0  0  0  0  0  0
  -24.6391  -11.6928   20.8757 C   0  0  0  0  0  0
  -23.9075  -10.4297   21.0409 C   0  0  0  0  0  0
  -24.3624   -9.4210   21.9186 C   0  0  0  0  0  0
  -23.6298   -8.2246   22.0755 C   0  0  0  0  0  0
  -22.4280   -8.0284   21.3544 C   0  0  0  0  0  0
  -21.9918   -9.0258   20.4647 C   0  0  0  0  0  0
  -22.7248  -10.2137   20.3057 C   0  0  0  0  0  0
  -21.6854   -6.0737   22.5279 C   0  0  0  0  0  0
  -21.4016   -6.5641   23.8212 C   0  0  0  0  0  0
  -21.3660   -5.6793   24.9174 C   0  0  0  0  0  0
  -21.6043   -4.3056   24.7224 C   0  0  0  0  0  0
  -21.8819   -3.8148   23.4345 C   0  0  0  0  0  0
  -21.9194   -4.6965   22.3402 C   0  0  0  0  0  0
  -22.7805  -13.5218   21.1876 C   0  0  0  0  0  0
  -22.1661   -4.2150   21.0979 F   0  0  0  0  0  0
  -21.5629   -3.4539   25.7738 F   0  0  0  0  0  0
  -29.9744  -13.5680   20.3912 N   0  0  0  0  0  0
  -26.2908  -12.9441   20.3276 N   0  0  0  0  0  0
  -25.9324  -11.6573   20.5759 N   0  0  0  0  0  0
  -22.0454  -12.8204   22.0429 N   0  0  0  0  0  0
  -25.4150  -15.1943   20.4118 N   0  0  0  0  0  0
  -31.8209  -14.8012   20.1401 O   0  0  0  0  0  0
  -21.6642   -6.8881   21.4241 O   0  0  0  0  0  0
  -22.3487  -14.5521   20.6721 O   0  0  0  0  0  0
  -24.6337  -31.8519   23.1952 C   0  0  0  0  0  0
  -25.9152  -32.4734   23.8305 C   0  0  1  0  0  0
  -27.2202  -27.2325   20.1235 C   0  0  0  0  0  0
  -25.5936  -33.8538   24.2228 N   0  0  0  0  0  0
  -23.4316  -30.4738   21.5390 C   0  0  2  0  0  0
  -24.8781  -28.9162   20.1063 C   0  0  0  0  0  0
  -22.7514  -29.4584   22.4895 C   0  0  0  0  0  0
  -18.0292  -28.1388   22.8481 C   0  0  0  0  0  0
  -24.1490  -36.7275   23.2642 C   0  0  0  0  0  0
  -25.9792  -30.7551   21.3789 C   0  0  0  0  0  0
  -26.0497  -29.3754   20.7192 C   0  0  0  0  0  0
  -27.2184  -28.5444   20.7193 C   0  0  0  0  0  0
  -26.0179  -26.8427   19.4910 C   0  0  0  0  0  0
  -24.8690  -27.6594   19.4828 C   0  0  0  0  0  0
  -23.6503  -29.8064   20.1552 C   0  0  0  0  0  0
  -25.4119  -36.3058   24.0322 C   0  0  1  0  0  0
  -20.5898  -28.3701   23.1262 C   0  0  2  0  0  0
  -20.6778  -26.9415   22.5408 C   0  0  0  0  0  0
  -19.5754  -26.6382   21.5211 C   0  0  0  0  0  0
  -18.1934  -26.7929   22.1624 C   0  0  0  0  0  0
  -19.1547  -28.8862   23.2865 C   0  0  0  0  0  0
  -18.9468  -30.1462   23.8886 C   0  0  0  0  0  0
  -17.6467  -30.6588   24.0560 C   0  0  0  0  0  0
  -25.9062  -34.9430   23.5081 C   0  0  0  0  0  0
  -16.5358  -29.9085   23.6334 C   0  0  0  0  0  0
  -16.7278  -28.6503   23.0353 C   0  0  0  0  0  0
  -26.4506  -31.6576   25.0712 C   0  0  0  0  0  0
  -25.3717  -31.3738   26.1426 C   0  0  0  0  0  0
  -27.0359  -30.2987   24.6227 C   0  0  0  0  0  0
  -27.6050  -32.4326   25.7492 C   0  0  0  0  0  0
  -27.5577  -37.1794   24.8466 C   0  0  0  0  0  0
  -21.4217  -29.3041   22.3644 N   0  0  0  0  0  0
  -26.4290  -37.3763   23.9407 N   0  0  0  0  0  0
  -24.7009  -31.0458   22.0939 N   0  0  0  0  0  0
  -23.4203  -28.8129   23.3006 O   0  0  0  0  0  0
  -28.3178  -26.3360   20.2265 O   0  0  0  0  0  0
  -26.5643  -34.8914   22.4656 O   0  0  0  0  0  0
  -23.5482  -32.1357   23.7233 O   0  0  0  0  0  0
  -32.1690  -19.0597   20.4405 C   0  0  0  0  0  0
  -31.2950  -20.1559   20.3863 C   0  0  0  0  0  0
  -31.6948  -17.7403   20.5253 C   0  0  0  0  0  0
  -29.4235  -18.6040   20.5146 C   0  0  0  0  0  0
  -29.8904  -20.0009   20.4263 C   0  0  0  0  0  0
  -30.3134  -17.4277   20.5454 C   0  0  0  0  0  0
  -27.8435  -23.0489   21.1827 C   0  0  0  0  0  0
  -28.5406  -23.5765   20.1685 C   0  0  0  0  0  0
  -28.1877  -21.6364   21.3678 C   0  0  0  0  0  0
  -29.3499  -22.4288   19.6745 C   0  0  0  0  0  0
  -28.4334  -25.0257   19.4786 C   0  0  0  0  0  0
  -29.1021  -21.2929   20.4303 N   0  0  0  0  0  0
  -29.8986  -15.9768   20.6177 N   0  0  0  0  0  0
  -27.7257  -20.8737   22.2240 O   0  0  0  0  0  0
  -30.1159  -22.4609   18.7041 O   0  0  0  0  0  0
  -31.4648  -12.5851   19.1817 H   0  0  0  0  0  0
  -30.3594  -11.5133   19.9895 H   0  0  0  0  0  0
  -29.7978  -11.7236   17.5400 H   0  0  0  0  0  0
  -29.6308  -13.4539   17.7134 H   0  0  0  0  0  0
  -27.9009  -11.2814   18.9334 H   0  0  0  0  0  0
  -27.3780  -12.5029   17.8045 H   0  0  0  0  0  0
  -27.6180  -14.2551   19.4461 H   0  0  0  0  0  0
  -28.7249  -12.2307   21.4517 H   0  0  0  0  0  0
  -28.4095  -13.9196   21.7713 H   0  0  0  0  0  0
  -25.2767   -9.5686   22.4763 H   0  0  0  0  0  0
  -24.0006   -7.4637   22.7474 H   0  0  0  0  0  0
  -21.0850   -8.8778   19.8951 H   0  0  0  0  0  0
  -22.3706  -10.9677   19.6168 H   0  0  0  0  0  0
  -21.2008   -7.6149   23.9716 H   0  0  0  0  0  0
  -21.1481   -6.0523   25.9077 H   0  0  0  0  0  0
  -22.0598   -2.7610   23.2845 H   0  0  0  0  0  0
  -22.4077  -11.9869   22.4819 H   0  0  0  0  0  0
  -21.1069  -13.1220   22.2633 H   0  0  0  0  0  0
  -24.6443  -15.8448   20.5202 H   0  0  0  0  0  0
  -26.2564  -15.6351   20.0637 H   0  0  0  0  0  0
  -26.7213  -32.5371   23.1037 H   0  0  0  0  0  0
  -25.0066  -33.9664   25.0362 H   0  0  0  0  0  0
  -22.7297  -31.2972   21.3914 H   0  0  0  0  0  0
  -23.3754  -35.9606   23.3303 H   0  0  0  0  0  0
  -24.3576  -36.8904   22.2056 H   0  0  0  0  0  0
  -23.7243  -37.6473   23.6673 H   0  0  0  0  0  0
  -26.1229  -31.5148   20.6092 H   0  0  0  0  0  0
  -26.8551  -30.8029   22.0145 H   0  0  0  0  0  0
  -28.1130  -28.8889   21.2190 H   0  0  0  0  0  0
  -25.9110  -25.8721   19.0342 H   0  0  0  0  0  0
  -23.9676  -27.2976   19.0072 H   0  0  0  0  0  0
  -23.7760  -30.5823   19.3992 H   0  0  0  0  0  0
  -22.7675  -29.2414   19.8502 H   0  0  0  0  0  0
  -25.1304  -36.1899   25.0815 H   0  0  0  0  0  0
  -20.9989  -28.3284   24.1383 H   0  0  0  0  0  0
  -20.5677  -26.2310   23.3616 H   0  0  0  0  0  0
  -21.6645  -26.7434   22.1203 H   0  0  0  0  0  0
  -19.6917  -25.6292   21.1245 H   0  0  0  0  0  0
  -19.6693  -27.3189   20.6740 H   0  0  0  0  0  0
  -17.4202  -26.6672   21.4028 H   0  0  0  0  0  0
  -18.0336  -26.0074   22.9026 H   0  0  0  0  0  0
  -19.7946  -30.7276   24.2253 H   0  0  0  0  0  0
  -17.5023  -31.6269   24.5160 H   0  0  0  0  0  0
  -15.5358  -30.2982   23.7666 H   0  0  0  0  0  0
  -15.8678  -28.0818   22.7076 H   0  0  0  0  0  0
  -24.5905  -30.7072   25.7755 H   0  0  0  0  0  0
  -24.8891  -32.2909   26.4814 H   0  0  0  0  0  0
  -25.8023  -30.8945   27.0226 H   0  0  0  0  0  0
  -26.2952  -29.6725   24.1241 H   0  0  0  0  0  0
  -27.4015  -29.7263   25.4763 H   0  0  0  0  0  0
  -27.8840  -30.4249   23.9494 H   0  0  0  0  0  0
  -27.2655  -33.3642   26.2029 H   0  0  0  0  0  0
  -28.3882  -32.6858   25.0334 H   0  0  0  0  0  0
  -28.0692  -31.8475   26.5441 H   0  0  0  0  0  0
  -28.2593  -38.0091   24.7507 H   0  0  0  0  0  0
  -28.1072  -36.2620   24.6300 H   0  0  0  0  0  0
  -27.2290  -37.1451   25.8869 H   0  0  0  0  0  0
  -20.9407  -29.8764   21.6846 H   0  0  0  0  0  0
  -26.0165  -38.2835   24.1408 H   0  0  0  0  0  0
  -33.2358  -19.2353   20.4260 H   0  0  0  0  0  0
  -31.7382  -21.1413   20.3397 H   0  0  0  0  0  0
  -32.4544  -16.9788   20.5843 H   0  0  0  0  0  0
  -28.3571  -18.4323   20.5570 H   0  0  0  0  0  0
  -27.0984  -23.5740   21.7592 H   0  0  0  0  0  0
  -27.7163  -24.9488   18.6652 H   0  0  0  0  0  0
  -29.3797  -25.1378   18.9489 H   0  0  0  0  0  0
  -28.9136  -15.8240   20.7716 H   0  0  0  0  0  0
  1 25  1  0  0  0
  1 30  2  0  0  0
  1 83  1  0  0  0
  2  3  1  0  0  0
  2 25  1  0  0  0
  2 86  1  0  0  0
  2 87  1  0  0  0
  3  4  1  0  0  0
  3 88  1  0  0  0
  3 89  1  0  0  0
  4  5  1  0  0  0
  4 90  1  0  0  0
  4 91  1  0  0  0
  5  6  1  0  0  0
  5 26  1  0  0  0
  5 92  1  0  0  0
  6 25  1  0  0  0
  6 93  1  0  0  0
  6 94  1  0  0  0
  7  8  2  0  0  0
  7 26  1  0  0  0
  7 29  1  0  0  0
  8  9  1  0  0  0
  8 22  1  0  0  0
  9 10  1  0  0  0
  9 27  2  0  0  0
 10 11  2  0  0  0
 10 15  1  0  0  0
 11 12  1  0  0  0
 11 95  1  0  0  0
 12 13  2  0  0  0
 12 96  1  0  0  0
 13 14  1  0  0  0
 13 31  1  0  0  0
 14 15  2  0  0  0
 14 97  1  0  0  0
 15 98  1  0  0  0
 16 17  2  0  0  0
 16 21  1  0  0  0
 16 31  1  0  0  0
 17 18  1  0  0  0
 17 99  1  0  0  0
 18 19  2  0  0  0
 18100  1  0  0  0
 19 20  1  0  0  0
 19 24  1  0  0  0
 20 21  2  0  0  0
 20101  1  0  0  0
 21 23  1  0  0  0
 22 28  1  0  0  0
 22 32  2  0  0  0
 26 27  1  0  0  0
 28102  1  0  0  0
 28103  1  0  0  0
 29104  1  0  0  0
 29105  1  0  0  0
 33 34  1  0  0  0
 33 66  1  0  0  0
 33 70  2  0  0  0
 34 36  1  0  0  0
 34 59  1  0  0  0
 34106  1  0  0  0
 35 44  2  0  0  0
 35 45  1  0  0  0
 35 68  1  0  0  0
 36 56  1  0  0  0
 36107  1  0  0  0
 37 39  1  0  0  0
 37 47  1  0  0  0
 37 66  1  0  0  0
 37108  1  0  0  0
 38 43  2  0  0  0
 38 46  1  0  0  0
 38 47  1  0  0  0
 39 64  1  0  0  0
 39 67  2  0  0  0
 40 52  1  0  0  0
 40 53  2  0  0  0
 40 58  1  0  0  0
 41109  1  0  0  0
 41110  1  0  0  0
 41111  1  0  0  0
 41 48  1  0  0  0
 42 43  1  0  0  0
 42 66  1  0  0  0
 42112  1  0  0  0
 42113  1  0  0  0
 43 44  1  0  0  0
 44114  1  0  0  0
 45 46  2  0  0  0
 45115  1  0  0  0
 46116  1  0  0  0
 47117  1  0  0  0
 47118  1  0  0  0
 48 56  1  0  0  0
 48 65  1  0  0  0
 48119  1  0  0  0
 49 50  1  0  0  0
 49 53  1  0  0  0
 49 64  1  0  0  0
 49120  1  0  0  0
 50 51  1  0  0  0
 50121  1  0  0  0
 50122  1  0  0  0
 51 52  1  0  0  0
 51123  1  0  0  0
 51124  1  0  0  0
 52125  1  0  0  0
 52126  1  0  0  0
 53 54  1  0  0  0
 54 55  2  0  0  0
 54127  1  0  0  0
 55 57  1  0  0  0
 55128  1  0  0  0
 56 69  2  0  0  0
 57 58  2  0  0  0
 57129  1  0  0  0
 58130  1  0  0  0
 59 60  1  0  0  0
 59 61  1  0  0  0
 59 62  1  0  0  0
 60131  1  0  0  0
 60132  1  0  0  0
 60133  1  0  0  0
 61134  1  0  0  0
 61135  1  0  0  0
 61136  1  0  0  0
 62137  1  0  0  0
 62138  1  0  0  0
 62139  1  0  0  0
 63 65  1  0  0  0
 63140  1  0  0  0
 63141  1  0  0  0
 63142  1  0  0  0
 64143  1  0  0  0
 65144  1  0  0  0
 68 81  1  0  0  0
 71 72  2  0  0  0
 71 73  1  0  0  0
 71145  1  0  0  0
 72 75  1  0  0  0
 72146  1  0  0  0
 73 76  2  0  0  0
 73147  1  0  0  0
 74 75  2  0  0  0
 74 76  1  0  0  0
 74148  1  0  0  0
 75 82  1  0  0  0
 76 83  1  0  0  0
 77 78  2  0  0  0
 77 79  1  0  0  0
 77149  1  0  0  0
 78 80  1  0  0  0
 78 81  1  0  0  0
 79 82  1  0  0  0
 79 84  2  0  0  0
 80 82  1  0  0  0
 80 85  2  0  0  0
 81150  1  0  0  0
 81151  1  0  0  0
 83152  1  0  0  0
M  ISO  4   1 100  68 101  81 101  83 100
M  END
> <chiral flag>
0

> <version>
0

> <s_m_source_file>
/data/baiqing/PycharmProjects/Reinvent-master-3.2/result/LINK_invent/BTK/process_docking_weight1_custom_product_contain_oxygen_bond_distance_aromatic_linkinvent_7_9_3/rearranged_h_0086.sdf

> <i_m_source_file_index>
83

> <r_mmod_Potential_Energy-OPLS-2005>
263.750366210938

> <r_mmod_Stretch_Energy-OPLS-2005>
153.43913269043

> <r_mmod_Bend_Energy-OPLS-2005>
235.681442260742

> <r_mmod_Torsional_Energy-OPLS-2005>
243.639572143555

> <r_mmod_Improper_Torsional_Energy-OPLS-2005>
5.71787691116333

> <r_mmod_Van_der_Waal_Energy-OPLS-2005>
143.333236694336

> <r_mmod_Electrostatic_Energy-OPLS-2005>
-383.01611328125

> <r_mmod_Solvation_Energy-OPLS-2005>
-238.981216430664

> <b_mmod_Minimization_Converged-OPLS-2005>
0

> <r_mmod_RMS_Derivative-OPLS-2005>
0.281984508037567

$$$$
83
                    3D
 Structure written by MMmdl.
153162  0  0  1  0            999 V2000
  -30.6147  -14.7107   20.5068 C   0  0  0  0  0  0
  -30.4383  -12.4377   19.4711 C   0  0  0  0  0  0
  -29.5141  -12.5214   18.2358 C   0  0  0  0  0  0
  -28.0377  -12.3481   18.6428 C   0  0  0  0  0  0
  -27.6502  -13.2291   19.8607 C   0  0  2  0  0  0
  -28.6936  -13.1195   20.9940 C   0  0  0  0  0  0
  -25.2541  -13.8194   20.5692 C   0  0  0  0  0  0
  -24.1820  -13.0443   20.9188 C   0  0  0  0  0  0
  -24.6403  -11.6919   20.8731 C   0  0  0  0  0  0
  -23.9076  -10.4298   21.0394 C   0  0  0  0  0  0
  -24.3628   -9.4215   21.9174 C   0  0  0  0  0  0
  -23.6305   -8.2250   22.0747 C   0  0  0  0  0  0
  -22.4285   -8.0286   21.3540 C   0  0  0  0  0  0
  -21.9919   -9.0259   20.4640 C   0  0  0  0  0  0
  -22.7245  -10.2141   20.3047 C   0  0  0  0  0  0
  -21.6858   -6.0737   22.5280 C   0  0  0  0  0  0
  -21.4014   -6.5639   23.8213 C   0  0  0  0  0  0
  -21.3662   -5.6792   24.9176 C   0  0  0  0  0  0
  -21.6048   -4.3056   24.7224 C   0  0  0  0  0  0
  -21.8820   -3.8146   23.4346 C   0  0  0  0  0  0
  -21.9192   -4.6962   22.3402 C   0  0  0  0  0  0
  -22.7841  -13.5226   21.1857 C   0  0  0  0  0  0
  -22.1658   -4.2146   21.0979 F   0  0  0  0  0  0
  -21.5634   -3.4540   25.7738 F   0  0  0  0  0  0
  -30.0017  -13.4783   20.4311 N   0  0  0  0  0  0
  -26.2980  -12.9398   20.3310 N   0  0  0  0  0  0
  -25.9339  -11.6539   20.5745 N   0  0  0  0  0  0
  -22.0488  -12.8218   22.0419 N   0  0  0  0  0  0
  -25.4247  -15.1918   20.4131 N   0  0  0  0  0  0
  -31.7745  -14.8218   20.0950 O   0  0  0  0  0  0
  -21.6646   -6.8883   21.4242 O   0  0  0  0  0  0
  -22.3522  -14.5534   20.6706 O   0  0  0  0  0  0
  -24.6324  -31.8570   23.2024 C   0  0  0  0  0  0
  -25.9154  -32.4761   23.8356 C   0  0  1  0  0  0
  -27.2097  -27.2593   20.1174 C   0  0  0  0  0  0
  -25.5951  -33.8563   24.2271 N   0  0  0  0  0  0
  -23.4279  -30.4847   21.5461 C   0  0  2  0  0  0
  -24.8735  -28.9432   20.1072 C   0  0  0  0  0  0
  -22.7509  -29.4616   22.4907 C   0  0  0  0  0  0
  -18.0294  -28.1389   22.8482 C   0  0  0  0  0  0
  -24.1492  -36.7288   23.2637 C   0  0  0  0  0  0
  -25.9779  -30.7666   21.3881 C   0  0  0  0  0  0
  -26.0476  -29.3924   20.7248 C   0  0  0  0  0  0
  -27.2170  -28.5614   20.7267 C   0  0  0  0  0  0
  -26.0142  -26.9037   19.4428 C   0  0  0  0  0  0
  -24.8626  -27.7059   19.4559 C   0  0  0  0  0  0
  -23.6462  -29.8299   20.1591 C   0  0  0  0  0  0
  -25.4118  -36.3073   24.0324 C   0  0  1  0  0  0
  -20.5899  -28.3702   23.1261 C   0  0  2  0  0  0
  -20.6784  -26.9417   22.5403 C   0  0  0  0  0  0
  -19.5758  -26.6381   21.5210 C   0  0  0  0  0  0
  -18.1938  -26.7929   22.1625 C   0  0  0  0  0  0
  -19.1548  -28.8862   23.2867 C   0  0  0  0  0  0
  -18.9468  -30.1463   23.8885 C   0  0  0  0  0  0
  -17.6466  -30.6589   24.0561 C   0  0  0  0  0  0
  -25.9061  -34.9441   23.5096 C   0  0  0  0  0  0
  -16.5357  -29.9085   23.6332 C   0  0  0  0  0  0
  -16.7280  -28.6504   23.0349 C   0  0  0  0  0  0
  -26.4513  -31.6583   25.0746 C   0  0  0  0  0  0
  -25.3730  -31.3742   26.1462 C   0  0  0  0  0  0
  -27.0362  -30.2992   24.6255 C   0  0  0  0  0  0
  -27.6060  -32.4329   25.7523 C   0  0  0  0  0  0
  -27.5579  -37.1802   24.8463 C   0  0  0  0  0  0
  -21.4215  -29.3052   22.3651 N   0  0  0  0  0  0
  -26.4293  -37.3771   23.9406 N   0  0  0  0  0  0
  -24.6983  -31.0535   22.1011 N   0  0  0  0  0  0
  -23.4212  -28.8140   23.2991 O   0  0  0  0  0  0
  -28.2749  -26.3211   20.2014 O   0  0  0  0  0  0
  -26.5626  -34.8911   22.4660 O   0  0  0  0  0  0
  -23.5473  -32.1396   23.7315 O   0  0  0  0  0  0
  -30.0816  -18.4373   17.9395 C   0  0  0  0  0  0
  -30.1048  -17.2956   18.7605 C   0  0  0  0  0  0
  -29.8395  -19.7185   18.4698 C   0  0  0  0  0  0
  -29.6564  -18.7320   20.6804 C   0  0  0  0  0  0
  -29.9034  -17.3922   20.1531 C   0  0  0  0  0  0
  -29.6049  -19.9312   19.8504 C   0  0  0  0  0  0
  -29.6124  -23.3849   21.2775 C   0  0  0  0  0  0
  -28.7701  -23.6071   20.2628 C   0  0  0  0  0  0
  -29.9956  -21.9728   21.3060 C   0  0  0  0  0  0
  -28.6004  -22.2830   19.6283 C   0  0  0  0  0  0
  -29.8724  -16.0480   21.0126 C   0  0  0  0  0  0
  -27.9511  -24.8966   19.8316 C   0  0  0  0  0  0
  -29.3594  -21.3433   20.2892 N   0  0  0  0  0  0
  -30.7600  -21.4346   22.1152 O   0  0  0  0  0  0
  -27.8619  -22.0389   18.6665 O   0  0  0  0  0  0
  -31.4796  -12.5596   19.1689 H   0  0  0  0  0  0
  -30.3780  -11.4495   19.9294 H   0  0  0  0  0  0
  -29.7931  -11.7621   17.5043 H   0  0  0  0  0  0
  -29.6483  -13.4859   17.7437 H   0  0  0  0  0  0
  -27.8844  -11.2959   18.8850 H   0  0  0  0  0  0
  -27.3836  -12.5624   17.7968 H   0  0  0  0  0  0
  -27.6592  -14.2604   19.5080 H   0  0  0  0  0  0
  -28.7200  -12.1041   21.3924 H   0  0  0  0  0  0
  -28.4290  -13.7581   21.8370 H   0  0  0  0  0  0
  -25.2771   -9.5696   22.4749 H   0  0  0  0  0  0
  -24.0013   -7.4644   22.7470 H   0  0  0  0  0  0
  -21.0846   -8.8778   19.8954 H   0  0  0  0  0  0
  -22.3696  -10.9678   19.6161 H   0  0  0  0  0  0
  -21.2004   -7.6148   23.9716 H   0  0  0  0  0  0
  -21.1484   -6.0520   25.9079 H   0  0  0  0  0  0
  -22.0596   -2.7606   23.2846 H   0  0  0  0  0  0
  -22.4104  -11.9884   22.4812 H   0  0  0  0  0  0
  -21.1102  -13.1235   22.2622 H   0  0  0  0  0  0
  -24.6608  -15.8487   20.5305 H   0  0  0  0  0  0
  -26.2823  -15.6336   20.1059 H   0  0  0  0  0  0
  -26.7219  -32.5406   23.1095 H   0  0  0  0  0  0
  -25.0101  -33.9706   25.0418 H   0  0  0  0  0  0
  -22.7242  -31.3077   21.4049 H   0  0  0  0  0  0
  -23.3753  -35.9622   23.3300 H   0  0  0  0  0  0
  -24.3583  -36.8912   22.2052 H   0  0  0  0  0  0
  -23.7246  -37.6489   23.6663 H   0  0  0  0  0  0
  -26.1234  -31.5298   20.6224 H   0  0  0  0  0  0
  -26.8535  -30.8088   22.0242 H   0  0  0  0  0  0
  -28.1082  -28.8948   21.2398 H   0  0  0  0  0  0
  -25.9134  -25.9760   18.9014 H   0  0  0  0  0  0
  -23.9686  -27.3623   18.9535 H   0  0  0  0  0  0
  -23.7741  -30.6116   19.4093 H   0  0  0  0  0  0
  -22.7637  -29.2677   19.8484 H   0  0  0  0  0  0
  -25.1299  -36.1919   25.0816 H   0  0  0  0  0  0
  -20.9994  -28.3280   24.1381 H   0  0  0  0  0  0
  -20.5684  -26.2313   23.3609 H   0  0  0  0  0  0
  -21.6651  -26.7440   22.1195 H   0  0  0  0  0  0
  -19.6919  -25.6288   21.1246 H   0  0  0  0  0  0
  -19.6694  -27.3184   20.6734 H   0  0  0  0  0  0
  -17.4206  -26.6670   21.4029 H   0  0  0  0  0  0
  -18.0343  -26.0073   22.9023 H   0  0  0  0  0  0
  -19.7944  -30.7280   24.2246 H   0  0  0  0  0  0
  -17.5022  -31.6266   24.5167 H   0  0  0  0  0  0
  -15.5358  -30.2983   23.7663 H   0  0  0  0  0  0
  -15.8680  -28.0821   22.7067 H   0  0  0  0  0  0
  -24.5909  -30.7084   25.7794 H   0  0  0  0  0  0
  -24.8919  -32.2915   26.4866 H   0  0  0  0  0  0
  -25.8043  -30.8936   27.0253 H   0  0  0  0  0  0
  -26.2958  -29.6735   24.1258 H   0  0  0  0  0  0
  -27.4003  -29.7260   25.4792 H   0  0  0  0  0  0
  -27.8856  -30.4251   23.9537 H   0  0  0  0  0  0
  -27.2661  -33.3632   26.2086 H   0  0  0  0  0  0
  -28.3882  -32.6886   25.0362 H   0  0  0  0  0  0
  -28.0718  -31.8465   26.5454 H   0  0  0  0  0  0
  -28.2594  -38.0101   24.7508 H   0  0  0  0  0  0
  -28.1078  -36.2631   24.6293 H   0  0  0  0  0  0
  -27.2297  -37.1454   25.8867 H   0  0  0  0  0  0
  -20.9398  -29.8795   21.6874 H   0  0  0  0  0  0
  -26.0169  -38.2845   24.1406 H   0  0  0  0  0  0
  -30.2457  -18.3276   16.8765 H   0  0  0  0  0  0
  -30.2736  -16.3347   18.2942 H   0  0  0  0  0  0
  -29.8395  -20.5509   17.7796 H   0  0  0  0  0  0
  -29.4837  -18.8374   21.7431 H   0  0  0  0  0  0
  -29.9294  -24.1224   21.9976 H   0  0  0  0  0  0
  -28.8192  -15.8293   21.1762 H   0  0  0  0  0  0
  -30.2771  -16.2762   21.9983 H   0  0  0  0  0  0
  -26.9624  -24.6609   20.2264 H   0  0  0  0  0  0
  -27.8748  -24.8614   18.7439 H   0  0  0  0  0  0
  1 25  1  0  0  0
  1 30  2  0  0  0
  1 81  1  0  0  0
  2  3  1  0  0  0
  2 25  1  0  0  0
  2 86  1  0  0  0
  2 87  1  0  0  0
  3  4  1  0  0  0
  3 88  1  0  0  0
  3 89  1  0  0  0
  4  5  1  0  0  0
  4 90  1  0  0  0
  4 91  1  0  0  0
  5  6  1  0  0  0
  5 26  1  0  0  0
  5 92  1  0  0  0
  6 25  1  0  0  0
  6 93  1  0  0  0
  6 94  1  0  0  0
  7  8  2  0  0  0
  7 26  1  0  0  0
  7 29  1  0  0  0
  8  9  1  0  0  0
  8 22  1  0  0  0
  9 10  1  0  0  0
  9 27  2  0  0  0
 10 11  2  0  0  0
 10 15  1  0  0  0
 11 12  1  0  0  0
 11 95  1  0  0  0
 12 13  2  0  0  0
 12 96  1  0  0  0
 13 14  1  0  0  0
 13 31  1  0  0  0
 14 15  2  0  0  0
 14 97  1  0  0  0
 15 98  1  0  0  0
 16 17  2  0  0  0
 16 21  1  0  0  0
 16 31  1  0  0  0
 17 18  1  0  0  0
 17 99  1  0  0  0
 18 19  2  0  0  0
 18100  1  0  0  0
 19 20  1  0  0  0
 19 24  1  0  0  0
 20 21  2  0  0  0
 20101  1  0  0  0
 21 23  1  0  0  0
 22 28  1  0  0  0
 22 32  2  0  0  0
 26 27  1  0  0  0
 28102  1  0  0  0
 28103  1  0  0  0
 29104  1  0  0  0
 29105  1  0  0  0
 33 34  1  0  0  0
 33 66  1  0  0  0
 33 70  2  0  0  0
 34 36  1  0  0  0
 34 59  1  0  0  0
 34106  1  0  0  0
 35 44  2  0  0  0
 35 45  1  0  0  0
 35 68  1  0  0  0
 36 56  1  0  0  0
 36107  1  0  0  0
 37 39  1  0  0  0
 37 47  1  0  0  0
 37 66  1  0  0  0
 37108  1  0  0  0
 38 43  2  0  0  0
 38 46  1  0  0  0
 38 47  1  0  0  0
 39 64  1  0  0  0
 39 67  2  0  0  0
 40 52  1  0  0  0
 40 53  2  0  0  0
 40 58  1  0  0  0
 41109  1  0  0  0
 41110  1  0  0  0
 41111  1  0  0  0
 41 48  1  0  0  0
 42 43  1  0  0  0
 42 66  1  0  0  0
 42112  1  0  0  0
 42113  1  0  0  0
 43 44  1  0  0  0
 44114  1  0  0  0
 45 46  2  0  0  0
 45115  1  0  0  0
 46116  1  0  0  0
 47117  1  0  0  0
 47118  1  0  0  0
 48 56  1  0  0  0
 48 65  1  0  0  0
 48119  1  0  0  0
 49 50  1  0  0  0
 49 53  1  0  0  0
 49 64  1  0  0  0
 49120  1  0  0  0
 50 51  1  0  0  0
 50121  1  0  0  0
 50122  1  0  0  0
 51 52  1  0  0  0
 51123  1  0  0  0
 51124  1  0  0  0
 52125  1  0  0  0
 52126  1  0  0  0
 53 54  1  0  0  0
 54 55  2  0  0  0
 54127  1  0  0  0
 55 57  1  0  0  0
 55128  1  0  0  0
 56 69  2  0  0  0
 57 58  2  0  0  0
 57129  1  0  0  0
 58130  1  0  0  0
 59 60  1  0  0  0
 59 61  1  0  0  0
 59 62  1  0  0  0
 60131  1  0  0  0
 60132  1  0  0  0
 60133  1  0  0  0
 61134  1  0  0  0
 61135  1  0  0  0
 61136  1  0  0  0
 62137  1  0  0  0
 62138  1  0  0  0
 62139  1  0  0  0
 63 65  1  0  0  0
 63140  1  0  0  0
 63141  1  0  0  0
 63142  1  0  0  0
 64143  1  0  0  0
 65144  1  0  0  0
 68 82  1  0  0  0
 71 72  2  0  0  0
 71 73  1  0  0  0
 71145  1  0  0  0
 72 75  1  0  0  0
 72146  1  0  0  0
 73 76  2  0  0  0
 73147  1  0  0  0
 74 75  2  0  0  0
 74 76  1  0  0  0
 74148  1  0  0  0
 75 81  1  0  0  0
 76 83  1  0  0  0
 77 78  2  0  0  0
 77 79  1  0  0  0
 77149  1  0  0  0
 78 80  1  0  0  0
 78 82  1  0  0  0
 79 83  1  0  0  0
 79 84  2  0  0  0
 80 83  1  0  0  0
 80 85  2  0  0  0
 81150  1  0  0  0
 81151  1  0  0  0
 82152  1  0  0  0
 82153  1  0  0  0
M  ISO  4   1 100  68 101  81 100  82 101
M  END
> <chiral flag>
0

> <version>
0

> <s_m_source_file>
/data/baiqing/PycharmProjects/Reinvent-master-3.2/result/LINK_invent/BTK/process_docking_weight1_custom_product_contain_oxygen_bond_distance_aromatic_linkinvent_7_9_3/rearranged_h_0086.sdf

> <i_m_source_file_index>
84

> <r_mmod_Potential_Energy-OPLS-2005>
216.557479858398

> <r_mmod_Stretch_Energy-OPLS-2005>
121.745742797852

> <r_mmod_Bend_Energy-OPLS-2005>
207.471343994141

> <r_mmod_Torsional_Energy-OPLS-2005>
204.623474121094

> <r_mmod_Improper_Torsional_Energy-OPLS-2005>
2.94996809959412

> <r_mmod_Van_der_Waal_Energy-OPLS-2005>
145.087783813477

> <r_mmod_Electrostatic_Energy-OPLS-2005>
-315.414093017578

> <r_mmod_Solvation_Energy-OPLS-2005>
-230.069946289062

> <b_mmod_Minimization_Converged-OPLS-2005>
0

> <r_mmod_RMS_Derivative-OPLS-2005>
0.612578630447388

$$$$
84
                    3D
 Structure written by MMmdl.
154163  0  0  1  0            999 V2000
  -30.7489  -14.4430   20.5201 C   0  0  0  0  0  0
  -30.3972  -12.2701   19.4483 C   0  0  0  0  0  0
  -29.4935  -12.4858   18.2178 C   0  0  0  0  0  0
  -28.0115  -12.3658   18.6195 C   0  0  0  0  0  0
  -27.6561  -13.2188   19.8681 C   0  0  2  0  0  0
  -28.6936  -13.0361   20.9978 C   0  0  0  0  0  0
  -25.2561  -13.8195   20.5689 C   0  0  0  0  0  0
  -24.1823  -13.0452   20.9176 C   0  0  0  0  0  0
  -24.6392  -11.6924   20.8730 C   0  0  0  0  0  0
  -23.9065  -10.4300   21.0398 C   0  0  0  0  0  0
  -24.3619   -9.4217   21.9177 C   0  0  0  0  0  0
  -23.6296   -8.2251   22.0751 C   0  0  0  0  0  0
  -22.4277   -8.0285   21.3543 C   0  0  0  0  0  0
  -21.9910   -9.0257   20.4646 C   0  0  0  0  0  0
  -22.7236  -10.2138   20.3051 C   0  0  0  0  0  0
  -21.6855   -6.0737   22.5279 C   0  0  0  0  0  0
  -21.4016   -6.5641   23.8213 C   0  0  0  0  0  0
  -21.3660   -5.6793   24.9175 C   0  0  0  0  0  0
  -21.6044   -4.3056   24.7225 C   0  0  0  0  0  0
  -21.8819   -3.8148   23.4346 C   0  0  0  0  0  0
  -21.9193   -4.6964   22.3403 C   0  0  0  0  0  0
  -22.7845  -13.5240   21.1844 C   0  0  0  0  0  0
  -22.1661   -4.2150   21.0980 F   0  0  0  0  0  0
  -21.5628   -3.4539   25.7737 F   0  0  0  0  0  0
  -30.0305  -13.2900   20.4457 N   0  0  0  0  0  0
  -26.2998  -12.9389   20.3343 N   0  0  0  0  0  0
  -25.9322  -11.6535   20.5756 N   0  0  0  0  0  0
  -22.0493  -12.8231   22.0406 N   0  0  0  0  0  0
  -25.4286  -15.1914   20.4125 N   0  0  0  0  0  0
  -31.9092  -14.5005   20.1043 O   0  0  0  0  0  0
  -21.6642   -6.8881   21.4241 O   0  0  0  0  0  0
  -22.3525  -14.5544   20.6694 O   0  0  0  0  0  0
  -24.6115  -31.8700   23.2121 C   0  0  0  0  0  0
  -25.9019  -32.4835   23.8411 C   0  0  1  0  0  0
  -27.2294  -27.4645   20.0964 C   0  0  0  0  0  0
  -25.5886  -33.8634   24.2343 N   0  0  0  0  0  0
  -23.3988  -30.4935   21.5512 C   0  0  2  0  0  0
  -24.8472  -28.9656   20.1102 C   0  0  0  0  0  0
  -22.7399  -29.4665   22.4994 C   0  0  0  0  0  0
  -18.0270  -28.1373   22.8495 C   0  0  0  0  0  0
  -24.1486  -36.7324   23.2639 C   0  0  0  0  0  0
  -25.9242  -30.8460   21.3606 C   0  0  0  0  0  0
  -26.0043  -29.4831   20.7077 C   0  0  0  0  0  0
  -27.2028  -28.7380   20.7014 C   0  0  0  0  0  0
  -26.0654  -26.9553   19.4877 C   0  0  0  0  0  0
  -24.8711  -27.7000   19.4964 C   0  0  0  0  0  0
  -23.6059  -29.8268   20.1643 C   0  0  0  0  0  0
  -25.4105  -36.3123   24.0342 C   0  0  1  0  0  0
  -20.5859  -28.3657   23.1326 C   0  0  2  0  0  0
  -20.6761  -26.9396   22.5421 C   0  0  0  0  0  0
  -19.5740  -26.6384   21.5215 C   0  0  0  0  0  0
  -18.1919  -26.7921   22.1625 C   0  0  0  0  0  0
  -19.1518  -28.8831   23.2909 C   0  0  0  0  0  0
  -18.9447  -30.1439   23.8917 C   0  0  0  0  0  0
  -17.6450  -30.6581   24.0566 C   0  0  0  0  0  0
  -25.9028  -34.9484   23.5140 C   0  0  0  0  0  0
  -16.5341  -29.9086   23.6322 C   0  0  0  0  0  0
  -16.7259  -28.6501   23.0346 C   0  0  0  0  0  0
  -26.4462  -31.6603   25.0724 C   0  0  0  0  0  0
  -25.3740  -31.3696   26.1480 C   0  0  0  0  0  0
  -27.0290  -30.3053   24.6070 C   0  0  0  0  0  0
  -27.6047  -32.4317   25.7478 C   0  0  0  0  0  0
  -27.5581  -37.1817   24.8466 C   0  0  0  0  0  0
  -21.4129  -29.3029   22.3737 N   0  0  0  0  0  0
  -26.4297  -37.3801   23.9406 N   0  0  0  0  0  0
  -24.6629  -31.0829   22.1005 N   0  0  0  0  0  0
  -23.4185  -28.8206   23.3024 O   0  0  0  0  0  0
  -28.3544  -26.6846   20.1388 O   0  0  0  0  0  0
  -26.5589  -34.8928   22.4701 O   0  0  0  0  0  0
  -23.5315  -32.1436   23.7534 O   0  0  0  0  0  0
  -29.4149  -18.7298   21.5383 C   0  0  0  0  0  0
  -30.4252  -19.0717   19.3541 C   0  0  0  0  0  0
  -29.2909  -20.1322   21.6902 C   0  0  0  0  0  0
  -30.3021  -20.4624   19.4991 C   0  0  0  0  0  0
  -30.0274  -18.1930   20.3838 C   0  0  0  0  0  0
  -29.7710  -21.0098   20.6857 C   0  0  0  0  0  0
  -30.5202  -24.5336   21.0015 C   0  0  0  0  0  0
  -29.1898  -24.5708   21.0550 C   0  0  0  0  0  0
  -30.9246  -23.1603   20.8702 C   0  0  0  0  0  0
  -28.6954  -23.2114   20.9763 C   0  0  0  0  0  0
  -30.3699  -16.7725   20.2017 C   0  0  0  0  0  0
  -30.0626  -15.6691   20.9256 C   0  0  0  0  0  0
  -28.3213  -25.7955   21.2609 C   0  0  0  0  0  0
  -29.7887  -22.4294   20.8628 N   0  0  0  0  0  0
  -32.0810  -22.7275   20.7956 O   0  0  0  0  0  0
  -27.5204  -22.8254   21.0042 O   0  0  0  0  0  0
  -31.4482  -12.3077   19.1566 H   0  0  0  0  0  0
  -30.2467  -11.2720   19.8627 H   0  0  0  0  0  0
  -29.7309  -11.7554   17.4433 H   0  0  0  0  0  0
  -29.6831  -13.4684   17.7827 H   0  0  0  0  0  0
  -27.8108  -11.3127   18.8198 H   0  0  0  0  0  0
  -27.3699  -12.6409   17.7815 H   0  0  0  0  0  0
  -27.6930  -14.2626   19.5557 H   0  0  0  0  0  0
  -28.6517  -12.0194   21.3911 H   0  0  0  0  0  0
  -28.4671  -13.6863   21.8426 H   0  0  0  0  0  0
  -25.2764   -9.5696   22.4751 H   0  0  0  0  0  0
  -24.0007   -7.4644   22.7471 H   0  0  0  0  0  0
  -21.0840   -8.8774   19.8954 H   0  0  0  0  0  0
  -22.3690  -10.9676   19.6161 H   0  0  0  0  0  0
  -21.2009   -7.6149   23.9718 H   0  0  0  0  0  0
  -21.1482   -6.0523   25.9079 H   0  0  0  0  0  0
  -22.0597   -2.7610   23.2845 H   0  0  0  0  0  0
  -22.4109  -11.9894   22.4797 H   0  0  0  0  0  0
  -21.1111  -13.1256   22.2613 H   0  0  0  0  0  0
  -24.6690  -15.8525   20.5320 H   0  0  0  0  0  0
  -26.2947  -15.6307   20.1245 H   0  0  0  0  0  0
  -26.7095  -32.5564   23.1185 H   0  0  0  0  0  0
  -25.0042  -33.9802   25.0491 H   0  0  0  0  0  0
  -22.6859  -31.3091   21.4141 H   0  0  0  0  0  0
  -23.3740  -35.9667   23.3321 H   0  0  0  0  0  0
  -24.3577  -36.8915   22.2049 H   0  0  0  0  0  0
  -23.7246  -37.6541   23.6635 H   0  0  0  0  0  0
  -26.0305  -31.6136   20.5926 H   0  0  0  0  0  0
  -26.8142  -30.9013   21.9756 H   0  0  0  0  0  0
  -28.0950  -29.1261   21.1729 H   0  0  0  0  0  0
  -26.0807  -25.9777   19.0263 H   0  0  0  0  0  0
  -23.9813  -27.2956   19.0339 H   0  0  0  0  0  0
  -23.7084  -30.6025   19.4045 H   0  0  0  0  0  0
  -22.7317  -29.2427   19.8710 H   0  0  0  0  0  0
  -25.1282  -36.1999   25.0836 H   0  0  0  0  0  0
  -20.9952  -28.3220   24.1446 H   0  0  0  0  0  0
  -20.5666  -26.2263   23.3604 H   0  0  0  0  0  0
  -21.6632  -26.7444   22.1212 H   0  0  0  0  0  0
  -19.6903  -25.6301   21.1230 H   0  0  0  0  0  0
  -19.6681  -27.3207   20.6755 H   0  0  0  0  0  0
  -17.4192  -26.6672   21.4025 H   0  0  0  0  0  0
  -18.0319  -26.0056   22.9015 H   0  0  0  0  0  0
  -19.7923  -30.7247   24.2298 H   0  0  0  0  0  0
  -17.5006  -31.6264   24.5162 H   0  0  0  0  0  0
  -15.5342  -30.2995   23.7631 H   0  0  0  0  0  0
  -15.8659  -28.0827   22.7049 H   0  0  0  0  0  0
  -24.5904  -30.7055   25.7815 H   0  0  0  0  0  0
  -24.8941  -32.2847   26.4961 H   0  0  0  0  0  0
  -25.8102  -30.8840   27.0218 H   0  0  0  0  0  0
  -26.2825  -29.6819   24.1134 H   0  0  0  0  0  0
  -27.4088  -29.7280   25.4510 H   0  0  0  0  0  0
  -27.8646  -30.4389   23.9195 H   0  0  0  0  0  0
  -27.2673  -33.3599   26.2101 H   0  0  0  0  0  0
  -28.3828  -32.6906   25.0284 H   0  0  0  0  0  0
  -28.0749  -31.8414   26.5352 H   0  0  0  0  0  0
  -28.2617  -38.0098   24.7499 H   0  0  0  0  0  0
  -28.1060  -36.2631   24.6311 H   0  0  0  0  0  0
  -27.2297  -37.1493   25.8869 H   0  0  0  0  0  0
  -20.9283  -29.8755   21.6968 H   0  0  0  0  0  0
  -26.0193  -38.2886   24.1392 H   0  0  0  0  0  0
  -29.0934  -18.0775   22.3381 H   0  0  0  0  0  0
  -30.8837  -18.6867   18.4535 H   0  0  0  0  0  0
  -28.8694  -20.5280   22.6042 H   0  0  0  0  0  0
  -30.6630  -21.1060   18.7082 H   0  0  0  0  0  0
  -31.1852  -25.3801   21.0651 H   0  0  0  0  0  0
  -31.0211  -16.6253   19.3487 H   0  0  0  0  0  0
  -29.3943  -15.7041   21.7720 H   0  0  0  0  0  0
  -28.6807  -26.3299   22.1413 H   0  0  0  0  0  0
  -27.3049  -25.4702   21.4954 H   0  0  0  0  0  0
  1 25  1  0  0  0
  1 30  2  0  0  0
  1 82  1  0  0  0
  2  3  1  0  0  0
  2 25  1  0  0  0
  2 87  1  0  0  0
  2 88  1  0  0  0
  3  4  1  0  0  0
  3 89  1  0  0  0
  3 90  1  0  0  0
  4  5  1  0  0  0
  4 91  1  0  0  0
  4 92  1  0  0  0
  5  6  1  0  0  0
  5 26  1  0  0  0
  5 93  1  0  0  0
  6 25  1  0  0  0
  6 94  1  0  0  0
  6 95  1  0  0  0
  7  8  2  0  0  0
  7 26  1  0  0  0
  7 29  1  0  0  0
  8  9  1  0  0  0
  8 22  1  0  0  0
  9 10  1  0  0  0
  9 27  2  0  0  0
 10 11  2  0  0  0
 10 15  1  0  0  0
 11 12  1  0  0  0
 11 96  1  0  0  0
 12 13  2  0  0  0
 12 97  1  0  0  0
 13 14  1  0  0  0
 13 31  1  0  0  0
 14 15  2  0  0  0
 14 98  1  0  0  0
 15 99  1  0  0  0
 16 17  2  0  0  0
 16 21  1  0  0  0
 16 31  1  0  0  0
 17 18  1  0  0  0
 17100  1  0  0  0
 18 19  2  0  0  0
 18101  1  0  0  0
 19 20  1  0  0  0
 19 24  1  0  0  0
 20 21  2  0  0  0
 20102  1  0  0  0
 21 23  1  0  0  0
 22 28  1  0  0  0
 22 32  2  0  0  0
 26 27  1  0  0  0
 28103  1  0  0  0
 28104  1  0  0  0
 29105  1  0  0  0
 29106  1  0  0  0
 33 34  1  0  0  0
 33 66  1  0  0  0
 33 70  2  0  0  0
 34 36  1  0  0  0
 34 59  1  0  0  0
 34107  1  0  0  0
 35 44  2  0  0  0
 35 45  1  0  0  0
 35 68  1  0  0  0
 36 56  1  0  0  0
 36108  1  0  0  0
 37 39  1  0  0  0
 37 47  1  0  0  0
 37 66  1  0  0  0
 37109  1  0  0  0
 38 43  2  0  0  0
 38 46  1  0  0  0
 38 47  1  0  0  0
 39 64  1  0  0  0
 39 67  2  0  0  0
 40 52  1  0  0  0
 40 53  2  0  0  0
 40 58  1  0  0  0
 41110  1  0  0  0
 41111  1  0  0  0
 41112  1  0  0  0
 41 48  1  0  0  0
 42 43  1  0  0  0
 42 66  1  0  0  0
 42113  1  0  0  0
 42114  1  0  0  0
 43 44  1  0  0  0
 44115  1  0  0  0
 45 46  2  0  0  0
 45116  1  0  0  0
 46117  1  0  0  0
 47118  1  0  0  0
 47119  1  0  0  0
 48 56  1  0  0  0
 48 65  1  0  0  0
 48120  1  0  0  0
 49 50  1  0  0  0
 49 53  1  0  0  0
 49 64  1  0  0  0
 49121  1  0  0  0
 50 51  1  0  0  0
 50122  1  0  0  0
 50123  1  0  0  0
 51 52  1  0  0  0
 51124  1  0  0  0
 51125  1  0  0  0
 52126  1  0  0  0
 52127  1  0  0  0
 53 54  1  0  0  0
 54 55  2  0  0  0
 54128  1  0  0  0
 55 57  1  0  0  0
 55129  1  0  0  0
 56 69  2  0  0  0
 57 58  2  0  0  0
 57130  1  0  0  0
 58131  1  0  0  0
 59 60  1  0  0  0
 59 61  1  0  0  0
 59 62  1  0  0  0
 60132  1  0  0  0
 60133  1  0  0  0
 60134  1  0  0  0
 61135  1  0  0  0
 61136  1  0  0  0
 61137  1  0  0  0
 62138  1  0  0  0
 62139  1  0  0  0
 62140  1  0  0  0
 63 65  1  0  0  0
 63141  1  0  0  0
 63142  1  0  0  0
 63143  1  0  0  0
 64144  1  0  0  0
 65145  1  0  0  0
 68 83  1  0  0  0
 71 73  2  0  0  0
 71 75  1  0  0  0
 71146  1  0  0  0
 72 74  1  0  0  0
 72 75  2  0  0  0
 72147  1  0  0  0
 73 76  1  0  0  0
 73148  1  0  0  0
 74 76  2  0  0  0
 74149  1  0  0  0
 75 81  1  0  0  0
 76 84  1  0  0  0
 77 78  2  0  0  0
 77 79  1  0  0  0
 77150  1  0  0  0
 78 80  1  0  0  0
 78 83  1  0  0  0
 79 84  1  0  0  0
 79 85  2  0  0  0
 80 84  1  0  0  0
 80 86  2  0  0  0
 81 82  2  0  0  0
 81151  1  0  0  0
 82152  1  0  0  0
 83153  1  0  0  0
 83154  1  0  0  0
M  ISO  4   1 100  68 101  82 100  83 101
M  END
> <chiral flag>
0

> <version>
0

> <s_m_source_file>
/data/baiqing/PycharmProjects/Reinvent-master-3.2/result/LINK_invent/BTK/process_docking_weight1_custom_product_contain_oxygen_bond_distance_aromatic_linkinvent_7_9_3/rearranged_h_0086.sdf

> <i_m_source_file_index>
85

> <r_mmod_Potential_Energy-OPLS-2005>
26.7022094726562

> <r_mmod_Stretch_Energy-OPLS-2005>
34.8596954345703

> <r_mmod_Bend_Energy-OPLS-2005>
143.742538452148

> <r_mmod_Torsional_Energy-OPLS-2005>
260.959014892578

> <r_mmod_Improper_Torsional_Energy-OPLS-2005>
4.938307762146

> <r_mmod_Van_der_Waal_Energy-OPLS-2005>
153.494094848633

> <r_mmod_Electrostatic_Energy-OPLS-2005>
-363.93212890625

> <r_mmod_Solvation_Energy-OPLS-2005>
-225.28010559082

> <b_mmod_Minimization_Converged-OPLS-2005>
0

> <r_mmod_RMS_Derivative-OPLS-2005>
0.212577968835831

$$$$
85
                    3D
 Structure written by MMmdl.
153162  0  0  1  0            999 V2000
  -30.5943  -14.8088   20.4337 C   0  0  0  0  0  0
  -30.4310  -12.4979   19.4870 C   0  0  0  0  0  0
  -29.5133  -12.5573   18.2451 C   0  0  0  0  0  0
  -28.0380  -12.3731   18.6486 C   0  0  0  0  0  0
  -27.6438  -13.2507   19.8670 C   0  0  2  0  0  0
  -28.6917  -13.1877   21.0034 C   0  0  0  0  0  0
  -25.2502  -13.8242   20.5719 C   0  0  0  0  0  0
  -24.1792  -13.0467   20.9161 C   0  0  0  0  0  0
  -24.6394  -11.6938   20.8699 C   0  0  0  0  0  0
  -23.9057  -10.4313   21.0351 C   0  0  0  0  0  0
  -24.3614   -9.4239   21.9138 C   0  0  0  0  0  0
  -23.6286   -8.2270   22.0698 C   0  0  0  0  0  0
  -22.4271   -8.0283   21.3494 C   0  0  0  0  0  0
  -21.9904   -9.0259   20.4599 C   0  0  0  0  0  0
  -22.7221  -10.2151   20.3000 C   0  0  0  0  0  0
  -21.6843   -6.0740   22.5255 C   0  0  0  0  0  0
  -21.4032   -6.5643   23.8197 C   0  0  0  0  0  0
  -21.3670   -5.6789   24.9149 C   0  0  0  0  0  0
  -21.6048   -4.3048   24.7197 C   0  0  0  0  0  0
  -21.8818   -3.8143   23.4321 C   0  0  0  0  0  0
  -21.9187   -4.6972   22.3391 C   0  0  0  0  0  0
  -22.7818  -13.5228   21.1846 C   0  0  0  0  0  0
  -22.1639   -4.2171   21.0966 F   0  0  0  0  0  0
  -21.5638   -3.4519   25.7687 F   0  0  0  0  0  0
  -29.9872  -13.5631   20.4226 N   0  0  0  0  0  0
  -26.2951  -12.9479   20.3361 N   0  0  0  0  0  0
  -25.9353  -11.6602   20.5768 N   0  0  0  0  0  0
  -22.0504  -12.8191   22.0417 N   0  0  0  0  0  0
  -25.4264  -15.1976   20.4243 N   0  0  0  0  0  0
  -31.7821  -14.8888   20.1012 O   0  0  0  0  0  0
  -21.6621   -6.8878   21.4222 O   0  0  0  0  0  0
  -22.3495  -14.5547   20.6727 O   0  0  0  0  0  0
  -24.6416  -31.8519   23.1980 C   0  0  0  0  0  0
  -25.9225  -32.4720   23.8347 C   0  0  1  0  0  0
  -27.2100  -27.1872   20.1348 C   0  0  0  0  0  0
  -25.6035  -33.8536   24.2286 N   0  0  0  0  0  0
  -23.4388  -30.4784   21.5429 C   0  0  2  0  0  0
  -24.8845  -28.9214   20.1104 C   0  0  0  0  0  0
  -22.7559  -29.4603   22.4884 C   0  0  0  0  0  0
  -18.0314  -28.1410   22.8482 C   0  0  0  0  0  0
  -24.1504  -36.7244   23.2640 C   0  0  0  0  0  0
  -25.9938  -30.7347   21.3957 C   0  0  0  0  0  0
  -26.0593  -29.3549   20.7335 C   0  0  0  0  0  0
  -27.2192  -28.5010   20.7381 C   0  0  0  0  0  0
  -26.0051  -26.8487   19.4640 C   0  0  0  0  0  0
  -24.8684  -27.6791   19.4623 C   0  0  0  0  0  0
  -23.6627  -29.8218   20.1563 C   0  0  0  0  0  0
  -25.4127  -36.3051   24.0338 C   0  0  1  0  0  0
  -20.5930  -28.3748   23.1241 C   0  0  2  0  0  0
  -20.6806  -26.9455   22.5411 C   0  0  0  0  0  0
  -19.5771  -26.6384   21.5232 C   0  0  0  0  0  0
  -18.1948  -26.7951   22.1624 C   0  0  0  0  0  0
  -19.1569  -28.8886   23.2856 C   0  0  0  0  0  0
  -18.9474  -30.1474   23.8890 C   0  0  0  0  0  0
  -17.6468  -30.6608   24.0566 C   0  0  0  0  0  0
  -25.9090  -34.9422   23.5106 C   0  0  0  0  0  0
  -16.5362  -29.9094   23.6337 C   0  0  0  0  0  0
  -16.7296  -28.6509   23.0366 C   0  0  0  0  0  0
  -26.4569  -31.6563   25.0753 C   0  0  0  0  0  0
  -25.3764  -31.3717   26.1442 C   0  0  0  0  0  0
  -27.0436  -30.2979   24.6299 C   0  0  0  0  0  0
  -27.6165  -32.4273   25.7495 C   0  0  0  0  0  0
  -27.5589  -37.1775   24.8462 C   0  0  0  0  0  0
  -21.4253  -29.3084   22.3625 N   0  0  0  0  0  0
  -26.4284  -37.3772   23.9433 N   0  0  0  0  0  0
  -24.7109  -31.0416   22.1002 N   0  0  0  0  0  0
  -23.4231  -28.8142   23.3013 O   0  0  0  0  0  0
  -28.2878  -26.2454   20.2211 O   0  0  0  0  0  0
  -26.5633  -34.8916   22.4661 O   0  0  0  0  0  0
  -23.5550  -32.1371   23.7236 O   0  0  0  0  0  0
  -29.8187  -19.7870   18.4933 C   0  0  0  0  0  0
  -30.0942  -18.5453   17.8826 C   0  0  0  0  0  0
  -29.6077  -18.6329   20.6239 C   0  0  0  0  0  0
  -29.5592  -19.9057   19.8822 C   0  0  0  0  0  0
  -29.8902  -17.3170   20.0139 C   0  0  0  0  0  0
  -30.1205  -17.3403   18.6126 C   0  0  0  0  0  0
  -28.7898  -23.6709   20.3751 C   0  0  0  0  0  0
  -28.5091  -22.2947   19.8385 C   0  0  0  0  0  0
  -28.1456  -24.8327   19.9139 C   0  0  0  0  0  0
  -29.8687  -23.4910   21.4335 C   0  0  0  0  0  0
  -30.2129  -21.9606   21.3859 C   0  0  0  0  0  0
  -29.3251  -21.3146   20.3960 N   0  0  0  0  0  0
  -29.8458  -15.9660   20.6851 N   0  0  0  0  0  0
  -27.6230  -22.0351   19.0155 O   0  0  0  0  0  0
  -30.3262  -16.1904   17.9220 F   0  0  0  0  0  0
  -31.4722  -12.6265   19.1841 H   0  0  0  0  0  0
  -30.3749  -11.5157   19.9587 H   0  0  0  0  0  0
  -29.8020  -11.8021   17.5148 H   0  0  0  0  0  0
  -29.6346  -13.5245   17.7478 H   0  0  0  0  0  0
  -27.8852  -11.3187   18.8786 H   0  0  0  0  0  0
  -27.3857  -12.6032   17.8049 H   0  0  0  0  0  0
  -27.6342  -14.2806   19.5042 H   0  0  0  0  0  0
  -28.7441  -12.1862   21.4403 H   0  0  0  0  0  0
  -28.4201  -13.8609   21.8181 H   0  0  0  0  0  0
  -25.2771   -9.5701   22.4721 H   0  0  0  0  0  0
  -23.9963   -7.4675   22.7446 H   0  0  0  0  0  0
  -21.0809   -8.8790   19.8948 H   0  0  0  0  0  0
  -22.3650  -10.9684   19.6103 H   0  0  0  0  0  0
  -21.2041   -7.6153   23.9691 H   0  0  0  0  0  0
  -21.1489   -6.0522   25.9052 H   0  0  0  0  0  0
  -22.0594   -2.7605   23.2796 H   0  0  0  0  0  0
  -22.4105  -11.9790   22.4695 H   0  0  0  0  0  0
  -21.1169  -13.1247   22.2757 H   0  0  0  0  0  0
  -24.6722  -15.8651   20.5411 H   0  0  0  0  0  0
  -26.3041  -15.6273   20.1610 H   0  0  0  0  0  0
  -26.7299  -32.5342   23.1087 H   0  0  0  0  0  0
  -25.0311  -33.9704   25.0518 H   0  0  0  0  0  0
  -22.7403  -31.3063   21.4014 H   0  0  0  0  0  0
  -23.3825  -35.9522   23.3242 H   0  0  0  0  0  0
  -24.3611  -36.8899   22.2067 H   0  0  0  0  0  0
  -23.7169  -37.6394   23.6690 H   0  0  0  0  0  0
  -26.1525  -31.4907   20.6281 H   0  0  0  0  0  0
  -26.8643  -30.7788   22.0372 H   0  0  0  0  0  0
  -28.1107  -28.8272   21.2577 H   0  0  0  0  0  0
  -25.8782  -25.9140   18.9451 H   0  0  0  0  0  0
  -23.9704  -27.3511   18.9562 H   0  0  0  0  0  0
  -23.8100  -30.6071   19.4144 H   0  0  0  0  0  0
  -22.7737  -29.2743   19.8365 H   0  0  0  0  0  0
  -25.1306  -36.1896   25.0831 H   0  0  0  0  0  0
  -21.0017  -28.3319   24.1367 H   0  0  0  0  0  0
  -20.5712  -26.2374   23.3644 H   0  0  0  0  0  0
  -21.6652  -26.7475   22.1166 H   0  0  0  0  0  0
  -19.6912  -25.6273   21.1289 H   0  0  0  0  0  0
  -19.6674  -27.3181   20.6758 H   0  0  0  0  0  0
  -17.4223  -26.6746   21.4025 H   0  0  0  0  0  0
  -18.0297  -26.0084   22.9002 H   0  0  0  0  0  0
  -19.7950  -30.7301   24.2245 H   0  0  0  0  0  0
  -17.5028  -31.6305   24.5157 H   0  0  0  0  0  0
  -15.5362  -30.3011   23.7640 H   0  0  0  0  0  0
  -15.8698  -28.0821   22.7100 H   0  0  0  0  0  0
  -24.6003  -30.7004   25.7740 H   0  0  0  0  0  0
  -24.8898  -32.2875   26.4822 H   0  0  0  0  0  0
  -25.8049  -30.8916   27.0252 H   0  0  0  0  0  0
  -26.3046  -29.6686   24.1327 H   0  0  0  0  0  0
  -27.4111  -29.7282   25.4851 H   0  0  0  0  0  0
  -27.8932  -30.4260   23.9583 H   0  0  0  0  0  0
  -27.2892  -33.3654   26.1998 H   0  0  0  0  0  0
  -28.4013  -32.6659   25.0298 H   0  0  0  0  0  0
  -28.0807  -31.8409   26.5443 H   0  0  0  0  0  0
  -28.2554  -38.0137   24.7619 H   0  0  0  0  0  0
  -28.1140  -36.2671   24.6147 H   0  0  0  0  0  0
  -27.2328  -37.1216   25.8868 H   0  0  0  0  0  0
  -20.9465  -29.8834   21.6821 H   0  0  0  0  0  0
  -26.0152  -38.2830   24.1502 H   0  0  0  0  0  0
  -29.8279  -20.6600   17.8542 H   0  0  0  0  0  0
  -30.2825  -18.5129   16.8163 H   0  0  0  0  0  0
  -29.4099  -18.6614   21.6864 H   0  0  0  0  0  0
  -27.4417  -24.6839   19.1076 H   0  0  0  0  0  0
  -29.5078  -23.7748   22.4275 H   0  0  0  0  0  0
  -30.7492  -24.1030   21.2258 H   0  0  0  0  0  0
  -30.1109  -21.5039   22.3716 H   0  0  0  0  0  0
  -31.2528  -21.8246   21.0762 H   0  0  0  0  0  0
  -29.0035  -15.7956   21.2157 H   0  0  0  0  0  0
  1 25  1  0  0  0
  1 30  2  0  0  0
  1 83  1  0  0  0
  2  3  1  0  0  0
  2 25  1  0  0  0
  2 86  1  0  0  0
  2 87  1  0  0  0
  3  4  1  0  0  0
  3 88  1  0  0  0
  3 89  1  0  0  0
  4  5  1  0  0  0
  4 90  1  0  0  0
  4 91  1  0  0  0
  5  6  1  0  0  0
  5 26  1  0  0  0
  5 92  1  0  0  0
  6 25  1  0  0  0
  6 93  1  0  0  0
  6 94  1  0  0  0
  7  8  2  0  0  0
  7 26  1  0  0  0
  7 29  1  0  0  0
  8  9  1  0  0  0
  8 22  1  0  0  0
  9 10  1  0  0  0
  9 27  2  0  0  0
 10 11  2  0  0  0
 10 15  1  0  0  0
 11 12  1  0  0  0
 11 95  1  0  0  0
 12 13  2  0  0  0
 12 96  1  0  0  0
 13 14  1  0  0  0
 13 31  1  0  0  0
 14 15  2  0  0  0
 14 97  1  0  0  0
 15 98  1  0  0  0
 16 17  2  0  0  0
 16 21  1  0  0  0
 16 31  1  0  0  0
 17 18  1  0  0  0
 17 99  1  0  0  0
 18 19  2  0  0  0
 18100  1  0  0  0
 19 20  1  0  0  0
 19 24  1  0  0  0
 20 21  2  0  0  0
 20101  1  0  0  0
 21 23  1  0  0  0
 22 28  1  0  0  0
 22 32  2  0  0  0
 26 27  1  0  0  0
 28102  1  0  0  0
 28103  1  0  0  0
 29104  1  0  0  0
 29105  1  0  0  0
 33 34  1  0  0  0
 33 66  1  0  0  0
 33 70  2  0  0  0
 34 36  1  0  0  0
 34 59  1  0  0  0
 34106  1  0  0  0
 35 44  2  0  0  0
 35 45  1  0  0  0
 35 68  1  0  0  0
 36 56  1  0  0  0
 36107  1  0  0  0
 37 39  1  0  0  0
 37 47  1  0  0  0
 37 66  1  0  0  0
 37108  1  0  0  0
 38 43  2  0  0  0
 38 46  1  0  0  0
 38 47  1  0  0  0
 39 64  1  0  0  0
 39 67  2  0  0  0
 40 52  1  0  0  0
 40 53  2  0  0  0
 40 58  1  0  0  0
 41109  1  0  0  0
 41110  1  0  0  0
 41111  1  0  0  0
 41 48  1  0  0  0
 42 43  1  0  0  0
 42 66  1  0  0  0
 42112  1  0  0  0
 42113  1  0  0  0
 43 44  1  0  0  0
 44114  1  0  0  0
 45 46  2  0  0  0
 45115  1  0  0  0
 46116  1  0  0  0
 47117  1  0  0  0
 47118  1  0  0  0
 48 56  1  0  0  0
 48 65  1  0  0  0
 48119  1  0  0  0
 49 50  1  0  0  0
 49 53  1  0  0  0
 49 64  1  0  0  0
 49120  1  0  0  0
 50 51  1  0  0  0
 50121  1  0  0  0
 50122  1  0  0  0
 51 52  1  0  0  0
 51123  1  0  0  0
 51124  1  0  0  0
 52125  1  0  0  0
 52126  1  0  0  0
 53 54  1  0  0  0
 54 55  2  0  0  0
 54127  1  0  0  0
 55 57  1  0  0  0
 55128  1  0  0  0
 56 69  2  0  0  0
 57 58  2  0  0  0
 57129  1  0  0  0
 58130  1  0  0  0
 59 60  1  0  0  0
 59 61  1  0  0  0
 59 62  1  0  0  0
 60131  1  0  0  0
 60132  1  0  0  0
 60133  1  0  0  0
 61134  1  0  0  0
 61135  1  0  0  0
 61136  1  0  0  0
 62137  1  0  0  0
 62138  1  0  0  0
 62139  1  0  0  0
 63 65  1  0  0  0
 63140  1  0  0  0
 63141  1  0  0  0
 63142  1  0  0  0
 64143  1  0  0  0
 65144  1  0  0  0
 68 79  1  0  0  0
 71 72  2  0  0  0
 71 74  1  0  0  0
 71145  1  0  0  0
 72 76  1  0  0  0
 72146  1  0  0  0
 73 74  2  0  0  0
 73 75  1  0  0  0
 73147  1  0  0  0
 74 82  1  0  0  0
 75 76  2  0  0  0
 75 83  1  0  0  0
 76 85  1  0  0  0
 77 78  1  0  0  0
 77 79  2  0  0  0
 77 80  1  0  0  0
 78 82  1  0  0  0
 78 84  2  0  0  0
 79148  1  0  0  0
 80 81  1  0  0  0
 80149  1  0  0  0
 80150  1  0  0  0
 81 82  1  0  0  0
 81151  1  0  0  0
 81152  1  0  0  0
 83153  1  0  0  0
M  ISO  4   1 100  68 101  79 101  83 100
M  END
> <chiral flag>
0

> <version>
0

> <s_m_source_file>
/data/baiqing/PycharmProjects/Reinvent-master-3.2/result/LINK_invent/BTK/process_docking_weight1_custom_product_contain_oxygen_bond_distance_aromatic_linkinvent_7_9_3/rearranged_h_0086.sdf

> <i_m_source_file_index>
86

> <r_mmod_Potential_Energy-OPLS-2005>
367.684600830078

> <r_mmod_Stretch_Energy-OPLS-2005>
164.881652832031

> <r_mmod_Bend_Energy-OPLS-2005>
205.685028076172

> <r_mmod_Torsional_Energy-OPLS-2005>
305.317260742188

> <r_mmod_Improper_Torsional_Energy-OPLS-2005>
4.77389192581177

> <r_mmod_Van_der_Waal_Energy-OPLS-2005>
137.155822753906

> <r_mmod_Electrostatic_Energy-OPLS-2005>
-354.164459228516

> <r_mmod_Solvation_Energy-OPLS-2005>
-219.925338745117

> <b_mmod_Minimization_Converged-OPLS-2005>
0

> <r_mmod_RMS_Derivative-OPLS-2005>
5.65717220306396

$$$$
86
                    3D
 Structure written by MMmdl.
151159  0  0  1  0            999 V2000
  -30.6145  -14.6628   20.4885 C   0  0  0  0  0  0
  -30.4403  -12.4051   19.4561 C   0  0  0  0  0  0
  -29.5090  -12.5081   18.2272 C   0  0  0  0  0  0
  -28.0323  -12.3430   18.6399 C   0  0  0  0  0  0
  -27.6518  -13.2193   19.8633 C   0  0  2  0  0  0
  -28.6979  -13.0857   20.9933 C   0  0  0  0  0  0
  -25.2545  -13.8168   20.5692 C   0  0  0  0  0  0
  -24.1812  -13.0424   20.9165 C   0  0  0  0  0  0
  -24.6392  -11.6901   20.8724 C   0  0  0  0  0  0
  -23.9065  -10.4285   21.0395 C   0  0  0  0  0  0
  -24.3616   -9.4203   21.9177 C   0  0  0  0  0  0
  -23.6290   -8.2241   22.0751 C   0  0  0  0  0  0
  -22.4271   -8.0280   21.3544 C   0  0  0  0  0  0
  -21.9907   -9.0252   20.4644 C   0  0  0  0  0  0
  -22.7236  -10.2129   20.3049 C   0  0  0  0  0  0
  -21.6853   -6.0734   22.5279 C   0  0  0  0  0  0
  -21.4015   -6.5637   23.8213 C   0  0  0  0  0  0
  -21.3659   -5.6788   24.9174 C   0  0  0  0  0  0
  -21.6046   -4.3052   24.7224 C   0  0  0  0  0  0
  -21.8820   -3.8144   23.4344 C   0  0  0  0  0  0
  -21.9194   -4.6962   22.3401 C   0  0  0  0  0  0
  -22.7837  -13.5219   21.1842 C   0  0  0  0  0  0
  -22.1662   -4.2149   21.0978 F   0  0  0  0  0  0
  -21.5629   -3.4535   25.7736 F   0  0  0  0  0  0
  -30.0115  -13.4318   20.4275 N   0  0  0  0  0  0
  -26.2986  -12.9361   20.3336 N   0  0  0  0  0  0
  -25.9327  -11.6509   20.5759 N   0  0  0  0  0  0
  -22.0487  -12.8211   22.0407 N   0  0  0  0  0  0
  -25.4219  -15.1896   20.4178 N   0  0  0  0  0  0
  -31.7820  -14.8187   20.1193 O   0  0  0  0  0  0
  -21.6636   -6.8877   21.4242 O   0  0  0  0  0  0
  -22.3515  -14.5529   20.6703 O   0  0  0  0  0  0
  -24.6264  -31.8593   23.2020 C   0  0  0  0  0  0
  -25.9111  -32.4776   23.8350 C   0  0  1  0  0  0
  -27.2238  -27.3133   20.1253 C   0  0  0  0  0  0
  -25.5925  -33.8576   24.2278 N   0  0  0  0  0  0
  -23.4208  -30.4823   21.5446 C   0  0  2  0  0  0
  -24.8687  -28.9351   20.1130 C   0  0  0  0  0  0
  -22.7477  -29.4622   22.4937 C   0  0  0  0  0  0
  -18.0286  -28.1387   22.8485 C   0  0  0  0  0  0
  -24.1489  -36.7293   23.2639 C   0  0  0  0  0  0
  -25.9622  -30.7887   21.3742 C   0  0  0  0  0  0
  -26.0375  -29.4145   20.7189 C   0  0  0  0  0  0
  -27.2204  -28.6157   20.7143 C   0  0  0  0  0  0
  -26.0381  -26.8929   19.4845 C   0  0  0  0  0  0
  -24.8710  -27.6797   19.4860 C   0  0  0  0  0  0
  -23.6366  -29.8158   20.1605 C   0  0  0  0  0  0
  -25.4115  -36.3082   24.0328 C   0  0  1  0  0  0
  -20.5887  -28.3691   23.1282 C   0  0  2  0  0  0
  -20.6775  -26.9414   22.5411 C   0  0  0  0  0  0
  -19.5752  -26.6387   21.5212 C   0  0  0  0  0  0
  -18.1932  -26.7929   22.1624 C   0  0  0  0  0  0
  -19.1538  -28.8856   23.2878 C   0  0  0  0  0  0
  -18.9463  -30.1460   23.8893 C   0  0  0  0  0  0
  -17.6462  -30.6587   24.0565 C   0  0  0  0  0  0
  -25.9051  -34.9450   23.5104 C   0  0  0  0  0  0
  -16.5353  -29.9087   23.6330 C   0  0  0  0  0  0
  -16.7274  -28.6506   23.0347 C   0  0  0  0  0  0
  -26.4493  -31.6585   25.0721 C   0  0  0  0  0  0
  -25.3729  -31.3724   26.1451 C   0  0  0  0  0  0
  -27.0336  -30.3008   24.6176 C   0  0  0  0  0  0
  -27.6050  -32.4322   25.7492 C   0  0  0  0  0  0
  -27.5579  -37.1803   24.8466 C   0  0  0  0  0  0
  -21.4191  -29.3043   22.3678 N   0  0  0  0  0  0
  -26.4293  -37.3776   23.9406 N   0  0  0  0  0  0
  -24.6886  -31.0602   22.0971 N   0  0  0  0  0  0
  -23.4196  -28.8162   23.3021 O   0  0  0  0  0  0
  -28.3318  -26.4522   20.1471 O   0  0  0  0  0  0
  -26.5621  -34.8918   22.4672 O   0  0  0  0  0  0
  -23.5427  -32.1393   23.7345 O   0  0  0  0  0  0
  -31.0375  -19.3176   20.1463 C   0  0  0  0  0  0
  -31.0668  -17.9005   20.3317 C   0  0  0  0  0  0
  -28.6711  -19.3620   20.5342 C   0  0  0  0  0  0
  -29.8408  -20.0953   20.2170 C   0  0  0  0  0  0
  -29.8846  -17.1686   20.6114 C   0  0  0  0  0  0
  -28.6952  -17.9444   20.7215 C   0  0  0  0  0  0
  -29.0430  -23.9097   20.0704 C   0  0  0  0  0  0
  -29.8431  -21.6097   19.8896 C   0  0  0  0  0  0
  -28.0990  -25.0544   20.6059 C   0  0  0  0  0  0
  -29.0019  -22.6250   20.3779 N   0  0  0  0  0  0
  -29.7940  -15.7162   20.8067 N   0  0  0  0  0  0
  -30.7452  -21.9313   19.0087 N   0  3  0  0  0  0
  -27.5358  -17.2952   20.9943 F   0  0  0  0  0  0
  -31.4807  -12.5341   19.1524 H   0  0  0  0  0  0
  -30.3805  -11.4119   19.9037 H   0  0  0  0  0  0
  -29.7764  -11.7531   17.4867 H   0  0  0  0  0  0
  -29.6477  -13.4749   17.7407 H   0  0  0  0  0  0
  -27.8738  -11.2904   18.8780 H   0  0  0  0  0  0
  -27.3769  -12.5656   17.7971 H   0  0  0  0  0  0
  -27.6640  -14.2523   19.5151 H   0  0  0  0  0  0
  -28.7131  -12.0669   21.3836 H   0  0  0  0  0  0
  -28.4416  -13.7245   21.8399 H   0  0  0  0  0  0
  -25.2763   -9.5683   22.4747 H   0  0  0  0  0  0
  -24.0002   -7.4634   22.7470 H   0  0  0  0  0  0
  -21.0839   -8.8770   19.8950 H   0  0  0  0  0  0
  -22.3696  -10.9666   19.6156 H   0  0  0  0  0  0
  -21.2006   -7.6144   23.9717 H   0  0  0  0  0  0
  -21.1481   -6.0516   25.9077 H   0  0  0  0  0  0
  -22.0600   -2.7607   23.2843 H   0  0  0  0  0  0
  -22.4102  -11.9869   22.4790 H   0  0  0  0  0  0
  -21.1111  -13.1244   22.2627 H   0  0  0  0  0  0
  -24.6589  -15.8398   20.5673 H   0  0  0  0  0  0
  -26.2940  -15.6583   20.2053 H   0  0  0  0  0  0
  -26.7181  -32.5448   23.1102 H   0  0  0  0  0  0
  -25.0074  -33.9720   25.0424 H   0  0  0  0  0  0
  -22.7151  -31.3030   21.4004 H   0  0  0  0  0  0
  -23.3748  -35.9629   23.3306 H   0  0  0  0  0  0
  -24.3581  -36.8909   22.2053 H   0  0  0  0  0  0
  -23.7246  -37.6498   23.6657 H   0  0  0  0  0  0
  -26.0942  -31.5511   20.6050 H   0  0  0  0  0  0
  -26.8421  -30.8386   22.0039 H   0  0  0  0  0  0
  -28.1173  -28.9788   21.1962 H   0  0  0  0  0  0
  -26.0014  -25.9390   18.9783 H   0  0  0  0  0  0
  -23.9783  -27.3098   19.0004 H   0  0  0  0  0  0
  -23.7570  -30.5913   19.4032 H   0  0  0  0  0  0
  -22.7566  -29.2453   19.8580 H   0  0  0  0  0  0
  -25.1296  -36.1936   25.0821 H   0  0  0  0  0  0
  -20.9978  -28.3268   24.1403 H   0  0  0  0  0  0
  -20.5679  -26.2301   23.3612 H   0  0  0  0  0  0
  -21.6646  -26.7447   22.1205 H   0  0  0  0  0  0
  -19.6915  -25.6298   21.1242 H   0  0  0  0  0  0
  -19.6687  -27.3197   20.6742 H   0  0  0  0  0  0
  -17.4202  -26.6675   21.4027 H   0  0  0  0  0  0
  -18.0333  -26.0072   22.9022 H   0  0  0  0  0  0
  -19.7940  -30.7279   24.2255 H   0  0  0  0  0  0
  -17.5017  -31.6265   24.5174 H   0  0  0  0  0  0
  -15.5354  -30.2989   23.7655 H   0  0  0  0  0  0
  -15.8674  -28.0828   22.7057 H   0  0  0  0  0  0
  -24.5903  -30.7073   25.7783 H   0  0  0  0  0  0
  -24.8922  -32.2892   26.4875 H   0  0  0  0  0  0
  -25.8058  -30.8905   27.0226 H   0  0  0  0  0  0
  -26.2910  -29.6760   24.1201 H   0  0  0  0  0  0
  -27.4034  -29.7262   25.4679 H   0  0  0  0  0  0
  -27.8779  -30.4292   23.9399 H   0  0  0  0  0  0
  -27.2655  -33.3622   26.2067 H   0  0  0  0  0  0
  -28.3860  -32.6887   25.0320 H   0  0  0  0  0  0
  -28.0719  -31.8452   26.5412 H   0  0  0  0  0  0
  -28.2601  -38.0096   24.7508 H   0  0  0  0  0  0
  -28.1071  -36.2628   24.6298 H   0  0  0  0  0  0
  -27.2298  -37.1464   25.8869 H   0  0  0  0  0  0
  -20.9369  -29.8767   21.6888 H   0  0  0  0  0  0
  -26.0175  -38.2854   24.1399 H   0  0  0  0  0  0
  -31.9730  -19.8113   19.9376 H   0  0  0  0  0  0
  -32.0146  -17.3888   20.2520 H   0  0  0  0  0  0
  -27.7343  -19.8899   20.6022 H   0  0  0  0  0  0
  -29.7863  -24.3031   19.3717 H   0  0  0  0  0  0
  -28.1947  -25.0678   21.6917 H   0  0  0  0  0  0
  -27.0773  -24.7273   20.4230 H   0  0  0  0  0  0
  -28.8749  -15.4152   21.0944 H   0  0  0  0  0  0
  -31.3460  -21.2331   18.5747 H   0  0  0  0  0  0
  -30.8949  -22.8724   18.6617 H   0  0  0  0  0  0
  1 25  1  0  0  0
  1 30  2  0  0  0
  1 81  1  0  0  0
  2  3  1  0  0  0
  2 25  1  0  0  0
  2 84  1  0  0  0
  2 85  1  0  0  0
  3  4  1  0  0  0
  3 86  1  0  0  0
  3 87  1  0  0  0
  4  5  1  0  0  0
  4 88  1  0  0  0
  4 89  1  0  0  0
  5  6  1  0  0  0
  5 26  1  0  0  0
  5 90  1  0  0  0
  6 25  1  0  0  0
  6 91  1  0  0  0
  6 92  1  0  0  0
  7  8  2  0  0  0
  7 26  1  0  0  0
  7 29  1  0  0  0
  8  9  1  0  0  0
  8 22  1  0  0  0
  9 10  1  0  0  0
  9 27  2  0  0  0
 10 11  2  0  0  0
 10 15  1  0  0  0
 11 12  1  0  0  0
 11 93  1  0  0  0
 12 13  2  0  0  0
 12 94  1  0  0  0
 13 14  1  0  0  0
 13 31  1  0  0  0
 14 15  2  0  0  0
 14 95  1  0  0  0
 15 96  1  0  0  0
 16 17  2  0  0  0
 16 21  1  0  0  0
 16 31  1  0  0  0
 17 18  1  0  0  0
 17 97  1  0  0  0
 18 19  2  0  0  0
 18 98  1  0  0  0
 19 20  1  0  0  0
 19 24  1  0  0  0
 20 21  2  0  0  0
 20 99  1  0  0  0
 21 23  1  0  0  0
 22 28  1  0  0  0
 22 32  2  0  0  0
 26 27  1  0  0  0
 28100  1  0  0  0
 28101  1  0  0  0
 29102  1  0  0  0
 29103  1  0  0  0
 33 34  1  0  0  0
 33 66  1  0  0  0
 33 70  2  0  0  0
 34 36  1  0  0  0
 34 59  1  0  0  0
 34104  1  0  0  0
 35 44  2  0  0  0
 35 45  1  0  0  0
 35 68  1  0  0  0
 36 56  1  0  0  0
 36105  1  0  0  0
 37 39  1  0  0  0
 37 47  1  0  0  0
 37 66  1  0  0  0
 37106  1  0  0  0
 38 43  2  0  0  0
 38 46  1  0  0  0
 38 47  1  0  0  0
 39 64  1  0  0  0
 39 67  2  0  0  0
 40 52  1  0  0  0
 40 53  2  0  0  0
 40 58  1  0  0  0
 41107  1  0  0  0
 41108  1  0  0  0
 41109  1  0  0  0
 41 48  1  0  0  0
 42 43  1  0  0  0
 42 66  1  0  0  0
 42110  1  0  0  0
 42111  1  0  0  0
 43 44  1  0  0  0
 44112  1  0  0  0
 45 46  2  0  0  0
 45113  1  0  0  0
 46114  1  0  0  0
 47115  1  0  0  0
 47116  1  0  0  0
 48 56  1  0  0  0
 48 65  1  0  0  0
 48117  1  0  0  0
 49 50  1  0  0  0
 49 53  1  0  0  0
 49 64  1  0  0  0
 49118  1  0  0  0
 50 51  1  0  0  0
 50119  1  0  0  0
 50120  1  0  0  0
 51 52  1  0  0  0
 51121  1  0  0  0
 51122  1  0  0  0
 52123  1  0  0  0
 52124  1  0  0  0
 53 54  1  0  0  0
 54 55  2  0  0  0
 54125  1  0  0  0
 55 57  1  0  0  0
 55126  1  0  0  0
 56 69  2  0  0  0
 57 58  2  0  0  0
 57127  1  0  0  0
 58128  1  0  0  0
 59 60  1  0  0  0
 59 61  1  0  0  0
 59 62  1  0  0  0
 60129  1  0  0  0
 60130  1  0  0  0
 60131  1  0  0  0
 61132  1  0  0  0
 61133  1  0  0  0
 61134  1  0  0  0
 62135  1  0  0  0
 62136  1  0  0  0
 62137  1  0  0  0
 63 65  1  0  0  0
 63138  1  0  0  0
 63139  1  0  0  0
 63140  1  0  0  0
 64141  1  0  0  0
 65142  1  0  0  0
 68 79  1  0  0  0
 71 72  2  0  0  0
 71 74  1  0  0  0
 71143  1  0  0  0
 72 75  1  0  0  0
 72144  1  0  0  0
 73 74  2  0  0  0
 73 76  1  0  0  0
 73145  1  0  0  0
 74 78  1  0  0  0
 75 76  2  0  0  0
 75 81  1  0  0  0
 76 83  1  0  0  0
 77 79  1  0  0  0
 77 80  2  0  0  0
 77146  1  0  0  0
 78 80  1  0  0  0
 78 82  2  0  0  0
 79147  1  0  0  0
 79148  1  0  0  0
 81149  1  0  0  0
 82150  1  0  0  0
 82151  1  0  0  0
M  CHG  1  82   1
M  ISO  4   1 100  68 101  79 101  81 100
M  END
> <chiral flag>
0

> <version>
0

> <s_m_source_file>
/data/baiqing/PycharmProjects/Reinvent-master-3.2/result/LINK_invent/BTK/process_docking_weight1_custom_product_contain_oxygen_bond_distance_aromatic_linkinvent_7_9_3/rearranged_h_0086.sdf

> <i_m_source_file_index>
87

> <r_mmod_Potential_Energy-OPLS-2005>
-15.3665800094604

> <r_mmod_Stretch_Energy-OPLS-2005>
98.200439453125

> <r_mmod_Bend_Energy-OPLS-2005>
143.710006713867

> <r_mmod_Torsional_Energy-OPLS-2005>
230.715591430664

> <r_mmod_Improper_Torsional_Energy-OPLS-2005>
4.44493532180786

> <r_mmod_Van_der_Waal_Energy-OPLS-2005>
155.551345825195

> <r_mmod_Electrostatic_Energy-OPLS-2005>
-218.223190307617

> <r_mmod_Solvation_Energy-OPLS-2005>
-483.575317382812

> <b_mmod_Minimization_Converged-OPLS-2005>
0

> <r_mmod_RMS_Derivative-OPLS-2005>
0.338633835315704

$$$$
87
                    3D
 Structure written by MMmdl.
150159  0  0  1  0            999 V2000
  -30.5813  -14.8837   20.4358 C   0  0  0  0  0  0
  -30.4336  -12.5471   19.4879 C   0  0  0  0  0  0
  -29.5143  -12.5187   18.2467 C   0  0  0  0  0  0
  -28.0460  -12.3181   18.6661 C   0  0  0  0  0  0
  -27.6309  -13.2453   19.8391 C   0  0  2  0  0  0
  -28.6761  -13.2557   20.9749 C   0  0  0  0  0  0
  -25.2466  -13.8216   20.5712 C   0  0  0  0  0  0
  -24.1780  -13.0440   20.9227 C   0  0  0  0  0  0
  -24.6393  -11.6925   20.8757 C   0  0  0  0  0  0
  -23.9078  -10.4294   21.0409 C   0  0  0  0  0  0
  -24.3626   -9.4207   21.9185 C   0  0  0  0  0  0
  -23.6298   -8.2244   22.0754 C   0  0  0  0  0  0
  -22.4280   -8.0282   21.3545 C   0  0  0  0  0  0
  -21.9919   -9.0257   20.4646 C   0  0  0  0  0  0
  -22.7250  -10.2135   20.3057 C   0  0  0  0  0  0
  -21.6855   -6.0737   22.5279 C   0  0  0  0  0  0
  -21.4016   -6.5640   23.8212 C   0  0  0  0  0  0
  -21.3660   -5.6793   24.9174 C   0  0  0  0  0  0
  -21.6044   -4.3056   24.7225 C   0  0  0  0  0  0
  -21.8819   -3.8147   23.4346 C   0  0  0  0  0  0
  -21.9193   -4.6964   22.3402 C   0  0  0  0  0  0
  -22.7799  -13.5210   21.1881 C   0  0  0  0  0  0
  -22.1662   -4.2149   21.0980 F   0  0  0  0  0  0
  -21.5628   -3.4539   25.7737 F   0  0  0  0  0  0
  -29.9572  -13.6443   20.3736 N   0  0  0  0  0  0
  -26.2892  -12.9445   20.3255 N   0  0  0  0  0  0
  -25.9326  -11.6576   20.5748 N   0  0  0  0  0  0
  -22.0452  -12.8196   22.0437 N   0  0  0  0  0  0
  -25.4118  -15.1947   20.4133 N   0  0  0  0  0  0
  -31.7868  -14.9199   20.1702 O   0  0  0  0  0  0
  -21.6643   -6.8880   21.4241 O   0  0  0  0  0  0
  -22.3480  -14.5513   20.6725 O   0  0  0  0  0  0
  -24.6401  -31.8475   23.1918 C   0  0  0  0  0  0
  -25.9187  -32.4714   23.8295 C   0  0  1  0  0  0
  -27.2151  -27.1728   20.1491 C   0  0  0  0  0  0
  -25.5948  -33.8519   24.2211 N   0  0  0  0  0  0
  -23.4426  -30.4679   21.5363 C   0  0  2  0  0  0
  -24.8933  -28.9017   20.1103 C   0  0  0  0  0  0
  -22.7553  -29.4562   22.4871 C   0  0  0  0  0  0
  -18.0302  -28.1394   22.8478 C   0  0  0  0  0  0
  -24.1491  -36.7265   23.2642 C   0  0  0  0  0  0
  -25.9963  -30.7315   21.3877 C   0  0  0  0  0  0
  -26.0691  -29.3455   20.7312 C   0  0  0  0  0  0
  -27.2342  -28.4946   20.7391 C   0  0  0  0  0  0
  -26.0201  -26.8258   19.4839 C   0  0  0  0  0  0
  -24.8787  -27.6528   19.4721 C   0  0  0  0  0  0
  -23.6681  -29.7995   20.1546 C   0  0  0  0  0  0
  -25.4122  -36.3044   24.0319 C   0  0  1  0  0  0
  -20.5913  -28.3717   23.1242 C   0  0  2  0  0  0
  -20.6787  -26.9423   22.5405 C   0  0  0  0  0  0
  -19.5761  -26.6382   21.5212 C   0  0  0  0  0  0
  -18.1943  -26.7933   22.1623 C   0  0  0  0  0  0
  -19.1558  -28.8873   23.2853 C   0  0  0  0  0  0
  -18.9476  -30.1470   23.8878 C   0  0  0  0  0  0
  -17.6472  -30.6591   24.0560 C   0  0  0  0  0  0
  -25.9069  -34.9418   23.5071 C   0  0  0  0  0  0
  -16.5363  -29.9084   23.6335 C   0  0  0  0  0  0
  -16.7287  -28.6503   23.0356 C   0  0  0  0  0  0
  -26.4521  -31.6571   25.0723 C   0  0  0  0  0  0
  -25.3712  -31.3747   26.1420 C   0  0  0  0  0  0
  -27.0388  -30.2973   24.6284 C   0  0  0  0  0  0
  -27.6051  -32.4336   25.7508 C   0  0  0  0  0  0
  -27.5576  -37.1790   24.8465 C   0  0  0  0  0  0
  -21.4249  -29.3047   22.3618 N   0  0  0  0  0  0
  -26.4289  -37.3753   23.9407 N   0  0  0  0  0  0
  -24.7124  -31.0359   22.0939 N   0  0  0  0  0  0
  -23.4209  -28.8106   23.3008 O   0  0  0  0  0  0
  -28.2444  -26.1744   20.1876 O   0  0  0  0  0  0
  -26.5651  -34.8908   22.4648 O   0  0  0  0  0  0
  -23.5527  -32.1337   23.7156 O   0  0  0  0  0  0
  -31.9718  -19.1720   21.1842 C   0  0  0  0  0  0
  -31.1419  -20.2737   20.9020 C   0  0  0  0  0  0
  -31.5245  -17.8467   21.0548 C   0  0  0  0  0  0
  -29.7932  -20.1711   20.4839 C   0  0  0  0  0  0
  -30.2109  -17.5479   20.6377 C   0  0  0  0  0  0
  -29.3631  -18.7452   20.3829 C   0  0  0  0  0  0
  -28.4319  -23.5145   20.4486 C   0  0  0  0  0  0
  -29.5908  -22.8520   19.8361 C   0  0  0  0  0  0
  -27.8961  -24.8204   20.5911 C   0  0  0  0  0  0
  -28.0148  -22.0966   20.9807 C   0  0  0  0  0  0
  -29.1368  -21.5216   20.1909 N   0  0  0  0  0  0
  -29.8215  -16.0750   20.5477 N   0  0  0  0  0  0
  -30.5947  -23.3264   19.3455 O   0  0  0  0  0  0
  -28.0857  -18.5140   19.9945 F   0  0  0  0  0  0
  -31.4702  -12.6869   19.1771 H   0  0  0  0  0  0
  -30.4073  -11.5910   20.0130 H   0  0  0  0  0  0
  -29.8213  -11.7244   17.5650 H   0  0  0  0  0  0
  -29.6142  -13.4540   17.6936 H   0  0  0  0  0  0
  -27.9311  -11.2752   18.9639 H   0  0  0  0  0  0
  -27.3832  -12.4648   17.8124 H   0  0  0  0  0  0
  -27.5998  -14.2511   19.4196 H   0  0  0  0  0  0
  -28.7486  -12.2779   21.4533 H   0  0  0  0  0  0
  -28.3891  -13.9625   21.7552 H   0  0  0  0  0  0
  -25.2769   -9.5684   22.4763 H   0  0  0  0  0  0
  -24.0006   -7.4635   22.7474 H   0  0  0  0  0  0
  -21.0850   -8.8778   19.8952 H   0  0  0  0  0  0
  -22.3708  -10.9675   19.6168 H   0  0  0  0  0  0
  -21.2009   -7.6149   23.9716 H   0  0  0  0  0  0
  -21.1482   -6.0523   25.9077 H   0  0  0  0  0  0
  -22.0598   -2.7609   23.2846 H   0  0  0  0  0  0
  -22.4078  -11.9863   22.4827 H   0  0  0  0  0  0
  -21.1066  -13.1210   22.2642 H   0  0  0  0  0  0
  -24.6395  -15.8423   20.5262 H   0  0  0  0  0  0
  -26.2503  -15.6413   20.0662 H   0  0  0  0  0  0
  -26.7253  -32.5336   23.1028 H   0  0  0  0  0  0
  -25.0076  -33.9641   25.0345 H   0  0  0  0  0  0
  -22.7434  -31.2928   21.3842 H   0  0  0  0  0  0
  -23.3757  -35.9593   23.3296 H   0  0  0  0  0  0
  -24.3576  -36.8903   22.2058 H   0  0  0  0  0  0
  -23.7244  -37.6459   23.6681 H   0  0  0  0  0  0
  -26.1481  -31.4870   20.6155 H   0  0  0  0  0  0
  -26.8683  -30.7819   22.0281 H   0  0  0  0  0  0
  -28.1301  -28.8250   21.2457 H   0  0  0  0  0  0
  -25.9513  -25.8652   18.9932 H   0  0  0  0  0  0
  -23.9822  -27.3088   18.9746 H   0  0  0  0  0  0
  -23.8019  -30.5751   19.3996 H   0  0  0  0  0  0
  -22.7840  -29.2395   19.8445 H   0  0  0  0  0  0
  -25.1309  -36.1877   25.0811 H   0  0  0  0  0  0
  -21.0005  -28.3306   24.1363 H   0  0  0  0  0  0
  -20.5682  -26.2331   23.3621 H   0  0  0  0  0  0
  -21.6654  -26.7432   22.1202 H   0  0  0  0  0  0
  -19.6923  -25.6287   21.1255 H   0  0  0  0  0  0
  -19.6698  -27.3181   20.6733 H   0  0  0  0  0  0
  -17.4211  -26.6677   21.4027 H   0  0  0  0  0  0
  -18.0343  -26.0080   22.9025 H   0  0  0  0  0  0
  -19.7951  -30.7292   24.2239 H   0  0  0  0  0  0
  -17.5025  -31.6269   24.5165 H   0  0  0  0  0  0
  -15.5362  -30.2980   23.7671 H   0  0  0  0  0  0
  -15.8687  -28.0815   22.7082 H   0  0  0  0  0  0
  -24.5906  -30.7077   25.7742 H   0  0  0  0  0  0
  -24.8882  -32.2923   26.4789 H   0  0  0  0  0  0
  -25.8003  -30.8963   27.0233 H   0  0  0  0  0  0
  -26.3004  -29.6697   24.1281 H   0  0  0  0  0  0
  -27.4002  -29.7266   25.4849 H   0  0  0  0  0  0
  -27.8910  -30.4219   23.9599 H   0  0  0  0  0  0
  -27.2640  -33.3647   26.2046 H   0  0  0  0  0  0
  -28.3884  -32.6881   25.0356 H   0  0  0  0  0  0
  -28.0697  -31.8491   26.5460 H   0  0  0  0  0  0
  -28.2589  -38.0091   24.7510 H   0  0  0  0  0  0
  -28.1078  -36.2620   24.6296 H   0  0  0  0  0  0
  -27.2293  -37.1441   25.8868 H   0  0  0  0  0  0
  -20.9454  -29.8763   21.6803 H   0  0  0  0  0  0
  -26.0159  -38.2823   24.1407 H   0  0  0  0  0  0
  -32.9880  -19.3514   21.5070 H   0  0  0  0  0  0
  -31.5845  -21.2526   21.0199 H   0  0  0  0  0  0
  -32.2226  -17.0607   21.3000 H   0  0  0  0  0  0
  -26.9881  -24.8723   21.1755 H   0  0  0  0  0  0
  -27.0525  -21.6963   20.6582 H   0  0  0  0  0  0
  -28.1472  -21.9203   22.0499 H   0  0  0  0  0  0
  -28.8263  -15.9145   20.5632 H   0  0  0  0  0  0
  1 25  1  0  0  0
  1 30  2  0  0  0
  1 82  1  0  0  0
  2  3  1  0  0  0
  2 25  1  0  0  0
  2 85  1  0  0  0
  2 86  1  0  0  0
  3  4  1  0  0  0
  3 87  1  0  0  0
  3 88  1  0  0  0
  4  5  1  0  0  0
  4 89  1  0  0  0
  4 90  1  0  0  0
  5  6  1  0  0  0
  5 26  1  0  0  0
  5 91  1  0  0  0
  6 25  1  0  0  0
  6 92  1  0  0  0
  6 93  1  0  0  0
  7  8  2  0  0  0
  7 26  1  0  0  0
  7 29  1  0  0  0
  8  9  1  0  0  0
  8 22  1  0  0  0
  9 10  1  0  0  0
  9 27  2  0  0  0
 10 11  2  0  0  0
 10 15  1  0  0  0
 11 12  1  0  0  0
 11 94  1  0  0  0
 12 13  2  0  0  0
 12 95  1  0  0  0
 13 14  1  0  0  0
 13 31  1  0  0  0
 14 15  2  0  0  0
 14 96  1  0  0  0
 15 97  1  0  0  0
 16 17  2  0  0  0
 16 21  1  0  0  0
 16 31  1  0  0  0
 17 18  1  0  0  0
 17 98  1  0  0  0
 18 19  2  0  0  0
 18 99  1  0  0  0
 19 20  1  0  0  0
 19 24  1  0  0  0
 20 21  2  0  0  0
 20100  1  0  0  0
 21 23  1  0  0  0
 22 28  1  0  0  0
 22 32  2  0  0  0
 26 27  1  0  0  0
 28101  1  0  0  0
 28102  1  0  0  0
 29103  1  0  0  0
 29104  1  0  0  0
 33 34  1  0  0  0
 33 66  1  0  0  0
 33 70  2  0  0  0
 34 36  1  0  0  0
 34 59  1  0  0  0
 34105  1  0  0  0
 35 44  2  0  0  0
 35 45  1  0  0  0
 35 68  1  0  0  0
 36 56  1  0  0  0
 36106  1  0  0  0
 37 39  1  0  0  0
 37 47  1  0  0  0
 37 66  1  0  0  0
 37107  1  0  0  0
 38 43  2  0  0  0
 38 46  1  0  0  0
 38 47  1  0  0  0
 39 64  1  0  0  0
 39 67  2  0  0  0
 40 52  1  0  0  0
 40 53  2  0  0  0
 40 58  1  0  0  0
 41108  1  0  0  0
 41109  1  0  0  0
 41110  1  0  0  0
 41 48  1  0  0  0
 42 43  1  0  0  0
 42 66  1  0  0  0
 42111  1  0  0  0
 42112  1  0  0  0
 43 44  1  0  0  0
 44113  1  0  0  0
 45 46  2  0  0  0
 45114  1  0  0  0
 46115  1  0  0  0
 47116  1  0  0  0
 47117  1  0  0  0
 48 56  1  0  0  0
 48 65  1  0  0  0
 48118  1  0  0  0
 49 50  1  0  0  0
 49 53  1  0  0  0
 49 64  1  0  0  0
 49119  1  0  0  0
 50 51  1  0  0  0
 50120  1  0  0  0
 50121  1  0  0  0
 51 52  1  0  0  0
 51122  1  0  0  0
 51123  1  0  0  0
 52124  1  0  0  0
 52125  1  0  0  0
 53 54  1  0  0  0
 54 55  2  0  0  0
 54126  1  0  0  0
 55 57  1  0  0  0
 55127  1  0  0  0
 56 69  2  0  0  0
 57 58  2  0  0  0
 57128  1  0  0  0
 58129  1  0  0  0
 59 60  1  0  0  0
 59 61  1  0  0  0
 59 62  1  0  0  0
 60130  1  0  0  0
 60131  1  0  0  0
 60132  1  0  0  0
 61133  1  0  0  0
 61134  1  0  0  0
 61135  1  0  0  0
 62136  1  0  0  0
 62137  1  0  0  0
 62138  1  0  0  0
 63 65  1  0  0  0
 63139  1  0  0  0
 63140  1  0  0  0
 63141  1  0  0  0
 64142  1  0  0  0
 65143  1  0  0  0
 68 79  1  0  0  0
 71 72  2  0  0  0
 71 73  1  0  0  0
 71144  1  0  0  0
 72 74  1  0  0  0
 72145  1  0  0  0
 73 75  2  0  0  0
 73146  1  0  0  0
 74 76  2  0  0  0
 74 81  1  0  0  0
 75 76  1  0  0  0
 75 82  1  0  0  0
 76 84  1  0  0  0
 77 78  1  0  0  0
 77 79  2  0  0  0
 77 80  1  0  0  0
 78 81  1  0  0  0
 78 83  2  0  0  0
 79147  1  0  0  0
 80 81  1  0  0  0
 80148  1  0  0  0
 80149  1  0  0  0
 82150  1  0  0  0
M  ISO  4   1 100  68 101  79 101  82 100
M  END
> <chiral flag>
0

> <version>
0

> <s_m_source_file>
/data/baiqing/PycharmProjects/Reinvent-master-3.2/result/LINK_invent/BTK/process_docking_weight1_custom_product_contain_oxygen_bond_distance_aromatic_linkinvent_7_9_3/rearranged_h_0086.sdf

> <i_m_source_file_index>
88

> <r_mmod_Potential_Energy-OPLS-2005>
424.203948974609

> <r_mmod_Stretch_Energy-OPLS-2005>
192.213516235352

> <r_mmod_Bend_Energy-OPLS-2005>
278.555541992188

> <r_mmod_Torsional_Energy-OPLS-2005>
242.144088745117

> <r_mmod_Improper_Torsional_Energy-OPLS-2005>
9.46558475494385

> <r_mmod_Van_der_Waal_Energy-OPLS-2005>
133.582565307617

> <r_mmod_Electrostatic_Energy-OPLS-2005>
-373.313049316406

> <r_mmod_Solvation_Energy-OPLS-2005>
-217.411666870117

> <b_mmod_Minimization_Converged-OPLS-2005>
0

> <r_mmod_RMS_Derivative-OPLS-2005>
0.180125758051872

$$$$
88
                    3D
 Structure written by MMmdl.
153162  0  0  1  0            999 V2000
  -30.6190  -14.6620   20.4990 C   0  0  0  0  0  0
  -30.4469  -12.4109   19.4469 C   0  0  0  0  0  0
  -29.5096  -12.5140   18.2222 C   0  0  0  0  0  0
  -28.0333  -12.3508   18.6357 C   0  0  0  0  0  0
  -27.6559  -13.2189   19.8655 C   0  0  2  0  0  0
  -28.7050  -13.0754   20.9922 C   0  0  0  0  0  0
  -25.2565  -13.8168   20.5690 C   0  0  0  0  0  0
  -24.1827  -13.0431   20.9161 C   0  0  0  0  0  0
  -24.6398  -11.6905   20.8729 C   0  0  0  0  0  0
  -23.9065  -10.4292   21.0395 C   0  0  0  0  0  0
  -24.3616   -9.4205   21.9176 C   0  0  0  0  0  0
  -23.6293   -8.2239   22.0746 C   0  0  0  0  0  0
  -22.4275   -8.0278   21.3542 C   0  0  0  0  0  0
  -21.9897   -9.0258   20.4656 C   0  0  0  0  0  0
  -22.7226  -10.2141   20.3059 C   0  0  0  0  0  0
  -21.6849   -6.0728   22.5277 C   0  0  0  0  0  0
  -21.4009   -6.5636   23.8207 C   0  0  0  0  0  0
  -21.3662   -5.6789   24.9174 C   0  0  0  0  0  0
  -21.6044   -4.3052   24.7227 C   0  0  0  0  0  0
  -21.8826   -3.8139   23.4346 C   0  0  0  0  0  0
  -21.9195   -4.6954   22.3401 C   0  0  0  0  0  0
  -22.7852  -13.5235   21.1835 C   0  0  0  0  0  0
  -22.1667   -4.2144   21.0978 F   0  0  0  0  0  0
  -21.5631   -3.4533   25.7731 F   0  0  0  0  0  0
  -30.0178  -13.4293   20.4269 N   0  0  0  0  0  0
  -26.3011  -12.9359   20.3344 N   0  0  0  0  0  0
  -25.9334  -11.6511   20.5760 N   0  0  0  0  0  0
  -22.0490  -12.8253   22.0411 N   0  0  0  0  0  0
  -25.4257  -15.1889   20.4165 N   0  0  0  0  0  0
  -31.7806  -14.8277   20.1170 O   0  0  0  0  0  0
  -21.6639   -6.8876   21.4242 O   0  0  0  0  0  0
  -22.3532  -14.5538   20.6677 O   0  0  0  0  0  0
  -24.6286  -31.8599   23.2050 C   0  0  0  0  0  0
  -25.9128  -32.4776   23.8378 C   0  0  1  0  0  0
  -27.2111  -27.2971   20.1022 C   0  0  0  0  0  0
  -25.5928  -33.8581   24.2276 N   0  0  0  0  0  0
  -23.4225  -30.4885   21.5487 C   0  0  2  0  0  0
  -24.8660  -28.9524   20.1062 C   0  0  0  0  0  0
  -22.7487  -29.4627   22.4918 C   0  0  0  0  0  0
  -18.0292  -28.1384   22.8487 C   0  0  0  0  0  0
  -24.1496  -36.7303   23.2644 C   0  0  0  0  0  0
  -25.9713  -30.7786   21.3880 C   0  0  0  0  0  0
  -26.0397  -29.4104   20.7182 C   0  0  0  0  0  0
  -27.2149  -28.5947   20.7104 C   0  0  0  0  0  0
  -26.0108  -26.9144   19.4524 C   0  0  0  0  0  0
  -24.8547  -27.7090   19.4658 C   0  0  0  0  0  0
  -23.6377  -29.8364   20.1606 C   0  0  0  0  0  0
  -25.4120  -36.3085   24.0326 C   0  0  1  0  0  0
  -20.5895  -28.3690   23.1277 C   0  0  2  0  0  0
  -20.6762  -26.9401   22.5433 C   0  0  0  0  0  0
  -19.5751  -26.6369   21.5222 C   0  0  0  0  0  0
  -18.1926  -26.7929   22.1618 C   0  0  0  0  0  0
  -19.1546  -28.8851   23.2879 C   0  0  0  0  0  0
  -18.9467  -30.1451   23.8893 C   0  0  0  0  0  0
  -17.6466  -30.6587   24.0556 C   0  0  0  0  0  0
  -25.9061  -34.9452   23.5104 C   0  0  0  0  0  0
  -16.5357  -29.9081   23.6328 C   0  0  0  0  0  0
  -16.7279  -28.6500   23.0348 C   0  0  0  0  0  0
  -26.4483  -31.6606   25.0772 C   0  0  0  0  0  0
  -25.3702  -31.3823   26.1506 C   0  0  0  0  0  0
  -27.0285  -30.2982   24.6314 C   0  0  0  0  0  0
  -27.6070  -32.4337   25.7497 C   0  0  0  0  0  0
  -27.5592  -37.1801   24.8457 C   0  0  0  0  0  0
  -21.4199  -29.3035   22.3656 N   0  0  0  0  0  0
  -26.4301  -37.3775   23.9403 N   0  0  0  0  0  0
  -24.6929  -31.0595   22.1019 N   0  0  0  0  0  0
  -23.4208  -28.8155   23.2988 O   0  0  0  0  0  0
  -28.2961  -26.3932   20.1673 O   0  0  0  0  0  0
  -26.5633  -34.8917   22.4672 O   0  0  0  0  0  0
  -23.5439  -32.1413   23.7350 O   0  0  0  0  0  0
  -30.9247  -19.3579   20.2000 C   0  0  0  0  0  0
  -30.9863  -17.9296   20.2876 C   0  0  0  0  0  0
  -30.2997  -23.7888   20.6056 C   0  0  0  0  0  0
  -28.6549  -19.3316   20.9735 C   0  0  0  0  0  0
  -28.6157  -22.4100   20.1653 C   0  0  0  0  0  0
  -28.9302  -23.7705   20.2152 C   0  0  0  0  0  0
  -29.7633  -20.1098   20.5494 C   0  0  0  0  0  0
  -29.8733  -17.1626   20.7265 C   0  0  0  0  0  0
  -28.7113  -17.9087   21.0612 C   0  0  0  0  0  0
  -30.7301  -22.4934   20.7661 C   0  0  0  0  0  0
  -27.9778  -24.9674   19.8690 C   0  0  0  0  0  0
  -29.7097  -21.5817   20.4935 N   0  0  0  0  0  0
  -29.8024  -15.7021   20.8602 N   0  0  0  0  0  0
  -31.9654  -22.0742   21.1506 O   0  0  0  0  0  0
  -27.6137  -17.2334   21.4790 F   0  0  0  0  0  0
  -31.4834  -12.5540   19.1335 H   0  0  0  0  0  0
  -30.4025  -11.4139   19.8880 H   0  0  0  0  0  0
  -29.7753  -11.7603   17.4798 H   0  0  0  0  0  0
  -29.6464  -13.4822   17.7366 H   0  0  0  0  0  0
  -27.8686  -11.2974   18.8631 H   0  0  0  0  0  0
  -27.3792  -12.5848   17.7954 H   0  0  0  0  0  0
  -27.6712  -14.2543   19.5251 H   0  0  0  0  0  0
  -28.7240  -12.0529   21.3716 H   0  0  0  0  0  0
  -28.4484  -13.7038   21.8459 H   0  0  0  0  0  0
  -25.2765   -9.5684   22.4742 H   0  0  0  0  0  0
  -24.0012   -7.4625   22.7456 H   0  0  0  0  0  0
  -21.0814   -8.8786   19.8974 H   0  0  0  0  0  0
  -22.3675  -10.9683   19.6174 H   0  0  0  0  0  0
  -21.1998   -7.6142   23.9712 H   0  0  0  0  0  0
  -21.1479   -6.0514   25.9078 H   0  0  0  0  0  0
  -22.0602   -2.7602   23.2839 H   0  0  0  0  0  0
  -22.4090  -11.9934   22.4844 H   0  0  0  0  0  0
  -21.1122  -13.1325   22.2630 H   0  0  0  0  0  0
  -24.6665  -15.8434   20.5691 H   0  0  0  0  0  0
  -26.3028  -15.6500   20.2081 H   0  0  0  0  0  0
  -26.7200  -32.5419   23.1126 H   0  0  0  0  0  0
  -25.0023  -33.9723   25.0383 H   0  0  0  0  0  0
  -22.7175  -31.3112   21.4118 H   0  0  0  0  0  0
  -23.3720  -35.9685   23.3388 H   0  0  0  0  0  0
  -24.3573  -36.8828   22.2044 H   0  0  0  0  0  0
  -23.7309  -37.6559   23.6602 H   0  0  0  0  0  0
  -26.1259  -31.5503   20.6326 H   0  0  0  0  0  0
  -26.8424  -30.8073   22.0316 H   0  0  0  0  0  0
  -28.1100  -28.9385   21.2095 H   0  0  0  0  0  0
  -25.9135  -25.9758   18.9295 H   0  0  0  0  0  0
  -23.9581  -27.3539   18.9764 H   0  0  0  0  0  0
  -23.7616  -30.6208   19.4130 H   0  0  0  0  0  0
  -22.7548  -29.2739   19.8517 H   0  0  0  0  0  0
  -25.1306  -36.1945   25.0820 H   0  0  0  0  0  0
  -20.9998  -28.3277   24.1397 H   0  0  0  0  0  0
  -20.5627  -26.2313   23.3652 H   0  0  0  0  0  0
  -21.6641  -26.7400   22.1258 H   0  0  0  0  0  0
  -19.6905  -25.6273   21.1269 H   0  0  0  0  0  0
  -19.6696  -27.3170   20.6746 H   0  0  0  0  0  0
  -17.4206  -26.6697   21.4004 H   0  0  0  0  0  0
  -18.0299  -26.0072   22.9015 H   0  0  0  0  0  0
  -19.7942  -30.7263   24.2266 H   0  0  0  0  0  0
  -17.5023  -31.6271   24.5156 H   0  0  0  0  0  0
  -15.5353  -30.2974   23.7661 H   0  0  0  0  0  0
  -15.8686  -28.0820   22.7049 H   0  0  0  0  0  0
  -24.5864  -30.7164   25.7878 H   0  0  0  0  0  0
  -24.8903  -32.3019   26.4867 H   0  0  0  0  0  0
  -25.8009  -30.9066   27.0326 H   0  0  0  0  0  0
  -26.2865  -29.6758   24.1295 H   0  0  0  0  0  0
  -27.3837  -29.7241   25.4885 H   0  0  0  0  0  0
  -27.8822  -30.4181   23.9640 H   0  0  0  0  0  0
  -27.2694  -33.3610   26.2136 H   0  0  0  0  0  0
  -28.3817  -32.6948   25.0275 H   0  0  0  0  0  0
  -28.0820  -31.8441   26.5347 H   0  0  0  0  0  0
  -28.2653  -38.0056   24.7452 H   0  0  0  0  0  0
  -28.1039  -36.2590   24.6323 H   0  0  0  0  0  0
  -27.2327  -37.1518   25.8868 H   0  0  0  0  0  0
  -20.9369  -29.8771   21.6884 H   0  0  0  0  0  0
  -26.0190  -38.2863   24.1367 H   0  0  0  0  0  0
  -31.8010  -19.8853   19.8549 H   0  0  0  0  0  0
  -31.9059  -17.4350   20.0110 H   0  0  0  0  0  0
  -30.9035  -24.6747   20.7496 H   0  0  0  0  0  0
  -27.7377  -19.8271   21.2531 H   0  0  0  0  0  0
  -27.6762  -21.9424   19.9012 H   0  0  0  0  0  0
  -27.0414  -24.7067   20.3648 H   0  0  0  0  0  0
  -27.8017  -24.8897   18.7948 H   0  0  0  0  0  0
  -28.8974  -15.3886   21.1783 H   0  0  0  0  0  0
  -32.5136  -22.8469   21.2492 H   0  0  0  0  0  0
  1 25  1  0  0  0
  1 30  2  0  0  0
  1 83  1  0  0  0
  2  3  1  0  0  0
  2 25  1  0  0  0
  2 86  1  0  0  0
  2 87  1  0  0  0
  3  4  1  0  0  0
  3 88  1  0  0  0
  3 89  1  0  0  0
  4  5  1  0  0  0
  4 90  1  0  0  0
  4 91  1  0  0  0
  5  6  1  0  0  0
  5 26  1  0  0  0
  5 92  1  0  0  0
  6 25  1  0  0  0
  6 93  1  0  0  0
  6 94  1  0  0  0
  7  8  2  0  0  0
  7 26  1  0  0  0
  7 29  1  0  0  0
  8  9  1  0  0  0
  8 22  1  0  0  0
  9 10  1  0  0  0
  9 27  2  0  0  0
 10 11  2  0  0  0
 10 15  1  0  0  0
 11 12  1  0  0  0
 11 95  1  0  0  0
 12 13  2  0  0  0
 12 96  1  0  0  0
 13 14  1  0  0  0
 13 31  1  0  0  0
 14 15  2  0  0  0
 14 97  1  0  0  0
 15 98  1  0  0  0
 16 17  2  0  0  0
 16 21  1  0  0  0
 16 31  1  0  0  0
 17 18  1  0  0  0
 17 99  1  0  0  0
 18 19  2  0  0  0
 18100  1  0  0  0
 19 20  1  0  0  0
 19 24  1  0  0  0
 20 21  2  0  0  0
 20101  1  0  0  0
 21 23  1  0  0  0
 22 28  1  0  0  0
 22 32  2  0  0  0
 26 27  1  0  0  0
 28102  1  0  0  0
 28103  1  0  0  0
 29104  1  0  0  0
 29105  1  0  0  0
 33 34  1  0  0  0
 33 66  1  0  0  0
 33 70  2  0  0  0
 34 36  1  0  0  0
 34 59  1  0  0  0
 34106  1  0  0  0
 35 44  2  0  0  0
 35 45  1  0  0  0
 35 68  1  0  0  0
 36 56  1  0  0  0
 36107  1  0  0  0
 37 39  1  0  0  0
 37 47  1  0  0  0
 37 66  1  0  0  0
 37108  1  0  0  0
 38 43  2  0  0  0
 38 46  1  0  0  0
 38 47  1  0  0  0
 39 64  1  0  0  0
 39 67  2  0  0  0
 40 52  1  0  0  0
 40 53  2  0  0  0
 40 58  1  0  0  0
 41109  1  0  0  0
 41110  1  0  0  0
 41111  1  0  0  0
 41 48  1  0  0  0
 42 43  1  0  0  0
 42 66  1  0  0  0
 42112  1  0  0  0
 42113  1  0  0  0
 43 44  1  0  0  0
 44114  1  0  0  0
 45 46  2  0  0  0
 45115  1  0  0  0
 46116  1  0  0  0
 47117  1  0  0  0
 47118  1  0  0  0
 48 56  1  0  0  0
 48 65  1  0  0  0
 48119  1  0  0  0
 49 50  1  0  0  0
 49 53  1  0  0  0
 49 64  1  0  0  0
 49120  1  0  0  0
 50 51  1  0  0  0
 50121  1  0  0  0
 50122  1  0  0  0
 51 52  1  0  0  0
 51123  1  0  0  0
 51124  1  0  0  0
 52125  1  0  0  0
 52126  1  0  0  0
 53 54  1  0  0  0
 54 55  2  0  0  0
 54127  1  0  0  0
 55 57  1  0  0  0
 55128  1  0  0  0
 56 69  2  0  0  0
 57 58  2  0  0  0
 57129  1  0  0  0
 58130  1  0  0  0
 59 60  1  0  0  0
 59 61  1  0  0  0
 59 62  1  0  0  0
 60131  1  0  0  0
 60132  1  0  0  0
 60133  1  0  0  0
 61134  1  0  0  0
 61135  1  0  0  0
 61136  1  0  0  0
 62137  1  0  0  0
 62138  1  0  0  0
 62139  1  0  0  0
 63 65  1  0  0  0
 63140  1  0  0  0
 63141  1  0  0  0
 63142  1  0  0  0
 64143  1  0  0  0
 65144  1  0  0  0
 68 81  1  0  0  0
 71 72  2  0  0  0
 71 77  1  0  0  0
 71145  1  0  0  0
 72 78  1  0  0  0
 72146  1  0  0  0
 73 76  1  0  0  0
 73 80  2  0  0  0
 73147  1  0  0  0
 74 77  2  0  0  0
 74 79  1  0  0  0
 74148  1  0  0  0
 75 76  2  0  0  0
 75 82  1  0  0  0
 75149  1  0  0  0
 76 81  1  0  0  0
 77 82  1  0  0  0
 78 79  2  0  0  0
 78 83  1  0  0  0
 79 85  1  0  0  0
 80 82  1  0  0  0
 80 84  1  0  0  0
 81150  1  0  0  0
 81151  1  0  0  0
 83152  1  0  0  0
 84153  1  0  0  0
M  ISO  4   1 100  68 101  81 101  83 100
M  END
> <chiral flag>
0

> <version>
0

> <s_m_source_file>
/data/baiqing/PycharmProjects/Reinvent-master-3.2/result/LINK_invent/BTK/process_docking_weight1_custom_product_contain_oxygen_bond_distance_aromatic_linkinvent_7_9_3/rearranged_h_0086.sdf

> <i_m_source_file_index>
89

> <r_mmod_Potential_Energy-OPLS-2005>
13.3398418426514

> <r_mmod_Stretch_Energy-OPLS-2005>
83.3894958496094

> <r_mmod_Bend_Energy-OPLS-2005>
147.012298583984

> <r_mmod_Torsional_Energy-OPLS-2005>
218.234161376953

> <r_mmod_Improper_Torsional_Energy-OPLS-2005>
3.86583662033081

> <r_mmod_Van_der_Waal_Energy-OPLS-2005>
147.470352172852

> <r_mmod_Electrostatic_Energy-OPLS-2005>
-433.428344726562

> <r_mmod_Solvation_Energy-OPLS-2005>
-214.20964050293

> <b_mmod_Minimization_Converged-OPLS-2005>
0

> <r_mmod_RMS_Derivative-OPLS-2005>
1.62125205993652

$$$$
89
                    3D
 Structure written by MMmdl.
156165  0  0  1  0            999 V2000
  -30.6009  -14.6213   20.5831 C   0  0  0  0  0  0
  -30.4523  -12.4163   19.4257 C   0  0  0  0  0  0
  -29.5080  -12.5687   18.2082 C   0  0  0  0  0  0
  -28.0226  -12.3954   18.6006 C   0  0  0  0  0  0
  -27.6589  -13.1991   19.8774 C   0  0  2  0  0  0
  -28.7028  -12.9050   20.9694 C   0  0  0  0  0  0
  -25.2603  -13.8135   20.5760 C   0  0  0  0  0  0
  -24.1834  -13.0433   20.9168 C   0  0  0  0  0  0
  -24.6371  -11.6892   20.8680 C   0  0  0  0  0  0
  -23.9031  -10.4283   21.0366 C   0  0  0  0  0  0
  -24.3608   -9.4233   21.9160 C   0  0  0  0  0  0
  -23.6290   -8.2280   22.0756 C   0  0  0  0  0  0
  -22.4267   -8.0301   21.3554 C   0  0  0  0  0  0
  -21.9884   -9.0256   20.4648 C   0  0  0  0  0  0
  -22.7203  -10.2133   20.3021 C   0  0  0  0  0  0
  -21.6861   -6.0762   22.5305 C   0  0  0  0  0  0
  -21.4029   -6.5661   23.8241 C   0  0  0  0  0  0
  -21.3644   -5.6802   24.9189 C   0  0  0  0  0  0
  -21.6023   -4.3065   24.7243 C   0  0  0  0  0  0
  -21.8817   -3.8167   23.4361 C   0  0  0  0  0  0
  -21.9202   -4.6986   22.3418 C   0  0  0  0  0  0
  -22.7865  -13.5260   21.1847 C   0  0  0  0  0  0
  -22.1666   -4.2172   21.0990 F   0  0  0  0  0  0
  -21.5603   -3.4546   25.7741 F   0  0  0  0  0  0
  -30.0103  -13.3728   20.4638 N   0  0  0  0  0  0
  -26.2993  -12.9268   20.3326 N   0  0  0  0  0  0
  -25.9272  -11.6425   20.5627 N   0  0  0  0  0  0
  -22.0502  -12.8219   22.0385 N   0  0  0  0  0  0
  -25.4419  -15.1876   20.4435 N   0  0  0  0  0  0
  -31.7172  -14.8366   20.0930 O   0  0  0  0  0  0
  -21.6643   -6.8899   21.4254 O   0  0  0  0  0  0
  -22.3547  -14.5608   20.6741 O   0  0  0  0  0  0
  -24.6264  -31.8593   23.2047 C   0  0  0  0  0  0
  -25.9111  -32.4787   23.8359 C   0  0  1  0  0  0
  -27.2192  -27.3184   20.1096 C   0  0  0  0  0  0
  -25.5930  -33.8576   24.2277 N   0  0  0  0  0  0
  -23.4210  -30.4866   21.5452 C   0  0  2  0  0  0
  -24.8664  -28.9445   20.1101 C   0  0  0  0  0  0
  -22.7467  -29.4631   22.4908 C   0  0  0  0  0  0
  -18.0282  -28.1394   22.8497 C   0  0  0  0  0  0
  -24.1497  -36.7278   23.2639 C   0  0  0  0  0  0
  -25.9640  -30.7887   21.3800 C   0  0  0  0  0  0
  -26.0363  -29.4177   20.7173 C   0  0  0  0  0  0
  -27.2156  -28.6149   20.7116 C   0  0  0  0  0  0
  -26.0270  -26.9036   19.4709 C   0  0  0  0  0  0
  -24.8637  -27.6924   19.4805 C   0  0  0  0  0  0
  -23.6378  -29.8269   20.1594 C   0  0  0  0  0  0
  -25.4117  -36.3080   24.0327 C   0  0  1  0  0  0
  -20.5887  -28.3684   23.1289 C   0  0  2  0  0  0
  -20.6780  -26.9403   22.5421 C   0  0  0  0  0  0
  -19.5750  -26.6388   21.5224 C   0  0  0  0  0  0
  -18.1921  -26.7947   22.1627 C   0  0  0  0  0  0
  -19.1540  -28.8850   23.2898 C   0  0  0  0  0  0
  -18.9460  -30.1457   23.8919 C   0  0  0  0  0  0
  -17.6466  -30.6604   24.0569 C   0  0  0  0  0  0
  -25.9057  -34.9448   23.5094 C   0  0  0  0  0  0
  -16.5353  -29.9104   23.6336 C   0  0  0  0  0  0
  -16.7275  -28.6512   23.0361 C   0  0  0  0  0  0
  -26.4503  -31.6597   25.0727 C   0  0  0  0  0  0
  -25.3743  -31.3749   26.1456 C   0  0  0  0  0  0
  -27.0352  -30.3023   24.6201 C   0  0  0  0  0  0
  -27.6081  -32.4338   25.7483 C   0  0  0  0  0  0
  -27.5595  -37.1782   24.8446 C   0  0  0  0  0  0
  -21.4177  -29.3045   22.3661 N   0  0  0  0  0  0
  -26.4291  -37.3789   23.9422 N   0  0  0  0  0  0
  -24.6893  -31.0607   22.1006 N   0  0  0  0  0  0
  -23.4179  -28.8138   23.2977 O   0  0  0  0  0  0
  -28.3323  -26.4658   20.1639 O   0  0  0  0  0  0
  -26.5621  -34.8925   22.4664 O   0  0  0  0  0  0
  -23.5423  -32.1391   23.7364 O   0  0  0  0  0  0
  -30.1048  -18.1055   22.2511 C   0  0  0  0  0  0
  -30.0504  -19.5186   22.1962 C   0  0  0  0  0  0
  -30.1279  -17.9955   19.8579 C   0  0  0  0  0  0
  -30.0937  -17.2859   21.0926 C   0  0  0  0  0  0
  -30.0264  -20.2394   20.9730 C   0  0  0  0  0  0
  -30.1051  -19.4306   19.7952 C   0  0  0  0  0  0
  -29.9439  -24.4802   21.5839 C   0  0  0  0  0  0
  -30.8357  -22.2982   21.9916 C   0  0  0  0  0  0
  -29.1229  -24.0236   20.6191 C   0  0  0  0  0  0
  -30.8360  -23.6053   22.2973 C   0  0  0  0  0  0
  -29.1234  -22.5453   20.2958 C   0  0  0  0  0  0
  -29.7968  -15.7922   21.2895 C   0  0  0  0  0  0
  -28.1243  -25.0119   19.9411 C   0  0  0  0  0  0
  -28.8588  -15.5789   22.1145 N   0  0  0  0  0  0
  -29.9928  -21.7208   21.0118 N   0  0  0  0  0  0
  -28.3650  -22.0749   19.4418 O   0  0  0  0  0  0
  -31.6219  -24.0815   23.2671 O   0  0  0  0  0  0
  -30.1845  -20.0214   18.5783 F   0  0  0  0  0  0
  -31.4861  -12.5850   19.1198 H   0  0  0  0  0  0
  -30.4317  -11.3934   19.8051 H   0  0  0  0  0  0
  -29.7791  -11.8644   17.4205 H   0  0  0  0  0  0
  -29.6451  -13.5650   17.7826 H   0  0  0  0  0  0
  -27.8375  -11.3341   18.7643 H   0  0  0  0  0  0
  -27.3805  -12.6913   17.7684 H   0  0  0  0  0  0
  -27.7097  -14.2557   19.6187 H   0  0  0  0  0  0
  -28.7336  -11.8262   21.1336 H   0  0  0  0  0  0
  -28.4177  -13.2700   21.9521 H   0  0  0  0  0  0
  -25.2766   -9.5745   22.4698 H   0  0  0  0  0  0
  -24.0018   -7.4685   22.7494 H   0  0  0  0  0  0
  -21.0814   -8.8750   19.8969 H   0  0  0  0  0  0
  -22.3651  -10.9655   19.6102 H   0  0  0  0  0  0
  -21.2039   -7.6164   23.9745 H   0  0  0  0  0  0
  -21.1446   -6.0539   25.9087 H   0  0  0  0  0  0
  -22.0606   -2.7637   23.2862 H   0  0  0  0  0  0
  -22.4073  -11.9809   22.4678 H   0  0  0  0  0  0
  -21.1139  -13.1261   22.2660 H   0  0  0  0  0  0
  -24.7179  -15.8552   20.6848 H   0  0  0  0  0  0
  -26.3543  -15.6134   20.3300 H   0  0  0  0  0  0
  -26.7170  -32.5459   23.1093 H   0  0  0  0  0  0
  -25.0081  -33.9721   25.0432 H   0  0  0  0  0  0
  -22.7176  -31.3088   21.4035 H   0  0  0  0  0  0
  -23.3787  -35.9575   23.3254 H   0  0  0  0  0  0
  -24.3602  -36.8952   22.2063 H   0  0  0  0  0  0
  -23.7198  -37.6447   23.6692 H   0  0  0  0  0  0
  -26.1002  -31.5557   20.6168 H   0  0  0  0  0  0
  -26.8431  -30.8332   22.0119 H   0  0  0  0  0  0
  -28.1121  -28.9660   21.2043 H   0  0  0  0  0  0
  -25.9604  -25.9520   18.9652 H   0  0  0  0  0  0
  -23.9695  -27.3241   18.9993 H   0  0  0  0  0  0
  -23.7621  -30.6072   19.4073 H   0  0  0  0  0  0
  -22.7579  -29.2612   19.8514 H   0  0  0  0  0  0
  -25.1301  -36.1927   25.0822 H   0  0  0  0  0  0
  -21.0000  -28.3272   24.1402 H   0  0  0  0  0  0
  -20.5695  -26.2287   23.3606 H   0  0  0  0  0  0
  -21.6637  -26.7446   22.1199 H   0  0  0  0  0  0
  -19.6906  -25.6300   21.1253 H   0  0  0  0  0  0
  -19.6707  -27.3203   20.6755 H   0  0  0  0  0  0
  -17.4201  -26.6706   21.4026 H   0  0  0  0  0  0
  -18.0311  -26.0080   22.9016 H   0  0  0  0  0  0
  -19.7931  -30.7271   24.2303 H   0  0  0  0  0  0
  -17.5015  -31.6287   24.5149 H   0  0  0  0  0  0
  -15.5353  -30.3014   23.7649 H   0  0  0  0  0  0
  -15.8666  -28.0844   22.7076 H   0  0  0  0  0  0
  -24.5854  -30.7188   25.7756 H   0  0  0  0  0  0
  -24.9015  -32.2930   26.4948 H   0  0  0  0  0  0
  -25.8048  -30.8832   27.0184 H   0  0  0  0  0  0
  -26.2922  -29.6757   24.1248 H   0  0  0  0  0  0
  -27.4063  -29.7308   25.4713 H   0  0  0  0  0  0
  -27.8786  -30.4304   23.9415 H   0  0  0  0  0  0
  -27.2692  -33.3616   26.2093 H   0  0  0  0  0  0
  -28.3854  -32.6928   25.0292 H   0  0  0  0  0  0
  -28.0776  -31.8441   26.5362 H   0  0  0  0  0  0
  -28.2562  -38.0140   24.7599 H   0  0  0  0  0  0
  -28.1156  -36.2674   24.6147 H   0  0  0  0  0  0
  -27.2325  -37.1270   25.8853 H   0  0  0  0  0  0
  -20.9319  -29.8776   21.6901 H   0  0  0  0  0  0
  -26.0163  -38.2848   24.1516 H   0  0  0  0  0  0
  -30.0832  -17.6414   23.2275 H   0  0  0  0  0  0
  -30.0110  -20.0495   23.1369 H   0  0  0  0  0  0
  -30.1223  -17.4387   18.9306 H   0  0  0  0  0  0
  -29.9098  -25.5298   21.8458 H   0  0  0  0  0  0
  -31.4987  -21.6049   22.4907 H   0  0  0  0  0  0
  -27.1525  -24.7164   20.3404 H   0  0  0  0  0  0
  -28.0961  -24.8136   18.8691 H   0  0  0  0  0  0
  -28.4889  -16.4550   22.4607 H   0  0  0  0  0  0
  -31.4133  -25.0021   23.3796 H   0  0  0  0  0  0
  1 25  1  0  0  0
  1 30  2  0  0  0
  1 82  1  0  0  0
  2  3  1  0  0  0
  2 25  1  0  0  0
  2 89  1  0  0  0
  2 90  1  0  0  0
  3  4  1  0  0  0
  3 91  1  0  0  0
  3 92  1  0  0  0
  4  5  1  0  0  0
  4 93  1  0  0  0
  4 94  1  0  0  0
  5  6  1  0  0  0
  5 26  1  0  0  0
  5 95  1  0  0  0
  6 25  1  0  0  0
  6 96  1  0  0  0
  6 97  1  0  0  0
  7  8  2  0  0  0
  7 26  1  0  0  0
  7 29  1  0  0  0
  8  9  1  0  0  0
  8 22  1  0  0  0
  9 10  1  0  0  0
  9 27  2  0  0  0
 10 11  2  0  0  0
 10 15  1  0  0  0
 11 12  1  0  0  0
 11 98  1  0  0  0
 12 13  2  0  0  0
 12 99  1  0  0  0
 13 14  1  0  0  0
 13 31  1  0  0  0
 14 15  2  0  0  0
 14100  1  0  0  0
 15101  1  0  0  0
 16 17  2  0  0  0
 16 21  1  0  0  0
 16 31  1  0  0  0
 17 18  1  0  0  0
 17102  1  0  0  0
 18 19  2  0  0  0
 18103  1  0  0  0
 19 20  1  0  0  0
 19 24  1  0  0  0
 20 21  2  0  0  0
 20104  1  0  0  0
 21 23  1  0  0  0
 22 28  1  0  0  0
 22 32  2  0  0  0
 26 27  1  0  0  0
 28105  1  0  0  0
 28106  1  0  0  0
 29107  1  0  0  0
 29108  1  0  0  0
 33 34  1  0  0  0
 33 66  1  0  0  0
 33 70  2  0  0  0
 34 36  1  0  0  0
 34 59  1  0  0  0
 34109  1  0  0  0
 35 44  2  0  0  0
 35 45  1  0  0  0
 35 68  1  0  0  0
 36 56  1  0  0  0
 36110  1  0  0  0
 37 39  1  0  0  0
 37 47  1  0  0  0
 37 66  1  0  0  0
 37111  1  0  0  0
 38 43  2  0  0  0
 38 46  1  0  0  0
 38 47  1  0  0  0
 39 64  1  0  0  0
 39 67  2  0  0  0
 40 52  1  0  0  0
 40 53  2  0  0  0
 40 58  1  0  0  0
 41112  1  0  0  0
 41113  1  0  0  0
 41114  1  0  0  0
 41 48  1  0  0  0
 42 43  1  0  0  0
 42 66  1  0  0  0
 42115  1  0  0  0
 42116  1  0  0  0
 43 44  1  0  0  0
 44117  1  0  0  0
 45 46  2  0  0  0
 45118  1  0  0  0
 46119  1  0  0  0
 47120  1  0  0  0
 47121  1  0  0  0
 48 56  1  0  0  0
 48 65  1  0  0  0
 48122  1  0  0  0
 49 50  1  0  0  0
 49 53  1  0  0  0
 49 64  1  0  0  0
 49123  1  0  0  0
 50 51  1  0  0  0
 50124  1  0  0  0
 50125  1  0  0  0
 51 52  1  0  0  0
 51126  1  0  0  0
 51127  1  0  0  0
 52128  1  0  0  0
 52129  1  0  0  0
 53 54  1  0  0  0
 54 55  2  0  0  0
 54130  1  0  0  0
 55 57  1  0  0  0
 55131  1  0  0  0
 56 69  2  0  0  0
 57 58  2  0  0  0
 57132  1  0  0  0
 58133  1  0  0  0
 59 60  1  0  0  0
 59 61  1  0  0  0
 59 62  1  0  0  0
 60134  1  0  0  0
 60135  1  0  0  0
 60136  1  0  0  0
 61137  1  0  0  0
 61138  1  0  0  0
 61139  1  0  0  0
 62140  1  0  0  0
 62141  1  0  0  0
 62142  1  0  0  0
 63 65  1  0  0  0
 63143  1  0  0  0
 63144  1  0  0  0
 63145  1  0  0  0
 64146  1  0  0  0
 65147  1  0  0  0
 68 83  1  0  0  0
 71 72  2  0  0  0
 71 74  1  0  0  0
 71148  1  0  0  0
 72 75  1  0  0  0
 72149  1  0  0  0
 73 74  2  0  0  0
 73 76  1  0  0  0
 73150  1  0  0  0
 74 82  1  0  0  0
 75 76  2  0  0  0
 75 85  1  0  0  0
 76 88  1  0  0  0
 77 79  2  0  0  0
 77 80  1  0  0  0
 77151  1  0  0  0
 78 80  2  0  0  0
 78 85  1  0  0  0
 78152  1  0  0  0
 79 81  1  0  0  0
 79 83  1  0  0  0
 80 87  1  0  0  0
 81 85  1  0  0  0
 81 86  2  0  0  0
 82 84  2  0  0  0
 83153  1  0  0  0
 83154  1  0  0  0
 84155  1  0  0  0
 87156  1  0  0  0
M  ISO  4   1 100  68 101  82 100  83 101
M  END
> <chiral flag>
0

> <version>
0

> <s_m_source_file>
/data/baiqing/PycharmProjects/Reinvent-master-3.2/result/LINK_invent/BTK/process_docking_weight1_custom_product_contain_oxygen_bond_distance_aromatic_linkinvent_7_9_3/rearranged_h_0086.sdf

> <i_m_source_file_index>
90

> <r_mmod_Potential_Energy-OPLS-2005>
260.472625732422

> <r_mmod_Stretch_Energy-OPLS-2005>
104.071159362793

> <r_mmod_Bend_Energy-OPLS-2005>
160.263824462891

> <r_mmod_Torsional_Energy-OPLS-2005>
224.782165527344

> <r_mmod_Improper_Torsional_Energy-OPLS-2005>
4.92070341110229

> <r_mmod_Van_der_Waal_Energy-OPLS-2005>
195.239669799805

> <r_mmod_Electrostatic_Energy-OPLS-2005>
-256.602661132812

> <r_mmod_Solvation_Energy-OPLS-2005>
-218.354858398438

> <b_mmod_Minimization_Converged-OPLS-2005>
0

> <r_mmod_RMS_Derivative-OPLS-2005>
3.7065761089325

$$$$
90
                    3D
 Structure written by MMmdl.
156165  0  0  1  0            999 V2000
  -30.6174  -14.7879   20.4547 C   0  0  0  0  0  0
  -30.4240  -12.4886   19.4682 C   0  0  0  0  0  0
  -29.5001  -12.5061   18.2297 C   0  0  0  0  0  0
  -28.0255  -12.3440   18.6517 C   0  0  0  0  0  0
  -27.6347  -13.2506   19.8528 C   0  0  2  0  0  0
  -28.6882  -13.1784   20.9806 C   0  0  0  0  0  0
  -25.2287  -13.8118   20.5652 C   0  0  0  0  0  0
  -24.1707  -13.0350   20.9388 C   0  0  0  0  0  0
  -24.6403  -11.6907   20.8909 C   0  0  0  0  0  0
  -23.9128  -10.4272   21.0479 C   0  0  0  0  0  0
  -24.3665   -9.4162   21.9263 C   0  0  0  0  0  0
  -23.6344   -8.2203   22.0760 C   0  0  0  0  0  0
  -22.4310   -8.0262   21.3559 C   0  0  0  0  0  0
  -21.9967   -9.0253   20.4630 C   0  0  0  0  0  0
  -22.7305  -10.2119   20.3094 C   0  0  0  0  0  0
  -21.6824   -6.0761   22.5331 C   0  0  0  0  0  0
  -21.3989   -6.5648   23.8249 C   0  0  0  0  0  0
  -21.3648   -5.6777   24.9222 C   0  0  0  0  0  0
  -21.6039   -4.3057   24.7230 C   0  0  0  0  0  0
  -21.8833   -3.8163   23.4358 C   0  0  0  0  0  0
  -21.9159   -4.7013   22.3406 C   0  0  0  0  0  0
  -22.7708  -13.5096   21.2008 C   0  0  0  0  0  0
  -22.1629   -4.2220   21.0977 F   0  0  0  0  0  0
  -21.5641   -3.4490   25.7717 F   0  0  0  0  0  0
  -29.9846  -13.5558   20.4039 N   0  0  0  0  0  0
  -26.2872  -12.9495   20.3356 N   0  0  0  0  0  0
  -25.9358  -11.6621   20.5944 N   0  0  0  0  0  0
  -22.0266  -12.8158   22.0510 N   0  0  0  0  0  0
  -25.3432  -15.1763   20.3605 N   0  0  0  0  0  0
  -31.7374  -14.9186   19.9462 O   0  0  0  0  0  0
  -21.6602   -6.8947   21.4287 O   0  0  0  0  0  0
  -22.3404  -14.5388   20.6753 O   0  0  0  0  0  0
  -24.6321  -31.8502   23.1824 C   0  0  0  0  0  0
  -25.9144  -32.4690   23.8221 C   0  0  1  0  0  0
  -27.2399  -27.2460   20.1049 C   0  0  0  0  0  0
  -25.5931  -33.8488   24.2140 N   0  0  0  0  0  0
  -23.4305  -30.4693   21.5274 C   0  0  2  0  0  0
  -24.8688  -28.8801   20.1360 C   0  0  0  0  0  0
  -22.7474  -29.4677   22.4887 C   0  0  0  0  0  0
  -18.0329  -28.1375   22.8561 C   0  0  0  0  0  0
  -24.1456  -36.7291   23.2631 C   0  0  0  0  0  0
  -25.9782  -30.7455   21.3709 C   0  0  0  0  0  0
  -26.0490  -29.3582   20.7306 C   0  0  0  0  0  0
  -27.2324  -28.5496   20.7141 C   0  0  0  0  0  0
  -26.0238  -26.8131   19.5327 C   0  0  0  0  0  0
  -24.8552  -27.5981   19.5573 C   0  0  0  0  0  0
  -23.6521  -29.7799   20.1560 C   0  0  0  0  0  0
  -25.4093  -36.2992   24.0273 C   0  0  1  0  0  0
  -20.5922  -28.3719   23.1257 C   0  0  2  0  0  0
  -20.6831  -26.9445   22.5422 C   0  0  0  0  0  0
  -19.5760  -26.6417   21.5245 C   0  0  0  0  0  0
  -18.1945  -26.7923   22.1661 C   0  0  0  0  0  0
  -19.1587  -28.8884   23.2899 C   0  0  0  0  0  0
  -18.9496  -30.1511   23.8856 C   0  0  0  0  0  0
  -17.6486  -30.6581   24.0636 C   0  0  0  0  0  0
  -25.9049  -34.9384   23.5011 C   0  0  0  0  0  0
  -16.5383  -29.9083   23.6373 C   0  0  0  0  0  0
  -16.7318  -28.6508   23.0384 C   0  0  0  0  0  0
  -26.4513  -31.6497   25.0629 C   0  0  0  0  0  0
  -25.3691  -31.3764   26.1329 C   0  0  0  0  0  0
  -27.0387  -30.2855   24.6250 C   0  0  0  0  0  0
  -27.6001  -32.4289   25.7464 C   0  0  0  0  0  0
  -27.5555  -37.1800   24.8451 C   0  0  0  0  0  0
  -21.4180  -29.3027   22.3566 N   0  0  0  0  0  0
  -26.4223  -37.3755   23.9428 N   0  0  0  0  0  0
  -24.6985  -31.0487   22.0756 N   0  0  0  0  0  0
  -23.4131  -28.8350   23.3143 O   0  0  0  0  0  0
  -28.3629  -26.3879   20.0110 O   0  0  0  0  0  0
  -26.5641  -34.8859   22.4585 O   0  0  0  0  0  0
  -23.5462  -32.1356   23.7105 O   0  0  0  0  0  0
  -26.9753  -18.1648   20.2384 C   0  0  0  0  0  0
  -27.8553  -17.1247   20.5965 C   0  0  0  0  0  0
  -27.4573  -19.4276   19.8582 C   0  0  0  0  0  0
  -29.7317  -18.6145   20.2227 C   0  0  0  0  0  0
  -29.2544  -17.2672   20.5634 C   0  0  0  0  0  0
  -28.8364  -19.7405   19.9263 C   0  0  0  0  0  0
  -29.7458  -23.7858   18.7277 C   0  0  0  0  0  0
  -30.1450  -21.3985   18.6477 C   0  0  0  0  0  0
  -28.8576  -23.6944   19.7467 C   0  0  0  0  0  0
  -30.4241  -22.6234   18.1644 C   0  0  0  0  0  0
  -28.5348  -22.2887   20.2340 C   0  0  0  0  0  0
  -29.9776  -16.0387   21.2196 C   0  0  0  0  0  0
  -28.2306  -24.9743   20.4980 C   0  0  0  0  0  0
  -29.9953  -16.0207   22.4901 N   0  0  0  0  0  0
  -29.1899  -21.1746   19.6577 N   0  0  0  0  0  0
  -27.7091  -22.1306   21.1407 O   0  0  0  0  0  0
  -31.3884  -22.7822   17.2471 O   0  0  0  0  0  0
  -31.4578  -12.6274   19.1520 H   0  0  0  0  0  0
  -30.3945  -11.5162   19.9548 H   0  0  0  0  0  0
  -29.7778  -11.6881   17.5629 H   0  0  0  0  0  0
  -29.6323  -13.4254   17.6592 H   0  0  0  0  0  0
  -27.8855  -11.2984   18.9233 H   0  0  0  0  0  0
  -27.3625  -12.5313   17.8058 H   0  0  0  0  0  0
  -27.6294  -14.2728   19.4735 H   0  0  0  0  0  0
  -28.7426  -12.1723   21.3952 H   0  0  0  0  0  0
  -28.4214  -13.8343   21.8091 H   0  0  0  0  0  0
  -25.2764   -9.5651   22.4882 H   0  0  0  0  0  0
  -24.0037   -7.4571   22.7429 H   0  0  0  0  0  0
  -21.0924   -8.8747   19.8913 H   0  0  0  0  0  0
  -22.3764  -10.9676   19.6217 H   0  0  0  0  0  0
  -21.1970   -7.6143   23.9830 H   0  0  0  0  0  0
  -21.1440   -6.0463   25.9137 H   0  0  0  0  0  0
  -22.0616   -2.7637   23.2787 H   0  0  0  0  0  0
  -22.3730  -11.9807   22.4997 H   0  0  0  0  0  0
  -21.0845  -13.1227   22.2488 H   0  0  0  0  0  0
  -24.5010  -15.7388   20.3729 H   0  0  0  0  0  0
  -26.0544  -15.5556   19.7508 H   0  0  0  0  0  0
  -26.7249  -32.5263   23.1004 H   0  0  0  0  0  0
  -25.0106  -33.9688   25.0295 H   0  0  0  0  0  0
  -22.7311  -31.2855   21.3657 H   0  0  0  0  0  0
  -23.3655  -35.9690   23.3227 H   0  0  0  0  0  0
  -24.3576  -36.9004   22.2073 H   0  0  0  0  0  0
  -23.7273  -37.6500   23.6712 H   0  0  0  0  0  0
  -26.1164  -31.4886   20.5837 H   0  0  0  0  0  0
  -26.8565  -30.8072   22.0044 H   0  0  0  0  0  0
  -28.1311  -28.9130   21.1937 H   0  0  0  0  0  0
  -25.9659  -25.8384   19.0672 H   0  0  0  0  0  0
  -23.9471  -27.1957   19.1248 H   0  0  0  0  0  0
  -23.7929  -30.5397   19.3837 H   0  0  0  0  0  0
  -22.7648  -29.2208   19.8577 H   0  0  0  0  0  0
  -25.1292  -36.1800   25.0774 H   0  0  0  0  0  0
  -21.0106  -28.3360   24.1345 H   0  0  0  0  0  0
  -20.5778  -26.2401   23.3674 H   0  0  0  0  0  0
  -21.6684  -26.7501   22.1189 H   0  0  0  0  0  0
  -19.6898  -25.6330   21.1271 H   0  0  0  0  0  0
  -19.6603  -27.3260   20.6755 H   0  0  0  0  0  0
  -17.4262  -26.6807   21.4017 H   0  0  0  0  0  0
  -18.0235  -26.0023   22.8978 H   0  0  0  0  0  0
  -19.7982  -30.7405   24.2081 H   0  0  0  0  0  0
  -17.5028  -31.6211   24.5278 H   0  0  0  0  0  0
  -15.5367  -30.2968   23.7631 H   0  0  0  0  0  0
  -15.8763  -28.0808   22.7018 H   0  0  0  0  0  0
  -24.5841  -30.7145   25.7681 H   0  0  0  0  0  0
  -24.8922  -32.2994   26.4582 H   0  0  0  0  0  0
  -25.7948  -30.9048   27.0187 H   0  0  0  0  0  0
  -26.3002  -29.6566   24.1267 H   0  0  0  0  0  0
  -27.3989  -29.7177   25.4863 H   0  0  0  0  0  0
  -27.8907  -30.4043   23.9539 H   0  0  0  0  0  0
  -27.2505  -33.3593   26.1934 H   0  0  0  0  0  0
  -28.3871  -32.6846   25.0346 H   0  0  0  0  0  0
  -28.0563  -31.8470   26.5494 H   0  0  0  0  0  0
  -28.2534  -38.0130   24.7508 H   0  0  0  0  0  0
  -28.1070  -36.2677   24.6190 H   0  0  0  0  0  0
  -27.2298  -37.1329   25.8853 H   0  0  0  0  0  0
  -20.9293  -29.8711   21.6774 H   0  0  0  0  0  0
  -26.0035  -38.2796   24.1467 H   0  0  0  0  0  0
  -25.9103  -18.0036   20.3063 H   0  0  0  0  0  0
  -27.4541  -16.2045   20.9991 H   0  0  0  0  0  0
  -26.7318  -20.1810   19.5608 H   0  0  0  0  0  0
  -30.7992  -18.8006   20.2521 H   0  0  0  0  0  0
  -30.0118  -24.7568   18.3401 H   0  0  0  0  0  0
  -30.6394  -20.5090   18.2784 H   0  0  0  0  0  0
  -28.7620  -24.9934   21.4478 H   0  0  0  0  0  0
  -27.2003  -24.7659   20.7876 H   0  0  0  0  0  0
  -29.5160  -16.8283   22.8695 H   0  0  0  0  0  0
  -31.6507  -23.6976   17.2477 H   0  0  0  0  0  0
  1 25  1  0  0  0
  1 30  2  0  0  0
  1 82  1  0  0  0
  2  3  1  0  0  0
  2 25  1  0  0  0
  2 88  1  0  0  0
  2 89  1  0  0  0
  3  4  1  0  0  0
  3 90  1  0  0  0
  3 91  1  0  0  0
  4  5  1  0  0  0
  4 92  1  0  0  0
  4 93  1  0  0  0
  5  6  1  0  0  0
  5 26  1  0  0  0
  5 94  1  0  0  0
  6 25  1  0  0  0
  6 95  1  0  0  0
  6 96  1  0  0  0
  7  8  2  0  0  0
  7 26  1  0  0  0
  7 29  1  0  0  0
  8  9  1  0  0  0
  8 22  1  0  0  0
  9 10  1  0  0  0
  9 27  2  0  0  0
 10 11  2  0  0  0
 10 15  1  0  0  0
 11 12  1  0  0  0
 11 97  1  0  0  0
 12 13  2  0  0  0
 12 98  1  0  0  0
 13 14  1  0  0  0
 13 31  1  0  0  0
 14 15  2  0  0  0
 14 99  1  0  0  0
 15100  1  0  0  0
 16 17  2  0  0  0
 16 21  1  0  0  0
 16 31  1  0  0  0
 17 18  1  0  0  0
 17101  1  0  0  0
 18 19  2  0  0  0
 18102  1  0  0  0
 19 20  1  0  0  0
 19 24  1  0  0  0
 20 21  2  0  0  0
 20103  1  0  0  0
 21 23  1  0  0  0
 22 28  1  0  0  0
 22 32  2  0  0  0
 26 27  1  0  0  0
 28104  1  0  0  0
 28105  1  0  0  0
 29106  1  0  0  0
 29107  1  0  0  0
 33 34  1  0  0  0
 33 66  1  0  0  0
 33 70  2  0  0  0
 34 36  1  0  0  0
 34 59  1  0  0  0
 34108  1  0  0  0
 35 44  2  0  0  0
 35 45  1  0  0  0
 35 68  1  0  0  0
 36 56  1  0  0  0
 36109  1  0  0  0
 37 39  1  0  0  0
 37 47  1  0  0  0
 37 66  1  0  0  0
 37110  1  0  0  0
 38 43  2  0  0  0
 38 46  1  0  0  0
 38 47  1  0  0  0
 39 64  1  0  0  0
 39 67  2  0  0  0
 40 52  1  0  0  0
 40 53  2  0  0  0
 40 58  1  0  0  0
 41111  1  0  0  0
 41112  1  0  0  0
 41113  1  0  0  0
 41 48  1  0  0  0
 42 43  1  0  0  0
 42 66  1  0  0  0
 42114  1  0  0  0
 42115  1  0  0  0
 43 44  1  0  0  0
 44116  1  0  0  0
 45 46  2  0  0  0
 45117  1  0  0  0
 46118  1  0  0  0
 47119  1  0  0  0
 47120  1  0  0  0
 48 56  1  0  0  0
 48 65  1  0  0  0
 48121  1  0  0  0
 49 50  1  0  0  0
 49 53  1  0  0  0
 49 64  1  0  0  0
 49122  1  0  0  0
 50 51  1  0  0  0
 50123  1  0  0  0
 50124  1  0  0  0
 51 52  1  0  0  0
 51125  1  0  0  0
 51126  1  0  0  0
 52127  1  0  0  0
 52128  1  0  0  0
 53 54  1  0  0  0
 54 55  2  0  0  0
 54129  1  0  0  0
 55 57  1  0  0  0
 55130  1  0  0  0
 56 69  2  0  0  0
 57 58  2  0  0  0
 57131  1  0  0  0
 58132  1  0  0  0
 59 60  1  0  0  0
 59 61  1  0  0  0
 59 62  1  0  0  0
 60133  1  0  0  0
 60134  1  0  0  0
 60135  1  0  0  0
 61136  1  0  0  0
 61137  1  0  0  0
 61138  1  0  0  0
 62139  1  0  0  0
 62140  1  0  0  0
 62141  1  0  0  0
 63 65  1  0  0  0
 63142  1  0  0  0
 63143  1  0  0  0
 63144  1  0  0  0
 64145  1  0  0  0
 65146  1  0  0  0
 68 83  1  0  0  0
 71 72  2  0  0  0
 71 73  1  0  0  0
 71147  1  0  0  0
 72 75  1  0  0  0
 72148  1  0  0  0
 73 76  2  0  0  0
 73149  1  0  0  0
 74 75  2  0  0  0
 74 76  1  0  0  0
 74150  1  0  0  0
 75 82  1  0  0  0
 76 85  1  0  0  0
 77 79  2  0  0  0
 77 80  1  0  0  0
 77151  1  0  0  0
 78 80  2  0  0  0
 78 85  1  0  0  0
 78152  1  0  0  0
 79 81  1  0  0  0
 79 83  1  0  0  0
 80 87  1  0  0  0
 81 85  1  0  0  0
 81 86  2  0  0  0
 82 84  2  0  0  0
 83153  1  0  0  0
 83154  1  0  0  0
 84155  1  0  0  0
 87156  1  0  0  0
M  ISO  4   1 100  68 101  82 100  83 101
M  END
> <chiral flag>
0

> <version>
0

> <s_m_source_file>
/data/baiqing/PycharmProjects/Reinvent-master-3.2/result/LINK_invent/BTK/process_docking_weight1_custom_product_contain_oxygen_bond_distance_aromatic_linkinvent_7_9_3/rearranged_h_0086.sdf

> <i_m_source_file_index>
91

> <r_mmod_Potential_Energy-OPLS-2005>
497.943267822266

> <r_mmod_Stretch_Energy-OPLS-2005>
159.910049438477

> <r_mmod_Bend_Energy-OPLS-2005>
198.804138183594

> <r_mmod_Torsional_Energy-OPLS-2005>
297.779693603516

> <r_mmod_Improper_Torsional_Energy-OPLS-2005>
7.96967172622681

> <r_mmod_Van_der_Waal_Energy-OPLS-2005>
159.041549682617

> <r_mmod_Electrostatic_Energy-OPLS-2005>
-206.890014648438

> <r_mmod_Solvation_Energy-OPLS-2005>
-219.105575561523

> <b_mmod_Minimization_Converged-OPLS-2005>
0

> <r_mmod_RMS_Derivative-OPLS-2005>
10.7596120834351

$$$$
91
                    3D
 Structure written by MMmdl.
165175  0  0  1  0            999 V2000
  -30.6029  -14.6647   20.5075 C   0  0  0  0  0  0
  -30.4392  -12.4094   19.4571 C   0  0  0  0  0  0
  -29.5115  -12.5148   18.2254 C   0  0  0  0  0  0
  -28.0323  -12.3529   18.6330 C   0  0  0  0  0  0
  -27.6498  -13.2193   19.8631 C   0  0  2  0  0  0
  -28.6931  -13.0787   20.9950 C   0  0  0  0  0  0
  -25.2533  -13.8164   20.5678 C   0  0  0  0  0  0
  -24.1820  -13.0425   20.9194 C   0  0  0  0  0  0
  -24.6391  -11.6894   20.8739 C   0  0  0  0  0  0
  -23.9066  -10.4282   21.0410 C   0  0  0  0  0  0
  -24.3618   -9.4194   21.9183 C   0  0  0  0  0  0
  -23.6289   -8.2233   22.0753 C   0  0  0  0  0  0
  -22.4269   -8.0280   21.3546 C   0  0  0  0  0  0
  -21.9905   -9.0259   20.4650 C   0  0  0  0  0  0
  -22.7241  -10.2131   20.3059 C   0  0  0  0  0  0
  -21.6852   -6.0736   22.5289 C   0  0  0  0  0  0
  -21.4016   -6.5636   23.8224 C   0  0  0  0  0  0
  -21.3654   -5.6785   24.9180 C   0  0  0  0  0  0
  -21.6038   -4.3050   24.7227 C   0  0  0  0  0  0
  -21.8817   -3.8142   23.4348 C   0  0  0  0  0  0
  -21.9188   -4.6964   22.3408 C   0  0  0  0  0  0
  -22.7844  -13.5226   21.1856 C   0  0  0  0  0  0
  -22.1657   -4.2140   21.0988 F   0  0  0  0  0  0
  -21.5619   -3.4537   25.7738 F   0  0  0  0  0  0
  -30.0045  -13.4324   20.4306 N   0  0  0  0  0  0
  -26.2961  -12.9352   20.3299 N   0  0  0  0  0  0
  -25.9317  -11.6505   20.5753 N   0  0  0  0  0  0
  -22.0473  -12.8233   22.0415 N   0  0  0  0  0  0
  -25.4206  -15.1887   20.4066 N   0  0  0  0  0  0
  -31.7691  -14.8238   20.1355 O   0  0  0  0  0  0
  -21.6634   -6.8881   21.4252 O   0  0  0  0  0  0
  -22.3532  -14.5536   20.6699 O   0  0  0  0  0  0
  -24.6238  -31.8602   23.2012 C   0  0  0  0  0  0
  -25.9090  -32.4785   23.8336 C   0  0  1  0  0  0
  -27.2273  -27.3170   20.1319 C   0  0  0  0  0  0
  -25.5910  -33.8585   24.2273 N   0  0  0  0  0  0
  -23.4180  -30.4789   21.5453 C   0  0  2  0  0  0
  -24.8670  -28.9284   20.1148 C   0  0  0  0  0  0
  -22.7462  -29.4610   22.4968 C   0  0  0  0  0  0
  -18.0286  -28.1382   22.8501 C   0  0  0  0  0  0
  -24.1487  -36.7298   23.2633 C   0  0  0  0  0  0
  -25.9549  -30.7913   21.3704 C   0  0  0  0  0  0
  -26.0306  -29.4119   20.7262 C   0  0  0  0  0  0
  -27.2114  -28.6142   20.7296 C   0  0  0  0  0  0
  -26.0484  -26.8863   19.4855 C   0  0  0  0  0  0
  -24.8781  -27.6723   19.4855 C   0  0  0  0  0  0
  -23.6331  -29.8077   20.1618 C   0  0  0  0  0  0
  -25.4114  -36.3095   24.0323 C   0  0  1  0  0  0
  -20.5878  -28.3682   23.1316 C   0  0  2  0  0  0
  -20.6779  -26.9412   22.5432 C   0  0  0  0  0  0
  -19.5754  -26.6398   21.5225 C   0  0  0  0  0  0
  -18.1930  -26.7940   22.1623 C   0  0  0  0  0  0
  -19.1536  -28.8852   23.2907 C   0  0  0  0  0  0
  -18.9444  -30.1452   23.8922 C   0  0  0  0  0  0
  -17.6442  -30.6584   24.0561 C   0  0  0  0  0  0
  -25.9057  -34.9457   23.5110 C   0  0  0  0  0  0
  -16.5338  -29.9083   23.6314 C   0  0  0  0  0  0
  -16.7271  -28.6497   23.0356 C   0  0  0  0  0  0
  -26.4485  -31.6569   25.0681 C   0  0  0  0  0  0
  -25.3710  -31.3692   26.1402 C   0  0  0  0  0  0
  -27.0309  -30.2993   24.6082 C   0  0  0  0  0  0
  -27.6067  -32.4272   25.7448 C   0  0  0  0  0  0
  -27.5578  -37.1808   24.8462 C   0  0  0  0  0  0
  -21.4176  -29.3030   22.3706 N   0  0  0  0  0  0
  -26.4292  -37.3785   23.9412 N   0  0  0  0  0  0
  -24.6848  -31.0601   22.0974 N   0  0  0  0  0  0
  -23.4187  -28.8164   23.3060 O   0  0  0  0  0  0
  -28.3739  -26.5124   20.1365 O   0  0  0  0  0  0
  -26.5627  -34.8923   22.4676 O   0  0  0  0  0  0
  -23.5403  -32.1407   23.7330 O   0  0  0  0  0  0
  -32.2332  -26.8690   20.8670 C   0  0  0  0  0  0
  -33.3513  -26.1952   20.3600 C   0  0  0  0  0  0
  -30.9948  -26.2091   20.9517 C   0  0  0  0  0  0
  -33.2332  -24.8427   20.0130 C   0  0  0  0  0  0
  -28.9243  -19.4641   20.4625 C   0  0  0  0  0  0
  -28.8393  -18.0315   20.4410 C   0  0  0  0  0  0
  -31.1865  -19.2605   21.2066 C   0  0  0  0  0  0
  -30.8073  -24.8687   20.5130 C   0  0  0  0  0  0
  -30.1124  -20.1468   20.8454 C   0  0  0  0  0  0
  -31.9910  -24.1700   20.1304 C   0  0  0  0  0  0
  -29.9289  -17.1724   20.7809 C   0  0  0  0  0  0
  -31.1102  -17.8394   21.1841 C   0  0  0  0  0  0
  -29.4192  -24.2556   20.4507 C   0  0  0  0  0  0
  -31.4773  -22.1391   21.0872 C   0  0  0  0  0  0
  -28.3367  -25.1080   20.3096 C   0  0  0  0  0  0
  -29.1949  -22.6573   20.4460 C   0  0  0  0  0  0
  -32.9931  -22.0625   19.2285 C   0  0  0  0  0  0
  -30.2555  -21.6369   20.8606 N   0  0  0  0  0  0
  -31.9721  -22.7640   20.0113 N   0  0  0  0  0  0
  -29.7610  -15.7126   20.7981 N   0  0  0  0  0  0
  -32.1233  -21.9648   22.1282 O   0  0  0  0  0  0
  -32.1848  -17.1300   21.6044 F   0  0  0  0  0  0
  -31.4803  -12.5415   19.1583 H   0  0  0  0  0  0
  -30.3804  -11.4139   19.9003 H   0  0  0  0  0  0
  -29.7811  -11.7604   17.4848 H   0  0  0  0  0  0
  -29.6549  -13.4810   17.7376 H   0  0  0  0  0  0
  -27.8663  -11.3001   18.8616 H   0  0  0  0  0  0
  -27.3811  -12.5873   17.7893 H   0  0  0  0  0  0
  -27.6646  -14.2545   19.5215 H   0  0  0  0  0  0
  -28.7095  -12.0577   21.3787 H   0  0  0  0  0  0
  -28.4367  -13.7100   21.8467 H   0  0  0  0  0  0
  -25.2762   -9.5662   22.4759 H   0  0  0  0  0  0
  -23.9989   -7.4623   22.7474 H   0  0  0  0  0  0
  -21.0828   -8.8789   19.8970 H   0  0  0  0  0  0
  -22.3704  -10.9671   19.6167 H   0  0  0  0  0  0
  -21.2029   -7.6144   23.9727 H   0  0  0  0  0  0
  -21.1470   -6.0515   25.9081 H   0  0  0  0  0  0
  -22.0602   -2.7606   23.2856 H   0  0  0  0  0  0
  -22.4069  -11.9892   22.4829 H   0  0  0  0  0  0
  -21.1094  -13.1285   22.2612 H   0  0  0  0  0  0
  -24.6451  -15.8346   20.5073 H   0  0  0  0  0  0
  -26.2506  -15.6258   20.0298 H   0  0  0  0  0  0
  -26.7164  -32.5490   23.1094 H   0  0  0  0  0  0
  -25.0029  -33.9735   25.0397 H   0  0  0  0  0  0
  -22.7102  -31.2979   21.4004 H   0  0  0  0  0  0
  -23.3752  -35.9629   23.3298 H   0  0  0  0  0  0
  -24.3589  -36.8916   22.2053 H   0  0  0  0  0  0
  -23.7224  -37.6490   23.6663 H   0  0  0  0  0  0
  -26.0708  -31.5476   20.5923 H   0  0  0  0  0  0
  -26.8418  -30.8589   21.9894 H   0  0  0  0  0  0
  -28.1096  -28.9784   21.2082 H   0  0  0  0  0  0
  -26.0229  -25.9328   18.9775 H   0  0  0  0  0  0
  -23.9903  -27.3026   18.9919 H   0  0  0  0  0  0
  -23.7491  -30.5823   19.4031 H   0  0  0  0  0  0
  -22.7523  -29.2368   19.8615 H   0  0  0  0  0  0
  -25.1287  -36.1959   25.0818 H   0  0  0  0  0  0
  -20.9970  -28.3268   24.1439 H   0  0  0  0  0  0
  -20.5710  -26.2282   23.3625 H   0  0  0  0  0  0
  -21.6648  -26.7487   22.1201 H   0  0  0  0  0  0
  -19.6928  -25.6319   21.1239 H   0  0  0  0  0  0
  -19.6692  -27.3221   20.6766 H   0  0  0  0  0  0
  -17.4214  -26.6712   21.4008 H   0  0  0  0  0  0
  -18.0311  -26.0067   22.8998 H   0  0  0  0  0  0
  -19.7918  -30.7266   24.2301 H   0  0  0  0  0  0
  -17.4993  -31.6267   24.5161 H   0  0  0  0  0  0
  -15.5336  -30.2983   23.7625 H   0  0  0  0  0  0
  -15.8679  -28.0810   22.7061 H   0  0  0  0  0  0
  -24.5927  -30.6997   25.7722 H   0  0  0  0  0  0
  -24.8836  -32.2837   26.4788 H   0  0  0  0  0  0
  -25.8022  -30.8905   27.0198 H   0  0  0  0  0  0
  -26.2858  -29.6778   24.1102 H   0  0  0  0  0  0
  -27.4016  -29.7212   25.4550 H   0  0  0  0  0  0
  -27.8726  -30.4274   23.9278 H   0  0  0  0  0  0
  -27.2713  -33.3589   26.2012 H   0  0  0  0  0  0
  -28.3883  -32.6791   25.0276 H   0  0  0  0  0  0
  -28.0714  -31.8387   26.5365 H   0  0  0  0  0  0
  -28.2591  -38.0109   24.7515 H   0  0  0  0  0  0
  -28.1075  -36.2636   24.6284 H   0  0  0  0  0  0
  -27.2303  -37.1451   25.8864 H   0  0  0  0  0  0
  -20.9367  -29.8700   21.6862 H   0  0  0  0  0  0
  -26.0176  -38.2859   24.1417 H   0  0  0  0  0  0
  -32.3228  -27.8955   21.1959 H   0  0  0  0  0  0
  -34.3083  -26.6940   20.2906 H   0  0  0  0  0  0
  -30.1891  -26.7818   21.3803 H   0  0  0  0  0  0
  -34.1307  -24.3207   19.7147 H   0  0  0  0  0  0
  -28.0536  -20.0368   20.1771 H   0  0  0  0  0  0
  -27.8984  -17.5889   20.1472 H   0  0  0  0  0  0
  -32.1395  -19.6390   21.5365 H   0  0  0  0  0  0
  -27.3311  -24.7179   20.2550 H   0  0  0  0  0  0
  -28.9785  -22.4140   19.4050 H   0  0  0  0  0  0
  -28.2721  -22.4373   20.9841 H   0  0  0  0  0  0
  -33.1840  -22.5788   18.2871 H   0  0  0  0  0  0
  -32.6645  -21.0518   18.9803 H   0  0  0  0  0  0
  -33.9299  -21.9854   19.7826 H   0  0  0  0  0  0
  -28.8157  -15.4053   20.9610 H   0  0  0  0  0  0
  1 25  1  0  0  0
  1 30  2  0  0  0
  1 90  1  0  0  0
  2  3  1  0  0  0
  2 25  1  0  0  0
  2 93  1  0  0  0
  2 94  1  0  0  0
  3  4  1  0  0  0
  3 95  1  0  0  0
  3 96  1  0  0  0
  4  5  1  0  0  0
  4 97  1  0  0  0
  4 98  1  0  0  0
  5  6  1  0  0  0
  5 26  1  0  0  0
  5 99  1  0  0  0
  6 25  1  0  0  0
  6100  1  0  0  0
  6101  1  0  0  0
  7  8  2  0  0  0
  7 26  1  0  0  0
  7 29  1  0  0  0
  8  9  1  0  0  0
  8 22  1  0  0  0
  9 10  1  0  0  0
  9 27  2  0  0  0
 10 11  2  0  0  0
 10 15  1  0  0  0
 11 12  1  0  0  0
 11102  1  0  0  0
 12 13  2  0  0  0
 12103  1  0  0  0
 13 14  1  0  0  0
 13 31  1  0  0  0
 14 15  2  0  0  0
 14104  1  0  0  0
 15105  1  0  0  0
 16 17  2  0  0  0
 16 21  1  0  0  0
 16 31  1  0  0  0
 17 18  1  0  0  0
 17106  1  0  0  0
 18 19  2  0  0  0
 18107  1  0  0  0
 19 20  1  0  0  0
 19 24  1  0  0  0
 20 21  2  0  0  0
 20108  1  0  0  0
 21 23  1  0  0  0
 22 28  1  0  0  0
 22 32  2  0  0  0
 26 27  1  0  0  0
 28109  1  0  0  0
 28110  1  0  0  0
 29111  1  0  0  0
 29112  1  0  0  0
 33 34  1  0  0  0
 33 66  1  0  0  0
 33 70  2  0  0  0
 34 36  1  0  0  0
 34 59  1  0  0  0
 34113  1  0  0  0
 35 44  2  0  0  0
 35 45  1  0  0  0
 35 68  1  0  0  0
 36 56  1  0  0  0
 36114  1  0  0  0
 37 39  1  0  0  0
 37 47  1  0  0  0
 37 66  1  0  0  0
 37115  1  0  0  0
 38 43  2  0  0  0
 38 46  1  0  0  0
 38 47  1  0  0  0
 39 64  1  0  0  0
 39 67  2  0  0  0
 40 52  1  0  0  0
 40 53  2  0  0  0
 40 58  1  0  0  0
 41116  1  0  0  0
 41117  1  0  0  0
 41118  1  0  0  0
 41 48  1  0  0  0
 42 43  1  0  0  0
 42 66  1  0  0  0
 42119  1  0  0  0
 42120  1  0  0  0
 43 44  1  0  0  0
 44121  1  0  0  0
 45 46  2  0  0  0
 45122  1  0  0  0
 46123  1  0  0  0
 47124  1  0  0  0
 47125  1  0  0  0
 48 56  1  0  0  0
 48 65  1  0  0  0
 48126  1  0  0  0
 49 50  1  0  0  0
 49 53  1  0  0  0
 49 64  1  0  0  0
 49127  1  0  0  0
 50 51  1  0  0  0
 50128  1  0  0  0
 50129  1  0  0  0
 51 52  1  0  0  0
 51130  1  0  0  0
 51131  1  0  0  0
 52132  1  0  0  0
 52133  1  0  0  0
 53 54  1  0  0  0
 54 55  2  0  0  0
 54134  1  0  0  0
 55 57  1  0  0  0
 55135  1  0  0  0
 56 69  2  0  0  0
 57 58  2  0  0  0
 57136  1  0  0  0
 58137  1  0  0  0
 59 60  1  0  0  0
 59 61  1  0  0  0
 59 62  1  0  0  0
 60138  1  0  0  0
 60139  1  0  0  0
 60140  1  0  0  0
 61141  1  0  0  0
 61142  1  0  0  0
 61143  1  0  0  0
 62144  1  0  0  0
 62145  1  0  0  0
 62146  1  0  0  0
 63 65  1  0  0  0
 63147  1  0  0  0
 63148  1  0  0  0
 63149  1  0  0  0
 64150  1  0  0  0
 65151  1  0  0  0
 68 85  1  0  0  0
 71 72  2  0  0  0
 71 73  1  0  0  0
 71152  1  0  0  0
 72 74  1  0  0  0
 72153  1  0  0  0
 73 78  2  0  0  0
 73154  1  0  0  0
 74 80  2  0  0  0
 74155  1  0  0  0
 75 76  2  0  0  0
 75 79  1  0  0  0
 75156  1  0  0  0
 76 81  1  0  0  0
 76157  1  0  0  0
 77 79  2  0  0  0
 77 82  1  0  0  0
 77158  1  0  0  0
 78 80  1  0  0  0
 78 83  1  0  0  0
 79 88  1  0  0  0
 80 89  1  0  0  0
 81 82  2  0  0  0
 81 90  1  0  0  0
 82 92  1  0  0  0
 83 85  2  0  0  0
 83 86  1  0  0  0
 84 88  1  0  0  0
 84 89  1  0  0  0
 84 91  2  0  0  0
 85159  1  0  0  0
 86 88  1  0  0  0
 86160  1  0  0  0
 86161  1  0  0  0
 87 89  1  0  0  0
 87162  1  0  0  0
 87163  1  0  0  0
 87164  1  0  0  0
 90165  1  0  0  0
M  ISO  4   1 100  68 101  85 101  90 100
M  END
> <chiral flag>
0

> <version>
0

> <s_m_source_file>
/data/baiqing/PycharmProjects/Reinvent-master-3.2/result/LINK_invent/BTK/process_docking_weight1_custom_product_contain_oxygen_bond_distance_aromatic_linkinvent_7_9_3/rearranged_h_0086.sdf

> <i_m_source_file_index>
92

> <r_mmod_Potential_Energy-OPLS-2005>
335.5771484375

> <r_mmod_Stretch_Energy-OPLS-2005>
111.218284606934

> <r_mmod_Bend_Energy-OPLS-2005>
167.313125610352

> <r_mmod_Torsional_Energy-OPLS-2005>
396.296051025391

> <r_mmod_Improper_Torsional_Energy-OPLS-2005>
9.48053455352783

> <r_mmod_Van_der_Waal_Energy-OPLS-2005>
203.243637084961

> <r_mmod_Electrostatic_Energy-OPLS-2005>
-372.981353759766

> <r_mmod_Solvation_Energy-OPLS-2005>
-228.692230224609

> <b_mmod_Minimization_Converged-OPLS-2005>
0

> <r_mmod_RMS_Derivative-OPLS-2005>
1.87101113796234

$$$$
92
                    3D
 Structure written by MMmdl.
155164  0  0  1  0            999 V2000
  -30.5595  -14.8812   20.3956 C   0  0  0  0  0  0
  -30.4388  -12.5261   19.5086 C   0  0  0  0  0  0
  -29.5260  -12.4772   18.2605 C   0  0  0  0  0  0
  -28.0483  -12.3151   18.6662 C   0  0  0  0  0  0
  -27.6348  -13.2434   19.8388 C   0  0  2  0  0  0
  -28.6753  -13.2475   20.9792 C   0  0  0  0  0  0
  -25.2489  -13.8227   20.5698 C   0  0  0  0  0  0
  -24.1790  -13.0460   20.9215 C   0  0  0  0  0  0
  -24.6393  -11.6935   20.8745 C   0  0  0  0  0  0
  -23.9075  -10.4305   21.0407 C   0  0  0  0  0  0
  -24.3621   -9.4222   21.9179 C   0  0  0  0  0  0
  -23.6300   -8.2257   22.0742 C   0  0  0  0  0  0
  -22.4277   -8.0288   21.3544 C   0  0  0  0  0  0
  -21.9920   -9.0268   20.4647 C   0  0  0  0  0  0
  -22.7252  -10.2143   20.3059 C   0  0  0  0  0  0
  -21.6853   -6.0742   22.5283 C   0  0  0  0  0  0
  -21.4018   -6.5641   23.8218 C   0  0  0  0  0  0
  -21.3660   -5.6789   24.9178 C   0  0  0  0  0  0
  -21.6043   -4.3054   24.7227 C   0  0  0  0  0  0
  -21.8814   -3.8152   23.4345 C   0  0  0  0  0  0
  -21.9199   -4.6974   22.3405 C   0  0  0  0  0  0
  -22.7809  -13.5234   21.1888 C   0  0  0  0  0  0
  -22.1662   -4.2160   21.0979 F   0  0  0  0  0  0
  -21.5632   -3.4536   25.7739 F   0  0  0  0  0  0
  -29.9628  -13.6278   20.3895 N   0  0  0  0  0  0
  -26.2902  -12.9447   20.3234 N   0  0  0  0  0  0
  -25.9321  -11.6581   20.5731 N   0  0  0  0  0  0
  -22.0434  -12.8220   22.0429 N   0  0  0  0  0  0
  -25.4191  -15.1948   20.4103 N   0  0  0  0  0  0
  -31.7629  -14.9449   20.1198 O   0  0  0  0  0  0
  -21.6639   -6.8883   21.4243 O   0  0  0  0  0  0
  -22.3501  -14.5550   20.6751 O   0  0  0  0  0  0
  -24.6406  -31.8466   23.1931 C   0  0  0  0  0  0
  -25.9204  -32.4705   23.8296 C   0  0  1  0  0  0
  -27.2124  -27.1744   20.1499 C   0  0  0  0  0  0
  -25.5963  -33.8510   24.2219 N   0  0  0  0  0  0
  -23.4417  -30.4694   21.5365 C   0  0  2  0  0  0
  -24.8908  -28.9034   20.1097 C   0  0  0  0  0  0
  -22.7557  -29.4563   22.4864 C   0  0  0  0  0  0
  -18.0309  -28.1384   22.8470 C   0  0  0  0  0  0
  -24.1486  -36.7254   23.2636 C   0  0  0  0  0  0
  -25.9946  -30.7324   21.3873 C   0  0  0  0  0  0
  -26.0665  -29.3467   20.7300 C   0  0  0  0  0  0
  -27.2310  -28.4953   20.7397 C   0  0  0  0  0  0
  -26.0183  -26.8279   19.4816 C   0  0  0  0  0  0
  -24.8763  -27.6545   19.4709 C   0  0  0  0  0  0
  -23.6672  -29.8027   20.1542 C   0  0  0  0  0  0
  -25.4112  -36.3030   24.0317 C   0  0  1  0  0  0
  -20.5917  -28.3702   23.1240 C   0  0  2  0  0  0
  -20.6784  -26.9408   22.5398 C   0  0  0  0  0  0
  -19.5760  -26.6377   21.5197 C   0  0  0  0  0  0
  -18.1942  -26.7932   22.1612 C   0  0  0  0  0  0
  -19.1561  -28.8864   23.2850 C   0  0  0  0  0  0
  -18.9477  -30.1459   23.8869 C   0  0  0  0  0  0
  -17.6476  -30.6576   24.0561 C   0  0  0  0  0  0
  -25.9058  -34.9408   23.5067 C   0  0  0  0  0  0
  -16.5364  -29.9069   23.6339 C   0  0  0  0  0  0
  -16.7291  -28.6490   23.0346 C   0  0  0  0  0  0
  -26.4546  -31.6549   25.0713 C   0  0  0  0  0  0
  -25.3747  -31.3740   26.1420 C   0  0  0  0  0  0
  -27.0406  -30.2947   24.6263 C   0  0  0  0  0  0
  -27.6077  -32.4313   25.7504 C   0  0  0  0  0  0
  -27.5579  -37.1780   24.8463 C   0  0  0  0  0  0
  -21.4251  -29.3044   22.3621 N   0  0  0  0  0  0
  -26.4285  -37.3738   23.9404 N   0  0  0  0  0  0
  -24.7115  -31.0358   22.0944 N   0  0  0  0  0  0
  -23.4220  -28.8101   23.2989 O   0  0  0  0  0  0
  -28.2423  -26.1778   20.1963 O   0  0  0  0  0  0
  -26.5639  -34.8903   22.4639 O   0  0  0  0  0  0
  -23.5543  -32.1331   23.7182 O   0  0  0  0  0  0
  -29.8850  -20.0002   18.5398 C   0  0  0  0  0  0
  -29.4614  -18.7379   20.5178 C   0  0  0  0  0  0
  -30.1400  -17.5410   18.4965 C   0  0  0  0  0  0
  -29.4573  -20.0858   19.8835 C   0  0  0  0  0  0
  -30.1953  -18.8082   17.8608 C   0  0  0  0  0  0
  -29.8359  -17.4409   19.8900 C   0  0  0  0  0  0
  -28.4595  -23.5269   20.4204 C   0  0  0  0  0  0
  -27.9546  -22.2021   20.8494 C   0  0  0  0  0  0
  -27.8898  -24.8159   20.5673 C   0  0  0  0  0  0
  -29.6701  -22.7773   19.7986 C   0  0  0  0  0  0
  -30.3267  -16.2937   17.6336 C   0  0  0  0  0  0
  -29.0955  -21.4969   20.3593 N   0  0  0  0  0  0
  -30.5315  -18.9289   16.5097 N   0  0  0  0  0  0
  -29.7754  -16.0538   20.5372 N   0  0  0  0  0  0
  -26.8837  -21.8931   21.3290 O   0  0  0  0  0  0
  -31.4774  -12.6601   19.2036 H   0  0  0  0  0  0
  -30.4065  -11.5759   20.0435 H   0  0  0  0  0  0
  -29.8228  -11.6516   17.6123 H   0  0  0  0  0  0
  -29.6534  -13.3779   17.6647 H   0  0  0  0  0  0
  -27.9051  -11.2728   18.9547 H   0  0  0  0  0  0
  -27.4003  -12.4820   17.8048 H   0  0  0  0  0  0
  -27.6101  -14.2500   19.4191 H   0  0  0  0  0  0
  -28.7399  -12.2696   21.4583 H   0  0  0  0  0  0
  -28.3877  -13.9547   21.7567 H   0  0  0  0  0  0
  -25.2754   -9.5716   22.4763 H   0  0  0  0  0  0
  -24.0022   -7.4646   22.7447 H   0  0  0  0  0  0
  -21.0856   -8.8798   19.8937 H   0  0  0  0  0  0
  -22.3712  -10.9689   19.6180 H   0  0  0  0  0  0
  -21.2001   -7.6142   23.9731 H   0  0  0  0  0  0
  -21.1484   -6.0510   25.9083 H   0  0  0  0  0  0
  -22.0592   -2.7619   23.2841 H   0  0  0  0  0  0
  -22.4031  -11.9881   22.4839 H   0  0  0  0  0  0
  -21.1049  -13.1264   22.2609 H   0  0  0  0  0  0
  -24.6513  -15.8485   20.5145 H   0  0  0  0  0  0
  -26.2675  -15.6345   20.0782 H   0  0  0  0  0  0
  -26.7267  -32.5337   23.1026 H   0  0  0  0  0  0
  -25.0137  -33.9616   25.0389 H   0  0  0  0  0  0
  -22.7397  -31.2939   21.3870 H   0  0  0  0  0  0
  -23.3756  -35.9581   23.3275 H   0  0  0  0  0  0
  -24.3588  -36.8900   22.2056 H   0  0  0  0  0  0
  -23.7239  -37.6441   23.6689 H   0  0  0  0  0  0
  -26.1436  -31.4866   20.6151 H   0  0  0  0  0  0
  -26.8683  -30.7841   22.0241 H   0  0  0  0  0  0
  -28.1251  -28.8258   21.2479 H   0  0  0  0  0  0
  -25.9492  -25.8689   18.9877 H   0  0  0  0  0  0
  -23.9800  -27.3107   18.9719 H   0  0  0  0  0  0
  -23.8034  -30.5797   19.4010 H   0  0  0  0  0  0
  -22.7821  -29.2455   19.8435 H   0  0  0  0  0  0
  -25.1298  -36.1855   25.0812 H   0  0  0  0  0  0
  -21.0004  -28.3284   24.1362 H   0  0  0  0  0  0
  -20.5643  -26.2315   23.3611 H   0  0  0  0  0  0
  -21.6654  -26.7393   22.1212 H   0  0  0  0  0  0
  -19.6905  -25.6279   21.1243 H   0  0  0  0  0  0
  -19.6695  -27.3175   20.6717 H   0  0  0  0  0  0
  -17.4205  -26.6664   21.4020 H   0  0  0  0  0  0
  -18.0342  -26.0079   22.9015 H   0  0  0  0  0  0
  -19.7946  -30.7292   24.2208 H   0  0  0  0  0  0
  -17.5022  -31.6254   24.5164 H   0  0  0  0  0  0
  -15.5361  -30.2958   23.7664 H   0  0  0  0  0  0
  -15.8697  -28.0805   22.7060 H   0  0  0  0  0  0
  -24.5931  -30.7069   25.7764 H   0  0  0  0  0  0
  -24.8935  -32.2922   26.4795 H   0  0  0  0  0  0
  -25.8053  -30.8960   27.0225 H   0  0  0  0  0  0
  -26.3013  -29.6672   24.1272 H   0  0  0  0  0  0
  -27.4029  -29.7243   25.4824 H   0  0  0  0  0  0
  -27.8920  -30.4182   23.9569 H   0  0  0  0  0  0
  -27.2664  -33.3631   26.2036 H   0  0  0  0  0  0
  -28.3929  -32.6841   25.0363 H   0  0  0  0  0  0
  -28.0707  -31.8464   26.5462 H   0  0  0  0  0  0
  -28.2573  -38.0100   24.7529 H   0  0  0  0  0  0
  -28.1097  -36.2630   24.6260 H   0  0  0  0  0  0
  -27.2306  -37.1398   25.8869 H   0  0  0  0  0  0
  -20.9440  -29.8787   21.6841 H   0  0  0  0  0  0
  -26.0147  -38.2800   24.1427 H   0  0  0  0  0  0
  -29.9334  -20.9007   17.9495 H   0  0  0  0  0  0
  -29.1609  -18.6989   21.5553 H   0  0  0  0  0  0
  -26.9523  -24.8429   21.1063 H   0  0  0  0  0  0
  -30.6555  -22.9846   20.2179 H   0  0  0  0  0  0
  -29.7198  -22.8232   18.7112 H   0  0  0  0  0  0
  -30.1798  -16.4690   16.5690 H   0  0  0  0  0  0
  -29.5799  -15.5486   17.8968 H   0  0  0  0  0  0
  -31.3261  -15.8764   17.7523 H   0  0  0  0  0  0
  -30.2572  -19.7709   16.0133 H   0  0  0  0  0  0
  -30.4891  -18.1024   15.9249 H   0  0  0  0  0  0
  -28.9060  -15.8746   21.0184 H   0  0  0  0  0  0
  1 25  1  0  0  0
  1 30  2  0  0  0
  1 84  1  0  0  0
  2  3  1  0  0  0
  2 25  1  0  0  0
  2 86  1  0  0  0
  2 87  1  0  0  0
  3  4  1  0  0  0
  3 88  1  0  0  0
  3 89  1  0  0  0
  4  5  1  0  0  0
  4 90  1  0  0  0
  4 91  1  0  0  0
  5  6  1  0  0  0
  5 26  1  0  0  0
  5 92  1  0  0  0
  6 25  1  0  0  0
  6 93  1  0  0  0
  6 94  1  0  0  0
  7  8  2  0  0  0
  7 26  1  0  0  0
  7 29  1  0  0  0
  8  9  1  0  0  0
  8 22  1  0  0  0
  9 10  1  0  0  0
  9 27  2  0  0  0
 10 11  2  0  0  0
 10 15  1  0  0  0
 11 12  1  0  0  0
 11 95  1  0  0  0
 12 13  2  0  0  0
 12 96  1  0  0  0
 13 14  1  0  0  0
 13 31  1  0  0  0
 14 15  2  0  0  0
 14 97  1  0  0  0
 15 98  1  0  0  0
 16 17  2  0  0  0
 16 21  1  0  0  0
 16 31  1  0  0  0
 17 18  1  0  0  0
 17 99  1  0  0  0
 18 19  2  0  0  0
 18100  1  0  0  0
 19 20  1  0  0  0
 19 24  1  0  0  0
 20 21  2  0  0  0
 20101  1  0  0  0
 21 23  1  0  0  0
 22 28  1  0  0  0
 22 32  2  0  0  0
 26 27  1  0  0  0
 28102  1  0  0  0
 28103  1  0  0  0
 29104  1  0  0  0
 29105  1  0  0  0
 33 34  1  0  0  0
 33 66  1  0  0  0
 33 70  2  0  0  0
 34 36  1  0  0  0
 34 59  1  0  0  0
 34106  1  0  0  0
 35 44  2  0  0  0
 35 45  1  0  0  0
 35 68  1  0  0  0
 36 56  1  0  0  0
 36107  1  0  0  0
 37 39  1  0  0  0
 37 47  1  0  0  0
 37 66  1  0  0  0
 37108  1  0  0  0
 38 43  2  0  0  0
 38 46  1  0  0  0
 38 47  1  0  0  0
 39 64  1  0  0  0
 39 67  2  0  0  0
 40 52  1  0  0  0
 40 53  2  0  0  0
 40 58  1  0  0  0
 41109  1  0  0  0
 41110  1  0  0  0
 41111  1  0  0  0
 41 48  1  0  0  0
 42 43  1  0  0  0
 42 66  1  0  0  0
 42112  1  0  0  0
 42113  1  0  0  0
 43 44  1  0  0  0
 44114  1  0  0  0
 45 46  2  0  0  0
 45115  1  0  0  0
 46116  1  0  0  0
 47117  1  0  0  0
 47118  1  0  0  0
 48 56  1  0  0  0
 48 65  1  0  0  0
 48119  1  0  0  0
 49 50  1  0  0  0
 49 53  1  0  0  0
 49 64  1  0  0  0
 49120  1  0  0  0
 50 51  1  0  0  0
 50121  1  0  0  0
 50122  1  0  0  0
 51 52  1  0  0  0
 51123  1  0  0  0
 51124  1  0  0  0
 52125  1  0  0  0
 52126  1  0  0  0
 53 54  1  0  0  0
 54 55  2  0  0  0
 54127  1  0  0  0
 55 57  1  0  0  0
 55128  1  0  0  0
 56 69  2  0  0  0
 57 58  2  0  0  0
 57129  1  0  0  0
 58130  1  0  0  0
 59 60  1  0  0  0
 59 61  1  0  0  0
 59 62  1  0  0  0
 60131  1  0  0  0
 60132  1  0  0  0
 60133  1  0  0  0
 61134  1  0  0  0
 61135  1  0  0  0
 61136  1  0  0  0
 62137  1  0  0  0
 62138  1  0  0  0
 62139  1  0  0  0
 63 65  1  0  0  0
 63140  1  0  0  0
 63141  1  0  0  0
 63142  1  0  0  0
 64143  1  0  0  0
 65144  1  0  0  0
 68 79  1  0  0  0
 71 74  2  0  0  0
 71 75  1  0  0  0
 71145  1  0  0  0
 72 74  1  0  0  0
 72 76  2  0  0  0
 72146  1  0  0  0
 73 75  2  0  0  0
 73 76  1  0  0  0
 73 81  1  0  0  0
 74 82  1  0  0  0
 75 83  1  0  0  0
 76 84  1  0  0  0
 77 78  1  0  0  0
 77 79  2  0  0  0
 77 80  1  0  0  0
 78 82  1  0  0  0
 78 85  2  0  0  0
 79147  1  0  0  0
 80 82  1  0  0  0
 80148  1  0  0  0
 80149  1  0  0  0
 81150  1  0  0  0
 81151  1  0  0  0
 81152  1  0  0  0
 83153  1  0  0  0
 83154  1  0  0  0
 84155  1  0  0  0
M  ISO  4   1 100  68 101  79 101  84 100
M  END
> <chiral flag>
0

> <version>
0

> <s_m_source_file>
/data/baiqing/PycharmProjects/Reinvent-master-3.2/result/LINK_invent/BTK/process_docking_weight1_custom_product_contain_oxygen_bond_distance_aromatic_linkinvent_7_9_3/rearranged_h_0086.sdf

> <i_m_source_file_index>
93

> <r_mmod_Potential_Energy-OPLS-2005>
473.446258544922

> <r_mmod_Stretch_Energy-OPLS-2005>
195.422637939453

> <r_mmod_Bend_Energy-OPLS-2005>
281.632995605469

> <r_mmod_Torsional_Energy-OPLS-2005>
270.068634033203

> <r_mmod_Improper_Torsional_Energy-OPLS-2005>
10.959436416626

> <r_mmod_Van_der_Waal_Energy-OPLS-2005>
145.695785522461

> <r_mmod_Electrostatic_Energy-OPLS-2005>
-356.132263183594

> <r_mmod_Solvation_Energy-OPLS-2005>
-233.402847290039

> <b_mmod_Minimization_Converged-OPLS-2005>
0

> <r_mmod_RMS_Derivative-OPLS-2005>
2.06470656394958

$$$$
93
                    3D
 Structure written by MMmdl.
153162  0  0  1  0            999 V2000
  -30.5111  -14.9054   20.4372 C   0  0  0  0  0  0
  -30.4459  -12.5628   19.4648 C   0  0  0  0  0  0
  -29.5122  -12.5182   18.2318 C   0  0  0  0  0  0
  -28.0434  -12.3116   18.6570 C   0  0  0  0  0  0
  -27.6274  -13.2353   19.8318 C   0  0  2  0  0  0
  -28.6763  -13.2217   20.9616 C   0  0  0  0  0  0
  -25.2466  -13.8182   20.5736 C   0  0  0  0  0  0
  -24.1772  -13.0420   20.9243 C   0  0  0  0  0  0
  -24.6364  -11.6905   20.8740 C   0  0  0  0  0  0
  -23.9049  -10.4274   21.0409 C   0  0  0  0  0  0
  -24.3600   -9.4190   21.9187 C   0  0  0  0  0  0
  -23.6274   -8.2223   22.0745 C   0  0  0  0  0  0
  -22.4256   -8.0258   21.3531 C   0  0  0  0  0  0
  -21.9891   -9.0238   20.4642 C   0  0  0  0  0  0
  -22.7222  -10.2121   20.3055 C   0  0  0  0  0  0
  -21.6853   -6.0724   22.5277 C   0  0  0  0  0  0
  -21.4020   -6.5633   23.8211 C   0  0  0  0  0  0
  -21.3652   -5.6785   24.9173 C   0  0  0  0  0  0
  -21.6046   -4.3048   24.7226 C   0  0  0  0  0  0
  -21.8822   -3.8135   23.4350 C   0  0  0  0  0  0
  -21.9192   -4.6951   22.3405 C   0  0  0  0  0  0
  -22.7791  -13.5198   21.1918 C   0  0  0  0  0  0
  -22.1659   -4.2137   21.0985 F   0  0  0  0  0  0
  -21.5621   -3.4538   25.7745 F   0  0  0  0  0  0
  -29.9488  -13.6387   20.3607 N   0  0  0  0  0  0
  -26.2859  -12.9395   20.3213 N   0  0  0  0  0  0
  -25.9278  -11.6537   20.5687 N   0  0  0  0  0  0
  -22.0430  -12.8171   22.0465 N   0  0  0  0  0  0
  -25.4144  -15.1918   20.4215 N   0  0  0  0  0  0
  -31.7298  -15.0164   20.2600 O   0  0  0  0  0  0
  -21.6624   -6.8862   21.4229 O   0  0  0  0  0  0
  -22.3479  -14.5506   20.6777 O   0  0  0  0  0  0
  -24.6403  -31.8519   23.1886 C   0  0  0  0  0  0
  -25.9182  -32.4770   23.8277 C   0  0  1  0  0  0
  -27.2155  -27.1522   20.1709 C   0  0  0  0  0  0
  -25.5913  -33.8556   24.2193 N   0  0  0  0  0  0
  -23.4465  -30.4694   21.5376 C   0  0  2  0  0  0
  -24.8989  -28.8942   20.1262 C   0  0  0  0  0  0
  -22.7551  -29.4619   22.4893 C   0  0  0  0  0  0
  -18.0288  -28.1488   22.8512 C   0  0  0  0  0  0
  -24.1457  -36.7265   23.2630 C   0  0  0  0  0  0
  -26.0022  -30.7287   21.3899 C   0  0  0  0  0  0
  -26.0773  -29.3347   20.7472 C   0  0  0  0  0  0
  -27.2425  -28.4804   20.7553 C   0  0  0  0  0  0
  -26.0139  -26.8032   19.5254 C   0  0  0  0  0  0
  -24.8793  -27.6382   19.5018 C   0  0  0  0  0  0
  -23.6767  -29.7949   20.1586 C   0  0  0  0  0  0
  -25.4109  -36.3108   24.0319 C   0  0  1  0  0  0
  -20.5908  -28.3798   23.1264 C   0  0  2  0  0  0
  -20.6777  -26.9502   22.5443 C   0  0  0  0  0  0
  -19.5743  -26.6450   21.5256 C   0  0  0  0  0  0
  -18.1929  -26.8027   22.1659 C   0  0  0  0  0  0
  -19.1558  -28.8950   23.2887 C   0  0  0  0  0  0
  -18.9484  -30.1526   23.8948 C   0  0  0  0  0  0
  -17.6491  -30.6676   24.0593 C   0  0  0  0  0  0
  -25.9073  -34.9474   23.5087 C   0  0  0  0  0  0
  -16.5383  -29.9192   23.6358 C   0  0  0  0  0  0
  -16.7272  -28.6602   23.0404 C   0  0  0  0  0  0
  -26.4486  -31.6621   25.0715 C   0  0  0  0  0  0
  -25.3639  -31.3840   26.1402 C   0  0  0  0  0  0
  -27.0323  -30.3016   24.6299 C   0  0  0  0  0  0
  -27.6039  -32.4328   25.7524 C   0  0  0  0  0  0
  -27.5587  -37.1783   24.8463 C   0  0  0  0  0  0
  -21.4253  -29.3093   22.3607 N   0  0  0  0  0  0
  -26.4269  -37.3829   23.9438 N   0  0  0  0  0  0
  -24.7170  -31.0354   22.0942 N   0  0  0  0  0  0
  -23.4198  -28.8152   23.3043 O   0  0  0  0  0  0
  -28.2452  -26.1647   20.0498 O   0  0  0  0  0  0
  -26.5679  -34.8961   22.4685 O   0  0  0  0  0  0
  -23.5513  -32.1403   23.7069 O   0  0  0  0  0  0
  -29.7122  -18.6968   20.3069 C   0  0  0  0  0  0
  -29.1241  -19.8399   21.1026 C   0  0  0  0  0  0
  -28.4683  -19.2967   22.1946 C   0  0  0  0  0  0
  -29.5157  -17.3559   20.8026 C   0  0  0  0  0  0
  -28.8225  -23.7739   21.1711 C   0  0  0  0  0  0
  -28.6863  -22.4636   20.3813 C   0  0  0  0  0  0
  -28.5648  -25.1729   21.0459 C   0  0  0  0  0  0
  -29.4410  -23.3239   22.4682 C   0  0  0  0  0  0
  -30.0436  -21.9480   22.1779 C   0  0  0  0  0  0
  -27.7257  -19.9760   23.3090 C   0  0  0  0  0  0
  -29.3049  -21.3707   21.0512 N   0  0  0  0  0  0
  -29.6402  -16.0132   20.3108 N   0  0  0  0  0  0
  -28.0900  -22.3393   19.3074 O   0  0  0  0  0  0
  -28.5796  -17.5380   22.2668 S   0  0  0  0  0  0
  -31.4760  -12.7414   19.1526 H   0  0  0  0  0  0
  -30.4453  -11.6019   19.9810 H   0  0  0  0  0  0
  -29.8141  -11.7187   17.5543 H   0  0  0  0  0  0
  -29.6016  -13.4473   17.6666 H   0  0  0  0  0  0
  -27.9323  -11.2670   18.9541 H   0  0  0  0  0  0
  -27.3764  -12.4548   17.8062 H   0  0  0  0  0  0
  -27.5948  -14.2435   19.4175 H   0  0  0  0  0  0
  -28.7579  -12.2255   21.3999 H   0  0  0  0  0  0
  -28.3914  -13.8947   21.7718 H   0  0  0  0  0  0
  -25.2746   -9.5673   22.4764 H   0  0  0  0  0  0
  -23.9993   -7.4612   22.7454 H   0  0  0  0  0  0
  -21.0824   -8.8758   19.8945 H   0  0  0  0  0  0
  -22.3677  -10.9657   19.6164 H   0  0  0  0  0  0
  -21.2019   -7.6145   23.9712 H   0  0  0  0  0  0
  -21.1468   -6.0520   25.9079 H   0  0  0  0  0  0
  -22.0605   -2.7595   23.2860 H   0  0  0  0  0  0
  -22.4038  -11.9828   22.4853 H   0  0  0  0  0  0
  -21.1031  -13.1168   22.2653 H   0  0  0  0  0  0
  -24.6567  -15.8452   20.5873 H   0  0  0  0  0  0
  -26.2515  -15.6398   20.0745 H   0  0  0  0  0  0
  -26.7260  -32.5433   23.1011 H   0  0  0  0  0  0
  -24.9944  -33.9666   25.0266 H   0  0  0  0  0  0
  -22.7489  -31.2953   21.3765 H   0  0  0  0  0  0
  -23.3780  -35.9541   23.3306 H   0  0  0  0  0  0
  -24.3498  -36.8885   22.2044 H   0  0  0  0  0  0
  -23.7145  -37.6429   23.6651 H   0  0  0  0  0  0
  -26.1437  -31.4762   20.6083 H   0  0  0  0  0  0
  -26.8757  -30.7945   22.0269 H   0  0  0  0  0  0
  -28.1512  -28.8244   21.2263 H   0  0  0  0  0  0
  -25.9485  -25.8356   19.0453 H   0  0  0  0  0  0
  -23.9852  -27.2958   19.0009 H   0  0  0  0  0  0
  -23.8195  -30.5687   19.4049 H   0  0  0  0  0  0
  -22.7930  -29.2403   19.8436 H   0  0  0  0  0  0
  -25.1266  -36.1955   25.0801 H   0  0  0  0  0  0
  -20.9983  -28.3444   24.1396 H   0  0  0  0  0  0
  -20.5736  -26.2423   23.3677 H   0  0  0  0  0  0
  -21.6645  -26.7574   22.1217 H   0  0  0  0  0  0
  -19.6909  -25.6351   21.1305 H   0  0  0  0  0  0
  -19.6682  -27.3258   20.6780 H   0  0  0  0  0  0
  -17.4191  -26.6787   21.4065 H   0  0  0  0  0  0
  -18.0312  -26.0188   22.9065 H   0  0  0  0  0  0
  -19.7973  -30.7301   24.2388 H   0  0  0  0  0  0
  -17.5078  -31.6369   24.5182 H   0  0  0  0  0  0
  -15.5400  -30.3123   23.7678 H   0  0  0  0  0  0
  -15.8664  -28.0904   22.7169 H   0  0  0  0  0  0
  -24.5839  -30.7145   25.7746 H   0  0  0  0  0  0
  -24.8783  -32.3033   26.4692 H   0  0  0  0  0  0
  -25.7897  -30.9127   27.0273 H   0  0  0  0  0  0
  -26.2954  -29.6778   24.1244 H   0  0  0  0  0  0
  -27.3856  -29.7284   25.4877 H   0  0  0  0  0  0
  -27.8878  -30.4223   23.9661 H   0  0  0  0  0  0
  -27.2680  -33.3652   26.2054 H   0  0  0  0  0  0
  -28.3921  -32.6830   25.0416 H   0  0  0  0  0  0
  -28.0626  -31.8460   26.5488 H   0  0  0  0  0  0
  -28.2602  -38.0101   24.7615 H   0  0  0  0  0  0
  -28.1085  -36.2642   24.6156 H   0  0  0  0  0  0
  -27.2293  -37.1296   25.8858 H   0  0  0  0  0  0
  -20.9483  -29.8770   21.6749 H   0  0  0  0  0  0
  -26.0154  -38.2879   24.1536 H   0  0  0  0  0  0
  -30.2473  -18.9094   19.3928 H   0  0  0  0  0  0
  -28.8082  -25.7387   21.9348 H   0  0  0  0  0  0
  -28.6613  -23.2525   23.2271 H   0  0  0  0  0  0
  -30.2024  -24.0189   22.8272 H   0  0  0  0  0  0
  -30.0402  -21.3279   23.0748 H   0  0  0  0  0  0
  -31.0870  -22.0533   21.8798 H   0  0  0  0  0  0
  -28.2970  -19.9282   24.2380 H   0  0  0  0  0  0
  -26.7646  -19.4909   23.4924 H   0  0  0  0  0  0
  -27.5221  -21.0226   23.0937 H   0  0  0  0  0  0
  -28.7242  -15.6239   20.1502 H   0  0  0  0  0  0
  1 25  1  0  0  0
  1 30  2  0  0  0
  1 82  1  0  0  0
  2  3  1  0  0  0
  2 25  1  0  0  0
  2 85  1  0  0  0
  2 86  1  0  0  0
  3  4  1  0  0  0
  3 87  1  0  0  0
  3 88  1  0  0  0
  4  5  1  0  0  0
  4 89  1  0  0  0
  4 90  1  0  0  0
  5  6  1  0  0  0
  5 26  1  0  0  0
  5 91  1  0  0  0
  6 25  1  0  0  0
  6 92  1  0  0  0
  6 93  1  0  0  0
  7  8  2  0  0  0
  7 26  1  0  0  0
  7 29  1  0  0  0
  8  9  1  0  0  0
  8 22  1  0  0  0
  9 10  1  0  0  0
  9 27  2  0  0  0
 10 11  2  0  0  0
 10 15  1  0  0  0
 11 12  1  0  0  0
 11 94  1  0  0  0
 12 13  2  0  0  0
 12 95  1  0  0  0
 13 14  1  0  0  0
 13 31  1  0  0  0
 14 15  2  0  0  0
 14 96  1  0  0  0
 15 97  1  0  0  0
 16 17  2  0  0  0
 16 21  1  0  0  0
 16 31  1  0  0  0
 17 18  1  0  0  0
 17 98  1  0  0  0
 18 19  2  0  0  0
 18 99  1  0  0  0
 19 20  1  0  0  0
 19 24  1  0  0  0
 20 21  2  0  0  0
 20100  1  0  0  0
 21 23  1  0  0  0
 22 28  1  0  0  0
 22 32  2  0  0  0
 26 27  1  0  0  0
 28101  1  0  0  0
 28102  1  0  0  0
 29103  1  0  0  0
 29104  1  0  0  0
 33 34  1  0  0  0
 33 66  1  0  0  0
 33 70  2  0  0  0
 34 36  1  0  0  0
 34 59  1  0  0  0
 34105  1  0  0  0
 35 44  2  0  0  0
 35 45  1  0  0  0
 35 68  1  0  0  0
 36 56  1  0  0  0
 36106  1  0  0  0
 37 39  1  0  0  0
 37 47  1  0  0  0
 37 66  1  0  0  0
 37107  1  0  0  0
 38 43  2  0  0  0
 38 46  1  0  0  0
 38 47  1  0  0  0
 39 64  1  0  0  0
 39 67  2  0  0  0
 40 52  1  0  0  0
 40 53  2  0  0  0
 40 58  1  0  0  0
 41108  1  0  0  0
 41109  1  0  0  0
 41110  1  0  0  0
 41 48  1  0  0  0
 42 43  1  0  0  0
 42 66  1  0  0  0
 42111  1  0  0  0
 42112  1  0  0  0
 43 44  1  0  0  0
 44113  1  0  0  0
 45 46  2  0  0  0
 45114  1  0  0  0
 46115  1  0  0  0
 47116  1  0  0  0
 47117  1  0  0  0
 48 56  1  0  0  0
 48 65  1  0  0  0
 48118  1  0  0  0
 49 50  1  0  0  0
 49 53  1  0  0  0
 49 64  1  0  0  0
 49119  1  0  0  0
 50 51  1  0  0  0
 50120  1  0  0  0
 50121  1  0  0  0
 51 52  1  0  0  0
 51122  1  0  0  0
 51123  1  0  0  0
 52124  1  0  0  0
 52125  1  0  0  0
 53 54  1  0  0  0
 54 55  2  0  0  0
 54126  1  0  0  0
 55 57  1  0  0  0
 55127  1  0  0  0
 56 69  2  0  0  0
 57 58  2  0  0  0
 57128  1  0  0  0
 58129  1  0  0  0
 59 60  1  0  0  0
 59 61  1  0  0  0
 59 62  1  0  0  0
 60130  1  0  0  0
 60131  1  0  0  0
 60132  1  0  0  0
 61133  1  0  0  0
 61134  1  0  0  0
 61135  1  0  0  0
 62136  1  0  0  0
 62137  1  0  0  0
 62138  1  0  0  0
 63 65  1  0  0  0
 63139  1  0  0  0
 63140  1  0  0  0
 63141  1  0  0  0
 64142  1  0  0  0
 65143  1  0  0  0
 68 77  1  0  0  0
 71 72  1  0  0  0
 71 74  2  0  0  0
 71144  1  0  0  0
 72 73  2  0  0  0
 72 81  1  0  0  0
 73 80  1  0  0  0
 73 84  1  0  0  0
 74 82  1  0  0  0
 74 84  1  0  0  0
 75 76  1  0  0  0
 75 77  2  0  0  0
 75 78  1  0  0  0
 76 81  1  0  0  0
 76 83  2  0  0  0
 77145  1  0  0  0
 78 79  1  0  0  0
 78146  1  0  0  0
 78147  1  0  0  0
 79 81  1  0  0  0
 79148  1  0  0  0
 79149  1  0  0  0
 80150  1  0  0  0
 80151  1  0  0  0
 80152  1  0  0  0
 82153  1  0  0  0
M  ISO  4   1 100  68 101  77 101  82 100
M  END
> <chiral flag>
0

> <version>
0

> <s_m_source_file>
/data/baiqing/PycharmProjects/Reinvent-master-3.2/result/LINK_invent/BTK/process_docking_weight1_custom_product_contain_oxygen_bond_distance_aromatic_linkinvent_7_9_3/rearranged_h_0086.sdf

> <i_m_source_file_index>
94

> <r_mmod_Potential_Energy-OPLS-2005>
665.063049316406

> <r_mmod_Stretch_Energy-OPLS-2005>
199.565200805664

> <r_mmod_Bend_Energy-OPLS-2005>
367.585540771484

> <r_mmod_Torsional_Energy-OPLS-2005>
356.989715576172

> <r_mmod_Improper_Torsional_Energy-OPLS-2005>
17.2497272491455

> <r_mmod_Van_der_Waal_Energy-OPLS-2005>
100.610992431641

> <r_mmod_Electrostatic_Energy-OPLS-2005>
-332.142608642578

> <r_mmod_Solvation_Energy-OPLS-2005>
-219.376419067383

> <b_mmod_Minimization_Converged-OPLS-2005>
0

> <r_mmod_RMS_Derivative-OPLS-2005>
4.44172286987305

$$$$
94
                    3D
 Structure written by MMmdl.
156165  0  0  1  0            999 V2000
  -30.6173  -14.7570   20.5696 C   0  0  0  0  0  0
  -30.4415  -12.4886   19.4767 C   0  0  0  0  0  0
  -29.5166  -12.5407   18.2381 C   0  0  0  0  0  0
  -28.0415  -12.3462   18.6391 C   0  0  0  0  0  0
  -27.6454  -13.2262   19.8509 C   0  0  2  0  0  0
  -28.6788  -13.1039   20.9838 C   0  0  0  0  0  0
  -25.2529  -13.8183   20.5659 C   0  0  0  0  0  0
  -24.1809  -13.0435   20.9165 C   0  0  0  0  0  0
  -24.6393  -11.6908   20.8710 C   0  0  0  0  0  0
  -23.9065  -10.4292   21.0395 C   0  0  0  0  0  0
  -24.3615   -9.4212   21.9180 C   0  0  0  0  0  0
  -23.6287   -8.2248   22.0756 C   0  0  0  0  0  0
  -22.4271   -8.0282   21.3542 C   0  0  0  0  0  0
  -21.9901   -9.0258   20.4650 C   0  0  0  0  0  0
  -22.7230  -10.2136   20.3054 C   0  0  0  0  0  0
  -21.6854   -6.0734   22.5276 C   0  0  0  0  0  0
  -21.4017   -6.5642   23.8207 C   0  0  0  0  0  0
  -21.3661   -5.6796   24.9170 C   0  0  0  0  0  0
  -21.6043   -4.3058   24.7224 C   0  0  0  0  0  0
  -21.8818   -3.8146   23.4348 C   0  0  0  0  0  0
  -21.9191   -4.6960   22.3402 C   0  0  0  0  0  0
  -22.7839  -13.5228   21.1854 C   0  0  0  0  0  0
  -22.1658   -4.2145   21.0981 F   0  0  0  0  0  0
  -21.5627   -3.4542   25.7739 F   0  0  0  0  0  0
  -29.9902  -13.5206   20.4488 N   0  0  0  0  0  0
  -26.2942  -12.9375   20.3217 N   0  0  0  0  0  0
  -25.9315  -11.6521   20.5684 N   0  0  0  0  0  0
  -22.0492  -12.8225   22.0424 N   0  0  0  0  0  0
  -25.4246  -15.1908   20.4145 N   0  0  0  0  0  0
  -31.7202  -14.9176   20.0347 O   0  0  0  0  0  0
  -21.6638   -6.8875   21.4237 O   0  0  0  0  0  0
  -22.3519  -14.5532   20.6703 O   0  0  0  0  0  0
  -24.6330  -31.8532   23.1965 C   0  0  0  0  0  0
  -25.9145  -32.4744   23.8321 C   0  0  1  0  0  0
  -27.2247  -27.2505   20.1351 C   0  0  0  0  0  0
  -25.5931  -33.8547   24.2239 N   0  0  0  0  0  0
  -23.4320  -30.4741   21.5399 C   0  0  2  0  0  0
  -24.8828  -28.9164   20.1134 C   0  0  0  0  0  0
  -22.7516  -29.4590   22.4902 C   0  0  0  0  0  0
  -18.0296  -28.1389   22.8482 C   0  0  0  0  0  0
  -24.1489  -36.7281   23.2640 C   0  0  0  0  0  0
  -25.9794  -30.7621   21.3796 C   0  0  0  0  0  0
  -26.0554  -29.3822   20.7243 C   0  0  0  0  0  0
  -27.2329  -28.5619   20.7243 C   0  0  0  0  0  0
  -26.0313  -26.8526   19.4994 C   0  0  0  0  0  0
  -24.8758  -27.6588   19.4895 C   0  0  0  0  0  0
  -23.6536  -29.8054   20.1576 C   0  0  0  0  0  0
  -25.4115  -36.3061   24.0324 C   0  0  1  0  0  0
  -20.5902  -28.3703   23.1260 C   0  0  2  0  0  0
  -20.6783  -26.9416   22.5407 C   0  0  0  0  0  0
  -19.5758  -26.6382   21.5213 C   0  0  0  0  0  0
  -18.1939  -26.7931   22.1625 C   0  0  0  0  0  0
  -19.1550  -28.8863   23.2868 C   0  0  0  0  0  0
  -18.9470  -30.1464   23.8885 C   0  0  0  0  0  0
  -17.6469  -30.6589   24.0562 C   0  0  0  0  0  0
  -25.9057  -34.9433   23.5086 C   0  0  0  0  0  0
  -16.5360  -29.9085   23.6331 C   0  0  0  0  0  0
  -16.7284  -28.6504   23.0351 C   0  0  0  0  0  0
  -26.4505  -31.6580   25.0721 C   0  0  0  0  0  0
  -25.3718  -31.3745   26.1436 C   0  0  0  0  0  0
  -27.0359  -30.2991   24.6231 C   0  0  0  0  0  0
  -27.6048  -32.4332   25.7499 C   0  0  0  0  0  0
  -27.5577  -37.1796   24.8462 C   0  0  0  0  0  0
  -21.4221  -29.3044   22.3645 N   0  0  0  0  0  0
  -26.4286  -37.3764   23.9410 N   0  0  0  0  0  0
  -24.7004  -31.0483   22.0948 N   0  0  0  0  0  0
  -23.4201  -28.8132   23.3014 O   0  0  0  0  0  0
  -28.2853  -26.3125   20.1449 O   0  0  0  0  0  0
  -26.5636  -34.8914   22.4658 O   0  0  0  0  0  0
  -23.5474  -32.1360   23.7247 O   0  0  0  0  0  0
  -29.0361  -19.2544   19.6486 C   0  0  0  0  0  0
  -29.3135  -17.8390   19.7884 C   0  0  0  0  0  0
  -30.2598  -18.2866   21.9064 C   0  0  0  0  0  0
  -29.2809  -20.2616   20.6461 C   0  0  0  0  0  0
  -29.9019  -17.2738   20.9602 C   0  0  0  0  0  0
  -29.9524  -19.6834   21.7717 C   0  0  0  0  0  0
  -28.4750  -23.7470   20.6342 C   0  0  0  0  0  0
  -28.2111  -22.6001   21.5011 C   0  0  0  0  0  0
  -28.8842  -16.0617   23.4590 C   0  0  0  0  0  0
  -28.0707  -25.0748   20.8255 C   0  0  0  0  0  0
  -29.7930  -15.4807   22.6526 C   0  0  0  0  0  0
  -29.2735  -22.7878   19.6971 C   0  0  0  0  0  0
  -28.8134  -21.6894   20.6041 N   0  0  0  0  0  0
  -30.3101  -20.5194   22.8308 N   0  0  0  0  0  0
  -30.0172  -15.7997   21.2947 N   0  0  0  0  0  0
  -27.7254  -22.5443   22.6118 O   0  0  0  0  0  0
  -31.4795  -12.6326   19.1723 H   0  0  0  0  0  0
  -30.4106  -11.4988   19.9355 H   0  0  0  0  0  0
  -29.8099  -11.7786   17.5150 H   0  0  0  0  0  0
  -29.6347  -13.5019   17.7351 H   0  0  0  0  0  0
  -27.8997  -11.2930   18.8861 H   0  0  0  0  0  0
  -27.3870  -12.5502   17.7909 H   0  0  0  0  0  0
  -27.6572  -14.2604   19.5048 H   0  0  0  0  0  0
  -28.7274  -12.0762   21.3473 H   0  0  0  0  0  0
  -28.3365  -13.6855   21.8333 H   0  0  0  0  0  0
  -25.2761   -9.5689   22.4754 H   0  0  0  0  0  0
  -23.9990   -7.4647   22.7485 H   0  0  0  0  0  0
  -21.0824   -8.8783   19.8969 H   0  0  0  0  0  0
  -22.3682  -10.9677   19.6166 H   0  0  0  0  0  0
  -21.2013   -7.6150   23.9710 H   0  0  0  0  0  0
  -21.1484   -6.0527   25.9071 H   0  0  0  0  0  0
  -22.0594   -2.7606   23.2854 H   0  0  0  0  0  0
  -22.4102  -11.9879   22.4803 H   0  0  0  0  0  0
  -21.1122  -13.1270   22.2655 H   0  0  0  0  0  0
  -24.6657  -15.8504   20.5462 H   0  0  0  0  0  0
  -26.2932  -15.6343   20.1436 H   0  0  0  0  0  0
  -26.7214  -32.5394   23.1066 H   0  0  0  0  0  0
  -25.0062  -33.9678   25.0374 H   0  0  0  0  0  0
  -22.7296  -31.2969   21.3907 H   0  0  0  0  0  0
  -23.3748  -35.9615   23.3297 H   0  0  0  0  0  0
  -24.3577  -36.8912   22.2056 H   0  0  0  0  0  0
  -23.7249  -37.6481   23.6672 H   0  0  0  0  0  0
  -26.1205  -31.5211   20.6089 H   0  0  0  0  0  0
  -26.8549  -30.8118   22.0153 H   0  0  0  0  0  0
  -28.1315  -28.9119   21.2126 H   0  0  0  0  0  0
  -25.9866  -25.8821   19.0253 H   0  0  0  0  0  0
  -23.9790  -27.2953   19.0071 H   0  0  0  0  0  0
  -23.7814  -30.5804   19.4010 H   0  0  0  0  0  0
  -22.7714  -29.2407   19.8506 H   0  0  0  0  0  0
  -25.1301  -36.1900   25.0816 H   0  0  0  0  0  0
  -20.9999  -28.3286   24.1380 H   0  0  0  0  0  0
  -20.5677  -26.2317   23.3617 H   0  0  0  0  0  0
  -21.6652  -26.7431   22.1208 H   0  0  0  0  0  0
  -19.6918  -25.6291   21.1249 H   0  0  0  0  0  0
  -19.6695  -27.3185   20.6737 H   0  0  0  0  0  0
  -17.4208  -26.6675   21.4030 H   0  0  0  0  0  0
  -18.0339  -26.0075   22.9023 H   0  0  0  0  0  0
  -19.7946  -30.7283   24.2248 H   0  0  0  0  0  0
  -17.5022  -31.6265   24.5172 H   0  0  0  0  0  0
  -15.5360  -30.2982   23.7662 H   0  0  0  0  0  0
  -15.8687  -28.0821   22.7066 H   0  0  0  0  0  0
  -24.5889  -30.7099   25.7766 H   0  0  0  0  0  0
  -24.8916  -32.2921   26.4843 H   0  0  0  0  0  0
  -25.8024  -30.8932   27.0225 H   0  0  0  0  0  0
  -26.2953  -29.6732   24.1236 H   0  0  0  0  0  0
  -27.4007  -29.7265   25.4770 H   0  0  0  0  0  0
  -27.8844  -30.4258   23.9504 H   0  0  0  0  0  0
  -27.2640  -33.3634   26.2060 H   0  0  0  0  0  0
  -28.3864  -32.6893   25.0334 H   0  0  0  0  0  0
  -28.0707  -31.8472   26.5432 H   0  0  0  0  0  0
  -28.2591  -38.0096   24.7506 H   0  0  0  0  0  0
  -28.1077  -36.2628   24.6286 H   0  0  0  0  0  0
  -27.2297  -37.1438   25.8865 H   0  0  0  0  0  0
  -20.9411  -29.8764   21.6844 H   0  0  0  0  0  0
  -26.0161  -38.2835   24.1410 H   0  0  0  0  0  0
  -28.5364  -19.5675   18.7432 H   0  0  0  0  0  0
  -29.0025  -17.1779   18.9918 H   0  0  0  0  0  0
  -30.7456  -17.9722   22.8189 H   0  0  0  0  0  0
  -28.7898  -15.7549   24.4909 H   0  0  0  0  0  0
  -28.2195  -16.8405   23.1133 H   0  0  0  0  0  0
  -27.4752  -25.2720   21.7072 H   0  0  0  0  0  0
  -30.4355  -14.6963   23.0359 H   0  0  0  0  0  0
  -30.3608  -22.8818   19.6995 H   0  0  0  0  0  0
  -28.9073  -22.6506   18.6784 H   0  0  0  0  0  0
  -30.4932  -20.0824   23.7277 H   0  0  0  0  0  0
  -29.7661  -21.3701   22.9283 H   0  0  0  0  0  0
  1 25  1  0  0  0
  1 30  2  0  0  0
  1 85  1  0  0  0
  2  3  1  0  0  0
  2 25  1  0  0  0
  2 87  1  0  0  0
  2 88  1  0  0  0
  3  4  1  0  0  0
  3 89  1  0  0  0
  3 90  1  0  0  0
  4  5  1  0  0  0
  4 91  1  0  0  0
  4 92  1  0  0  0
  5  6  1  0  0  0
  5 26  1  0  0  0
  5 93  1  0  0  0
  6 25  1  0  0  0
  6 94  1  0  0  0
  6 95  1  0  0  0
  7  8  2  0  0  0
  7 26  1  0  0  0
  7 29  1  0  0  0
  8  9  1  0  0  0
  8 22  1  0  0  0
  9 10  1  0  0  0
  9 27  2  0  0  0
 10 11  2  0  0  0
 10 15  1  0  0  0
 11 12  1  0  0  0
 11 96  1  0  0  0
 12 13  2  0  0  0
 12 97  1  0  0  0
 13 14  1  0  0  0
 13 31  1  0  0  0
 14 15  2  0  0  0
 14 98  1  0  0  0
 15 99  1  0  0  0
 16 17  2  0  0  0
 16 21  1  0  0  0
 16 31  1  0  0  0
 17 18  1  0  0  0
 17100  1  0  0  0
 18 19  2  0  0  0
 18101  1  0  0  0
 19 20  1  0  0  0
 19 24  1  0  0  0
 20 21  2  0  0  0
 20102  1  0  0  0
 21 23  1  0  0  0
 22 28  1  0  0  0
 22 32  2  0  0  0
 26 27  1  0  0  0
 28103  1  0  0  0
 28104  1  0  0  0
 29105  1  0  0  0
 29106  1  0  0  0
 33 34  1  0  0  0
 33 66  1  0  0  0
 33 70  2  0  0  0
 34 36  1  0  0  0
 34 59  1  0  0  0
 34107  1  0  0  0
 35 44  2  0  0  0
 35 45  1  0  0  0
 35 68  1  0  0  0
 36 56  1  0  0  0
 36108  1  0  0  0
 37 39  1  0  0  0
 37 47  1  0  0  0
 37 66  1  0  0  0
 37109  1  0  0  0
 38 43  2  0  0  0
 38 46  1  0  0  0
 38 47  1  0  0  0
 39 64  1  0  0  0
 39 67  2  0  0  0
 40 52  1  0  0  0
 40 53  2  0  0  0
 40 58  1  0  0  0
 41110  1  0  0  0
 41111  1  0  0  0
 41112  1  0  0  0
 41 48  1  0  0  0
 42 43  1  0  0  0
 42 66  1  0  0  0
 42113  1  0  0  0
 42114  1  0  0  0
 43 44  1  0  0  0
 44115  1  0  0  0
 45 46  2  0  0  0
 45116  1  0  0  0
 46117  1  0  0  0
 47118  1  0  0  0
 47119  1  0  0  0
 48 56  1  0  0  0
 48 65  1  0  0  0
 48120  1  0  0  0
 49 50  1  0  0  0
 49 53  1  0  0  0
 49 64  1  0  0  0
 49121  1  0  0  0
 50 51  1  0  0  0
 50122  1  0  0  0
 50123  1  0  0  0
 51 52  1  0  0  0
 51124  1  0  0  0
 51125  1  0  0  0
 52126  1  0  0  0
 52127  1  0  0  0
 53 54  1  0  0  0
 54 55  2  0  0  0
 54128  1  0  0  0
 55 57  1  0  0  0
 55129  1  0  0  0
 56 69  2  0  0  0
 57 58  2  0  0  0
 57130  1  0  0  0
 58131  1  0  0  0
 59 60  1  0  0  0
 59 61  1  0  0  0
 59 62  1  0  0  0
 60132  1  0  0  0
 60133  1  0  0  0
 60134  1  0  0  0
 61135  1  0  0  0
 61136  1  0  0  0
 61137  1  0  0  0
 62138  1  0  0  0
 62139  1  0  0  0
 62140  1  0  0  0
 63 65  1  0  0  0
 63141  1  0  0  0
 63142  1  0  0  0
 63143  1  0  0  0
 64144  1  0  0  0
 65145  1  0  0  0
 68 80  1  0  0  0
 71 72  2  0  0  0
 71 74  1  0  0  0
 71146  1  0  0  0
 72 75  1  0  0  0
 72147  1  0  0  0
 73 75  2  0  0  0
 73 76  1  0  0  0
 73148  1  0  0  0
 74 76  2  0  0  0
 74 83  1  0  0  0
 75 85  1  0  0  0
 76 84  1  0  0  0
 77 78  1  0  0  0
 77 80  2  0  0  0
 77 82  1  0  0  0
 78 83  1  0  0  0
 78 86  2  0  0  0
 79 81  2  0  0  0
 79149  1  0  0  0
 79150  1  0  0  0
 80151  1  0  0  0
 81 85  1  0  0  0
 81152  1  0  0  0
 82 83  1  0  0  0
 82153  1  0  0  0
 82154  1  0  0  0
 84155  1  0  0  0
 84156  1  0  0  0
M  ISO  4   1 100  68 101  80 101  85 100
M  END
> <chiral flag>
0

> <version>
0

> <s_m_source_file>
/data/baiqing/PycharmProjects/Reinvent-master-3.2/result/LINK_invent/BTK/process_docking_weight1_custom_product_contain_oxygen_bond_distance_aromatic_linkinvent_7_9_3/rearranged_h_0086.sdf

> <i_m_source_file_index>
95

> <r_mmod_Potential_Energy-OPLS-2005>
418.805450439453

> <r_mmod_Stretch_Energy-OPLS-2005>
133.209167480469

> <r_mmod_Bend_Energy-OPLS-2005>
265.978759765625

> <r_mmod_Torsional_Energy-OPLS-2005>
345.507446289062

> <r_mmod_Improper_Torsional_Energy-OPLS-2005>
8.7985258102417

> <r_mmod_Van_der_Waal_Energy-OPLS-2005>
151.030563354492

> <r_mmod_Electrostatic_Energy-OPLS-2005>
-363.801300048828

> <r_mmod_Solvation_Energy-OPLS-2005>
-212.424423217773

> <b_mmod_Minimization_Converged-OPLS-2005>
0

> <r_mmod_RMS_Derivative-OPLS-2005>
0.692899405956268

$$$$
