0
                    3D
 Structure written by MMmdl.
148156  0  0  1  0            999 V2000
  -30.5180  -14.9163   20.4264 C   0  0  0  0  0  0
  -30.4549  -12.5644   19.4862 C   0  0  0  0  0  0
  -29.5228  -12.5297   18.2506 C   0  0  0  0  0  0
  -28.0527  -12.3240   18.6688 C   0  0  0  0  0  0
  -27.6376  -13.2401   19.8501 C   0  0  2  0  0  0
  -28.6875  -13.2194   20.9834 C   0  0  0  0  0  0
  -25.2444  -13.8145   20.5680 C   0  0  0  0  0  0
  -24.1762  -13.0380   20.9192 C   0  0  0  0  0  0
  -24.6398  -11.6877   20.8749 C   0  0  0  0  0  0
  -23.9083  -10.4258   21.0408 C   0  0  0  0  0  0
  -24.3624   -9.4179   21.9192 C   0  0  0  0  0  0
  -23.6285   -8.2224   22.0761 C   0  0  0  0  0  0
  -22.4270   -8.0270   21.3546 C   0  0  0  0  0  0
  -21.9910   -9.0248   20.4651 C   0  0  0  0  0  0
  -22.7250  -10.2119   20.3059 C   0  0  0  0  0  0
  -21.6847   -6.0730   22.5279 C   0  0  0  0  0  0
  -21.4009   -6.5636   23.8211 C   0  0  0  0  0  0
  -21.3657   -5.6790   24.9174 C   0  0  0  0  0  0
  -21.6044   -4.3051   24.7223 C   0  0  0  0  0  0
  -21.8819   -3.8144   23.4342 C   0  0  0  0  0  0
  -21.9192   -4.6961   22.3399 C   0  0  0  0  0  0
  -22.7787  -13.5170   21.1859 C   0  0  0  0  0  0
  -22.1659   -4.2145   21.0975 F   0  0  0  0  0  0
  -21.5631   -3.4534   25.7737 F   0  0  0  0  0  0
  -29.9701  -13.6370   20.3958 N   0  0  0  0  0  0
  -26.2926  -12.9403   20.3314 N   0  0  0  0  0  0
  -25.9346  -11.6535   20.5782 N   0  0  0  0  0  0
  -22.0445  -12.8176   22.0438 N   0  0  0  0  0  0
  -25.3966  -15.1857   20.4089 N   0  0  0  0  0  0
  -31.7082  -15.0524   20.1224 O   0  0  0  0  0  0
  -21.6630   -6.8872   21.4240 O   0  0  0  0  0  0
  -22.3472  -14.5485   20.6722 O   0  0  0  0  0  0
  -24.6436  -31.8436   23.1914 C   0  0  0  0  0  0
  -25.9214  -32.4690   23.8291 C   0  0  1  0  0  0
  -27.2211  -27.1507   20.1421 C   0  0  0  0  0  0
  -25.5964  -33.8498   24.2205 N   0  0  0  0  0  0
  -23.4469  -30.4663   21.5347 C   0  0  2  0  0  0
  -24.8956  -28.8961   20.1108 C   0  0  0  0  0  0
  -22.7572  -29.4547   22.4846 C   0  0  0  0  0  0
  -18.0304  -28.1392   22.8468 C   0  0  0  0  0  0
  -24.1484  -36.7235   23.2648 C   0  0  0  0  0  0
  -26.0042  -30.7209   21.3908 C   0  0  0  0  0  0
  -26.0738  -29.3359   20.7273 C   0  0  0  0  0  0
  -27.2375  -28.4804   20.7248 C   0  0  0  0  0  0
  -26.0126  -26.8085   19.4931 C   0  0  0  0  0  0
  -24.8769  -27.6445   19.4793 C   0  0  0  0  0  0
  -23.6743  -29.7999   20.1527 C   0  0  0  0  0  0
  -25.4115  -36.3020   24.0327 C   0  0  1  0  0  0
  -20.5918  -28.3715   23.1220 C   0  0  2  0  0  0
  -20.6786  -26.9417   22.5389 C   0  0  0  0  0  0
  -19.5764  -26.6368   21.5199 C   0  0  0  0  0  0
  -18.1943  -26.7929   22.1612 C   0  0  0  0  0  0
  -19.1561  -28.8872   23.2835 C   0  0  0  0  0  0
  -18.9487  -30.1472   23.8857 C   0  0  0  0  0  0
  -17.6485  -30.6586   24.0562 C   0  0  0  0  0  0
  -25.9070  -34.9402   23.5063 C   0  0  0  0  0  0
  -16.5374  -29.9080   23.6346 C   0  0  0  0  0  0
  -16.7290  -28.6504   23.0351 C   0  0  0  0  0  0
  -26.4544  -31.6571   25.0737 C   0  0  0  0  0  0
  -25.3737  -31.3756   26.1436 C   0  0  0  0  0  0
  -27.0432  -30.2971   24.6331 C   0  0  0  0  0  0
  -27.6070  -32.4353   25.7514 C   0  0  0  0  0  0
  -27.5564  -37.1771   24.8472 C   0  0  0  0  0  0
  -21.4262  -29.3046   22.3596 N   0  0  0  0  0  0
  -26.4272  -37.3738   23.9421 N   0  0  0  0  0  0
  -24.7178  -31.0314   22.0937 N   0  0  0  0  0  0
  -23.4215  -28.8081   23.2986 O   0  0  0  0  0  0
  -28.2796  -26.1744   20.2072 O   0  0  0  0  0  0
  -26.5646  -34.8901   22.4636 O   0  0  0  0  0  0
  -23.5553  -32.1300   23.7137 O   0  0  0  0  0  0
  -30.5195  -18.5584   20.2859 C   0  0  0  0  0  0
  -30.2065  -19.9937   20.2173 C   0  0  0  0  0  0
  -29.5366  -17.5244   20.5114 C   0  0  0  0  0  0
  -28.8787  -20.5452   20.3529 C   0  0  0  0  0  0
  -28.2358  -18.0942   20.6595 C   0  0  0  0  0  0
  -27.9258  -19.5011   20.5739 C   0  0  0  0  0  0
  -27.9843  -24.6559   20.0558 C   0  0  0  0  0  0
  -28.9709  -23.3104   20.2951 C   0  0  0  0  0  0
  -29.6360  -15.9991   20.6330 N   0  0  0  0  0  0
  -28.3538  -21.9109   20.2580 O   0  0  0  0  0  0
  -27.2134  -17.2410   20.8952 F   0  0  0  0  0  0
  -26.6264  -19.8623   20.7144 F   0  0  0  0  0  0
  -31.4848  -12.7387   19.1709 H   0  0  0  0  0  0
  -30.4577  -11.6005   19.9971 H   0  0  0  0  0  0
  -29.8305  -11.7370   17.5671 H   0  0  0  0  0  0
  -29.6162  -13.4644   17.6958 H   0  0  0  0  0  0
  -27.9372  -11.2787   18.9574 H   0  0  0  0  0  0
  -27.3892  -12.4782   17.8171 H   0  0  0  0  0  0
  -27.6100  -14.2520   19.4458 H   0  0  0  0  0  0
  -28.7665  -12.2239   21.4222 H   0  0  0  0  0  0
  -28.3946  -13.8859   21.7963 H   0  0  0  0  0  0
  -25.2770   -9.5652   22.4769 H   0  0  0  0  0  0
  -23.9986   -7.4617   22.7483 H   0  0  0  0  0  0
  -21.0839   -8.8776   19.8956 H   0  0  0  0  0  0
  -22.3716  -10.9665   19.6167 H   0  0  0  0  0  0
  -21.1997   -7.6145   23.9713 H   0  0  0  0  0  0
  -21.1479   -6.0519   25.9078 H   0  0  0  0  0  0
  -22.0601   -2.7605   23.2844 H   0  0  0  0  0  0
  -22.4058  -11.9832   22.4817 H   0  0  0  0  0  0
  -21.1079  -13.1231   22.2677 H   0  0  0  0  0  0
  -24.6200  -15.8213   20.5481 H   0  0  0  0  0  0
  -26.2546  -15.6692   20.1760 H   0  0  0  0  0  0
  -26.7275  -32.5293   23.1014 H   0  0  0  0  0  0
  -25.0139  -33.9611   25.0370 H   0  0  0  0  0  0
  -22.7499  -31.2930   21.3815 H   0  0  0  0  0  0
  -23.3761  -35.9554   23.3299 H   0  0  0  0  0  0
  -24.3569  -36.8860   22.2061 H   0  0  0  0  0  0
  -23.7224  -37.6423   23.6690 H   0  0  0  0  0  0
  -26.1665  -31.4797   20.6237 H   0  0  0  0  0  0
  -26.8725  -30.7612   22.0374 H   0  0  0  0  0  0
  -28.1353  -28.8135   21.2256 H   0  0  0  0  0  0
  -25.9047  -25.8533   19.0029 H   0  0  0  0  0  0
  -23.9770  -27.3009   18.9880 H   0  0  0  0  0  0
  -23.8179  -30.5778   19.4017 H   0  0  0  0  0  0
  -22.7889  -29.2463   19.8357 H   0  0  0  0  0  0
  -25.1301  -36.1841   25.0820 H   0  0  0  0  0  0
  -21.0011  -28.3296   24.1338 H   0  0  0  0  0  0
  -20.5659  -26.2333   23.3605 H   0  0  0  0  0  0
  -21.6652  -26.7398   22.1200 H   0  0  0  0  0  0
  -19.6929  -25.6270   21.1246 H   0  0  0  0  0  0
  -19.6710  -27.3162   20.6719 H   0  0  0  0  0  0
  -17.4209  -26.6661   21.4020 H   0  0  0  0  0  0
  -18.0354  -26.0079   22.9013 H   0  0  0  0  0  0
  -19.7970  -30.7298   24.2192 H   0  0  0  0  0  0
  -17.5048  -31.6266   24.5166 H   0  0  0  0  0  0
  -15.5378  -30.2975   23.7708 H   0  0  0  0  0  0
  -15.8683  -28.0826   22.7079 H   0  0  0  0  0  0
  -24.5913  -30.7103   25.7760 H   0  0  0  0  0  0
  -24.8942  -32.2943   26.4832 H   0  0  0  0  0  0
  -25.8024  -30.8945   27.0236 H   0  0  0  0  0  0
  -26.3067  -29.6668   24.1331 H   0  0  0  0  0  0
  -27.4044  -29.7288   25.4916 H   0  0  0  0  0  0
  -27.8971  -30.4218   23.9666 H   0  0  0  0  0  0
  -27.2661  -33.3683   26.2013 H   0  0  0  0  0  0
  -28.3918  -32.6854   25.0366 H   0  0  0  0  0  0
  -28.0703  -31.8534   26.5487 H   0  0  0  0  0  0
  -28.2574  -38.0073   24.7515 H   0  0  0  0  0  0
  -28.1058  -36.2599   24.6302 H   0  0  0  0  0  0
  -27.2282  -37.1415   25.8875 H   0  0  0  0  0  0
  -20.9470  -29.8778   21.6791 H   0  0  0  0  0  0
  -26.0130  -38.2795   24.1447 H   0  0  0  0  0  0
  -31.5507  -18.2599   20.1616 H   0  0  0  0  0  0
  -31.0204  -20.6806   20.0326 H   0  0  0  0  0  0
  -27.1176  -24.4813   20.6939 H   0  0  0  0  0  0
  -27.6158  -24.5342   19.0376 H   0  0  0  0  0  0
  -29.4462  -23.4120   21.2708 H   0  0  0  0  0  0
  -29.7820  -23.3373   19.5669 H   0  0  0  0  0  0
  -28.7301  -15.6175   20.8606 H   0  0  0  0  0  0
  1 25  1  0  0  0
  1 30  2  0  0  0
  1 79  1  0  0  0
  2  3  1  0  0  0
  2 25  1  0  0  0
  2 83  1  0  0  0
  2 84  1  0  0  0
  3  4  1  0  0  0
  3 85  1  0  0  0
  3 86  1  0  0  0
  4  5  1  0  0  0
  4 87  1  0  0  0
  4 88  1  0  0  0
  5  6  1  0  0  0
  5 26  1  0  0  0
  5 89  1  0  0  0
  6 25  1  0  0  0
  6 90  1  0  0  0
  6 91  1  0  0  0
  7  8  2  0  0  0
  7 26  1  0  0  0
  7 29  1  0  0  0
  8  9  1  0  0  0
  8 22  1  0  0  0
  9 10  1  0  0  0
  9 27  2  0  0  0
 10 11  2  0  0  0
 10 15  1  0  0  0
 11 12  1  0  0  0
 11 92  1  0  0  0
 12 13  2  0  0  0
 12 93  1  0  0  0
 13 14  1  0  0  0
 13 31  1  0  0  0
 14 15  2  0  0  0
 14 94  1  0  0  0
 15 95  1  0  0  0
 16 17  2  0  0  0
 16 21  1  0  0  0
 16 31  1  0  0  0
 17 18  1  0  0  0
 17 96  1  0  0  0
 18 19  2  0  0  0
 18 97  1  0  0  0
 19 20  1  0  0  0
 19 24  1  0  0  0
 20 21  2  0  0  0
 20 98  1  0  0  0
 21 23  1  0  0  0
 22 28  1  0  0  0
 22 32  2  0  0  0
 26 27  1  0  0  0
 28 99  1  0  0  0
 28100  1  0  0  0
 29101  1  0  0  0
 29102  1  0  0  0
 33 34  1  0  0  0
 33 66  1  0  0  0
 33 70  2  0  0  0
 34 36  1  0  0  0
 34 59  1  0  0  0
 34103  1  0  0  0
 35 44  2  0  0  0
 35 45  1  0  0  0
 35 68  1  0  0  0
 36 56  1  0  0  0
 36104  1  0  0  0
 37 39  1  0  0  0
 37 47  1  0  0  0
 37 66  1  0  0  0
 37105  1  0  0  0
 38 43  2  0  0  0
 38 46  1  0  0  0
 38 47  1  0  0  0
 39 64  1  0  0  0
 39 67  2  0  0  0
 40 52  1  0  0  0
 40 53  2  0  0  0
 40 58  1  0  0  0
 41106  1  0  0  0
 41107  1  0  0  0
 41108  1  0  0  0
 41 48  1  0  0  0
 42 43  1  0  0  0
 42 66  1  0  0  0
 42109  1  0  0  0
 42110  1  0  0  0
 43 44  1  0  0  0
 44111  1  0  0  0
 45 46  2  0  0  0
 45112  1  0  0  0
 46113  1  0  0  0
 47114  1  0  0  0
 47115  1  0  0  0
 48 56  1  0  0  0
 48 65  1  0  0  0
 48116  1  0  0  0
 49 50  1  0  0  0
 49 53  1  0  0  0
 49 64  1  0  0  0
 49117  1  0  0  0
 50 51  1  0  0  0
 50118  1  0  0  0
 50119  1  0  0  0
 51 52  1  0  0  0
 51120  1  0  0  0
 51121  1  0  0  0
 52122  1  0  0  0
 52123  1  0  0  0
 53 54  1  0  0  0
 54 55  2  0  0  0
 54124  1  0  0  0
 55 57  1  0  0  0
 55125  1  0  0  0
 56 69  2  0  0  0
 57 58  2  0  0  0
 57126  1  0  0  0
 58127  1  0  0  0
 59 60  1  0  0  0
 59 61  1  0  0  0
 59 62  1  0  0  0
 60128  1  0  0  0
 60129  1  0  0  0
 60130  1  0  0  0
 61131  1  0  0  0
 61132  1  0  0  0
 61133  1  0  0  0
 62134  1  0  0  0
 62135  1  0  0  0
 62136  1  0  0  0
 63 65  1  0  0  0
 63137  1  0  0  0
 63138  1  0  0  0
 63139  1  0  0  0
 64140  1  0  0  0
 65141  1  0  0  0
 68 77  1  0  0  0
 71 72  2  0  0  0
 71 73  1  0  0  0
 71142  1  0  0  0
 72 74  1  0  0  0
 72143  1  0  0  0
 73 75  2  0  0  0
 73 79  1  0  0  0
 74 76  2  0  0  0
 74 80  1  0  0  0
 75 76  1  0  0  0
 75 81  1  0  0  0
 76 82  1  0  0  0
 77 78  1  0  0  0
 77144  1  0  0  0
 77145  1  0  0  0
 78 80  1  0  0  0
 78146  1  0  0  0
 78147  1  0  0  0
 79148  1  0  0  0
M  ISO  4   1 100  68 101  77 101  79 100
M  END
> <chiral flag>
0

> <version>
0

> <s_m_source_file>
/data/baiqing/PycharmProjects/Reinvent-master-3.2/result/LINK_invent/BTK/process_docking_weight1_custom_product_contain_oxygen_bond_distance_aromatic_linkinvent_7_9_3/rearranged_h_0009.sdf

> <i_m_source_file_index>
1

> <r_mmod_Potential_Energy-OPLS-2005>
484.214324951172

> <r_mmod_Stretch_Energy-OPLS-2005>
215.82551574707

> <r_mmod_Bend_Energy-OPLS-2005>
304.97802734375

> <r_mmod_Torsional_Energy-OPLS-2005>
210.716842651367

> <r_mmod_Improper_Torsional_Energy-OPLS-2005>
3.92577123641968

> <r_mmod_Van_der_Waal_Energy-OPLS-2005>
133.032150268555

> <r_mmod_Electrostatic_Energy-OPLS-2005>
-357.032440185547

> <r_mmod_Solvation_Energy-OPLS-2005>
-202.940658569336

> <b_mmod_Minimization_Converged-OPLS-2005>
0

> <r_mmod_RMS_Derivative-OPLS-2005>
1.12868571281433

$$$$
1
                    3D
 Structure written by MMmdl.
155163  0  0  1  0            999 V2000
  -30.6504  -14.6631   20.4873 C   0  0  0  0  0  0
  -30.4236  -12.4089   19.4561 C   0  0  0  0  0  0
  -29.5019  -12.4960   18.2221 C   0  0  0  0  0  0
  -28.0260  -12.3359   18.6371 C   0  0  0  0  0  0
  -27.6428  -13.2268   19.8496 C   0  0  2  0  0  0
  -28.6874  -13.1336   20.9817 C   0  0  0  0  0  0
  -25.2516  -13.8198   20.5685 C   0  0  0  0  0  0
  -24.1807  -13.0447   20.9208 C   0  0  0  0  0  0
  -24.6392  -11.6922   20.8749 C   0  0  0  0  0  0
  -23.9068  -10.4294   21.0408 C   0  0  0  0  0  0
  -24.3620   -9.4209   21.9184 C   0  0  0  0  0  0
  -23.6296   -8.2244   22.0752 C   0  0  0  0  0  0
  -22.4277   -8.0282   21.3544 C   0  0  0  0  0  0
  -21.9916   -9.0255   20.4644 C   0  0  0  0  0  0
  -22.7243  -10.2135   20.3055 C   0  0  0  0  0  0
  -21.6855   -6.0737   22.5278 C   0  0  0  0  0  0
  -21.4014   -6.5640   23.8210 C   0  0  0  0  0  0
  -21.3660   -5.6792   24.9174 C   0  0  0  0  0  0
  -21.6046   -4.3055   24.7224 C   0  0  0  0  0  0
  -21.8818   -3.8147   23.4344 C   0  0  0  0  0  0
  -21.9193   -4.6966   22.3400 C   0  0  0  0  0  0
  -22.7827  -13.5227   21.1872 C   0  0  0  0  0  0
  -22.1662   -4.2149   21.0979 F   0  0  0  0  0  0
  -21.5632   -3.4537   25.7737 F   0  0  0  0  0  0
  -29.9929  -13.4631   20.3981 N   0  0  0  0  0  0
  -26.2937  -12.9395   20.3271 N   0  0  0  0  0  0
  -25.9317  -11.6542   20.5748 N   0  0  0  0  0  0
  -22.0475  -12.8206   22.0423 N   0  0  0  0  0  0
  -25.4206  -15.1919   20.4077 N   0  0  0  0  0  0
  -31.8383  -14.7474   20.1676 O   0  0  0  0  0  0
  -21.6641   -6.8880   21.4239 O   0  0  0  0  0  0
  -22.3509  -14.5533   20.6724 O   0  0  0  0  0  0
  -24.6259  -31.8585   23.2001 C   0  0  0  0  0  0
  -25.9100  -32.4772   23.8341 C   0  0  1  0  0  0
  -27.2251  -27.3157   20.1281 C   0  0  0  0  0  0
  -25.5920  -33.8574   24.2272 N   0  0  0  0  0  0
  -23.4204  -30.4793   21.5424 C   0  0  2  0  0  0
  -24.8670  -28.9234   20.1186 C   0  0  0  0  0  0
  -22.7469  -29.4616   22.4935 C   0  0  0  0  0  0
  -18.0286  -28.1398   22.8490 C   0  0  0  0  0  0
  -24.1484  -36.7288   23.2640 C   0  0  0  0  0  0
  -25.9593  -30.7895   21.3673 C   0  0  0  0  0  0
  -26.0356  -29.4123   20.7179 C   0  0  0  0  0  0
  -27.2217  -28.6210   20.7083 C   0  0  0  0  0  0
  -26.0367  -26.8669   19.5195 C   0  0  0  0  0  0
  -24.8686  -27.6560   19.5106 C   0  0  0  0  0  0
  -23.6365  -29.8072   20.1607 C   0  0  0  0  0  0
  -25.4110  -36.3078   24.0328 C   0  0  1  0  0  0
  -20.5889  -28.3694   23.1295 C   0  0  2  0  0  0
  -20.6774  -26.9420   22.5413 C   0  0  0  0  0  0
  -19.5746  -26.6398   21.5216 C   0  0  0  0  0  0
  -18.1927  -26.7942   22.1630 C   0  0  0  0  0  0
  -19.1539  -28.8862   23.2891 C   0  0  0  0  0  0
  -18.9463  -30.1468   23.8898 C   0  0  0  0  0  0
  -17.6461  -30.6598   24.0574 C   0  0  0  0  0  0
  -25.9047  -34.9448   23.5104 C   0  0  0  0  0  0
  -16.5355  -29.9097   23.6340 C   0  0  0  0  0  0
  -16.7274  -28.6522   23.0350 C   0  0  0  0  0  0
  -26.4492  -31.6582   25.0707 C   0  0  0  0  0  0
  -25.3732  -31.3719   26.1438 C   0  0  0  0  0  0
  -27.0332  -30.3011   24.6138 C   0  0  0  0  0  0
  -27.6051  -32.4309   25.7479 C   0  0  0  0  0  0
  -27.5574  -37.1803   24.8468 C   0  0  0  0  0  0
  -21.4183  -29.3044   22.3679 N   0  0  0  0  0  0
  -26.4285  -37.3775   23.9410 N   0  0  0  0  0  0
  -24.6877  -31.0600   22.0941 N   0  0  0  0  0  0
  -23.4192  -28.8168   23.3024 O   0  0  0  0  0  0
  -28.3470  -26.4814   20.0997 O   0  0  0  0  0  0
  -26.5617  -34.8920   22.4669 O   0  0  0  0  0  0
  -23.5420  -32.1375   23.7328 O   0  0  0  0  0  0
  -30.7062  -19.3673   19.7907 C   0  0  0  0  0  0
  -30.4442  -20.7527   19.5951 C   0  0  0  0  0  0
  -28.5165  -20.6002   21.0083 C   0  0  0  0  0  0
  -29.9229  -18.5523   20.6473 C   0  0  0  0  0  0
  -28.7889  -19.2015   21.2298 C   0  0  0  0  0  0
  -29.3682  -21.4295   20.2231 C   0  0  0  0  0  0
  -27.8926  -18.4264   22.1789 C   0  0  0  0  0  0
  -30.5046  -17.1500   21.1048 C   0  0  0  0  0  0
  -28.0971  -23.7678   20.1554 C   0  0  0  0  0  0
  -28.3015  -25.2033   20.8439 C   0  0  0  0  0  0
  -29.2876  -22.8622   20.0802 N   0  0  0  0  0  0
  -29.9242  -15.7972   20.7725 N   0  0  0  0  0  0
  -31.4661  -12.5186   19.1532 H   0  0  0  0  0  0
  -30.3504  -11.4262   19.9252 H   0  0  0  0  0  0
  -29.7699  -11.7288   17.4943 H   0  0  0  0  0  0
  -29.6435  -13.4556   17.7224 H   0  0  0  0  0  0
  -27.8681  -11.2860   18.8864 H   0  0  0  0  0  0
  -27.3710  -12.5481   17.7910 H   0  0  0  0  0  0
  -27.6467  -14.2536   19.4838 H   0  0  0  0  0  0
  -28.7057  -12.1313   21.4125 H   0  0  0  0  0  0
  -28.4343  -13.8117   21.7985 H   0  0  0  0  0  0
  -25.2766   -9.5688   22.4758 H   0  0  0  0  0  0
  -24.0008   -7.4634   22.7469 H   0  0  0  0  0  0
  -21.0850   -8.8776   19.8944 H   0  0  0  0  0  0
  -22.3705  -10.9676   19.6162 H   0  0  0  0  0  0
  -21.2004   -7.6146   23.9715 H   0  0  0  0  0  0
  -21.1485   -6.0521   25.9077 H   0  0  0  0  0  0
  -22.0597   -2.7609   23.2843 H   0  0  0  0  0  0
  -22.4094  -11.9864   22.4803 H   0  0  0  0  0  0
  -21.1090  -13.1222   22.2628 H   0  0  0  0  0  0
  -24.6492  -15.8427   20.5074 H   0  0  0  0  0  0
  -26.2594  -15.6276   20.0467 H   0  0  0  0  0  0
  -26.7166  -32.5451   23.1093 H   0  0  0  0  0  0
  -25.0069  -33.9719   25.0419 H   0  0  0  0  0  0
  -22.7153  -31.3000   21.3960 H   0  0  0  0  0  0
  -23.3742  -35.9626   23.3308 H   0  0  0  0  0  0
  -24.3576  -36.8902   22.2055 H   0  0  0  0  0  0
  -23.7235  -37.6492   23.6656 H   0  0  0  0  0  0
  -26.0835  -31.5470   20.5927 H   0  0  0  0  0  0
  -26.8425  -30.8478   21.9911 H   0  0  0  0  0  0
  -28.1242  -28.9958   21.1712 H   0  0  0  0  0  0
  -26.0127  -25.8930   19.0517 H   0  0  0  0  0  0
  -23.9714  -27.2756   19.0412 H   0  0  0  0  0  0
  -23.7597  -30.5798   19.4010 H   0  0  0  0  0  0
  -22.7559  -29.2377   19.8586 H   0  0  0  0  0  0
  -25.1291  -36.1929   25.0820 H   0  0  0  0  0  0
  -20.9992  -28.3266   24.1412 H   0  0  0  0  0  0
  -20.5684  -26.2301   23.3609 H   0  0  0  0  0  0
  -21.6645  -26.7455   22.1203 H   0  0  0  0  0  0
  -19.6905  -25.6310   21.1242 H   0  0  0  0  0  0
  -19.6686  -27.3216   20.6751 H   0  0  0  0  0  0
  -17.4200  -26.6700   21.4026 H   0  0  0  0  0  0
  -18.0327  -26.0085   22.9031 H   0  0  0  0  0  0
  -19.7935  -30.7297   24.2257 H   0  0  0  0  0  0
  -17.5014  -31.6273   24.5185 H   0  0  0  0  0  0
  -15.5355  -30.3003   23.7657 H   0  0  0  0  0  0
  -15.8678  -28.0848   22.7047 H   0  0  0  0  0  0
  -24.5908  -30.7059   25.7777 H   0  0  0  0  0  0
  -24.8919  -32.2886   26.4857 H   0  0  0  0  0  0
  -25.8071  -30.8908   27.0214 H   0  0  0  0  0  0
  -26.2897  -29.6762   24.1170 H   0  0  0  0  0  0
  -27.4058  -29.7259   25.4628 H   0  0  0  0  0  0
  -27.8757  -30.4312   23.9336 H   0  0  0  0  0  0
  -27.2668  -33.3611   26.2056 H   0  0  0  0  0  0
  -28.3871  -32.6864   25.0316 H   0  0  0  0  0  0
  -28.0707  -31.8426   26.5397 H   0  0  0  0  0  0
  -28.2601  -38.0090   24.7509 H   0  0  0  0  0  0
  -28.1060  -36.2625   24.6303 H   0  0  0  0  0  0
  -27.2297  -37.1466   25.8872 H   0  0  0  0  0  0
  -20.9352  -29.8764   21.6892 H   0  0  0  0  0  0
  -26.0164  -38.2847   24.1411 H   0  0  0  0  0  0
  -31.5895  -18.9485   19.3290 H   0  0  0  0  0  0
  -31.1325  -21.3098   18.9755 H   0  0  0  0  0  0
  -27.6756  -21.0521   21.5153 H   0  0  0  0  0  0
  -26.9650  -18.9620   22.3821 H   0  0  0  0  0  0
  -28.3998  -18.2620   23.1299 H   0  0  0  0  0  0
  -27.6264  -17.4564   21.7586 H   0  0  0  0  0  0
  -30.5466  -17.1880   22.1941 H   0  0  0  0  0  0
  -31.5556  -17.1493   20.8107 H   0  0  0  0  0  0
  -27.6960  -23.9073   19.1511 H   0  0  0  0  0  0
  -27.3173  -23.2394   20.7046 H   0  0  0  0  0  0
  -29.2181  -25.1643   21.4331 H   0  0  0  0  0  0
  -27.5179  -25.3057   21.5970 H   0  0  0  0  0  0
  -30.0704  -23.2816   19.5829 H   0  0  0  0  0  0
  -28.9376  -15.6749   20.9349 H   0  0  0  0  0  0
  1 25  1  0  0  0
  1 30  2  0  0  0
  1 82  1  0  0  0
  2  3  1  0  0  0
  2 25  1  0  0  0
  2 83  1  0  0  0
  2 84  1  0  0  0
  3  4  1  0  0  0
  3 85  1  0  0  0
  3 86  1  0  0  0
  4  5  1  0  0  0
  4 87  1  0  0  0
  4 88  1  0  0  0
  5  6  1  0  0  0
  5 26  1  0  0  0
  5 89  1  0  0  0
  6 25  1  0  0  0
  6 90  1  0  0  0
  6 91  1  0  0  0
  7  8  2  0  0  0
  7 26  1  0  0  0
  7 29  1  0  0  0
  8  9  1  0  0  0
  8 22  1  0  0  0
  9 10  1  0  0  0
  9 27  2  0  0  0
 10 11  2  0  0  0
 10 15  1  0  0  0
 11 12  1  0  0  0
 11 92  1  0  0  0
 12 13  2  0  0  0
 12 93  1  0  0  0
 13 14  1  0  0  0
 13 31  1  0  0  0
 14 15  2  0  0  0
 14 94  1  0  0  0
 15 95  1  0  0  0
 16 17  2  0  0  0
 16 21  1  0  0  0
 16 31  1  0  0  0
 17 18  1  0  0  0
 17 96  1  0  0  0
 18 19  2  0  0  0
 18 97  1  0  0  0
 19 20  1  0  0  0
 19 24  1  0  0  0
 20 21  2  0  0  0
 20 98  1  0  0  0
 21 23  1  0  0  0
 22 28  1  0  0  0
 22 32  2  0  0  0
 26 27  1  0  0  0
 28 99  1  0  0  0
 28100  1  0  0  0
 29101  1  0  0  0
 29102  1  0  0  0
 33 34  1  0  0  0
 33 66  1  0  0  0
 33 70  2  0  0  0
 34 36  1  0  0  0
 34 59  1  0  0  0
 34103  1  0  0  0
 35 44  2  0  0  0
 35 45  1  0  0  0
 35 68  1  0  0  0
 36 56  1  0  0  0
 36104  1  0  0  0
 37 39  1  0  0  0
 37 47  1  0  0  0
 37 66  1  0  0  0
 37105  1  0  0  0
 38 43  2  0  0  0
 38 46  1  0  0  0
 38 47  1  0  0  0
 39 64  1  0  0  0
 39 67  2  0  0  0
 40 52  1  0  0  0
 40 53  2  0  0  0
 40 58  1  0  0  0
 41106  1  0  0  0
 41107  1  0  0  0
 41108  1  0  0  0
 41 48  1  0  0  0
 42 43  1  0  0  0
 42 66  1  0  0  0
 42109  1  0  0  0
 42110  1  0  0  0
 43 44  1  0  0  0
 44111  1  0  0  0
 45 46  2  0  0  0
 45112  1  0  0  0
 46113  1  0  0  0
 47114  1  0  0  0
 47115  1  0  0  0
 48 56  1  0  0  0
 48 65  1  0  0  0
 48116  1  0  0  0
 49 50  1  0  0  0
 49 53  1  0  0  0
 49 64  1  0  0  0
 49117  1  0  0  0
 50 51  1  0  0  0
 50118  1  0  0  0
 50119  1  0  0  0
 51 52  1  0  0  0
 51120  1  0  0  0
 51121  1  0  0  0
 52122  1  0  0  0
 52123  1  0  0  0
 53 54  1  0  0  0
 54 55  2  0  0  0
 54124  1  0  0  0
 55 57  1  0  0  0
 55125  1  0  0  0
 56 69  2  0  0  0
 57 58  2  0  0  0
 57126  1  0  0  0
 58127  1  0  0  0
 59 60  1  0  0  0
 59 61  1  0  0  0
 59 62  1  0  0  0
 60128  1  0  0  0
 60129  1  0  0  0
 60130  1  0  0  0
 61131  1  0  0  0
 61132  1  0  0  0
 61133  1  0  0  0
 62134  1  0  0  0
 62135  1  0  0  0
 62136  1  0  0  0
 63 65  1  0  0  0
 63137  1  0  0  0
 63138  1  0  0  0
 63139  1  0  0  0
 64140  1  0  0  0
 65141  1  0  0  0
 68 80  1  0  0  0
 71 72  2  0  0  0
 71 74  1  0  0  0
 71142  1  0  0  0
 72 76  1  0  0  0
 72143  1  0  0  0
 73 75  1  0  0  0
 73 76  2  0  0  0
 73144  1  0  0  0
 74 75  2  0  0  0
 74 78  1  0  0  0
 75 77  1  0  0  0
 76 81  1  0  0  0
 77145  1  0  0  0
 77146  1  0  0  0
 77147  1  0  0  0
 78 82  1  0  0  0
 78148  1  0  0  0
 78149  1  0  0  0
 79 80  1  0  0  0
 79 81  1  0  0  0
 79150  1  0  0  0
 79151  1  0  0  0
 80152  1  0  0  0
 80153  1  0  0  0
 81154  1  0  0  0
 82155  1  0  0  0
M  ISO  4   1 100  68 101  80 101  82 100
M  END
> <chiral flag>
0

> <version>
0

> <s_m_source_file>
/data/baiqing/PycharmProjects/Reinvent-master-3.2/result/LINK_invent/BTK/process_docking_weight1_custom_product_contain_oxygen_bond_distance_aromatic_linkinvent_7_9_3/rearranged_h_0009.sdf

> <i_m_source_file_index>
2

> <r_mmod_Potential_Energy-OPLS-2005>
69.3347778320312

> <r_mmod_Stretch_Energy-OPLS-2005>
83.2975845336914

> <r_mmod_Bend_Energy-OPLS-2005>
173.171264648438

> <r_mmod_Torsional_Energy-OPLS-2005>
244.618103027344

> <r_mmod_Improper_Torsional_Energy-OPLS-2005>
7.24559116363525

> <r_mmod_Van_der_Waal_Energy-OPLS-2005>
135.647415161133

> <r_mmod_Electrostatic_Energy-OPLS-2005>
-408.284301757812

> <r_mmod_Solvation_Energy-OPLS-2005>
-219.943374633789

> <b_mmod_Minimization_Converged-OPLS-2005>
0

> <r_mmod_RMS_Derivative-OPLS-2005>
0.947816848754883

$$$$
2
                    3D
 Structure written by MMmdl.
160169  0  0  1  0            999 V2000
  -30.4215  -15.1682   20.3897 C   0  0  0  0  0  0
  -30.4489  -12.7374   19.5135 C   0  0  0  0  0  0
  -29.5323  -12.5667   18.2747 C   0  0  0  0  0  0
  -28.0737  -12.3086   18.6968 C   0  0  0  0  0  0
  -27.6203  -13.2599   19.8330 C   0  0  2  0  0  0
  -28.6597  -13.3526   20.9699 C   0  0  0  0  0  0
  -25.2421  -13.8227   20.5736 C   0  0  0  0  0  0
  -24.1754  -13.0430   20.9256 C   0  0  0  0  0  0
  -24.6387  -11.6926   20.8764 C   0  0  0  0  0  0
  -23.9078  -10.4288   21.0409 C   0  0  0  0  0  0
  -24.3625   -9.4199   21.9179 C   0  0  0  0  0  0
  -23.6299   -8.2241   22.0749 C   0  0  0  0  0  0
  -22.4277   -8.0285   21.3549 C   0  0  0  0  0  0
  -21.9918   -9.0256   20.4644 C   0  0  0  0  0  0
  -22.7255  -10.2128   20.3056 C   0  0  0  0  0  0
  -21.6854   -6.0740   22.5281 C   0  0  0  0  0  0
  -21.4007   -6.5637   23.8217 C   0  0  0  0  0  0
  -21.3660   -5.6791   24.9178 C   0  0  0  0  0  0
  -21.6047   -4.3058   24.7222 C   0  0  0  0  0  0
  -21.8820   -3.8145   23.4347 C   0  0  0  0  0  0
  -21.9184   -4.6964   22.3403 C   0  0  0  0  0  0
  -22.7775  -13.5196   21.1903 C   0  0  0  0  0  0
  -22.1660   -4.2155   21.0986 F   0  0  0  0  0  0
  -21.5628   -3.4539   25.7733 F   0  0  0  0  0  0
  -29.9044  -13.8508   20.3646 N   0  0  0  0  0  0
  -26.2846  -12.9472   20.3230 N   0  0  0  0  0  0
  -25.9319  -11.6586   20.5721 N   0  0  0  0  0  0
  -22.0430  -12.8180   22.0460 N   0  0  0  0  0  0
  -25.4053  -15.1963   20.4139 N   0  0  0  0  0  0
  -31.6292  -15.2487   20.1221 O   0  0  0  0  0  0
  -21.6642   -6.8883   21.4250 O   0  0  0  0  0  0
  -22.3456  -14.5506   20.6753 O   0  0  0  0  0  0
  -24.6579  -31.8279   23.1729 C   0  0  0  0  0  0
  -25.9268  -32.4619   23.8185 C   0  0  1  0  0  0
  -27.2204  -26.9750   20.1799 C   0  0  0  0  0  0
  -25.5955  -33.8430   24.2112 N   0  0  0  0  0  0
  -23.4708  -30.4426   21.5179 C   0  0  2  0  0  0
  -24.9245  -28.8360   20.1070 C   0  0  0  0  0  0
  -22.7652  -29.4474   22.4761 C   0  0  0  0  0  0
  -18.0326  -28.1416   22.8481 C   0  0  0  0  0  0
  -24.1477  -36.7214   23.2655 C   0  0  0  0  0  0
  -26.0365  -30.6518   21.3937 C   0  0  0  0  0  0
  -26.1039  -29.2455   20.7401 C   0  0  0  0  0  0
  -27.2446  -28.3338   20.7536 C   0  0  0  0  0  0
  -26.0148  -26.7063   19.4935 C   0  0  0  0  0  0
  -24.9034  -27.5871   19.4644 C   0  0  0  0  0  0
  -23.7087  -29.7582   20.1424 C   0  0  0  0  0  0
  -25.4117  -36.2992   24.0322 C   0  0  1  0  0  0
  -20.5957  -28.3754   23.1188 C   0  0  2  0  0  0
  -20.6794  -26.9436   22.5399 C   0  0  0  0  0  0
  -19.5759  -26.6378   21.5221 C   0  0  0  0  0  0
  -18.1938  -26.7953   22.1627 C   0  0  0  0  0  0
  -19.1589  -28.8900   23.2831 C   0  0  0  0  0  0
  -18.9510  -30.1496   23.8865 C   0  0  0  0  0  0
  -17.6502  -30.6605   24.0564 C   0  0  0  0  0  0
  -25.9081  -34.9370   23.5035 C   0  0  0  0  0  0
  -16.5388  -29.9105   23.6336 C   0  0  0  0  0  0
  -16.7305  -28.6523   23.0363 C   0  0  0  0  0  0
  -26.4533  -31.6541   25.0689 C   0  0  0  0  0  0
  -25.3667  -31.3786   26.1352 C   0  0  0  0  0  0
  -27.0438  -30.2921   24.6377 C   0  0  0  0  0  0
  -27.6032  -32.4336   25.7480 C   0  0  0  0  0  0
  -27.5564  -37.1766   24.8476 C   0  0  0  0  0  0
  -21.4328  -29.3064   22.3536 N   0  0  0  0  0  0
  -26.4264  -37.3715   23.9425 N   0  0  0  0  0  0
  -24.7426  -31.0003   22.0814 N   0  0  0  0  0  0
  -23.4238  -28.8033   23.2962 O   0  0  0  0  0  0
  -28.2494  -25.9180   20.3001 O   0  0  0  0  0  0
  -26.5692  -34.8904   22.4630 O   0  0  0  0  0  0
  -23.5658  -32.1199   23.6860 O   0  0  0  0  0  0
  -28.0377  -20.1224   20.8828 C   0  0  0  0  0  0
  -30.1525  -20.4458   20.0355 C   0  0  0  0  0  0
  -28.2688  -18.6628   20.8757 C   0  0  0  0  0  0
  -30.3908  -18.9716   20.0383 C   0  0  0  0  0  0
  -28.9543  -21.1712   20.4701 C   0  0  0  0  0  0
  -29.4650  -17.9361   20.4770 C   0  0  0  0  0  0
  -30.7855  -23.0413   24.0235 C   0  0  0  0  0  0
  -30.4822  -24.5160   23.7697 C   0  0  0  0  0  0
  -30.1242  -22.2760   22.8716 C   0  0  0  0  0  0
  -29.7169  -24.5660   22.4442 C   0  0  0  0  0  0
  -28.2149  -24.3172   19.9426 C   0  0  0  0  0  0
  -28.7620  -22.8708   20.8342 C   0  0  2  0  0  0
  -29.5502  -16.3353   20.5499 N   0  0  0  0  0  0
  -29.8666  -23.2488   21.7784 N   0  3  0  0  0  0
  -31.4676  -12.9479   19.1869 H   0  0  0  0  0  0
  -30.5070  -11.8069   20.0816 H   0  0  0  0  0  0
  -29.8907  -11.7509   17.6447 H   0  0  0  0  0  0
  -29.5794  -13.4691   17.6625 H   0  0  0  0  0  0
  -28.0072  -11.2756   19.0375 H   0  0  0  0  0  0
  -27.4061  -12.3904   17.8375 H   0  0  0  0  0  0
  -27.5591  -14.2468   19.3717 H   0  0  0  0  0  0
  -28.8066  -12.3831   21.4485 H   0  0  0  0  0  0
  -28.3195  -14.0334   21.7515 H   0  0  0  0  0  0
  -25.2769   -9.5674   22.4760 H   0  0  0  0  0  0
  -24.0002   -7.4629   22.7469 H   0  0  0  0  0  0
  -21.0847   -8.8780   19.8955 H   0  0  0  0  0  0
  -22.3714  -10.9669   19.6165 H   0  0  0  0  0  0
  -21.2006   -7.6142   23.9723 H   0  0  0  0  0  0
  -21.1482   -6.0518   25.9083 H   0  0  0  0  0  0
  -22.0596   -2.7610   23.2844 H   0  0  0  0  0  0
  -22.4041  -11.9833   22.4842 H   0  0  0  0  0  0
  -21.1047  -13.1197   22.2670 H   0  0  0  0  0  0
  -24.6247  -15.8364   20.5107 H   0  0  0  0  0  0
  -26.2250  -15.6351   20.0167 H   0  0  0  0  0  0
  -26.7344  -32.5188   23.0912 H   0  0  0  0  0  0
  -25.0038  -33.9503   25.0226 H   0  0  0  0  0  0
  -22.7818  -31.2728   21.3486 H   0  0  0  0  0  0
  -23.3750  -35.9535   23.3282 H   0  0  0  0  0  0
  -24.3557  -36.8878   22.2074 H   0  0  0  0  0  0
  -23.7211  -37.6396   23.6705 H   0  0  0  0  0  0
  -26.2077  -31.3948   20.6132 H   0  0  0  0  0  0
  -26.9009  -30.7125   22.0433 H   0  0  0  0  0  0
  -28.1372  -28.6413   21.2805 H   0  0  0  0  0  0
  -25.8903  -25.7526   19.0016 H   0  0  0  0  0  0
  -24.0058  -27.2696   18.9522 H   0  0  0  0  0  0
  -23.8604  -30.5253   19.3812 H   0  0  0  0  0  0
  -22.8204  -29.2083   19.8270 H   0  0  0  0  0  0
  -25.1300  -36.1790   25.0816 H   0  0  0  0  0  0
  -21.0068  -28.3350   24.1302 H   0  0  0  0  0  0
  -20.5648  -26.2384   23.3643 H   0  0  0  0  0  0
  -21.6655  -26.7380   22.1215 H   0  0  0  0  0  0
  -19.6896  -25.6279   21.1274 H   0  0  0  0  0  0
  -19.6682  -27.3163   20.6735 H   0  0  0  0  0  0
  -17.4207  -26.6721   21.4027 H   0  0  0  0  0  0
  -18.0312  -26.0103   22.9030 H   0  0  0  0  0  0
  -19.7984  -30.7317   24.2216 H   0  0  0  0  0  0
  -17.5055  -31.6279   24.5171 H   0  0  0  0  0  0
  -15.5392  -30.2995   23.7672 H   0  0  0  0  0  0
  -15.8709  -28.0821   22.7097 H   0  0  0  0  0  0
  -24.5882  -30.7097   25.7664 H   0  0  0  0  0  0
  -24.8823  -32.2995   26.4615 H   0  0  0  0  0  0
  -25.7914  -30.9066   27.0227 H   0  0  0  0  0  0
  -26.3113  -29.6593   24.1359 H   0  0  0  0  0  0
  -27.3979  -29.7274   25.5013 H   0  0  0  0  0  0
  -27.9035  -30.4122   23.9782 H   0  0  0  0  0  0
  -27.2620  -33.3691   26.1919 H   0  0  0  0  0  0
  -28.3916  -32.6803   25.0359 H   0  0  0  0  0  0
  -28.0614  -31.8549   26.5507 H   0  0  0  0  0  0
  -28.2569  -38.0073   24.7520 H   0  0  0  0  0  0
  -28.1071  -36.2598   24.6295 H   0  0  0  0  0  0
  -27.2291  -37.1415   25.8884 H   0  0  0  0  0  0
  -20.9548  -29.8829   21.6745 H   0  0  0  0  0  0
  -26.0115  -38.2780   24.1435 H   0  0  0  0  0  0
  -27.0888  -20.4454   21.2879 H   0  0  0  0  0  0
  -30.9948  -21.0495   19.7263 H   0  0  0  0  0  0
  -27.4480  -18.0637   21.2434 H   0  0  0  0  0  0
  -31.3604  -18.6355   19.6979 H   0  0  0  0  0  0
  -30.4114  -22.7081   24.9939 H   0  0  0  0  0  0
  -31.8644  -22.8791   24.0186 H   0  0  0  0  0  0
  -31.4099  -25.0861   23.6993 H   0  0  0  0  0  0
  -29.8894  -24.9557   24.5735 H   0  0  0  0  0  0
  -29.1819  -21.8491   23.2205 H   0  0  0  0  0  0
  -30.7513  -21.4472   22.5418 H   0  0  0  0  0  0
  -30.0976  -25.3698   21.8144 H   0  0  0  0  0  0
  -28.6666  -24.7701   22.6562 H   0  0  0  0  0  0
  -27.1914  -24.0948   19.6488 H   0  0  0  0  0  0
  -28.7694  -24.2786   19.0044 H   0  0  0  0  0  0
  -27.9102  -22.7834   21.5106 H   0  0  0  0  0  0
  -28.6419  -15.9639   20.7814 H   0  0  0  0  0  0
  -30.7153  -23.3087   21.2348 H   0  0  0  0  0  0
  1 25  1  0  0  0
  1 30  2  0  0  0
  1 83  1  0  0  0
  2  3  1  0  0  0
  2 25  1  0  0  0
  2 85  1  0  0  0
  2 86  1  0  0  0
  3  4  1  0  0  0
  3 87  1  0  0  0
  3 88  1  0  0  0
  4  5  1  0  0  0
  4 89  1  0  0  0
  4 90  1  0  0  0
  5  6  1  0  0  0
  5 26  1  0  0  0
  5 91  1  0  0  0
  6 25  1  0  0  0
  6 92  1  0  0  0
  6 93  1  0  0  0
  7  8  2  0  0  0
  7 26  1  0  0  0
  7 29  1  0  0  0
  8  9  1  0  0  0
  8 22  1  0  0  0
  9 10  1  0  0  0
  9 27  2  0  0  0
 10 11  2  0  0  0
 10 15  1  0  0  0
 11 12  1  0  0  0
 11 94  1  0  0  0
 12 13  2  0  0  0
 12 95  1  0  0  0
 13 14  1  0  0  0
 13 31  1  0  0  0
 14 15  2  0  0  0
 14 96  1  0  0  0
 15 97  1  0  0  0
 16 17  2  0  0  0
 16 21  1  0  0  0
 16 31  1  0  0  0
 17 18  1  0  0  0
 17 98  1  0  0  0
 18 19  2  0  0  0
 18 99  1  0  0  0
 19 20  1  0  0  0
 19 24  1  0  0  0
 20 21  2  0  0  0
 20100  1  0  0  0
 21 23  1  0  0  0
 22 28  1  0  0  0
 22 32  2  0  0  0
 26 27  1  0  0  0
 28101  1  0  0  0
 28102  1  0  0  0
 29103  1  0  0  0
 29104  1  0  0  0
 33 34  1  0  0  0
 33 66  1  0  0  0
 33 70  2  0  0  0
 34 36  1  0  0  0
 34 59  1  0  0  0
 34105  1  0  0  0
 35 44  2  0  0  0
 35 45  1  0  0  0
 35 68  1  0  0  0
 36 56  1  0  0  0
 36106  1  0  0  0
 37 39  1  0  0  0
 37 47  1  0  0  0
 37 66  1  0  0  0
 37107  1  0  0  0
 38 43  2  0  0  0
 38 46  1  0  0  0
 38 47  1  0  0  0
 39 64  1  0  0  0
 39 67  2  0  0  0
 40 52  1  0  0  0
 40 53  2  0  0  0
 40 58  1  0  0  0
 41108  1  0  0  0
 41109  1  0  0  0
 41110  1  0  0  0
 41 48  1  0  0  0
 42 43  1  0  0  0
 42 66  1  0  0  0
 42111  1  0  0  0
 42112  1  0  0  0
 43 44  1  0  0  0
 44113  1  0  0  0
 45 46  2  0  0  0
 45114  1  0  0  0
 46115  1  0  0  0
 47116  1  0  0  0
 47117  1  0  0  0
 48 56  1  0  0  0
 48 65  1  0  0  0
 48118  1  0  0  0
 49 50  1  0  0  0
 49 53  1  0  0  0
 49 64  1  0  0  0
 49119  1  0  0  0
 50 51  1  0  0  0
 50120  1  0  0  0
 50121  1  0  0  0
 51 52  1  0  0  0
 51122  1  0  0  0
 51123  1  0  0  0
 52124  1  0  0  0
 52125  1  0  0  0
 53 54  1  0  0  0
 54 55  2  0  0  0
 54126  1  0  0  0
 55 57  1  0  0  0
 55127  1  0  0  0
 56 69  2  0  0  0
 57 58  2  0  0  0
 57128  1  0  0  0
 58129  1  0  0  0
 59 60  1  0  0  0
 59 61  1  0  0  0
 59 62  1  0  0  0
 60130  1  0  0  0
 60131  1  0  0  0
 60132  1  0  0  0
 61133  1  0  0  0
 61134  1  0  0  0
 61135  1  0  0  0
 62136  1  0  0  0
 62137  1  0  0  0
 62138  1  0  0  0
 63 65  1  0  0  0
 63139  1  0  0  0
 63140  1  0  0  0
 63141  1  0  0  0
 64142  1  0  0  0
 65143  1  0  0  0
 68 81  1  0  0  0
 71 73  2  0  0  0
 71 75  1  0  0  0
 71144  1  0  0  0
 72 74  1  0  0  0
 72 75  2  0  0  0
 72145  1  0  0  0
 73 76  1  0  0  0
 73146  1  0  0  0
 74 76  2  0  0  0
 74147  1  0  0  0
 75 82  1  0  0  0
 76 83  1  0  0  0
 77 78  1  0  0  0
 77 79  1  0  0  0
 77148  1  0  0  0
 77149  1  0  0  0
 78 80  1  0  0  0
 78150  1  0  0  0
 78151  1  0  0  0
 79152  1  0  0  0
 79153  1  0  0  0
 79 84  1  0  0  0
 80 84  1  0  0  0
 80154  1  0  0  0
 80155  1  0  0  0
 81156  1  0  0  0
 81157  1  0  0  0
 81 82  1  0  0  0
 82 84  1  0  0  0
 82158  1  0  0  0
 83159  1  0  0  0
 84160  1  0  0  0
M  CHG  1  84   1
M  ISO  4   1 100  68 101  81 101  83 100
M  END
> <chiral flag>
0

> <version>
0

> <s_m_source_file>
/data/baiqing/PycharmProjects/Reinvent-master-3.2/result/LINK_invent/BTK/process_docking_weight1_custom_product_contain_oxygen_bond_distance_aromatic_linkinvent_7_9_3/rearranged_h_0009.sdf

> <i_m_source_file_index>
3

> <r_mmod_Potential_Energy-OPLS-2005>
1047.25476074219

> <r_mmod_Stretch_Energy-OPLS-2005>
469.449523925781

> <r_mmod_Bend_Energy-OPLS-2005>
440.926696777344

> <r_mmod_Torsional_Energy-OPLS-2005>
304.612609863281

> <r_mmod_Improper_Torsional_Energy-OPLS-2005>
6.92208957672119

> <r_mmod_Van_der_Waal_Energy-OPLS-2005>
131.605209350586

> <r_mmod_Electrostatic_Energy-OPLS-2005>
-254.009094238281

> <r_mmod_Solvation_Energy-OPLS-2005>
-426.630737304688

> <b_mmod_Minimization_Converged-OPLS-2005>
0

> <r_mmod_RMS_Derivative-OPLS-2005>
2.19940233230591

$$$$
3
                    3D
 Structure written by MMmdl.
156165  0  0  1  0            999 V2000
  -30.6852  -14.6237   20.4869 C   0  0  0  0  0  0
  -30.4153  -12.3835   19.4619 C   0  0  0  0  0  0
  -29.4992  -12.4931   18.2261 C   0  0  0  0  0  0
  -28.0237  -12.3396   18.6397 C   0  0  0  0  0  0
  -27.6451  -13.2288   19.8553 C   0  0  2  0  0  0
  -28.6897  -13.1335   20.9895 C   0  0  0  0  0  0
  -25.2518  -13.8202   20.5698 C   0  0  0  0  0  0
  -24.1805  -13.0448   20.9205 C   0  0  0  0  0  0
  -24.6392  -11.6925   20.8751 C   0  0  0  0  0  0
  -23.9070  -10.4298   21.0409 C   0  0  0  0  0  0
  -24.3621   -9.4211   21.9185 C   0  0  0  0  0  0
  -23.6296   -8.2246   22.0754 C   0  0  0  0  0  0
  -22.4278   -8.0283   21.3544 C   0  0  0  0  0  0
  -21.9914   -9.0257   20.4646 C   0  0  0  0  0  0
  -22.7244  -10.2137   20.3056 C   0  0  0  0  0  0
  -21.6854   -6.0737   22.5279 C   0  0  0  0  0  0
  -21.4015   -6.5641   23.8213 C   0  0  0  0  0  0
  -21.3660   -5.6793   24.9175 C   0  0  0  0  0  0
  -21.6044   -4.3056   24.7225 C   0  0  0  0  0  0
  -21.8819   -3.8148   23.4346 C   0  0  0  0  0  0
  -21.9193   -4.6965   22.3402 C   0  0  0  0  0  0
  -22.7824  -13.5226   21.1863 C   0  0  0  0  0  0
  -22.1661   -4.2150   21.0980 F   0  0  0  0  0  0
  -21.5628   -3.4540   25.7737 F   0  0  0  0  0  0
  -30.0018  -13.4398   20.4090 N   0  0  0  0  0  0
  -26.2951  -12.9409   20.3310 N   0  0  0  0  0  0
  -25.9323  -11.6551   20.5769 N   0  0  0  0  0  0
  -22.0473  -12.8214   22.0419 N   0  0  0  0  0  0
  -25.4208  -15.1925   20.4106 N   0  0  0  0  0  0
  -31.8684  -14.6852   20.1460 O   0  0  0  0  0  0
  -21.6642   -6.8880   21.4240 O   0  0  0  0  0  0
  -22.3506  -14.5531   20.6710 O   0  0  0  0  0  0
  -24.6248  -31.8613   23.2047 C   0  0  0  0  0  0
  -25.9104  -32.4785   23.8367 C   0  0  1  0  0  0
  -27.2138  -27.3264   20.1238 C   0  0  0  0  0  0
  -25.5926  -33.8586   24.2292 N   0  0  0  0  0  0
  -23.4177  -30.4862   21.5469 C   0  0  2  0  0  0
  -24.8637  -28.9455   20.1099 C   0  0  0  0  0  0
  -22.7468  -29.4631   22.4941 C   0  0  0  0  0  0
  -18.0285  -28.1383   22.8488 C   0  0  0  0  0  0
  -24.1490  -36.7297   23.2639 C   0  0  0  0  0  0
  -25.9584  -30.7945   21.3760 C   0  0  0  0  0  0
  -26.0319  -29.4229   20.7188 C   0  0  0  0  0  0
  -27.2131  -28.6242   20.7176 C   0  0  0  0  0  0
  -26.0331  -26.9118   19.4690 C   0  0  0  0  0  0
  -24.8656  -27.6950   19.4747 C   0  0  0  0  0  0
  -23.6318  -29.8244   20.1608 C   0  0  0  0  0  0
  -25.4114  -36.3089   24.0331 C   0  0  1  0  0  0
  -20.5884  -28.3686   23.1285 C   0  0  2  0  0  0
  -20.6775  -26.9411   22.5410 C   0  0  0  0  0  0
  -19.5750  -26.6385   21.5211 C   0  0  0  0  0  0
  -18.1930  -26.7926   22.1624 C   0  0  0  0  0  0
  -19.1537  -28.8851   23.2882 C   0  0  0  0  0  0
  -18.9461  -30.1454   23.8898 C   0  0  0  0  0  0
  -17.6462  -30.6586   24.0564 C   0  0  0  0  0  0
  -25.9050  -34.9456   23.5111 C   0  0  0  0  0  0
  -16.5352  -29.9086   23.6330 C   0  0  0  0  0  0
  -16.7272  -28.6502   23.0352 C   0  0  0  0  0  0
  -26.4493  -31.6588   25.0730 C   0  0  0  0  0  0
  -25.3731  -31.3721   26.1459 C   0  0  0  0  0  0
  -27.0335  -30.3013   24.6174 C   0  0  0  0  0  0
  -27.6055  -32.4320   25.7499 C   0  0  0  0  0  0
  -27.5579  -37.1805   24.8466 C   0  0  0  0  0  0
  -21.4183  -29.3043   22.3682 N   0  0  0  0  0  0
  -26.4294  -37.3780   23.9406 N   0  0  0  0  0  0
  -24.6856  -31.0635   22.0993 N   0  0  0  0  0  0
  -23.4198  -28.8167   23.3014 O   0  0  0  0  0  0
  -28.3134  -26.4602   20.1636 O   0  0  0  0  0  0
  -26.5616  -34.8920   22.4675 O   0  0  0  0  0  0
  -23.5415  -32.1410   23.7380 O   0  0  0  0  0  0
  -30.0063  -19.4166   19.5530 C   0  0  0  0  0  0
  -29.6031  -20.7839   19.6353 C   0  0  0  0  0  0
  -28.9190  -20.4180   21.9057 C   0  0  0  0  0  0
  -29.9079  -18.5188   20.6526 C   0  0  0  0  0  0
  -29.0755  -21.3405   20.8285 C   0  0  0  0  0  0
  -29.3268  -19.0527   21.8293 C   0  0  0  0  0  0
  -28.3385  -24.8469   22.0666 C   0  0  0  0  0  0
  -28.3569  -23.3139   22.2528 C   0  0  0  0  0  0
  -28.8326  -23.8373   19.9693 C   0  0  0  0  0  0
  -28.0477  -25.0607   20.5798 C   0  0  2  0  0  0
  -30.6559  -17.1362   20.6213 C   0  0  0  0  0  0
  -28.7366  -22.7363   20.9642 N   0  0  0  0  0  0
  -29.9997  -15.7857   20.7345 N   0  0  0  0  0  0
  -29.2136  -18.2683   22.9282 F   0  0  0  0  0  0
  -31.4611  -12.4700   19.1620 H   0  0  0  0  0  0
  -30.3210  -11.4010   19.9270 H   0  0  0  0  0  0
  -29.7624  -11.7309   17.4914 H   0  0  0  0  0  0
  -29.6485  -13.4567   17.7364 H   0  0  0  0  0  0
  -27.8615  -11.2895   18.8857 H   0  0  0  0  0  0
  -27.3693  -12.5568   17.7947 H   0  0  0  0  0  0
  -27.6516  -14.2566   19.4917 H   0  0  0  0  0  0
  -28.6960  -12.1352   21.4295 H   0  0  0  0  0  0
  -28.4460  -13.8233   21.7989 H   0  0  0  0  0  0
  -25.2765   -9.5688   22.4761 H   0  0  0  0  0  0
  -24.0005   -7.4637   22.7473 H   0  0  0  0  0  0
  -21.0847   -8.8777   19.8950 H   0  0  0  0  0  0
  -22.3702  -10.9676   19.6166 H   0  0  0  0  0  0
  -21.2008   -7.6149   23.9716 H   0  0  0  0  0  0
  -21.1482   -6.0524   25.9078 H   0  0  0  0  0  0
  -22.0598   -2.7610   23.2846 H   0  0  0  0  0  0
  -22.4094  -11.9876   22.4804 H   0  0  0  0  0  0
  -21.1088  -13.1232   22.2626 H   0  0  0  0  0  0
  -24.6533  -15.8462   20.5212 H   0  0  0  0  0  0
  -26.2694  -15.6329   20.0787 H   0  0  0  0  0  0
  -26.7170  -32.5460   23.1116 H   0  0  0  0  0  0
  -25.0074  -33.9734   25.0436 H   0  0  0  0  0  0
  -22.7109  -31.3066   21.4060 H   0  0  0  0  0  0
  -23.3749  -35.9633   23.3311 H   0  0  0  0  0  0
  -24.3579  -36.8908   22.2051 H   0  0  0  0  0  0
  -23.7247  -37.6504   23.6653 H   0  0  0  0  0  0
  -26.0892  -31.5583   20.6082 H   0  0  0  0  0  0
  -26.8394  -30.8424   22.0044 H   0  0  0  0  0  0
  -28.1082  -28.9815   21.2073 H   0  0  0  0  0  0
  -25.9975  -25.9636   18.9522 H   0  0  0  0  0  0
  -23.9745  -27.3291   18.9833 H   0  0  0  0  0  0
  -23.7500  -30.6027   19.4058 H   0  0  0  0  0  0
  -22.7518  -29.2539   19.8581 H   0  0  0  0  0  0
  -25.1293  -36.1947   25.0824 H   0  0  0  0  0  0
  -20.9975  -28.3261   24.1407 H   0  0  0  0  0  0
  -20.5680  -26.2295   23.3608 H   0  0  0  0  0  0
  -21.6643  -26.7446   22.1199 H   0  0  0  0  0  0
  -19.6914  -25.6297   21.1239 H   0  0  0  0  0  0
  -19.6687  -27.3199   20.6743 H   0  0  0  0  0  0
  -17.4199  -26.6674   21.4027 H   0  0  0  0  0  0
  -18.0331  -26.0067   22.9020 H   0  0  0  0  0  0
  -19.7938  -30.7267   24.2270 H   0  0  0  0  0  0
  -17.5018  -31.6267   24.5164 H   0  0  0  0  0  0
  -15.5353  -30.2989   23.7654 H   0  0  0  0  0  0
  -15.8672  -28.0823   22.7066 H   0  0  0  0  0  0
  -24.5907  -30.7067   25.7789 H   0  0  0  0  0  0
  -24.8918  -32.2884   26.4887 H   0  0  0  0  0  0
  -25.8060  -30.8898   27.0233 H   0  0  0  0  0  0
  -26.2907  -29.6766   24.1199 H   0  0  0  0  0  0
  -27.4038  -29.7265   25.4673 H   0  0  0  0  0  0
  -27.8775  -30.4302   23.9395 H   0  0  0  0  0  0
  -27.2667  -33.3619   26.2079 H   0  0  0  0  0  0
  -28.3864  -32.6884   25.0325 H   0  0  0  0  0  0
  -28.0725  -31.8444   26.5412 H   0  0  0  0  0  0
  -28.2602  -38.0096   24.7504 H   0  0  0  0  0  0
  -28.1069  -36.2627   24.6304 H   0  0  0  0  0  0
  -27.2294  -37.1470   25.8869 H   0  0  0  0  0  0
  -20.9358  -29.8772   21.6901 H   0  0  0  0  0  0
  -26.0179  -38.2858   24.1400 H   0  0  0  0  0  0
  -30.4631  -19.0754   18.6349 H   0  0  0  0  0  0
  -29.7457  -21.4152   18.7697 H   0  0  0  0  0  0
  -28.5098  -20.7518   22.8466 H   0  0  0  0  0  0
  -29.3197  -25.2576   22.3085 H   0  0  0  0  0  0
  -27.6089  -25.3363   22.7129 H   0  0  0  0  0  0
  -27.3634  -22.9545   22.5265 H   0  0  0  0  0  0
  -29.0478  -23.0285   23.0478 H   0  0  0  0  0  0
  -29.8826  -24.0931   19.8201 H   0  0  0  0  0  0
  -28.4190  -23.5452   19.0030 H   0  0  0  0  0  0
  -26.9948  -24.8115   20.4567 H   0  0  0  0  0  0
  -31.3965  -17.1841   21.4214 H   0  0  0  0  0  0
  -31.2459  -17.1331   19.7028 H   0  0  0  0  0  0
  -29.0187  -15.7380   20.9629 H   0  0  0  0  0  0
  1 25  1  0  0  0
  1 30  2  0  0  0
  1 83  1  0  0  0
  2  3  1  0  0  0
  2 25  1  0  0  0
  2 85  1  0  0  0
  2 86  1  0  0  0
  3  4  1  0  0  0
  3 87  1  0  0  0
  3 88  1  0  0  0
  4  5  1  0  0  0
  4 89  1  0  0  0
  4 90  1  0  0  0
  5  6  1  0  0  0
  5 26  1  0  0  0
  5 91  1  0  0  0
  6 25  1  0  0  0
  6 92  1  0  0  0
  6 93  1  0  0  0
  7  8  2  0  0  0
  7 26  1  0  0  0
  7 29  1  0  0  0
  8  9  1  0  0  0
  8 22  1  0  0  0
  9 10  1  0  0  0
  9 27  2  0  0  0
 10 11  2  0  0  0
 10 15  1  0  0  0
 11 12  1  0  0  0
 11 94  1  0  0  0
 12 13  2  0  0  0
 12 95  1  0  0  0
 13 14  1  0  0  0
 13 31  1  0  0  0
 14 15  2  0  0  0
 14 96  1  0  0  0
 15 97  1  0  0  0
 16 17  2  0  0  0
 16 21  1  0  0  0
 16 31  1  0  0  0
 17 18  1  0  0  0
 17 98  1  0  0  0
 18 19  2  0  0  0
 18 99  1  0  0  0
 19 20  1  0  0  0
 19 24  1  0  0  0
 20 21  2  0  0  0
 20100  1  0  0  0
 21 23  1  0  0  0
 22 28  1  0  0  0
 22 32  2  0  0  0
 26 27  1  0  0  0
 28101  1  0  0  0
 28102  1  0  0  0
 29103  1  0  0  0
 29104  1  0  0  0
 33 34  1  0  0  0
 33 66  1  0  0  0
 33 70  2  0  0  0
 34 36  1  0  0  0
 34 59  1  0  0  0
 34105  1  0  0  0
 35 44  2  0  0  0
 35 45  1  0  0  0
 35 68  1  0  0  0
 36 56  1  0  0  0
 36106  1  0  0  0
 37 39  1  0  0  0
 37 47  1  0  0  0
 37 66  1  0  0  0
 37107  1  0  0  0
 38 43  2  0  0  0
 38 46  1  0  0  0
 38 47  1  0  0  0
 39 64  1  0  0  0
 39 67  2  0  0  0
 40 52  1  0  0  0
 40 53  2  0  0  0
 40 58  1  0  0  0
 41108  1  0  0  0
 41109  1  0  0  0
 41110  1  0  0  0
 41 48  1  0  0  0
 42 43  1  0  0  0
 42 66  1  0  0  0
 42111  1  0  0  0
 42112  1  0  0  0
 43 44  1  0  0  0
 44113  1  0  0  0
 45 46  2  0  0  0
 45114  1  0  0  0
 46115  1  0  0  0
 47116  1  0  0  0
 47117  1  0  0  0
 48 56  1  0  0  0
 48 65  1  0  0  0
 48118  1  0  0  0
 49 50  1  0  0  0
 49 53  1  0  0  0
 49 64  1  0  0  0
 49119  1  0  0  0
 50 51  1  0  0  0
 50120  1  0  0  0
 50121  1  0  0  0
 51 52  1  0  0  0
 51122  1  0  0  0
 51123  1  0  0  0
 52124  1  0  0  0
 52125  1  0  0  0
 53 54  1  0  0  0
 54 55  2  0  0  0
 54126  1  0  0  0
 55 57  1  0  0  0
 55127  1  0  0  0
 56 69  2  0  0  0
 57 58  2  0  0  0
 57128  1  0  0  0
 58129  1  0  0  0
 59 60  1  0  0  0
 59 61  1  0  0  0
 59 62  1  0  0  0
 60130  1  0  0  0
 60131  1  0  0  0
 60132  1  0  0  0
 61133  1  0  0  0
 61134  1  0  0  0
 61135  1  0  0  0
 62136  1  0  0  0
 62137  1  0  0  0
 62138  1  0  0  0
 63 65  1  0  0  0
 63139  1  0  0  0
 63140  1  0  0  0
 63141  1  0  0  0
 64142  1  0  0  0
 65143  1  0  0  0
 68 80  1  0  0  0
 71 72  2  0  0  0
 71 74  1  0  0  0
 71144  1  0  0  0
 72 75  1  0  0  0
 72145  1  0  0  0
 73 75  2  0  0  0
 73 76  1  0  0  0
 73146  1  0  0  0
 74 76  2  0  0  0
 74 81  1  0  0  0
 75 82  1  0  0  0
 76 84  1  0  0  0
 77 78  1  0  0  0
 77 80  1  0  0  0
 77147  1  0  0  0
 77148  1  0  0  0
 78 82  1  0  0  0
 78149  1  0  0  0
 78150  1  0  0  0
 79 80  1  0  0  0
 79 82  1  0  0  0
 79151  1  0  0  0
 79152  1  0  0  0
 80153  1  0  0  0
 81 83  1  0  0  0
 81154  1  0  0  0
 81155  1  0  0  0
 83156  1  0  0  0
M  ISO  4   1 100  68 101  80 101  83 100
M  END
> <chiral flag>
0

> <version>
0

> <s_m_source_file>
/data/baiqing/PycharmProjects/Reinvent-master-3.2/result/LINK_invent/BTK/process_docking_weight1_custom_product_contain_oxygen_bond_distance_aromatic_linkinvent_7_9_3/rearranged_h_0009.sdf

> <i_m_source_file_index>
4

> <r_mmod_Potential_Energy-OPLS-2005>
123.302978515625

> <r_mmod_Stretch_Energy-OPLS-2005>
72.5938262939453

> <r_mmod_Bend_Energy-OPLS-2005>
190.306137084961

> <r_mmod_Torsional_Energy-OPLS-2005>
263.476104736328

> <r_mmod_Improper_Torsional_Energy-OPLS-2005>
6.42210721969604

> <r_mmod_Van_der_Waal_Energy-OPLS-2005>
146.87126159668

> <r_mmod_Electrostatic_Energy-OPLS-2005>
-387.486114501953

> <r_mmod_Solvation_Energy-OPLS-2005>
-218.601684570312

> <b_mmod_Minimization_Converged-OPLS-2005>
0

> <r_mmod_RMS_Derivative-OPLS-2005>
0.187377721071243

$$$$
4
                    3D
 Structure written by MMmdl.
158167  0  0  1  0            999 V2000
  -30.5143  -15.0225   20.4062 C   0  0  0  0  0  0
  -30.4472  -12.6436   19.4859 C   0  0  0  0  0  0
  -29.5237  -12.5323   18.2505 C   0  0  0  0  0  0
  -28.0611  -12.3016   18.6782 C   0  0  0  0  0  0
  -27.6243  -13.2496   19.8251 C   0  0  2  0  0  0
  -28.6704  -13.3234   20.9569 C   0  0  0  0  0  0
  -25.2471  -13.8216   20.5718 C   0  0  0  0  0  0
  -24.1788  -13.0442   20.9253 C   0  0  0  0  0  0
  -24.6406  -11.6930   20.8774 C   0  0  0  0  0  0
  -23.9099  -10.4298   21.0420 C   0  0  0  0  0  0
  -24.3635   -9.4212   21.9203 C   0  0  0  0  0  0
  -23.6303   -8.2247   22.0774 C   0  0  0  0  0  0
  -22.4289   -8.0290   21.3553 C   0  0  0  0  0  0
  -21.9925   -9.0272   20.4663 C   0  0  0  0  0  0
  -22.7267  -10.2145   20.3071 C   0  0  0  0  0  0
  -21.6852   -6.0743   22.5292 C   0  0  0  0  0  0
  -21.4015   -6.5649   23.8221 C   0  0  0  0  0  0
  -21.3646   -5.6809   24.9190 C   0  0  0  0  0  0
  -21.6038   -4.3071   24.7244 C   0  0  0  0  0  0
  -21.8813   -3.8157   23.4365 C   0  0  0  0  0  0
  -21.9192   -4.6972   22.3419 C   0  0  0  0  0  0
  -22.7806  -13.5218   21.1889 C   0  0  0  0  0  0
  -22.1662   -4.2150   21.0996 F   0  0  0  0  0  0
  -21.5612   -3.4553   25.7757 F   0  0  0  0  0  0
  -29.9288  -13.7544   20.3369 N   0  0  0  0  0  0
  -26.2875  -12.9441   20.3210 N   0  0  0  0  0  0
  -25.9332  -11.6579   20.5738 N   0  0  0  0  0  0
  -22.0425  -12.8226   22.0425 N   0  0  0  0  0  0
  -25.4123  -15.1953   20.4121 N   0  0  0  0  0  0
  -31.7350  -15.0664   20.2109 O   0  0  0  0  0  0
  -21.6644   -6.8890   21.4255 O   0  0  0  0  0  0
  -22.3507  -14.5522   20.6720 O   0  0  0  0  0  0
  -24.6473  -31.8354   23.1845 C   0  0  0  0  0  0
  -25.9228  -32.4643   23.8236 C   0  0  1  0  0  0
  -27.2141  -27.0783   20.1470 C   0  0  0  0  0  0
  -25.5944  -33.8457   24.2139 N   0  0  0  0  0  0
  -23.4538  -30.4534   21.5318 C   0  0  2  0  0  0
  -24.9035  -28.8686   20.1077 C   0  0  0  0  0  0
  -22.7575  -29.4483   22.4846 C   0  0  0  0  0  0
  -18.0296  -28.1356   22.8447 C   0  0  0  0  0  0
  -24.1489  -36.7248   23.2640 C   0  0  0  0  0  0
  -26.0130  -30.6871   21.3923 C   0  0  0  0  0  0
  -26.0823  -29.2934   20.7329 C   0  0  0  0  0  0
  -27.2362  -28.4141   20.7350 C   0  0  0  0  0  0
  -26.0119  -26.7707   19.4730 C   0  0  0  0  0  0
  -24.8849  -27.6229   19.4600 C   0  0  0  0  0  0
  -23.6834  -29.7790   20.1516 C   0  0  0  0  0  0
  -25.4133  -36.3003   24.0296 C   0  0  1  0  0  0
  -20.5904  -28.3683   23.1210 C   0  0  2  0  0  0
  -20.6779  -26.9381   22.5387 C   0  0  0  0  0  0
  -19.5772  -26.6346   21.5166 C   0  0  0  0  0  0
  -18.1945  -26.7898   22.1573 C   0  0  0  0  0  0
  -19.1552  -28.8837   23.2821 C   0  0  0  0  0  0
  -18.9475  -30.1431   23.8853 C   0  0  0  0  0  0
  -17.6475  -30.6561   24.0536 C   0  0  0  0  0  0
  -25.9084  -34.9376   23.5034 C   0  0  0  0  0  0
  -16.5362  -29.9056   23.6328 C   0  0  0  0  0  0
  -16.7280  -28.6469   23.0352 C   0  0  0  0  0  0
  -26.4543  -31.6550   25.0711 C   0  0  0  0  0  0
  -25.3704  -31.3726   26.1385 C   0  0  0  0  0  0
  -27.0426  -30.2942   24.6347 C   0  0  0  0  0  0
  -27.6081  -32.4306   25.7491 C   0  0  0  0  0  0
  -27.5581  -37.1779   24.8462 C   0  0  0  0  0  0
  -21.4260  -29.3020   22.3594 N   0  0  0  0  0  0
  -26.4293  -37.3728   23.9391 N   0  0  0  0  0  0
  -24.7249  -31.0138   22.0911 N   0  0  0  0  0  0
  -23.4194  -28.8018   23.3000 O   0  0  0  0  0  0
  -28.2530  -26.0629   20.2306 O   0  0  0  0  0  0
  -26.5680  -34.8873   22.4622 O   0  0  0  0  0  0
  -23.5579  -32.1264   23.7024 O   0  0  0  0  0  0
  -31.1156  -19.3186   22.1635 C   0  0  0  0  0  0
  -30.4979  -20.4702   21.5969 C   0  0  0  0  0  0
  -29.4868  -20.3805   20.5911 C   0  0  0  0  0  0
  -29.9454  -17.7179   20.6925 C   0  0  0  0  0  0
  -30.8610  -17.9987   21.7254 C   0  0  0  0  0  0
  -29.2489  -18.9481   20.1724 C   0  0  0  0  0  0
  -32.0575  -19.5331   23.3387 C   0  0  0  0  0  0
  -31.4570  -20.5851   24.2819 C   0  0  0  0  0  0
  -30.9690  -21.8481   23.5420 C   0  0  0  0  0  0
  -28.9550  -23.1797   20.4912 C   0  0  0  0  0  0
  -28.0312  -24.5204   19.9488 C   0  0  0  0  0  0
  -30.9361  -21.7140   22.0859 N   0  0  0  0  0  0
  -29.7098  -16.2136   20.3777 N   0  0  0  0  0  0
  -28.7877  -21.6397   20.1041 N   0  0  0  0  0  0
  -31.4723  -16.9729   22.3687 F   0  0  0  0  0  0
  -28.2952  -18.7442   19.2291 F   0  0  0  0  0  0
  -31.9838  -22.2916   21.4010 F   0  0  0  0  0  0
  -31.4726  -12.8277   19.1630 H   0  0  0  0  0  0
  -30.4719  -11.7076   20.0450 H   0  0  0  0  0  0
  -29.8567  -11.7234   17.5986 H   0  0  0  0  0  0
  -29.5928  -13.4488   17.6630 H   0  0  0  0  0  0
  -27.9752  -11.2660   19.0072 H   0  0  0  0  0  0
  -27.3942  -12.4038   17.8216 H   0  0  0  0  0  0
  -27.5702  -14.2396   19.3702 H   0  0  0  0  0  0
  -28.7826  -12.3649   21.4633 H   0  0  0  0  0  0
  -28.3629  -14.0446   21.7147 H   0  0  0  0  0  0
  -25.2763   -9.5682   22.4801 H   0  0  0  0  0  0
  -23.9998   -7.4642   22.7492 H   0  0  0  0  0  0
  -21.0851   -8.8809   19.8975 H   0  0  0  0  0  0
  -22.3728  -10.9696   19.6189 H   0  0  0  0  0  0
  -21.2012   -7.6161   23.9728 H   0  0  0  0  0  0
  -21.1461   -6.0540   25.9086 H   0  0  0  0  0  0
  -22.0594   -2.7619   23.2883 H   0  0  0  0  0  0
  -22.4025  -11.9899   22.4847 H   0  0  0  0  0  0
  -21.1038  -13.1266   22.2587 H   0  0  0  0  0  0
  -24.6382  -15.8424   20.5145 H   0  0  0  0  0  0
  -26.2441  -15.6341   20.0417 H   0  0  0  0  0  0
  -26.7277  -32.5213   23.0948 H   0  0  0  0  0  0
  -25.0043  -33.9548   25.0247 H   0  0  0  0  0  0
  -22.7607  -31.2816   21.3748 H   0  0  0  0  0  0
  -23.3737  -35.9589   23.3270 H   0  0  0  0  0  0
  -24.3560  -36.8933   22.2063 H   0  0  0  0  0  0
  -23.7276  -37.6448   23.6707 H   0  0  0  0  0  0
  -26.1720  -31.4344   20.6148 H   0  0  0  0  0  0
  -26.8820  -30.7455   22.0358 H   0  0  0  0  0  0
  -28.1342  -28.7281   21.2461 H   0  0  0  0  0  0
  -25.9115  -25.8216   18.9660 H   0  0  0  0  0  0
  -23.9876  -27.2998   18.9521 H   0  0  0  0  0  0
  -23.8255  -30.5528   19.3959 H   0  0  0  0  0  0
  -22.7974  -29.2255   19.8371 H   0  0  0  0  0  0
  -25.1325  -36.1832   25.0789 H   0  0  0  0  0  0
  -20.9975  -28.3268   24.1345 H   0  0  0  0  0  0
  -20.5605  -26.2296   23.3604 H   0  0  0  0  0  0
  -21.6658  -26.7352   22.1235 H   0  0  0  0  0  0
  -19.6931  -25.6240   21.1239 H   0  0  0  0  0  0
  -19.6731  -27.3106   20.6649 H   0  0  0  0  0  0
  -17.4217  -26.6581   21.3988 H   0  0  0  0  0  0
  -18.0396  -26.0049   22.8985 H   0  0  0  0  0  0
  -19.7957  -30.7235   24.2226 H   0  0  0  0  0  0
  -17.5041  -31.6254   24.5106 H   0  0  0  0  0  0
  -15.5367  -30.2941   23.7681 H   0  0  0  0  0  0
  -15.8671  -28.0770   22.7104 H   0  0  0  0  0  0
  -24.5920  -30.7032   25.7704 H   0  0  0  0  0  0
  -24.8832  -32.2883   26.4731 H   0  0  0  0  0  0
  -25.7970  -30.8968   27.0223 H   0  0  0  0  0  0
  -26.3061  -29.6639   24.1358 H   0  0  0  0  0  0
  -27.4030  -29.7281   25.4950 H   0  0  0  0  0  0
  -27.8966  -30.4157   23.9682 H   0  0  0  0  0  0
  -27.2728  -33.3668   26.1963 H   0  0  0  0  0  0
  -28.3961  -32.6756   25.0356 H   0  0  0  0  0  0
  -28.0668  -31.8490   26.5507 H   0  0  0  0  0  0
  -28.2571  -38.0096   24.7527 H   0  0  0  0  0  0
  -28.1097  -36.2626   24.6268 H   0  0  0  0  0  0
  -27.2282  -37.1442   25.8858 H   0  0  0  0  0  0
  -20.9459  -29.8797   21.6836 H   0  0  0  0  0  0
  -26.0137  -38.2778   24.1423 H   0  0  0  0  0  0
  -33.0226  -19.8681   22.9569 H   0  0  0  0  0  0
  -32.2363  -18.6075   23.8871 H   0  0  0  0  0  0
  -32.1572  -20.8511   25.0745 H   0  0  0  0  0  0
  -30.5973  -20.1388   24.7844 H   0  0  0  0  0  0
  -31.6152  -22.6901   23.7922 H   0  0  0  0  0  0
  -29.9715  -22.1210   23.8903 H   0  0  0  0  0  0
  -28.8879  -23.2171   21.5792 H   0  0  0  0  0  0
  -29.9920  -23.4268   20.2626 H   0  0  0  0  0  0
  -27.0093  -24.3048   20.2604 H   0  0  0  0  0  0
  -28.0099  -24.4481   18.8606 H   0  0  0  0  0  0
  -28.7439  -16.0085   20.1846 H   0  0  0  0  0  0
  -28.1376  -21.4701   19.3408 H   0  0  0  0  0  0
  1 25  1  0  0  0
  1 30  2  0  0  0
  1 83  1  0  0  0
  2  3  1  0  0  0
  2 25  1  0  0  0
  2 88  1  0  0  0
  2 89  1  0  0  0
  3  4  1  0  0  0
  3 90  1  0  0  0
  3 91  1  0  0  0
  4  5  1  0  0  0
  4 92  1  0  0  0
  4 93  1  0  0  0
  5  6  1  0  0  0
  5 26  1  0  0  0
  5 94  1  0  0  0
  6 25  1  0  0  0
  6 95  1  0  0  0
  6 96  1  0  0  0
  7  8  2  0  0  0
  7 26  1  0  0  0
  7 29  1  0  0  0
  8  9  1  0  0  0
  8 22  1  0  0  0
  9 10  1  0  0  0
  9 27  2  0  0  0
 10 11  2  0  0  0
 10 15  1  0  0  0
 11 12  1  0  0  0
 11 97  1  0  0  0
 12 13  2  0  0  0
 12 98  1  0  0  0
 13 14  1  0  0  0
 13 31  1  0  0  0
 14 15  2  0  0  0
 14 99  1  0  0  0
 15100  1  0  0  0
 16 17  2  0  0  0
 16 21  1  0  0  0
 16 31  1  0  0  0
 17 18  1  0  0  0
 17101  1  0  0  0
 18 19  2  0  0  0
 18102  1  0  0  0
 19 20  1  0  0  0
 19 24  1  0  0  0
 20 21  2  0  0  0
 20103  1  0  0  0
 21 23  1  0  0  0
 22 28  1  0  0  0
 22 32  2  0  0  0
 26 27  1  0  0  0
 28104  1  0  0  0
 28105  1  0  0  0
 29106  1  0  0  0
 29107  1  0  0  0
 33 34  1  0  0  0
 33 66  1  0  0  0
 33 70  2  0  0  0
 34 36  1  0  0  0
 34 59  1  0  0  0
 34108  1  0  0  0
 35 44  2  0  0  0
 35 45  1  0  0  0
 35 68  1  0  0  0
 36 56  1  0  0  0
 36109  1  0  0  0
 37 39  1  0  0  0
 37 47  1  0  0  0
 37 66  1  0  0  0
 37110  1  0  0  0
 38 43  2  0  0  0
 38 46  1  0  0  0
 38 47  1  0  0  0
 39 64  1  0  0  0
 39 67  2  0  0  0
 40 52  1  0  0  0
 40 53  2  0  0  0
 40 58  1  0  0  0
 41111  1  0  0  0
 41112  1  0  0  0
 41113  1  0  0  0
 41 48  1  0  0  0
 42 43  1  0  0  0
 42 66  1  0  0  0
 42114  1  0  0  0
 42115  1  0  0  0
 43 44  1  0  0  0
 44116  1  0  0  0
 45 46  2  0  0  0
 45117  1  0  0  0
 46118  1  0  0  0
 47119  1  0  0  0
 47120  1  0  0  0
 48 56  1  0  0  0
 48 65  1  0  0  0
 48121  1  0  0  0
 49 50  1  0  0  0
 49 53  1  0  0  0
 49 64  1  0  0  0
 49122  1  0  0  0
 50 51  1  0  0  0
 50123  1  0  0  0
 50124  1  0  0  0
 51 52  1  0  0  0
 51125  1  0  0  0
 51126  1  0  0  0
 52127  1  0  0  0
 52128  1  0  0  0
 53 54  1  0  0  0
 54 55  2  0  0  0
 54129  1  0  0  0
 55 57  1  0  0  0
 55130  1  0  0  0
 56 69  2  0  0  0
 57 58  2  0  0  0
 57131  1  0  0  0
 58132  1  0  0  0
 59 60  1  0  0  0
 59 61  1  0  0  0
 59 62  1  0  0  0
 60133  1  0  0  0
 60134  1  0  0  0
 60135  1  0  0  0
 61136  1  0  0  0
 61137  1  0  0  0
 61138  1  0  0  0
 62139  1  0  0  0
 62140  1  0  0  0
 62141  1  0  0  0
 63 65  1  0  0  0
 63142  1  0  0  0
 63143  1  0  0  0
 63144  1  0  0  0
 64145  1  0  0  0
 65146  1  0  0  0
 68 81  1  0  0  0
 71 72  1  0  0  0
 71 75  2  0  0  0
 71 77  1  0  0  0
 72 73  2  0  0  0
 72 82  1  0  0  0
 73 76  1  0  0  0
 73 84  1  0  0  0
 74 75  1  0  0  0
 74 76  2  0  0  0
 74 83  1  0  0  0
 75 85  1  0  0  0
 76 86  1  0  0  0
 77 78  1  0  0  0
 77147  1  0  0  0
 77148  1  0  0  0
 78 79  1  0  0  0
 78149  1  0  0  0
 78150  1  0  0  0
 79 82  1  0  0  0
 79151  1  0  0  0
 79152  1  0  0  0
 80 81  1  0  0  0
 80 84  1  0  0  0
 80153  1  0  0  0
 80154  1  0  0  0
 81155  1  0  0  0
 81156  1  0  0  0
 82 87  1  0  0  0
 83157  1  0  0  0
 84158  1  0  0  0
M  ISO  4   1 100  68 101  81 101  83 100
M  END
> <chiral flag>
0

> <version>
0

> <s_m_source_file>
/data/baiqing/PycharmProjects/Reinvent-master-3.2/result/LINK_invent/BTK/process_docking_weight1_custom_product_contain_oxygen_bond_distance_aromatic_linkinvent_7_9_3/rearranged_h_0009.sdf

> <i_m_source_file_index>
5

> <r_mmod_Potential_Energy-OPLS-2005>
691.42529296875

> <r_mmod_Stretch_Energy-OPLS-2005>
324.949310302734

> <r_mmod_Bend_Energy-OPLS-2005>
284.71923828125

> <r_mmod_Torsional_Energy-OPLS-2005>
261.639221191406

> <r_mmod_Improper_Torsional_Energy-OPLS-2005>
12.0160207748413

> <r_mmod_Van_der_Waal_Energy-OPLS-2005>
152.207260131836

> <r_mmod_Electrostatic_Energy-OPLS-2005>
-368.635498046875

> <r_mmod_Solvation_Energy-OPLS-2005>
-226.817260742188

> <b_mmod_Minimization_Converged-OPLS-2005>
0

> <r_mmod_RMS_Derivative-OPLS-2005>
2.51355576515198

$$$$
5
                    3D
 Structure written by MMmdl.
151159  0  0  1  0            999 V2000
  -30.6182  -14.6508   20.4889 C   0  0  0  0  0  0
  -30.4343  -12.3957   19.4577 C   0  0  0  0  0  0
  -29.5097  -12.5117   18.2259 C   0  0  0  0  0  0
  -28.0316  -12.3464   18.6328 C   0  0  0  0  0  0
  -27.6501  -13.2187   19.8584 C   0  0  2  0  0  0
  -28.6913  -13.0857   20.9919 C   0  0  0  0  0  0
  -25.2542  -13.8181   20.5666 C   0  0  0  0  0  0
  -24.1812  -13.0457   20.9192 C   0  0  0  0  0  0
  -24.6371  -11.6919   20.8731 C   0  0  0  0  0  0
  -23.9039  -10.4298   21.0406 C   0  0  0  0  0  0
  -24.3594   -9.4215   21.9183 C   0  0  0  0  0  0
  -23.6271   -8.2250   22.0745 C   0  0  0  0  0  0
  -22.4261   -8.0281   21.3533 C   0  0  0  0  0  0
  -21.9897   -9.0255   20.4649 C   0  0  0  0  0  0
  -22.7219  -10.2137   20.3050 C   0  0  0  0  0  0
  -21.6860   -6.0729   22.5281 C   0  0  0  0  0  0
  -21.4019   -6.5629   23.8210 C   0  0  0  0  0  0
  -21.3666   -5.6777   24.9175 C   0  0  0  0  0  0
  -21.6047   -4.3043   24.7227 C   0  0  0  0  0  0
  -21.8817   -3.8136   23.4346 C   0  0  0  0  0  0
  -21.9196   -4.6954   22.3409 C   0  0  0  0  0  0
  -22.7839  -13.5262   21.1865 C   0  0  0  0  0  0
  -22.1667   -4.2147   21.0981 F   0  0  0  0  0  0
  -21.5637   -3.4521   25.7736 F   0  0  0  0  0  0
  -30.0088  -13.4237   20.4293 N   0  0  0  0  0  0
  -26.2954  -12.9361   20.3257 N   0  0  0  0  0  0
  -25.9298  -11.6510   20.5711 N   0  0  0  0  0  0
  -22.0461  -12.8256   22.0412 N   0  0  0  0  0  0
  -25.4244  -15.1898   20.4087 N   0  0  0  0  0  0
  -31.7887  -14.7985   20.1222 O   0  0  0  0  0  0
  -21.6635   -6.8873   21.4237 O   0  0  0  0  0  0
  -22.3540  -14.5581   20.6729 O   0  0  0  0  0  0
  -24.6265  -31.8612   23.2049 C   0  0  0  0  0  0
  -25.9115  -32.4783   23.8371 C   0  0  1  0  0  0
  -27.2165  -27.3169   20.1104 C   0  0  0  0  0  0
  -25.5942  -33.8583   24.2311 N   0  0  0  0  0  0
  -23.4198  -30.4883   21.5465 C   0  0  2  0  0  0
  -24.8649  -28.9471   20.1101 C   0  0  0  0  0  0
  -22.7481  -29.4638   22.4917 C   0  0  0  0  0  0
  -18.0294  -28.1402   22.8482 C   0  0  0  0  0  0
  -24.1486  -36.7294   23.2634 C   0  0  0  0  0  0
  -25.9617  -30.7891   21.3788 C   0  0  0  0  0  0
  -26.0343  -29.4159   20.7224 C   0  0  0  0  0  0
  -27.2132  -28.6106   20.7180 C   0  0  0  0  0  0
  -26.0288  -26.9151   19.4564 C   0  0  0  0  0  0
  -24.8642  -27.7017   19.4685 C   0  0  0  0  0  0
  -23.6357  -29.8299   20.1593 C   0  0  0  0  0  0
  -25.4107  -36.3086   24.0333 C   0  0  1  0  0  0
  -20.5895  -28.3704   23.1280 C   0  0  2  0  0  0
  -20.6783  -26.9428   22.5400 C   0  0  0  0  0  0
  -19.5755  -26.6398   21.5210 C   0  0  0  0  0  0
  -18.1942  -26.7940   22.1635 C   0  0  0  0  0  0
  -19.1544  -28.8869   23.2884 C   0  0  0  0  0  0
  -18.9462  -30.1468   23.8909 C   0  0  0  0  0  0
  -17.6458  -30.6592   24.0578 C   0  0  0  0  0  0
  -25.9045  -34.9453   23.5116 C   0  0  0  0  0  0
  -16.5355  -29.9096   23.6322 C   0  0  0  0  0  0
  -16.7281  -28.6522   23.0333 C   0  0  0  0  0  0
  -26.4503  -31.6577   25.0730 C   0  0  0  0  0  0
  -25.3742  -31.3713   26.1463 C   0  0  0  0  0  0
  -27.0335  -30.3000   24.6176 C   0  0  0  0  0  0
  -27.6078  -32.4292   25.7498 C   0  0  0  0  0  0
  -27.5580  -37.1804   24.8466 C   0  0  0  0  0  0
  -21.4193  -29.3060   22.3665 N   0  0  0  0  0  0
  -26.4292  -37.3775   23.9411 N   0  0  0  0  0  0
  -24.6879  -31.0627   22.1002 N   0  0  0  0  0  0
  -23.4203  -28.8163   23.2982 O   0  0  0  0  0  0
  -28.3230  -26.4523   20.1399 O   0  0  0  0  0  0
  -26.5595  -34.8917   22.4674 O   0  0  0  0  0  0
  -23.5429  -32.1406   23.7373 O   0  0  0  0  0  0
  -28.7814  -19.3998   20.5810 C   0  0  0  0  0  0
  -28.7609  -17.9817   20.7731 C   0  0  0  0  0  0
  -31.1007  -17.8477   20.2574 C   0  0  0  0  0  0
  -29.9706  -20.0804   20.2182 C   0  0  0  0  0  0
  -29.9121  -17.1592   20.6076 C   0  0  0  0  0  0
  -31.1242  -19.2605   20.0691 C   0  0  0  0  0  0
  -29.2411  -24.0108   20.1397 C   0  0  0  0  0  0
  -30.0931  -21.6198   19.9044 C   0  0  0  0  0  0
  -28.0412  -25.0067   20.3647 C   0  0  0  0  0  0
  -29.8001  -15.7074   20.8040 N   0  0  0  0  0  0
  -29.0635  -22.6526   20.2691 N   0  0  0  0  0  0
  -30.3382  -24.4724   19.8153 O   0  0  0  0  0  0
  -32.2977  -19.8382   19.7167 F   0  0  0  0  0  0
  -31.4775  -12.5160   19.1596 H   0  0  0  0  0  0
  -30.3632  -11.4019   19.9019 H   0  0  0  0  0  0
  -29.7794  -11.7649   17.4785 H   0  0  0  0  0  0
  -29.6500  -13.4844   17.7501 H   0  0  0  0  0  0
  -27.8647  -11.2938   18.8622 H   0  0  0  0  0  0
  -27.3798  -12.5803   17.7899 H   0  0  0  0  0  0
  -27.6650  -14.2510   19.5073 H   0  0  0  0  0  0
  -28.7009  -12.0712   21.3917 H   0  0  0  0  0  0
  -28.4306  -13.7336   21.8316 H   0  0  0  0  0  0
  -25.2738   -9.5720   22.4752 H   0  0  0  0  0  0
  -24.0009   -7.4652   22.7448 H   0  0  0  0  0  0
  -21.0841   -8.8772   19.8949 H   0  0  0  0  0  0
  -22.3676  -10.9673   19.6158 H   0  0  0  0  0  0
  -21.1998   -7.6131   23.9721 H   0  0  0  0  0  0
  -21.1495   -6.0499   25.9080 H   0  0  0  0  0  0
  -22.0587   -2.7596   23.2839 H   0  0  0  0  0  0
  -22.4054  -11.9921   22.4827 H   0  0  0  0  0  0
  -21.1072  -13.1296   22.2601 H   0  0  0  0  0  0
  -24.6471  -15.8347   20.5007 H   0  0  0  0  0  0
  -26.2574  -15.6274   20.0385 H   0  0  0  0  0  0
  -26.7182  -32.5457   23.1116 H   0  0  0  0  0  0
  -25.0132  -33.9729   25.0490 H   0  0  0  0  0  0
  -22.7132  -31.3091   21.4062 H   0  0  0  0  0  0
  -23.3736  -35.9637   23.3308 H   0  0  0  0  0  0
  -24.3581  -36.8897   22.2044 H   0  0  0  0  0  0
  -23.7254  -37.6514   23.6636 H   0  0  0  0  0  0
  -26.0922  -31.5513   20.6091 H   0  0  0  0  0  0
  -26.8433  -30.8397   22.0056 H   0  0  0  0  0  0
  -28.1077  -28.9617   21.2125 H   0  0  0  0  0  0
  -25.9695  -25.9885   18.9076 H   0  0  0  0  0  0
  -23.9746  -27.3478   18.9649 H   0  0  0  0  0  0
  -23.7605  -30.6104   19.4072 H   0  0  0  0  0  0
  -22.7537  -29.2652   19.8514 H   0  0  0  0  0  0
  -25.1279  -36.1942   25.0826 H   0  0  0  0  0  0
  -21.0004  -28.3286   24.1398 H   0  0  0  0  0  0
  -20.5708  -26.2314   23.3598 H   0  0  0  0  0  0
  -21.6651  -26.7475   22.1184 H   0  0  0  0  0  0
  -19.6917  -25.6311   21.1241 H   0  0  0  0  0  0
  -19.6692  -27.3208   20.6737 H   0  0  0  0  0  0
  -17.4204  -26.6677   21.4047 H   0  0  0  0  0  0
  -18.0367  -26.0099   22.9055 H   0  0  0  0  0  0
  -19.7934  -30.7284   24.2296 H   0  0  0  0  0  0
  -17.5009  -31.6264   24.5191 H   0  0  0  0  0  0
  -15.5358  -30.2999   23.7636 H   0  0  0  0  0  0
  -15.8689  -28.0848   22.7025 H   0  0  0  0  0  0
  -24.5909  -30.7074   25.7791 H   0  0  0  0  0  0
  -24.8940  -32.2878   26.4898 H   0  0  0  0  0  0
  -25.8070  -30.8880   27.0230 H   0  0  0  0  0  0
  -26.2901  -29.6752   24.1213 H   0  0  0  0  0  0
  -27.4052  -29.7255   25.4669 H   0  0  0  0  0  0
  -27.8764  -30.4282   23.9381 H   0  0  0  0  0  0
  -27.2719  -33.3606   26.2060 H   0  0  0  0  0  0
  -28.3899  -32.6819   25.0327 H   0  0  0  0  0  0
  -28.0724  -31.8411   26.5423 H   0  0  0  0  0  0
  -28.2588  -38.0106   24.7512 H   0  0  0  0  0  0
  -28.1086  -36.2641   24.6288 H   0  0  0  0  0  0
  -27.2304  -37.1452   25.8870 H   0  0  0  0  0  0
  -20.9361  -29.8799   21.6895 H   0  0  0  0  0  0
  -26.0172  -38.2852   24.1406 H   0  0  0  0  0  0
  -27.8640  -19.9591   20.6961 H   0  0  0  0  0  0
  -27.8212  -17.5225   21.0444 H   0  0  0  0  0  0
  -32.0249  -17.3084   20.1209 H   0  0  0  0  0  0
  -30.2153  -21.6860   18.8221 H   0  0  0  0  0  0
  -31.0487  -21.9498   20.3155 H   0  0  0  0  0  0
  -27.6810  -24.8795   21.3866 H   0  0  0  0  0  0
  -27.2591  -24.6279   19.7118 H   0  0  0  0  0  0
  -28.8868  -15.4017   21.1032 H   0  0  0  0  0  0
  -28.1503  -22.3225   20.5503 H   0  0  0  0  0  0
  1 25  1  0  0  0
  1 30  2  0  0  0
  1 80  1  0  0  0
  2  3  1  0  0  0
  2 25  1  0  0  0
  2 84  1  0  0  0
  2 85  1  0  0  0
  3  4  1  0  0  0
  3 86  1  0  0  0
  3 87  1  0  0  0
  4  5  1  0  0  0
  4 88  1  0  0  0
  4 89  1  0  0  0
  5  6  1  0  0  0
  5 26  1  0  0  0
  5 90  1  0  0  0
  6 25  1  0  0  0
  6 91  1  0  0  0
  6 92  1  0  0  0
  7  8  2  0  0  0
  7 26  1  0  0  0
  7 29  1  0  0  0
  8  9  1  0  0  0
  8 22  1  0  0  0
  9 10  1  0  0  0
  9 27  2  0  0  0
 10 11  2  0  0  0
 10 15  1  0  0  0
 11 12  1  0  0  0
 11 93  1  0  0  0
 12 13  2  0  0  0
 12 94  1  0  0  0
 13 14  1  0  0  0
 13 31  1  0  0  0
 14 15  2  0  0  0
 14 95  1  0  0  0
 15 96  1  0  0  0
 16 17  2  0  0  0
 16 21  1  0  0  0
 16 31  1  0  0  0
 17 18  1  0  0  0
 17 97  1  0  0  0
 18 19  2  0  0  0
 18 98  1  0  0  0
 19 20  1  0  0  0
 19 24  1  0  0  0
 20 21  2  0  0  0
 20 99  1  0  0  0
 21 23  1  0  0  0
 22 28  1  0  0  0
 22 32  2  0  0  0
 26 27  1  0  0  0
 28100  1  0  0  0
 28101  1  0  0  0
 29102  1  0  0  0
 29103  1  0  0  0
 33 34  1  0  0  0
 33 66  1  0  0  0
 33 70  2  0  0  0
 34 36  1  0  0  0
 34 59  1  0  0  0
 34104  1  0  0  0
 35 44  2  0  0  0
 35 45  1  0  0  0
 35 68  1  0  0  0
 36 56  1  0  0  0
 36105  1  0  0  0
 37 39  1  0  0  0
 37 47  1  0  0  0
 37 66  1  0  0  0
 37106  1  0  0  0
 38 43  2  0  0  0
 38 46  1  0  0  0
 38 47  1  0  0  0
 39 64  1  0  0  0
 39 67  2  0  0  0
 40 52  1  0  0  0
 40 53  2  0  0  0
 40 58  1  0  0  0
 41107  1  0  0  0
 41108  1  0  0  0
 41109  1  0  0  0
 41 48  1  0  0  0
 42 43  1  0  0  0
 42 66  1  0  0  0
 42110  1  0  0  0
 42111  1  0  0  0
 43 44  1  0  0  0
 44112  1  0  0  0
 45 46  2  0  0  0
 45113  1  0  0  0
 46114  1  0  0  0
 47115  1  0  0  0
 47116  1  0  0  0
 48 56  1  0  0  0
 48 65  1  0  0  0
 48117  1  0  0  0
 49 50  1  0  0  0
 49 53  1  0  0  0
 49 64  1  0  0  0
 49118  1  0  0  0
 50 51  1  0  0  0
 50119  1  0  0  0
 50120  1  0  0  0
 51 52  1  0  0  0
 51121  1  0  0  0
 51122  1  0  0  0
 52123  1  0  0  0
 52124  1  0  0  0
 53 54  1  0  0  0
 54 55  2  0  0  0
 54125  1  0  0  0
 55 57  1  0  0  0
 55126  1  0  0  0
 56 69  2  0  0  0
 57 58  2  0  0  0
 57127  1  0  0  0
 58128  1  0  0  0
 59 60  1  0  0  0
 59 61  1  0  0  0
 59 62  1  0  0  0
 60129  1  0  0  0
 60130  1  0  0  0
 60131  1  0  0  0
 61132  1  0  0  0
 61133  1  0  0  0
 61134  1  0  0  0
 62135  1  0  0  0
 62136  1  0  0  0
 62137  1  0  0  0
 63 65  1  0  0  0
 63138  1  0  0  0
 63139  1  0  0  0
 63140  1  0  0  0
 64141  1  0  0  0
 65142  1  0  0  0
 68 79  1  0  0  0
 71 72  2  0  0  0
 71 74  1  0  0  0
 71143  1  0  0  0
 72 75  1  0  0  0
 72144  1  0  0  0
 73 75  2  0  0  0
 73 76  1  0  0  0
 73145  1  0  0  0
 74 76  2  0  0  0
 74 78  1  0  0  0
 75 80  1  0  0  0
 76 83  1  0  0  0
 77 79  1  0  0  0
 77 81  1  0  0  0
 77 82  2  0  0  0
 78 81  1  0  0  0
 78146  1  0  0  0
 78147  1  0  0  0
 79148  1  0  0  0
 79149  1  0  0  0
 80150  1  0  0  0
 81151  1  0  0  0
M  ISO  4   1 100  68 101  79 101  80 100
M  END
> <chiral flag>
0

> <version>
0

> <s_m_source_file>
/data/baiqing/PycharmProjects/Reinvent-master-3.2/result/LINK_invent/BTK/process_docking_weight1_custom_product_contain_oxygen_bond_distance_aromatic_linkinvent_7_9_3/rearranged_h_0009.sdf

> <i_m_source_file_index>
6

> <r_mmod_Potential_Energy-OPLS-2005>
14.2365608215332

> <r_mmod_Stretch_Energy-OPLS-2005>
79.1475448608398

> <r_mmod_Bend_Energy-OPLS-2005>
140.470153808594

> <r_mmod_Torsional_Energy-OPLS-2005>
216.263656616211

> <r_mmod_Improper_Torsional_Energy-OPLS-2005>
4.705735206604

> <r_mmod_Van_der_Waal_Energy-OPLS-2005>
146.55354309082

> <r_mmod_Electrostatic_Energy-OPLS-2005>
-375.890625

> <r_mmod_Solvation_Energy-OPLS-2005>
-248.972244262695

> <b_mmod_Minimization_Converged-OPLS-2005>
0

> <r_mmod_RMS_Derivative-OPLS-2005>
2.50171446800232

$$$$
6
                    3D
 Structure written by MMmdl.
148156  0  0  1  0            999 V2000
  -30.5214  -14.9152   20.4322 C   0  0  0  0  0  0
  -30.4560  -12.5613   19.4932 C   0  0  0  0  0  0
  -29.5263  -12.5225   18.2560 C   0  0  0  0  0  0
  -28.0560  -12.3176   18.6734 C   0  0  0  0  0  0
  -27.6385  -13.2396   19.8491 C   0  0  2  0  0  0
  -28.6855  -13.2218   20.9846 C   0  0  0  0  0  0
  -25.2459  -13.8158   20.5697 C   0  0  0  0  0  0
  -24.1765  -13.0390   20.9179 C   0  0  0  0  0  0
  -24.6393  -11.6885   20.8728 C   0  0  0  0  0  0
  -23.9070  -10.4267   21.0393 C   0  0  0  0  0  0
  -24.3618   -9.4189   21.9177 C   0  0  0  0  0  0
  -23.6287   -8.2227   22.0750 C   0  0  0  0  0  0
  -22.4268   -8.0269   21.3541 C   0  0  0  0  0  0
  -21.9903   -9.0243   20.4647 C   0  0  0  0  0  0
  -22.7235  -10.2117   20.3050 C   0  0  0  0  0  0
  -21.6852   -6.0726   22.5279 C   0  0  0  0  0  0
  -21.4012   -6.5629   23.8210 C   0  0  0  0  0  0
  -21.3659   -5.6784   24.9173 C   0  0  0  0  0  0
  -21.6046   -4.3046   24.7225 C   0  0  0  0  0  0
  -21.8819   -3.8139   23.4345 C   0  0  0  0  0  0
  -21.9194   -4.6956   22.3402 C   0  0  0  0  0  0
  -22.7791  -13.5179   21.1863 C   0  0  0  0  0  0
  -22.1663   -4.2144   21.0979 F   0  0  0  0  0  0
  -21.5632   -3.4530   25.7737 F   0  0  0  0  0  0
  -29.9702  -13.6372   20.3996 N   0  0  0  0  0  0
  -26.2930  -12.9409   20.3303 N   0  0  0  0  0  0
  -25.9337  -11.6539   20.5759 N   0  0  0  0  0  0
  -22.0457  -12.8183   22.0447 N   0  0  0  0  0  0
  -25.4009  -15.1882   20.4184 N   0  0  0  0  0  0
  -31.7098  -15.0488   20.1197 O   0  0  0  0  0  0
  -21.6633   -6.8868   21.4238 O   0  0  0  0  0  0
  -22.3464  -14.5487   20.6720 O   0  0  0  0  0  0
  -24.6417  -31.8452   23.1899 C   0  0  0  0  0  0
  -25.9199  -32.4701   23.8276 C   0  0  1  0  0  0
  -27.2222  -27.1526   20.1448 C   0  0  0  0  0  0
  -25.5963  -33.8506   24.2202 N   0  0  0  0  0  0
  -23.4442  -30.4662   21.5348 C   0  0  2  0  0  0
  -24.8945  -28.8965   20.1100 C   0  0  0  0  0  0
  -22.7558  -29.4553   22.4857 C   0  0  0  0  0  0
  -18.0310  -28.1394   22.8468 C   0  0  0  0  0  0
  -24.1494  -36.7248   23.2642 C   0  0  0  0  0  0
  -25.9996  -30.7246   21.3863 C   0  0  0  0  0  0
  -26.0726  -29.3379   20.7264 C   0  0  0  0  0  0
  -27.2371  -28.4831   20.7255 C   0  0  0  0  0  0
  -26.0147  -26.8095   19.4943 C   0  0  0  0  0  0
  -24.8785  -27.6452   19.4787 C   0  0  0  0  0  0
  -23.6702  -29.7971   20.1536 C   0  0  0  0  0  0
  -25.4127  -36.3035   24.0318 C   0  0  1  0  0  0
  -20.5917  -28.3714   23.1234 C   0  0  2  0  0  0
  -20.6791  -26.9415   22.5409 C   0  0  0  0  0  0
  -19.5773  -26.6381   21.5204 C   0  0  0  0  0  0
  -18.1953  -26.7936   22.1610 C   0  0  0  0  0  0
  -19.1564  -28.8872   23.2845 C   0  0  0  0  0  0
  -18.9482  -30.1470   23.8868 C   0  0  0  0  0  0
  -17.6479  -30.6588   24.0559 C   0  0  0  0  0  0
  -25.9072  -34.9408   23.5067 C   0  0  0  0  0  0
  -16.5370  -29.9079   23.6341 C   0  0  0  0  0  0
  -16.7295  -28.6502   23.0351 C   0  0  0  0  0  0
  -26.4528  -31.6562   25.0707 C   0  0  0  0  0  0
  -25.3724  -31.3763   26.1419 C   0  0  0  0  0  0
  -27.0377  -30.2957   24.6274 C   0  0  0  0  0  0
  -27.6085  -32.4306   25.7471 C   0  0  0  0  0  0
  -27.5583  -37.1777   24.8465 C   0  0  0  0  0  0
  -21.4253  -29.3042   22.3607 N   0  0  0  0  0  0
  -26.4289  -37.3751   23.9413 N   0  0  0  0  0  0
  -24.7147  -31.0326   22.0924 N   0  0  0  0  0  0
  -23.4214  -28.8101   23.2998 O   0  0  0  0  0  0
  -28.2831  -26.1774   20.2081 O   0  0  0  0  0  0
  -26.5645  -34.8904   22.4637 O   0  0  0  0  0  0
  -23.5543  -32.1321   23.7134 O   0  0  0  0  0  0
  -30.5390  -18.5592   20.3119 C   0  0  0  0  0  0
  -30.2281  -19.9961   20.2516 C   0  0  0  0  0  0
  -27.9577  -19.5005   20.6233 C   0  0  0  0  0  0
  -29.5558  -17.5246   20.5374 C   0  0  0  0  0  0
  -28.9022  -20.5492   20.4006 C   0  0  0  0  0  0
  -28.2572  -18.0929   20.6946 C   0  0  0  0  0  0
  -27.9882  -24.6555   20.0887 C   0  0  0  0  0  0
  -28.9899  -23.3140   20.2894 C   0  0  0  0  0  0
  -29.6477  -16.0010   20.6557 N   0  0  0  0  0  0
  -28.3721  -21.9139   20.3335 O   0  0  0  0  0  0
  -27.2334  -17.2380   20.9233 F   0  0  0  0  0  0
  -31.4877  -12.7311   19.1805 H   0  0  0  0  0  0
  -30.4555  -11.5990   20.0081 H   0  0  0  0  0  0
  -29.8357  -11.7251   17.5785 H   0  0  0  0  0  0
  -29.6217  -13.4538   17.6962 H   0  0  0  0  0  0
  -27.9448  -11.2745   18.9718 H   0  0  0  0  0  0
  -27.3927  -12.4619   17.8198 H   0  0  0  0  0  0
  -27.6113  -14.2499   19.4400 H   0  0  0  0  0  0
  -28.7627  -12.2279   21.4282 H   0  0  0  0  0  0
  -28.3905  -13.8918   21.7938 H   0  0  0  0  0  0
  -25.2762   -9.5668   22.4749 H   0  0  0  0  0  0
  -23.9997   -7.4619   22.7465 H   0  0  0  0  0  0
  -21.0833   -8.8763   19.8957 H   0  0  0  0  0  0
  -22.3691  -10.9656   19.6162 H   0  0  0  0  0  0
  -21.2000   -7.6137   23.9710 H   0  0  0  0  0  0
  -21.1484   -6.0514   25.9077 H   0  0  0  0  0  0
  -22.0601   -2.7602   23.2845 H   0  0  0  0  0  0
  -22.4080  -11.9854   22.4844 H   0  0  0  0  0  0
  -21.1086  -13.1224   22.2682 H   0  0  0  0  0  0
  -24.6307  -15.8255   20.5832 H   0  0  0  0  0  0
  -26.2721  -15.6785   20.2515 H   0  0  0  0  0  0
  -26.7256  -32.5313   23.0995 H   0  0  0  0  0  0
  -25.0120  -33.9624   25.0359 H   0  0  0  0  0  0
  -22.7457  -31.2916   21.3825 H   0  0  0  0  0  0
  -23.3764  -35.9569   23.3295 H   0  0  0  0  0  0
  -24.3583  -36.8891   22.2059 H   0  0  0  0  0  0
  -23.7234  -37.6438   23.6676 H   0  0  0  0  0  0
  -26.1548  -31.4813   20.6161 H   0  0  0  0  0  0
  -26.8698  -30.7733   22.0286 H   0  0  0  0  0  0
  -28.1339  -28.8182   21.2272 H   0  0  0  0  0  0
  -25.9091  -25.8553   19.0022 H   0  0  0  0  0  0
  -23.9799  -27.3022   18.9846 H   0  0  0  0  0  0
  -23.8050  -30.5726   19.3985 H   0  0  0  0  0  0
  -22.7852  -29.2385   19.8435 H   0  0  0  0  0  0
  -25.1315  -36.1864   25.0809 H   0  0  0  0  0  0
  -21.0014  -28.3306   24.1352 H   0  0  0  0  0  0
  -20.5663  -26.2325   23.3628 H   0  0  0  0  0  0
  -21.6662  -26.7413   22.1223 H   0  0  0  0  0  0
  -19.6932  -25.6283   21.1254 H   0  0  0  0  0  0
  -19.6724  -27.3171   20.6718 H   0  0  0  0  0  0
  -17.4226  -26.6676   21.4011 H   0  0  0  0  0  0
  -18.0354  -26.0083   22.9012 H   0  0  0  0  0  0
  -19.7958  -30.7294   24.2221 H   0  0  0  0  0  0
  -17.5034  -31.6265   24.5168 H   0  0  0  0  0  0
  -15.5369  -30.2970   23.7682 H   0  0  0  0  0  0
  -15.8697  -28.0816   22.7070 H   0  0  0  0  0  0
  -24.5924  -30.7070   25.7768 H   0  0  0  0  0  0
  -24.8877  -32.2943   26.4751 H   0  0  0  0  0  0
  -25.8032  -30.9027   27.0250 H   0  0  0  0  0  0
  -26.2980  -29.6682   24.1288 H   0  0  0  0  0  0
  -27.4006  -29.7261   25.4840 H   0  0  0  0  0  0
  -27.8891  -30.4196   23.9575 H   0  0  0  0  0  0
  -27.2716  -33.3639   26.1992 H   0  0  0  0  0  0
  -28.3918  -32.6809   25.0300 H   0  0  0  0  0  0
  -28.0715  -31.8450   26.5425 H   0  0  0  0  0  0
  -28.2603  -38.0072   24.7516 H   0  0  0  0  0  0
  -28.1080  -36.2606   24.6286 H   0  0  0  0  0  0
  -27.2304  -37.1424   25.8870 H   0  0  0  0  0  0
  -20.9449  -29.8759   21.6797 H   0  0  0  0  0  0
  -26.0160  -38.2818   24.1433 H   0  0  0  0  0  0
  -31.5690  -18.2594   20.1836 H   0  0  0  0  0  0
  -31.0442  -20.6817   20.0723 H   0  0  0  0  0  0
  -26.9238  -19.7840   20.7511 H   0  0  0  0  0  0
  -27.1559  -24.4881   20.7736 H   0  0  0  0  0  0
  -27.5690  -24.5159   19.0932 H   0  0  0  0  0  0
  -29.5433  -23.4398   21.2200 H   0  0  0  0  0  0
  -29.7405  -23.3184   19.4988 H   0  0  0  0  0  0
  -28.7399  -15.6306   20.8942 H   0  0  0  0  0  0
  1 25  1  0  0  0
  1 30  2  0  0  0
  1 79  1  0  0  0
  2  3  1  0  0  0
  2 25  1  0  0  0
  2 82  1  0  0  0
  2 83  1  0  0  0
  3  4  1  0  0  0
  3 84  1  0  0  0
  3 85  1  0  0  0
  4  5  1  0  0  0
  4 86  1  0  0  0
  4 87  1  0  0  0
  5  6  1  0  0  0
  5 26  1  0  0  0
  5 88  1  0  0  0
  6 25  1  0  0  0
  6 89  1  0  0  0
  6 90  1  0  0  0
  7  8  2  0  0  0
  7 26  1  0  0  0
  7 29  1  0  0  0
  8  9  1  0  0  0
  8 22  1  0  0  0
  9 10  1  0  0  0
  9 27  2  0  0  0
 10 11  2  0  0  0
 10 15  1  0  0  0
 11 12  1  0  0  0
 11 91  1  0  0  0
 12 13  2  0  0  0
 12 92  1  0  0  0
 13 14  1  0  0  0
 13 31  1  0  0  0
 14 15  2  0  0  0
 14 93  1  0  0  0
 15 94  1  0  0  0
 16 17  2  0  0  0
 16 21  1  0  0  0
 16 31  1  0  0  0
 17 18  1  0  0  0
 17 95  1  0  0  0
 18 19  2  0  0  0
 18 96  1  0  0  0
 19 20  1  0  0  0
 19 24  1  0  0  0
 20 21  2  0  0  0
 20 97  1  0  0  0
 21 23  1  0  0  0
 22 28  1  0  0  0
 22 32  2  0  0  0
 26 27  1  0  0  0
 28 98  1  0  0  0
 28 99  1  0  0  0
 29100  1  0  0  0
 29101  1  0  0  0
 33 34  1  0  0  0
 33 66  1  0  0  0
 33 70  2  0  0  0
 34 36  1  0  0  0
 34 59  1  0  0  0
 34102  1  0  0  0
 35 44  2  0  0  0
 35 45  1  0  0  0
 35 68  1  0  0  0
 36 56  1  0  0  0
 36103  1  0  0  0
 37 39  1  0  0  0
 37 47  1  0  0  0
 37 66  1  0  0  0
 37104  1  0  0  0
 38 43  2  0  0  0
 38 46  1  0  0  0
 38 47  1  0  0  0
 39 64  1  0  0  0
 39 67  2  0  0  0
 40 52  1  0  0  0
 40 53  2  0  0  0
 40 58  1  0  0  0
 41105  1  0  0  0
 41106  1  0  0  0
 41107  1  0  0  0
 41 48  1  0  0  0
 42 43  1  0  0  0
 42 66  1  0  0  0
 42108  1  0  0  0
 42109  1  0  0  0
 43 44  1  0  0  0
 44110  1  0  0  0
 45 46  2  0  0  0
 45111  1  0  0  0
 46112  1  0  0  0
 47113  1  0  0  0
 47114  1  0  0  0
 48 56  1  0  0  0
 48 65  1  0  0  0
 48115  1  0  0  0
 49 50  1  0  0  0
 49 53  1  0  0  0
 49 64  1  0  0  0
 49116  1  0  0  0
 50 51  1  0  0  0
 50117  1  0  0  0
 50118  1  0  0  0
 51 52  1  0  0  0
 51119  1  0  0  0
 51120  1  0  0  0
 52121  1  0  0  0
 52122  1  0  0  0
 53 54  1  0  0  0
 54 55  2  0  0  0
 54123  1  0  0  0
 55 57  1  0  0  0
 55124  1  0  0  0
 56 69  2  0  0  0
 57 58  2  0  0  0
 57125  1  0  0  0
 58126  1  0  0  0
 59 60  1  0  0  0
 59 61  1  0  0  0
 59 62  1  0  0  0
 60127  1  0  0  0
 60128  1  0  0  0
 60129  1  0  0  0
 61130  1  0  0  0
 61131  1  0  0  0
 61132  1  0  0  0
 62133  1  0  0  0
 62134  1  0  0  0
 62135  1  0  0  0
 63 65  1  0  0  0
 63136  1  0  0  0
 63137  1  0  0  0
 63138  1  0  0  0
 64139  1  0  0  0
 65140  1  0  0  0
 68 77  1  0  0  0
 71 72  2  0  0  0
 71 74  1  0  0  0
 71141  1  0  0  0
 72 75  1  0  0  0
 72142  1  0  0  0
 73 75  2  0  0  0
 73 76  1  0  0  0
 73143  1  0  0  0
 74 76  2  0  0  0
 74 79  1  0  0  0
 75 80  1  0  0  0
 76 81  1  0  0  0
 77 78  1  0  0  0
 77144  1  0  0  0
 77145  1  0  0  0
 78 80  1  0  0  0
 78146  1  0  0  0
 78147  1  0  0  0
 79148  1  0  0  0
M  ISO  4   1 100  68 101  77 101  79 100
M  END
> <chiral flag>
0

> <version>
0

> <s_m_source_file>
/data/baiqing/PycharmProjects/Reinvent-master-3.2/result/LINK_invent/BTK/process_docking_weight1_custom_product_contain_oxygen_bond_distance_aromatic_linkinvent_7_9_3/rearranged_h_0009.sdf

> <i_m_source_file_index>
7

> <r_mmod_Potential_Energy-OPLS-2005>
429.317779541016

> <r_mmod_Stretch_Energy-OPLS-2005>
215.171890258789

> <r_mmod_Bend_Energy-OPLS-2005>
307.654571533203

> <r_mmod_Torsional_Energy-OPLS-2005>
210.088012695312

> <r_mmod_Improper_Torsional_Energy-OPLS-2005>
3.85878729820251

> <r_mmod_Van_der_Waal_Energy-OPLS-2005>
133.190078735352

> <r_mmod_Electrostatic_Energy-OPLS-2005>
-411.460144042969

> <r_mmod_Solvation_Energy-OPLS-2005>
-203.061370849609

> <b_mmod_Minimization_Converged-OPLS-2005>
0

> <r_mmod_RMS_Derivative-OPLS-2005>
0.840658664703369

$$$$
7
                    3D
 Structure written by MMmdl.
155164  0  0  1  0            999 V2000
  -30.5781  -14.6548   20.5252 C   0  0  0  0  0  0
  -30.4446  -12.4156   19.4389 C   0  0  0  0  0  0
  -29.5053  -12.5271   18.2180 C   0  0  0  0  0  0
  -28.0253  -12.3783   18.6267 C   0  0  0  0  0  0
  -27.6557  -13.2240   19.8751 C   0  0  2  0  0  0
  -28.6995  -13.0311   20.9981 C   0  0  0  0  0  0
  -25.2487  -13.8212   20.5664 C   0  0  0  0  0  0
  -24.1782  -13.0433   20.9158 C   0  0  0  0  0  0
  -24.6387  -11.6925   20.8674 C   0  0  0  0  0  0
  -23.9059  -10.4314   21.0338 C   0  0  0  0  0  0
  -24.3580   -9.4235   21.9118 C   0  0  0  0  0  0
  -23.6245   -8.2280   22.0722 C   0  0  0  0  0  0
  -22.4222   -8.0301   21.3550 C   0  0  0  0  0  0
  -21.9871   -9.0279   20.4665 C   0  0  0  0  0  0
  -22.7203  -10.2144   20.3033 C   0  0  0  0  0  0
  -21.6877   -6.0701   22.5259 C   0  0  0  0  0  0
  -21.4020   -6.5576   23.8169 C   0  0  0  0  0  0
  -21.3661   -5.6739   24.9140 C   0  0  0  0  0  0
  -21.6061   -4.3015   24.7229 C   0  0  0  0  0  0
  -21.8832   -3.8118   23.4341 C   0  0  0  0  0  0
  -21.9205   -4.6922   22.3408 C   0  0  0  0  0  0
  -22.7783  -13.5195   21.1802 C   0  0  0  0  0  0
  -22.1695   -4.2125   21.0981 F   0  0  0  0  0  0
  -21.5628   -3.4488   25.7743 F   0  0  0  0  0  0
  -30.0090  -13.4091   20.4460 N   0  0  0  0  0  0
  -26.2981  -12.9430   20.3366 N   0  0  0  0  0  0
  -25.9323  -11.6574   20.5727 N   0  0  0  0  0  0
  -22.0432  -12.8270   22.0416 N   0  0  0  0  0  0
  -25.3929  -15.1939   20.4019 N   0  0  0  0  0  0
  -31.7065  -14.8665   20.0691 O   0  0  0  0  0  0
  -21.6636   -6.8855   21.4222 O   0  0  0  0  0  0
  -22.3452  -14.5482   20.6619 O   0  0  0  0  0  0
  -24.6290  -31.8610   23.2045 C   0  0  0  0  0  0
  -25.9126  -32.4778   23.8364 C   0  0  1  0  0  0
  -27.1940  -27.2911   20.1446 C   0  0  0  0  0  0
  -25.5957  -33.8576   24.2312 N   0  0  0  0  0  0
  -23.4243  -30.4849   21.5453 C   0  0  2  0  0  0
  -24.8700  -28.9518   20.0991 C   0  0  0  0  0  0
  -22.7495  -29.4606   22.4907 C   0  0  0  0  0  0
  -18.0291  -28.1410   22.8466 C   0  0  0  0  0  0
  -24.1493  -36.7271   23.2622 C   0  0  0  0  0  0
  -25.9660  -30.7896   21.3756 C   0  0  0  0  0  0
  -26.0390  -29.4173   20.7147 C   0  0  0  0  0  0
  -27.2103  -28.5991   20.7251 C   0  0  0  0  0  0
  -26.0205  -26.9058   19.4649 C   0  0  0  0  0  0
  -24.8647  -27.7053   19.4578 C   0  0  0  0  0  0
  -23.6398  -29.8315   20.1549 C   0  0  0  0  0  0
  -25.4099  -36.3051   24.0345 C   0  0  1  0  0  0
  -20.5891  -28.3688   23.1278 C   0  0  2  0  0  0
  -20.6795  -26.9388   22.5438 C   0  0  0  0  0  0
  -19.5773  -26.6380   21.5233 C   0  0  0  0  0  0
  -18.1940  -26.7963   22.1613 C   0  0  0  0  0  0
  -19.1546  -28.8868   23.2881 C   0  0  0  0  0  0
  -18.9468  -30.1475   23.8903 C   0  0  0  0  0  0
  -17.6454  -30.6579   24.0547 C   0  0  0  0  0  0
  -25.9039  -34.9434   23.5097 C   0  0  0  0  0  0
  -16.5339  -29.9073   23.6320 C   0  0  0  0  0  0
  -16.7270  -28.6503   23.0319 C   0  0  0  0  0  0
  -26.4522  -31.6569   25.0711 C   0  0  0  0  0  0
  -25.3770  -31.3735   26.1453 C   0  0  0  0  0  0
  -27.0339  -30.2979   24.6162 C   0  0  0  0  0  0
  -27.6115  -32.4278   25.7469 C   0  0  0  0  0  0
  -27.5599  -37.1748   24.8418 C   0  0  0  0  0  0
  -21.4210  -29.3041   22.3662 N   0  0  0  0  0  0
  -26.4261  -37.3764   23.9437 N   0  0  0  0  0  0
  -24.6917  -31.0616   22.0980 N   0  0  0  0  0  0
  -23.4245  -28.8109   23.2943 O   0  0  0  0  0  0
  -28.2442  -26.3659   20.2527 O   0  0  0  0  0  0
  -26.5563  -34.8908   22.4637 O   0  0  0  0  0  0
  -23.5442  -32.1396   23.7363 O   0  0  0  0  0  0
  -29.2025  -19.4253   21.4725 C   0  0  0  0  0  0
  -29.5743  -18.0691   21.7517 C   0  0  0  0  0  0
  -28.9558  -18.8408   19.1535 C   0  0  0  0  0  0
  -28.8627  -19.8528   20.1590 C   0  0  0  0  0  0
  -29.6405  -17.0580   20.7429 C   0  0  0  0  0  0
  -29.3246  -17.4871   19.4252 C   0  0  0  0  0  0
  -28.2585  -23.7953   19.7114 C   0  0  0  0  0  0
  -28.3738  -24.4204   21.9989 C   0  0  0  0  0  0
  -28.4864  -22.8730   21.8158 C   0  0  0  0  0  0
  -27.8603  -24.9709   20.6566 C   0  0  1  0  0  0
  -28.2251  -21.2465   19.7588 C   0  0  0  0  0  0
  -28.4792  -22.6127   20.3735 N   0  0  0  0  0  0
  -29.8157  -15.6427   21.0930 N   0  0  0  0  0  0
  -28.2470  -23.9250   18.4828 O   0  0  0  0  0  0
  -29.2932  -16.5834   18.4160 F   0  0  0  0  0  0
  -31.4827  -12.5589   19.1327 H   0  0  0  0  0  0
  -30.4111  -11.4100   19.8561 H   0  0  0  0  0  0
  -29.7635  -11.7737   17.4712 H   0  0  0  0  0  0
  -29.6539  -13.4946   17.7349 H   0  0  0  0  0  0
  -27.8364  -11.3199   18.8240 H   0  0  0  0  0  0
  -27.3817  -12.6588   17.7939 H   0  0  0  0  0  0
  -27.6879  -14.2700   19.5626 H   0  0  0  0  0  0
  -28.7244  -11.9900   21.3267 H   0  0  0  0  0  0
  -28.4430  -13.6073   21.8889 H   0  0  0  0  0  0
  -25.2718   -9.5727   22.4672 H   0  0  0  0  0  0
  -24.0006   -7.4670   22.7403 H   0  0  0  0  0  0
  -21.0820   -8.8755   19.8960 H   0  0  0  0  0  0
  -22.3623  -10.9639   19.6143 H   0  0  0  0  0  0
  -21.1987   -7.6082   23.9675 H   0  0  0  0  0  0
  -21.1444   -6.0457   25.9037 H   0  0  0  0  0  0
  -22.0613   -2.7581   23.2845 H   0  0  0  0  0  0
  -22.4063  -12.0006   22.4961 H   0  0  0  0  0  0
  -21.1019  -13.1254   22.2539 H   0  0  0  0  0  0
  -24.5781  -15.7962   20.4669 H   0  0  0  0  0  0
  -26.2163  -15.6733   20.0660 H   0  0  0  0  0  0
  -26.7187  -32.5473   23.1122 H   0  0  0  0  0  0
  -25.0204  -33.9729   25.0518 H   0  0  0  0  0  0
  -22.7139  -31.3019   21.4063 H   0  0  0  0  0  0
  -23.3803  -35.9552   23.3192 H   0  0  0  0  0  0
  -24.3587  -36.8961   22.2043 H   0  0  0  0  0  0
  -23.7218  -37.6441   23.6690 H   0  0  0  0  0  0
  -26.0889  -31.5556   20.6082 H   0  0  0  0  0  0
  -26.8486  -30.8380   22.0033 H   0  0  0  0  0  0
  -28.1041  -28.9349   21.2284 H   0  0  0  0  0  0
  -25.9716  -25.9513   18.9620 H   0  0  0  0  0  0
  -23.9735  -27.3483   18.9634 H   0  0  0  0  0  0
  -23.7657  -30.6145   19.4048 H   0  0  0  0  0  0
  -22.7572  -29.2653   19.8501 H   0  0  0  0  0  0
  -25.1272  -36.1874   25.0840 H   0  0  0  0  0  0
  -20.9988  -28.3274   24.1392 H   0  0  0  0  0  0
  -20.5696  -26.2249   23.3629 H   0  0  0  0  0  0
  -21.6655  -26.7440   22.1202 H   0  0  0  0  0  0
  -19.6892  -25.6289   21.1268 H   0  0  0  0  0  0
  -19.6738  -27.3165   20.6749 H   0  0  0  0  0  0
  -17.4221  -26.6727   21.4001 H   0  0  0  0  0  0
  -18.0270  -26.0136   22.9015 H   0  0  0  0  0  0
  -19.7932  -30.7312   24.2269 H   0  0  0  0  0  0
  -17.4987  -31.6262   24.5129 H   0  0  0  0  0  0
  -15.5329  -30.2938   23.7694 H   0  0  0  0  0  0
  -15.8679  -28.0817   22.7029 H   0  0  0  0  0  0
  -24.5929  -30.7094   25.7798 H   0  0  0  0  0  0
  -24.9002  -32.2918   26.4889 H   0  0  0  0  0  0
  -25.8111  -30.8919   27.0225 H   0  0  0  0  0  0
  -26.2888  -29.6740   24.1232 H   0  0  0  0  0  0
  -27.4038  -29.7226   25.4657 H   0  0  0  0  0  0
  -27.8752  -30.4221   23.9346 H   0  0  0  0  0  0
  -27.2776  -33.3581   26.2089 H   0  0  0  0  0  0
  -28.3926  -32.6853   25.0292 H   0  0  0  0  0  0
  -28.0810  -31.8379   26.5363 H   0  0  0  0  0  0
  -28.2510  -38.0149   24.7623 H   0  0  0  0  0  0
  -28.1211  -36.2700   24.6041 H   0  0  0  0  0  0
  -27.2335  -37.1131   25.8811 H   0  0  0  0  0  0
  -20.9339  -29.8754   21.6899 H   0  0  0  0  0  0
  -26.0141  -38.2800   24.1598 H   0  0  0  0  0  0
  -29.1294  -20.1184   22.3009 H   0  0  0  0  0  0
  -29.7742  -17.7996   22.7791 H   0  0  0  0  0  0
  -28.6756  -19.0847   18.1376 H   0  0  0  0  0  0
  -29.3485  -24.8479   22.2424 H   0  0  0  0  0  0
  -27.6986  -24.6628   22.8213 H   0  0  0  0  0  0
  -27.6426  -22.3627   22.2890 H   0  0  0  0  0  0
  -29.3989  -22.4910   22.2752 H   0  0  0  0  0  0
  -26.7750  -24.8918   20.7351 H   0  0  0  0  0  0
  -27.1494  -21.0906   19.8495 H   0  0  0  0  0  0
  -28.3879  -21.3470   18.6831 H   0  0  0  0  0  0
  -29.0641  -15.2720   21.6542 H   0  0  0  0  0  0
  1 25  1  0  0  0
  1 30  2  0  0  0
  1 83  1  0  0  0
  2  3  1  0  0  0
  2 25  1  0  0  0
  2 86  1  0  0  0
  2 87  1  0  0  0
  3  4  1  0  0  0
  3 88  1  0  0  0
  3 89  1  0  0  0
  4  5  1  0  0  0
  4 90  1  0  0  0
  4 91  1  0  0  0
  5  6  1  0  0  0
  5 26  1  0  0  0
  5 92  1  0  0  0
  6 25  1  0  0  0
  6 93  1  0  0  0
  6 94  1  0  0  0
  7  8  2  0  0  0
  7 26  1  0  0  0
  7 29  1  0  0  0
  8  9  1  0  0  0
  8 22  1  0  0  0
  9 10  1  0  0  0
  9 27  2  0  0  0
 10 11  2  0  0  0
 10 15  1  0  0  0
 11 12  1  0  0  0
 11 95  1  0  0  0
 12 13  2  0  0  0
 12 96  1  0  0  0
 13 14  1  0  0  0
 13 31  1  0  0  0
 14 15  2  0  0  0
 14 97  1  0  0  0
 15 98  1  0  0  0
 16 17  2  0  0  0
 16 21  1  0  0  0
 16 31  1  0  0  0
 17 18  1  0  0  0
 17 99  1  0  0  0
 18 19  2  0  0  0
 18100  1  0  0  0
 19 20  1  0  0  0
 19 24  1  0  0  0
 20 21  2  0  0  0
 20101  1  0  0  0
 21 23  1  0  0  0
 22 28  1  0  0  0
 22 32  2  0  0  0
 26 27  1  0  0  0
 28102  1  0  0  0
 28103  1  0  0  0
 29104  1  0  0  0
 29105  1  0  0  0
 33 34  1  0  0  0
 33 66  1  0  0  0
 33 70  2  0  0  0
 34 36  1  0  0  0
 34 59  1  0  0  0
 34106  1  0  0  0
 35 44  2  0  0  0
 35 45  1  0  0  0
 35 68  1  0  0  0
 36 56  1  0  0  0
 36107  1  0  0  0
 37 39  1  0  0  0
 37 47  1  0  0  0
 37 66  1  0  0  0
 37108  1  0  0  0
 38 43  2  0  0  0
 38 46  1  0  0  0
 38 47  1  0  0  0
 39 64  1  0  0  0
 39 67  2  0  0  0
 40 52  1  0  0  0
 40 53  2  0  0  0
 40 58  1  0  0  0
 41109  1  0  0  0
 41110  1  0  0  0
 41111  1  0  0  0
 41 48  1  0  0  0
 42 43  1  0  0  0
 42 66  1  0  0  0
 42112  1  0  0  0
 42113  1  0  0  0
 43 44  1  0  0  0
 44114  1  0  0  0
 45 46  2  0  0  0
 45115  1  0  0  0
 46116  1  0  0  0
 47117  1  0  0  0
 47118  1  0  0  0
 48 56  1  0  0  0
 48 65  1  0  0  0
 48119  1  0  0  0
 49 50  1  0  0  0
 49 53  1  0  0  0
 49 64  1  0  0  0
 49120  1  0  0  0
 50 51  1  0  0  0
 50121  1  0  0  0
 50122  1  0  0  0
 51 52  1  0  0  0
 51123  1  0  0  0
 51124  1  0  0  0
 52125  1  0  0  0
 52126  1  0  0  0
 53 54  1  0  0  0
 54 55  2  0  0  0
 54127  1  0  0  0
 55 57  1  0  0  0
 55128  1  0  0  0
 56 69  2  0  0  0
 57 58  2  0  0  0
 57129  1  0  0  0
 58130  1  0  0  0
 59 60  1  0  0  0
 59 61  1  0  0  0
 59 62  1  0  0  0
 60131  1  0  0  0
 60132  1  0  0  0
 60133  1  0  0  0
 61134  1  0  0  0
 61135  1  0  0  0
 61136  1  0  0  0
 62137  1  0  0  0
 62138  1  0  0  0
 62139  1  0  0  0
 63 65  1  0  0  0
 63140  1  0  0  0
 63141  1  0  0  0
 63142  1  0  0  0
 64143  1  0  0  0
 65144  1  0  0  0
 68 80  1  0  0  0
 71 72  2  0  0  0
 71 74  1  0  0  0
 71145  1  0  0  0
 72 75  1  0  0  0
 72146  1  0  0  0
 73 74  2  0  0  0
 73 76  1  0  0  0
 73147  1  0  0  0
 74 81  1  0  0  0
 75 76  2  0  0  0
 75 83  1  0  0  0
 76 85  1  0  0  0
 77 80  1  0  0  0
 77 82  1  0  0  0
 77 84  2  0  0  0
 78 79  1  0  0  0
 78 80  1  0  0  0
 78148  1  0  0  0
 78149  1  0  0  0
 79 82  1  0  0  0
 79150  1  0  0  0
 79151  1  0  0  0
 80152  1  0  0  0
 81 82  1  0  0  0
 81153  1  0  0  0
 81154  1  0  0  0
 83155  1  0  0  0
M  ISO  4   1 100  68 101  80 101  83 100
M  END
> <chiral flag>
0

> <version>
0

> <s_m_source_file>
/data/baiqing/PycharmProjects/Reinvent-master-3.2/result/LINK_invent/BTK/process_docking_weight1_custom_product_contain_oxygen_bond_distance_aromatic_linkinvent_7_9_3/rearranged_h_0009.sdf

> <i_m_source_file_index>
8

> <r_mmod_Potential_Energy-OPLS-2005>
158.201232910156

> <r_mmod_Stretch_Energy-OPLS-2005>
88.6173477172852

> <r_mmod_Bend_Energy-OPLS-2005>
186.414810180664

> <r_mmod_Torsional_Energy-OPLS-2005>
292.631530761719

> <r_mmod_Improper_Torsional_Energy-OPLS-2005>
7.88035154342651

> <r_mmod_Van_der_Waal_Energy-OPLS-2005>
134.157440185547

> <r_mmod_Electrostatic_Energy-OPLS-2005>
-377.987854003906

> <r_mmod_Solvation_Energy-OPLS-2005>
-240.599334716797

> <b_mmod_Minimization_Converged-OPLS-2005>
0

> <r_mmod_RMS_Derivative-OPLS-2005>
6.41295766830444

$$$$
8
                    3D
 Structure written by MMmdl.
148156  0  0  1  0            999 V2000
  -30.5217  -15.0261   20.4052 C   0  0  0  0  0  0
  -30.4390  -12.6402   19.5048 C   0  0  0  0  0  0
  -29.5238  -12.5369   18.2623 C   0  0  0  0  0  0
  -28.0601  -12.3096   18.6832 C   0  0  0  0  0  0
  -27.6240  -13.2552   19.8324 C   0  0  2  0  0  0
  -28.6655  -13.3241   20.9692 C   0  0  0  0  0  0
  -25.2437  -13.8224   20.5717 C   0  0  0  0  0  0
  -24.1766  -13.0437   20.9239 C   0  0  0  0  0  0
  -24.6394  -11.6926   20.8759 C   0  0  0  0  0  0
  -23.9082  -10.4293   21.0409 C   0  0  0  0  0  0
  -24.3630   -9.4205   21.9184 C   0  0  0  0  0  0
  -23.6300   -8.2242   22.0754 C   0  0  0  0  0  0
  -22.4282   -8.0282   21.3545 C   0  0  0  0  0  0
  -21.9920   -9.0258   20.4648 C   0  0  0  0  0  0
  -22.7254  -10.2134   20.3057 C   0  0  0  0  0  0
  -21.6854   -6.0737   22.5278 C   0  0  0  0  0  0
  -21.4016   -6.5640   23.8212 C   0  0  0  0  0  0
  -21.3659   -5.6793   24.9173 C   0  0  0  0  0  0
  -21.6044   -4.3055   24.7225 C   0  0  0  0  0  0
  -21.8818   -3.8147   23.4345 C   0  0  0  0  0  0
  -21.9193   -4.6964   22.3402 C   0  0  0  0  0  0
  -22.7784  -13.5202   21.1892 C   0  0  0  0  0  0
  -22.1661   -4.2149   21.0979 F   0  0  0  0  0  0
  -21.5628   -3.4539   25.7737 F   0  0  0  0  0  0
  -29.9299  -13.7565   20.3600 N   0  0  0  0  0  0
  -26.2862  -12.9469   20.3230 N   0  0  0  0  0  0
  -25.9327  -11.6592   20.5735 N   0  0  0  0  0  0
  -22.0439  -12.8188   22.0448 N   0  0  0  0  0  0
  -25.4078  -15.1956   20.4133 N   0  0  0  0  0  0
  -31.7343  -15.0548   20.1648 O   0  0  0  0  0  0
  -21.6643   -6.8881   21.4241 O   0  0  0  0  0  0
  -22.3465  -14.5504   20.6733 O   0  0  0  0  0  0
  -24.6490  -31.8384   23.1833 C   0  0  0  0  0  0
  -25.9236  -32.4666   23.8243 C   0  0  1  0  0  0
  -27.2158  -27.0783   20.1612 C   0  0  0  0  0  0
  -25.5958  -33.8474   24.2155 N   0  0  0  0  0  0
  -23.4556  -30.4561   21.5299 C   0  0  2  0  0  0
  -24.9057  -28.8721   20.1110 C   0  0  0  0  0  0
  -22.7596  -29.4519   22.4836 C   0  0  0  0  0  0
  -18.0310  -28.1399   22.8474 C   0  0  0  0  0  0
  -24.1492  -36.7244   23.2644 C   0  0  0  0  0  0
  -26.0158  -30.6941   21.3906 C   0  0  0  0  0  0
  -26.0859  -29.2997   20.7324 C   0  0  0  0  0  0
  -27.2411  -28.4209   20.7363 C   0  0  0  0  0  0
  -26.0077  -26.7657   19.5001 C   0  0  0  0  0  0
  -24.8831  -27.6209   19.4774 C   0  0  0  0  0  0
  -23.6856  -29.7822   20.1510 C   0  0  0  0  0  0
  -25.4127  -36.3015   24.0310 C   0  0  1  0  0  0
  -20.5926  -28.3731   23.1221 C   0  0  2  0  0  0
  -20.6792  -26.9428   22.5403 C   0  0  0  0  0  0
  -19.5765  -26.6380   21.5212 C   0  0  0  0  0  0
  -18.1947  -26.7936   22.1623 C   0  0  0  0  0  0
  -19.1568  -28.8883   23.2838 C   0  0  0  0  0  0
  -18.9482  -30.1477   23.8868 C   0  0  0  0  0  0
  -17.6478  -30.6594   24.0558 C   0  0  0  0  0  0
  -25.9081  -34.9392   23.5046 C   0  0  0  0  0  0
  -16.5368  -29.9085   23.6338 C   0  0  0  0  0  0
  -16.7294  -28.6504   23.0358 C   0  0  0  0  0  0
  -26.4535  -31.6559   25.0712 C   0  0  0  0  0  0
  -25.3700  -31.3765   26.1392 C   0  0  0  0  0  0
  -27.0416  -30.2948   24.6340 C   0  0  0  0  0  0
  -27.6048  -32.4343   25.7506 C   0  0  0  0  0  0
  -27.5574  -37.1779   24.8466 C   0  0  0  0  0  0
  -21.4281  -29.3048   22.3586 N   0  0  0  0  0  0
  -26.4285  -37.3734   23.9406 N   0  0  0  0  0  0
  -24.7271  -31.0189   22.0893 N   0  0  0  0  0  0
  -23.4212  -28.8072   23.3012 O   0  0  0  0  0  0
  -28.2533  -26.0585   20.2323 O   0  0  0  0  0  0
  -26.5676  -34.8901   22.4631 O   0  0  0  0  0  0
  -23.5595  -32.1285   23.7019 O   0  0  0  0  0  0
  -29.1065  -18.9480   20.3819 C   0  0  0  0  0  0
  -31.3920  -18.1841   20.5578 C   0  0  0  0  0  0
  -30.8592  -20.6164   20.4838 C   0  0  0  0  0  0
  -30.0427  -17.7704   20.4668 C   0  0  0  0  0  0
  -29.4673  -20.4116   20.3808 C   0  0  0  0  0  0
  -31.7820  -19.5461   20.5675 C   0  0  0  0  0  0
  -27.9628  -24.5033   20.1172 C   0  0  0  0  0  0
  -28.9799  -23.1295   20.3350 C   0  0  0  0  0  0
  -29.7393  -16.2368   20.4946 N   0  0  0  0  0  0
  -28.5845  -21.6014   20.2828 O   0  0  0  0  0  0
  -33.1012  -19.8389   20.6637 F   0  0  0  0  0  0
  -31.4700  -12.8053   19.1886 H   0  0  0  0  0  0
  -30.4473  -11.7011   20.0606 H   0  0  0  0  0  0
  -29.8572  -11.7282   17.6105 H   0  0  0  0  0  0
  -29.5985  -13.4540   17.6760 H   0  0  0  0  0  0
  -27.9708  -11.2726   19.0087 H   0  0  0  0  0  0
  -27.3951  -12.4183   17.8256 H   0  0  0  0  0  0
  -27.5738  -14.2479   19.3840 H   0  0  0  0  0  0
  -28.7726  -12.3602   21.4688 H   0  0  0  0  0  0
  -28.3516  -14.0371   21.7334 H   0  0  0  0  0  0
  -25.2773   -9.5681   22.4763 H   0  0  0  0  0  0
  -24.0007   -7.4633   22.7474 H   0  0  0  0  0  0
  -21.0850   -8.8781   19.8954 H   0  0  0  0  0  0
  -22.3712  -10.9676   19.6170 H   0  0  0  0  0  0
  -21.2011   -7.6149   23.9716 H   0  0  0  0  0  0
  -21.1481   -6.0523   25.9077 H   0  0  0  0  0  0
  -22.0598   -2.7610   23.2845 H   0  0  0  0  0  0
  -22.4071  -11.9857   22.4839 H   0  0  0  0  0  0
  -21.1053  -13.1200   22.2654 H   0  0  0  0  0  0
  -24.6334  -15.8419   20.5208 H   0  0  0  0  0  0
  -26.2410  -15.6372   20.0479 H   0  0  0  0  0  0
  -26.7303  -32.5251   23.0968 H   0  0  0  0  0  0
  -25.0070  -33.9576   25.0279 H   0  0  0  0  0  0
  -22.7612  -31.2838   21.3715 H   0  0  0  0  0  0
  -23.3759  -35.9570   23.3293 H   0  0  0  0  0  0
  -24.3573  -36.8894   22.2062 H   0  0  0  0  0  0
  -23.7244  -37.6432   23.6697 H   0  0  0  0  0  0
  -26.1790  -31.4452   20.6166 H   0  0  0  0  0  0
  -26.8830  -30.7450   22.0374 H   0  0  0  0  0  0
  -28.1387  -28.7441   21.2446 H   0  0  0  0  0  0
  -25.8957  -25.8096   19.0121 H   0  0  0  0  0  0
  -23.9834  -27.2880   18.9781 H   0  0  0  0  0  0
  -23.8286  -30.5554   19.3953 H   0  0  0  0  0  0
  -22.7986  -29.2289   19.8377 H   0  0  0  0  0  0
  -25.1319  -36.1833   25.0802 H   0  0  0  0  0  0
  -21.0017  -28.3326   24.1343 H   0  0  0  0  0  0
  -20.5680  -26.2346   23.3628 H   0  0  0  0  0  0
  -21.6657  -26.7424   22.1204 H   0  0  0  0  0  0
  -19.6925  -25.6282   21.1262 H   0  0  0  0  0  0
  -19.6702  -27.3172   20.6727 H   0  0  0  0  0  0
  -17.4215  -26.6676   21.4029 H   0  0  0  0  0  0
  -18.0348  -26.0086   22.9029 H   0  0  0  0  0  0
  -19.7957  -30.7301   24.2224 H   0  0  0  0  0  0
  -17.5030  -31.6270   24.5166 H   0  0  0  0  0  0
  -15.5367  -30.2977   23.7678 H   0  0  0  0  0  0
  -15.8694  -28.0812   22.7091 H   0  0  0  0  0  0
  -24.5893  -30.7098   25.7709 H   0  0  0  0  0  0
  -24.8871  -32.2950   26.4737 H   0  0  0  0  0  0
  -25.7965  -30.8992   27.0223 H   0  0  0  0  0  0
  -26.3052  -29.6654   24.1331 H   0  0  0  0  0  0
  -27.3989  -29.7271   25.4942 H   0  0  0  0  0  0
  -27.8974  -30.4173   23.9700 H   0  0  0  0  0  0
  -27.2627  -33.3669   26.2008 H   0  0  0  0  0  0
  -28.3899  -32.6866   25.0366 H   0  0  0  0  0  0
  -28.0673  -31.8521   26.5487 H   0  0  0  0  0  0
  -28.2583  -38.0083   24.7509 H   0  0  0  0  0  0
  -28.1077  -36.2611   24.6299 H   0  0  0  0  0  0
  -27.2288  -37.1432   25.8868 H   0  0  0  0  0  0
  -20.9503  -29.8754   21.6752 H   0  0  0  0  0  0
  -26.0146  -38.2799   24.1409 H   0  0  0  0  0  0
  -28.0524  -18.7208   20.3122 H   0  0  0  0  0  0
  -32.1792  -17.4505   20.6354 H   0  0  0  0  0  0
  -31.2552  -21.6201   20.4990 H   0  0  0  0  0  0
  -27.1177  -24.3387   20.7862 H   0  0  0  0  0  0
  -27.5528  -24.3709   19.1166 H   0  0  0  0  0  0
  -29.4562  -23.2607   21.3069 H   0  0  0  0  0  0
  -29.7883  -23.2439   19.6128 H   0  0  0  0  0  0
  -28.7566  -16.0271   20.5831 H   0  0  0  0  0  0
  1 25  1  0  0  0
  1 30  2  0  0  0
  1 79  1  0  0  0
  2  3  1  0  0  0
  2 25  1  0  0  0
  2 82  1  0  0  0
  2 83  1  0  0  0
  3  4  1  0  0  0
  3 84  1  0  0  0
  3 85  1  0  0  0
  4  5  1  0  0  0
  4 86  1  0  0  0
  4 87  1  0  0  0
  5  6  1  0  0  0
  5 26  1  0  0  0
  5 88  1  0  0  0
  6 25  1  0  0  0
  6 89  1  0  0  0
  6 90  1  0  0  0
  7  8  2  0  0  0
  7 26  1  0  0  0
  7 29  1  0  0  0
  8  9  1  0  0  0
  8 22  1  0  0  0
  9 10  1  0  0  0
  9 27  2  0  0  0
 10 11  2  0  0  0
 10 15  1  0  0  0
 11 12  1  0  0  0
 11 91  1  0  0  0
 12 13  2  0  0  0
 12 92  1  0  0  0
 13 14  1  0  0  0
 13 31  1  0  0  0
 14 15  2  0  0  0
 14 93  1  0  0  0
 15 94  1  0  0  0
 16 17  2  0  0  0
 16 21  1  0  0  0
 16 31  1  0  0  0
 17 18  1  0  0  0
 17 95  1  0  0  0
 18 19  2  0  0  0
 18 96  1  0  0  0
 19 20  1  0  0  0
 19 24  1  0  0  0
 20 21  2  0  0  0
 20 97  1  0  0  0
 21 23  1  0  0  0
 22 28  1  0  0  0
 22 32  2  0  0  0
 26 27  1  0  0  0
 28 98  1  0  0  0
 28 99  1  0  0  0
 29100  1  0  0  0
 29101  1  0  0  0
 33 34  1  0  0  0
 33 66  1  0  0  0
 33 70  2  0  0  0
 34 36  1  0  0  0
 34 59  1  0  0  0
 34102  1  0  0  0
 35 44  2  0  0  0
 35 45  1  0  0  0
 35 68  1  0  0  0
 36 56  1  0  0  0
 36103  1  0  0  0
 37 39  1  0  0  0
 37 47  1  0  0  0
 37 66  1  0  0  0
 37104  1  0  0  0
 38 43  2  0  0  0
 38 46  1  0  0  0
 38 47  1  0  0  0
 39 64  1  0  0  0
 39 67  2  0  0  0
 40 52  1  0  0  0
 40 53  2  0  0  0
 40 58  1  0  0  0
 41105  1  0  0  0
 41106  1  0  0  0
 41107  1  0  0  0
 41 48  1  0  0  0
 42 43  1  0  0  0
 42 66  1  0  0  0
 42108  1  0  0  0
 42109  1  0  0  0
 43 44  1  0  0  0
 44110  1  0  0  0
 45 46  2  0  0  0
 45111  1  0  0  0
 46112  1  0  0  0
 47113  1  0  0  0
 47114  1  0  0  0
 48 56  1  0  0  0
 48 65  1  0  0  0
 48115  1  0  0  0
 49 50  1  0  0  0
 49 53  1  0  0  0
 49 64  1  0  0  0
 49116  1  0  0  0
 50 51  1  0  0  0
 50117  1  0  0  0
 50118  1  0  0  0
 51 52  1  0  0  0
 51119  1  0  0  0
 51120  1  0  0  0
 52121  1  0  0  0
 52122  1  0  0  0
 53 54  1  0  0  0
 54 55  2  0  0  0
 54123  1  0  0  0
 55 57  1  0  0  0
 55124  1  0  0  0
 56 69  2  0  0  0
 57 58  2  0  0  0
 57125  1  0  0  0
 58126  1  0  0  0
 59 60  1  0  0  0
 59 61  1  0  0  0
 59 62  1  0  0  0
 60127  1  0  0  0
 60128  1  0  0  0
 60129  1  0  0  0
 61130  1  0  0  0
 61131  1  0  0  0
 61132  1  0  0  0
 62133  1  0  0  0
 62134  1  0  0  0
 62135  1  0  0  0
 63 65  1  0  0  0
 63136  1  0  0  0
 63137  1  0  0  0
 63138  1  0  0  0
 64139  1  0  0  0
 65140  1  0  0  0
 68 77  1  0  0  0
 71 74  2  0  0  0
 71 75  1  0  0  0
 71141  1  0  0  0
 72 74  1  0  0  0
 72 76  2  0  0  0
 72142  1  0  0  0
 73 75  2  0  0  0
 73 76  1  0  0  0
 73143  1  0  0  0
 74 79  1  0  0  0
 75 80  1  0  0  0
 76 81  1  0  0  0
 77 78  1  0  0  0
 77144  1  0  0  0
 77145  1  0  0  0
 78 80  1  0  0  0
 78146  1  0  0  0
 78147  1  0  0  0
 79148  1  0  0  0
M  ISO  4   1 100  68 101  77 101  79 100
M  END
> <chiral flag>
0

> <version>
0

> <s_m_source_file>
/data/baiqing/PycharmProjects/Reinvent-master-3.2/result/LINK_invent/BTK/process_docking_weight1_custom_product_contain_oxygen_bond_distance_aromatic_linkinvent_7_9_3/rearranged_h_0009.sdf

> <i_m_source_file_index>
9

> <r_mmod_Potential_Energy-OPLS-2005>
661.234252929688

> <r_mmod_Stretch_Energy-OPLS-2005>
331.611297607422

> <r_mmod_Bend_Energy-OPLS-2005>
281.5966796875

> <r_mmod_Torsional_Energy-OPLS-2005>
210.155731201172

> <r_mmod_Improper_Torsional_Energy-OPLS-2005>
4.81102991104126

> <r_mmod_Van_der_Waal_Energy-OPLS-2005>
132.258193969727

> <r_mmod_Electrostatic_Energy-OPLS-2005>
-334.958679199219

> <r_mmod_Solvation_Energy-OPLS-2005>
-213.42317199707

> <b_mmod_Minimization_Converged-OPLS-2005>
0

> <r_mmod_RMS_Derivative-OPLS-2005>
0.238067045807838

$$$$
9
                    3D
 Structure written by MMmdl.
149157  0  0  1  0            999 V2000
  -30.6548  -14.6621   20.4727 C   0  0  0  0  0  0
  -30.4201  -12.3938   19.4767 C   0  0  0  0  0  0
  -29.5095  -12.5053   18.2349 C   0  0  0  0  0  0
  -28.0305  -12.3471   18.6370 C   0  0  0  0  0  0
  -27.6459  -13.2334   19.8523 C   0  0  2  0  0  0
  -28.6863  -13.1393   20.9878 C   0  0  0  0  0  0
  -25.2528  -13.8208   20.5694 C   0  0  0  0  0  0
  -24.1808  -13.0449   20.9181 C   0  0  0  0  0  0
  -24.6397  -11.6928   20.8725 C   0  0  0  0  0  0
  -23.9074  -10.4301   21.0393 C   0  0  0  0  0  0
  -24.3625   -9.4217   21.9175 C   0  0  0  0  0  0
  -23.6299   -8.2254   22.0751 C   0  0  0  0  0  0
  -22.4281   -8.0286   21.3544 C   0  0  0  0  0  0
  -21.9916   -9.0256   20.4644 C   0  0  0  0  0  0
  -22.7243  -10.2136   20.3046 C   0  0  0  0  0  0
  -21.6857   -6.0739   22.5278 C   0  0  0  0  0  0
  -21.4018   -6.5642   23.8212 C   0  0  0  0  0  0
  -21.3660   -5.6795   24.9175 C   0  0  0  0  0  0
  -21.6043   -4.3058   24.7224 C   0  0  0  0  0  0
  -21.8818   -3.8149   23.4347 C   0  0  0  0  0  0
  -21.9194   -4.6966   22.3403 C   0  0  0  0  0  0
  -22.7829  -13.5224   21.1856 C   0  0  0  0  0  0
  -22.1660   -4.2152   21.0981 F   0  0  0  0  0  0
  -21.5629   -3.4541   25.7737 F   0  0  0  0  0  0
  -30.0056  -13.4521   20.4240 N   0  0  0  0  0  0
  -26.2957  -12.9421   20.3280 N   0  0  0  0  0  0
  -25.9326  -11.6556   20.5729 N   0  0  0  0  0  0
  -22.0487  -12.8205   22.0416 N   0  0  0  0  0  0
  -25.4247  -15.1930   20.4160 N   0  0  0  0  0  0
  -31.8335  -14.7045   20.1100 O   0  0  0  0  0  0
  -21.6645   -6.8883   21.4241 O   0  0  0  0  0  0
  -22.3505  -14.5529   20.6712 O   0  0  0  0  0  0
  -24.6271  -31.8600   23.2029 C   0  0  0  0  0  0
  -25.9116  -32.4779   23.8357 C   0  0  1  0  0  0
  -27.2168  -27.3118   20.1249 C   0  0  0  0  0  0
  -25.5930  -33.8580   24.2282 N   0  0  0  0  0  0
  -23.4209  -30.4834   21.5462 C   0  0  2  0  0  0
  -24.8677  -28.9386   20.1109 C   0  0  0  0  0  0
  -22.7485  -29.4623   22.4946 C   0  0  0  0  0  0
  -18.0289  -28.1389   22.8486 C   0  0  0  0  0  0
  -24.1489  -36.7288   23.2637 C   0  0  0  0  0  0
  -25.9632  -30.7881   21.3759 C   0  0  0  0  0  0
  -26.0372  -29.4152   20.7184 C   0  0  0  0  0  0
  -27.2186  -28.6136   20.7151 C   0  0  0  0  0  0
  -26.0323  -26.8963   19.4795 C   0  0  0  0  0  0
  -24.8671  -27.6850   19.4809 C   0  0  0  0  0  0
  -23.6357  -29.8190   20.1613 C   0  0  0  0  0  0
  -25.4114  -36.3086   24.0333 C   0  0  1  0  0  0
  -20.5889  -28.3696   23.1284 C   0  0  2  0  0  0
  -20.6783  -26.9421   22.5415 C   0  0  0  0  0  0
  -19.5759  -26.6387   21.5220 C   0  0  0  0  0  0
  -18.1932  -26.7932   22.1625 C   0  0  0  0  0  0
  -19.1541  -28.8860   23.2875 C   0  0  0  0  0  0
  -18.9465  -30.1459   23.8896 C   0  0  0  0  0  0
  -17.6466  -30.6591   24.0563 C   0  0  0  0  0  0
  -25.9056  -34.9455   23.5109 C   0  0  0  0  0  0
  -16.5355  -29.9090   23.6333 C   0  0  0  0  0  0
  -16.7277  -28.6507   23.0356 C   0  0  0  0  0  0
  -26.4500  -31.6589   25.0727 C   0  0  0  0  0  0
  -25.3725  -31.3720   26.1447 C   0  0  0  0  0  0
  -27.0348  -30.3016   24.6183 C   0  0  0  0  0  0
  -27.6071  -32.4316   25.7487 C   0  0  0  0  0  0
  -27.5583  -37.1789   24.8460 C   0  0  0  0  0  0
  -21.4200  -29.3043   22.3680 N   0  0  0  0  0  0
  -26.4288  -37.3784   23.9417 N   0  0  0  0  0  0
  -24.6891  -31.0602   22.0985 N   0  0  0  0  0  0
  -23.4204  -28.8165   23.3031 O   0  0  0  0  0  0
  -28.3101  -26.4336   20.1580 O   0  0  0  0  0  0
  -26.5624  -34.8922   22.4676 O   0  0  0  0  0  0
  -23.5432  -32.1407   23.7352 O   0  0  0  0  0  0
  -28.6136  -18.7922   21.1862 C   0  0  0  0  0  0
  -28.1868  -20.1539   21.2763 C   0  0  0  0  0  0
  -30.3980  -19.4904   19.7523 C   0  0  0  0  0  0
  -29.7438  -18.4115   20.4205 C   0  0  0  0  0  0
  -28.8452  -21.2300   20.6162 C   0  0  0  0  0  0
  -29.9738  -20.8536   19.8368 C   0  0  0  0  0  0
  -30.2823  -16.9747   20.2851 C   0  0  0  0  0  0
  -28.0452  -25.0660   20.6831 C   0  0  0  0  0  0
  -28.8433  -23.7703   20.1889 C   0  0  0  0  0  0
  -29.8752  -15.8257   20.7701 N   0  0  0  0  0  0
  -28.3281  -22.5354   20.8013 O   0  0  0  0  0  0
  -30.6734  -21.7949   19.1594 F   0  0  0  0  0  0
  -31.4679  -12.4716   19.1827 H   0  0  0  0  0  0
  -30.3167  -11.4109   19.9397 H   0  0  0  0  0  0
  -29.7794  -11.7469   17.4988 H   0  0  0  0  0  0
  -29.6593  -13.4717   17.7507 H   0  0  0  0  0  0
  -27.8668  -11.2964   18.8788 H   0  0  0  0  0  0
  -27.3816  -12.5681   17.7888 H   0  0  0  0  0  0
  -27.6532  -14.2627   19.4930 H   0  0  0  0  0  0
  -28.6907  -12.1413   21.4280 H   0  0  0  0  0  0
  -28.4322  -13.8280   21.7954 H   0  0  0  0  0  0
  -25.2770   -9.5695   22.4748 H   0  0  0  0  0  0
  -24.0009   -7.4648   22.7472 H   0  0  0  0  0  0
  -21.0848   -8.8773   19.8949 H   0  0  0  0  0  0
  -22.3699  -10.9672   19.6154 H   0  0  0  0  0  0
  -21.2011   -7.6149   23.9717 H   0  0  0  0  0  0
  -21.1482   -6.0525   25.9077 H   0  0  0  0  0  0
  -22.0594   -2.7610   23.2847 H   0  0  0  0  0  0
  -22.4123  -11.9868   22.4789 H   0  0  0  0  0  0
  -21.1103  -13.1214   22.2636 H   0  0  0  0  0  0
  -24.6689  -15.8571   20.5420 H   0  0  0  0  0  0
  -26.2996  -15.6287   20.1487 H   0  0  0  0  0  0
  -26.7185  -32.5448   23.1105 H   0  0  0  0  0  0
  -25.0079  -33.9722   25.0428 H   0  0  0  0  0  0
  -22.7146  -31.3043   21.4035 H   0  0  0  0  0  0
  -23.3763  -35.9607   23.3290 H   0  0  0  0  0  0
  -24.3583  -36.8922   22.2054 H   0  0  0  0  0  0
  -23.7226  -37.6478   23.6669 H   0  0  0  0  0  0
  -26.0959  -31.5504   20.6072 H   0  0  0  0  0  0
  -26.8433  -30.8364   22.0056 H   0  0  0  0  0  0
  -28.1148  -28.9708   21.2026 H   0  0  0  0  0  0
  -25.9948  -25.9388   18.9797 H   0  0  0  0  0  0
  -23.9736  -27.3175   18.9953 H   0  0  0  0  0  0
  -23.7535  -30.5963   19.4055 H   0  0  0  0  0  0
  -22.7556  -29.2483   19.8594 H   0  0  0  0  0  0
  -25.1289  -36.1939   25.0823 H   0  0  0  0  0  0
  -20.9971  -28.3278   24.1410 H   0  0  0  0  0  0
  -20.5712  -26.2305   23.3616 H   0  0  0  0  0  0
  -21.6649  -26.7467   22.1191 H   0  0  0  0  0  0
  -19.6925  -25.6299   21.1251 H   0  0  0  0  0  0
  -19.6698  -27.3200   20.6754 H   0  0  0  0  0  0
  -17.4209  -26.6688   21.4020 H   0  0  0  0  0  0
  -18.0320  -26.0071   22.9017 H   0  0  0  0  0  0
  -19.7940  -30.7271   24.2271 H   0  0  0  0  0  0
  -17.5021  -31.6276   24.5161 H   0  0  0  0  0  0
  -15.5355  -30.2992   23.7664 H   0  0  0  0  0  0
  -15.8673  -28.0827   22.7076 H   0  0  0  0  0  0
  -24.5912  -30.7061   25.7764 H   0  0  0  0  0  0
  -24.8894  -32.2878   26.4866 H   0  0  0  0  0  0
  -25.8035  -30.8900   27.0229 H   0  0  0  0  0  0
  -26.2927  -29.6754   24.1219 H   0  0  0  0  0  0
  -27.4063  -29.7286   25.4687 H   0  0  0  0  0  0
  -27.8787  -30.4311   23.9404 H   0  0  0  0  0  0
  -27.2714  -33.3632   26.2054 H   0  0  0  0  0  0
  -28.3882  -32.6846   25.0305 H   0  0  0  0  0  0
  -28.0740  -31.8440   26.5403 H   0  0  0  0  0  0
  -28.2582  -38.0105   24.7548 H   0  0  0  0  0  0
  -28.1101  -36.2641   24.6240 H   0  0  0  0  0  0
  -27.2306  -37.1382   25.8861 H   0  0  0  0  0  0
  -20.9396  -29.8743   21.6863 H   0  0  0  0  0  0
  -26.0173  -38.2856   24.1437 H   0  0  0  0  0  0
  -28.0635  -18.0301   21.7214 H   0  0  0  0  0  0
  -27.3191  -20.3776   21.8804 H   0  0  0  0  0  0
  -31.2680  -19.2774   19.1484 H   0  0  0  0  0  0
  -31.1747  -16.9768   19.6507 H   0  0  0  0  0  0
  -28.1981  -25.1381   21.7603 H   0  0  0  0  0  0
  -26.9898  -24.8149   20.5897 H   0  0  0  0  0  0
  -29.9011  -23.8827   20.4273 H   0  0  0  0  0  0
  -28.7635  -23.6862   19.1049 H   0  0  0  0  0  0
  1 25  1  0  0  0
  1 30  2  0  0  0
  1 80  1  0  0  0
  2  3  1  0  0  0
  2 25  1  0  0  0
  2 83  1  0  0  0
  2 84  1  0  0  0
  3  4  1  0  0  0
  3 85  1  0  0  0
  3 86  1  0  0  0
  4  5  1  0  0  0
  4 87  1  0  0  0
  4 88  1  0  0  0
  5  6  1  0  0  0
  5 26  1  0  0  0
  5 89  1  0  0  0
  6 25  1  0  0  0
  6 90  1  0  0  0
  6 91  1  0  0  0
  7  8  2  0  0  0
  7 26  1  0  0  0
  7 29  1  0  0  0
  8  9  1  0  0  0
  8 22  1  0  0  0
  9 10  1  0  0  0
  9 27  2  0  0  0
 10 11  2  0  0  0
 10 15  1  0  0  0
 11 12  1  0  0  0
 11 92  1  0  0  0
 12 13  2  0  0  0
 12 93  1  0  0  0
 13 14  1  0  0  0
 13 31  1  0  0  0
 14 15  2  0  0  0
 14 94  1  0  0  0
 15 95  1  0  0  0
 16 17  2  0  0  0
 16 21  1  0  0  0
 16 31  1  0  0  0
 17 18  1  0  0  0
 17 96  1  0  0  0
 18 19  2  0  0  0
 18 97  1  0  0  0
 19 20  1  0  0  0
 19 24  1  0  0  0
 20 21  2  0  0  0
 20 98  1  0  0  0
 21 23  1  0  0  0
 22 28  1  0  0  0
 22 32  2  0  0  0
 26 27  1  0  0  0
 28 99  1  0  0  0
 28100  1  0  0  0
 29101  1  0  0  0
 29102  1  0  0  0
 33 34  1  0  0  0
 33 66  1  0  0  0
 33 70  2  0  0  0
 34 36  1  0  0  0
 34 59  1  0  0  0
 34103  1  0  0  0
 35 44  2  0  0  0
 35 45  1  0  0  0
 35 68  1  0  0  0
 36 56  1  0  0  0
 36104  1  0  0  0
 37 39  1  0  0  0
 37 47  1  0  0  0
 37 66  1  0  0  0
 37105  1  0  0  0
 38 43  2  0  0  0
 38 46  1  0  0  0
 38 47  1  0  0  0
 39 64  1  0  0  0
 39 67  2  0  0  0
 40 52  1  0  0  0
 40 53  2  0  0  0
 40 58  1  0  0  0
 41106  1  0  0  0
 41107  1  0  0  0
 41108  1  0  0  0
 41 48  1  0  0  0
 42 43  1  0  0  0
 42 66  1  0  0  0
 42109  1  0  0  0
 42110  1  0  0  0
 43 44  1  0  0  0
 44111  1  0  0  0
 45 46  2  0  0  0
 45112  1  0  0  0
 46113  1  0  0  0
 47114  1  0  0  0
 47115  1  0  0  0
 48 56  1  0  0  0
 48 65  1  0  0  0
 48116  1  0  0  0
 49 50  1  0  0  0
 49 53  1  0  0  0
 49 64  1  0  0  0
 49117  1  0  0  0
 50 51  1  0  0  0
 50118  1  0  0  0
 50119  1  0  0  0
 51 52  1  0  0  0
 51120  1  0  0  0
 51121  1  0  0  0
 52122  1  0  0  0
 52123  1  0  0  0
 53 54  1  0  0  0
 54 55  2  0  0  0
 54124  1  0  0  0
 55 57  1  0  0  0
 55125  1  0  0  0
 56 69  2  0  0  0
 57 58  2  0  0  0
 57126  1  0  0  0
 58127  1  0  0  0
 59 60  1  0  0  0
 59 61  1  0  0  0
 59 62  1  0  0  0
 60128  1  0  0  0
 60129  1  0  0  0
 60130  1  0  0  0
 61131  1  0  0  0
 61132  1  0  0  0
 61133  1  0  0  0
 62134  1  0  0  0
 62135  1  0  0  0
 62136  1  0  0  0
 63 65  1  0  0  0
 63137  1  0  0  0
 63138  1  0  0  0
 63139  1  0  0  0
 64140  1  0  0  0
 65141  1  0  0  0
 68 78  1  0  0  0
 71 72  2  0  0  0
 71 74  1  0  0  0
 71142  1  0  0  0
 72 75  1  0  0  0
 72143  1  0  0  0
 73 74  2  0  0  0
 73 76  1  0  0  0
 73144  1  0  0  0
 74 77  1  0  0  0
 75 76  2  0  0  0
 75 81  1  0  0  0
 76 82  1  0  0  0
 77 80  2  0  0  0
 77145  1  0  0  0
 78 79  1  0  0  0
 78146  1  0  0  0
 78147  1  0  0  0
 79 81  1  0  0  0
 79148  1  0  0  0
 79149  1  0  0  0
M  ISO  4   1 100  68 101  78 101  80 100
M  END
> <chiral flag>
0

> <version>
0

> <s_m_source_file>
/data/baiqing/PycharmProjects/Reinvent-master-3.2/result/LINK_invent/BTK/process_docking_weight1_custom_product_contain_oxygen_bond_distance_aromatic_linkinvent_7_9_3/rearranged_h_0009.sdf

> <i_m_source_file_index>
10

> <r_mmod_Potential_Energy-OPLS-2005>
105.609527587891

> <r_mmod_Stretch_Energy-OPLS-2005>
89.0731887817383

> <r_mmod_Bend_Energy-OPLS-2005>
153.444549560547

> <r_mmod_Torsional_Energy-OPLS-2005>
180.353424072266

> <r_mmod_Improper_Torsional_Energy-OPLS-2005>
3.73207187652588

> <r_mmod_Van_der_Waal_Energy-OPLS-2005>
154.553100585938

> <r_mmod_Electrostatic_Energy-OPLS-2005>
-347.455871582031

> <r_mmod_Solvation_Energy-OPLS-2005>
-184.402297973633

> <b_mmod_Minimization_Converged-OPLS-2005>
0

> <r_mmod_RMS_Derivative-OPLS-2005>
0.730158448219299

$$$$
10
                    3D
 Structure written by MMmdl.
159167  0  0  1  0            999 V2000
  -30.5688  -14.8218   20.4150 C   0  0  0  0  0  0
  -30.4396  -12.5003   19.4587 C   0  0  0  0  0  0
  -29.5097  -12.5128   18.2252 C   0  0  0  0  0  0
  -28.0353  -12.3357   18.6381 C   0  0  0  0  0  0
  -27.6377  -13.2333   19.8404 C   0  0  2  0  0  0
  -28.6886  -13.1983   20.9702 C   0  0  0  0  0  0
  -25.2496  -13.8178   20.5653 C   0  0  0  0  0  0
  -24.1815  -13.0439   20.9181 C   0  0  0  0  0  0
  -24.6403  -11.6908   20.8739 C   0  0  0  0  0  0
  -23.9093  -10.4290   21.0411 C   0  0  0  0  0  0
  -24.3645   -9.4206   21.9187 C   0  0  0  0  0  0
  -23.6310   -8.2251   22.0770 C   0  0  0  0  0  0
  -22.4292   -8.0291   21.3553 C   0  0  0  0  0  0
  -21.9933   -9.0263   20.4649 C   0  0  0  0  0  0
  -22.7272  -10.2133   20.3054 C   0  0  0  0  0  0
  -21.6859   -6.0742   22.5270 C   0  0  0  0  0  0
  -21.4022   -6.5646   23.8197 C   0  0  0  0  0  0
  -21.3653   -5.6800   24.9154 C   0  0  0  0  0  0
  -21.6052   -4.3062   24.7211 C   0  0  0  0  0  0
  -21.8819   -3.8153   23.4325 C   0  0  0  0  0  0
  -21.9197   -4.6975   22.3385 C   0  0  0  0  0  0
  -22.7835  -13.5211   21.1850 C   0  0  0  0  0  0
  -22.1666   -4.2169   21.0958 F   0  0  0  0  0  0
  -21.5630   -3.4539   25.7712 F   0  0  0  0  0  0
  -29.9764  -13.5735   20.3702 N   0  0  0  0  0  0
  -26.2939  -12.9390   20.3242 N   0  0  0  0  0  0
  -25.9332  -11.6538   20.5746 N   0  0  0  0  0  0
  -22.0490  -12.8178   22.0381 N   0  0  0  0  0  0
  -25.4145  -15.1910   20.3999 N   0  0  0  0  0  0
  -31.7735  -14.9293   20.1690 O   0  0  0  0  0  0
  -21.6653   -6.8891   21.4236 O   0  0  0  0  0  0
  -22.3512  -14.5536   20.6717 O   0  0  0  0  0  0
  -24.6344  -31.8462   23.1913 C   0  0  0  0  0  0
  -25.9136  -32.4697   23.8273 C   0  0  1  0  0  0
  -27.2196  -27.2004   20.1532 C   0  0  0  0  0  0
  -25.5930  -33.8510   24.2215 N   0  0  0  0  0  0
  -23.4345  -30.4632   21.5342 C   0  0  2  0  0  0
  -24.8859  -28.8941   20.1162 C   0  0  0  0  0  0
  -22.7504  -29.4508   22.4844 C   0  0  0  0  0  0
  -18.0286  -28.1342   22.8422 C   0  0  0  0  0  0
  -24.1505  -36.7254   23.2638 C   0  0  0  0  0  0
  -25.9842  -30.7451   21.3743 C   0  0  0  0  0  0
  -26.0589  -29.3598   20.7223 C   0  0  0  0  0  0
  -27.2342  -28.5282   20.7189 C   0  0  0  0  0  0
  -26.0222  -26.8078   19.5269 C   0  0  0  0  0  0
  -24.8763  -27.6309   19.5037 C   0  0  0  0  0  0
  -23.6583  -29.7875   20.1556 C   0  0  0  0  0  0
  -25.4115  -36.3032   24.0350 C   0  0  1  0  0  0
  -20.5896  -28.3636   23.1250 C   0  0  2  0  0  0
  -20.6775  -26.9342   22.5394 C   0  0  0  0  0  0
  -19.5774  -26.6345   21.5171 C   0  0  0  0  0  0
  -18.1932  -26.7880   22.1559 C   0  0  0  0  0  0
  -19.1543  -28.8803   23.2840 C   0  0  0  0  0  0
  -18.9476  -30.1410   23.8850 C   0  0  0  0  0  0
  -17.6478  -30.6548   24.0531 C   0  0  0  0  0  0
  -25.9060  -34.9413   23.5089 C   0  0  0  0  0  0
  -16.5361  -29.9039   23.6339 C   0  0  0  0  0  0
  -16.7267  -28.6469   23.0325 C   0  0  0  0  0  0
  -26.4509  -31.6533   25.0672 C   0  0  0  0  0  0
  -25.3735  -31.3688   26.1404 C   0  0  0  0  0  0
  -27.0336  -30.2959   24.6115 C   0  0  0  0  0  0
  -27.6065  -32.4279   25.7440 C   0  0  0  0  0  0
  -27.5588  -37.1768   24.8461 C   0  0  0  0  0  0
  -21.4205  -29.2999   22.3663 N   0  0  0  0  0  0
  -26.4278  -37.3752   23.9445 N   0  0  0  0  0  0
  -24.7045  -31.0363   22.0914 N   0  0  0  0  0  0
  -23.4212  -28.8008   23.2908 O   0  0  0  0  0  0
  -28.3161  -26.2946   20.1269 O   0  0  0  0  0  0
  -26.5617  -34.8895   22.4642 O   0  0  0  0  0  0
  -23.5497  -32.1269   23.7211 O   0  0  0  0  0  0
  -30.0839  -18.3738   19.3794 C   0  0  0  0  0  0
  -28.7342  -18.1903   21.3819 C   0  0  0  0  0  0
  -30.1997  -19.9667   19.5888 C   0  0  0  0  0  0
  -28.8006  -19.7734   21.5820 C   0  0  0  0  0  0
  -29.9416  -17.4777   20.6704 C   0  0  1  0  0  0
  -29.0056  -20.7173   20.3299 C   0  0  1  0  0  0
  -30.5796  -22.5899   21.0102 C   0  0  0  0  0  0
  -28.4746  -23.4337   19.9720 C   0  0  0  0  0  0
  -28.2412  -24.8942   20.7351 C   0  0  0  0  0  0
  -29.7361  -15.9441   20.5255 N   0  0  0  0  0  0
  -29.1671  -22.2414   20.7236 N   0  3  1  0  0  0
  -31.4735  -12.6524   19.1428 H   0  0  0  0  0  0
  -30.4159  -11.5307   19.9576 H   0  0  0  0  0  0
  -29.7990  -11.7302   17.5232 H   0  0  0  0  0  0
  -29.6258  -13.4568   17.6914 H   0  0  0  0  0  0
  -27.8805  -11.2854   18.8844 H   0  0  0  0  0  0
  -27.3850  -12.5439   17.7889 H   0  0  0  0  0  0
  -27.6190  -14.2505   19.4516 H   0  0  0  0  0  0
  -28.7439  -12.2123   21.4328 H   0  0  0  0  0  0
  -28.4153  -13.8928   21.7653 H   0  0  0  0  0  0
  -25.2794   -9.5684   22.4752 H   0  0  0  0  0  0
  -24.0016   -7.4655   22.7491 H   0  0  0  0  0  0
  -21.0873   -8.8777   19.8949 H   0  0  0  0  0  0
  -22.3740  -10.9668   19.6157 H   0  0  0  0  0  0
  -21.2016   -7.6159   23.9701 H   0  0  0  0  0  0
  -21.1480   -6.0527   25.9057 H   0  0  0  0  0  0
  -22.0606   -2.7623   23.2804 H   0  0  0  0  0  0
  -22.4140  -11.9815   22.4694 H   0  0  0  0  0  0
  -21.1116  -13.1179   22.2642 H   0  0  0  0  0  0
  -24.6315  -15.8283   20.4887 H   0  0  0  0  0  0
  -26.2363  -15.6271   20.0044 H   0  0  0  0  0  0
  -26.7159  -32.5348   23.0985 H   0  0  0  0  0  0
  -25.0199  -33.9655   25.0442 H   0  0  0  0  0  0
  -22.7318  -31.2851   21.3795 H   0  0  0  0  0  0
  -23.3800  -35.9552   23.3259 H   0  0  0  0  0  0
  -24.3594  -36.8898   22.2054 H   0  0  0  0  0  0
  -23.7234  -37.6429   23.6680 H   0  0  0  0  0  0
  -26.1187  -31.4997   20.5991 H   0  0  0  0  0  0
  -26.8671  -30.8049   22.0006 H   0  0  0  0  0  0
  -28.1386  -28.8818   21.1921 H   0  0  0  0  0  0
  -25.9610  -25.8371   19.0543 H   0  0  0  0  0  0
  -23.9796  -27.2667   19.0225 H   0  0  0  0  0  0
  -23.7747  -30.5591   19.3936 H   0  0  0  0  0  0
  -22.7798  -29.2155   19.8530 H   0  0  0  0  0  0
  -25.1289  -36.1868   25.0845 H   0  0  0  0  0  0
  -20.9976  -28.3184   24.1380 H   0  0  0  0  0  0
  -20.5602  -26.2207   23.3579 H   0  0  0  0  0  0
  -21.6639  -26.7305   22.1219 H   0  0  0  0  0  0
  -19.6952  -25.6275   21.1171 H   0  0  0  0  0  0
  -19.6778  -27.3162   20.6722 H   0  0  0  0  0  0
  -17.4212  -26.6625   21.3950 H   0  0  0  0  0  0
  -18.0329  -26.0001   22.8944 H   0  0  0  0  0  0
  -19.7957  -30.7227   24.2184 H   0  0  0  0  0  0
  -17.5040  -31.6226   24.5126 H   0  0  0  0  0  0
  -15.5360  -30.2930   23.7716 H   0  0  0  0  0  0
  -15.8652  -28.0812   22.7038 H   0  0  0  0  0  0
  -24.6039  -30.6855   25.7799 H   0  0  0  0  0  0
  -24.8773  -32.2831   26.4669 H   0  0  0  0  0  0
  -25.8095  -30.9055   27.0270 H   0  0  0  0  0  0
  -26.2877  -29.6728   24.1179 H   0  0  0  0  0  0
  -27.4080  -29.7200   25.4576 H   0  0  0  0  0  0
  -27.8721  -30.4257   23.9289 H   0  0  0  0  0  0
  -27.2722  -33.3694   26.1811 H   0  0  0  0  0  0
  -28.3976  -32.6620   25.0312 H   0  0  0  0  0  0
  -28.0582  -31.8501   26.5509 H   0  0  0  0  0  0
  -28.2527  -38.0136   24.7556 H   0  0  0  0  0  0
  -28.1163  -36.2665   24.6218 H   0  0  0  0  0  0
  -27.2318  -37.1306   25.8860 H   0  0  0  0  0  0
  -20.9374  -29.8788   21.6924 H   0  0  0  0  0  0
  -26.0155  -38.2808   24.1491 H   0  0  0  0  0  0
  -30.9513  -18.0300   18.8140 H   0  0  0  0  0  0
  -29.2245  -18.1846   18.7371 H   0  0  0  0  0  0
  -27.8192  -17.9519   20.8381 H   0  0  0  0  0  0
  -28.6114  -17.7300   22.3619 H   0  0  0  0  0  0
  -30.3471  -20.4321   18.6142 H   0  0  0  0  0  0
  -31.1332  -20.1395   20.1249 H   0  0  0  0  0  0
  -29.6143  -19.9581   22.2815 H   0  0  0  0  0  0
  -27.8951  -20.0873   22.1032 H   0  0  0  0  0  0
  -30.8343  -17.6114   21.2841 H   0  0  0  0  0  0
  -28.1194  -20.6407   19.6974 H   0  0  0  0  0  0
  -31.0409  -21.8898   21.7060 H   0  0  0  0  0  0
  -30.6656  -23.5743   21.4654 H   0  0  0  0  0  0
  -31.1667  -22.6052   20.0919 H   0  0  0  0  0  0
  -29.0389  -23.6070   19.0563 H   0  0  0  0  0  0
  -27.4946  -23.0870   19.6432 H   0  0  0  0  0  0
  -29.0055  -24.9622   21.5061 H   0  0  0  0  0  0
  -27.3187  -24.8200   21.3124 H   0  0  0  0  0  0
  -28.7668  -15.6716   20.5776 H   0  0  0  0  0  0
  -28.7101  -22.2552   21.6246 H   0  0  0  0  0  0
  1 25  1  0  0  0
  1 30  2  0  0  0
  1 80  1  0  0  0
  2  3  1  0  0  0
  2 25  1  0  0  0
  2 82  1  0  0  0
  2 83  1  0  0  0
  3  4  1  0  0  0
  3 84  1  0  0  0
  3 85  1  0  0  0
  4  5  1  0  0  0
  4 86  1  0  0  0
  4 87  1  0  0  0
  5  6  1  0  0  0
  5 26  1  0  0  0
  5 88  1  0  0  0
  6 25  1  0  0  0
  6 89  1  0  0  0
  6 90  1  0  0  0
  7  8  2  0  0  0
  7 26  1  0  0  0
  7 29  1  0  0  0
  8  9  1  0  0  0
  8 22  1  0  0  0
  9 10  1  0  0  0
  9 27  2  0  0  0
 10 11  2  0  0  0
 10 15  1  0  0  0
 11 12  1  0  0  0
 11 91  1  0  0  0
 12 13  2  0  0  0
 12 92  1  0  0  0
 13 14  1  0  0  0
 13 31  1  0  0  0
 14 15  2  0  0  0
 14 93  1  0  0  0
 15 94  1  0  0  0
 16 17  2  0  0  0
 16 21  1  0  0  0
 16 31  1  0  0  0
 17 18  1  0  0  0
 17 95  1  0  0  0
 18 19  2  0  0  0
 18 96  1  0  0  0
 19 20  1  0  0  0
 19 24  1  0  0  0
 20 21  2  0  0  0
 20 97  1  0  0  0
 21 23  1  0  0  0
 22 28  1  0  0  0
 22 32  2  0  0  0
 26 27  1  0  0  0
 28 98  1  0  0  0
 28 99  1  0  0  0
 29100  1  0  0  0
 29101  1  0  0  0
 33 34  1  0  0  0
 33 66  1  0  0  0
 33 70  2  0  0  0
 34 36  1  0  0  0
 34 59  1  0  0  0
 34102  1  0  0  0
 35 44  2  0  0  0
 35 45  1  0  0  0
 35 68  1  0  0  0
 36 56  1  0  0  0
 36103  1  0  0  0
 37 39  1  0  0  0
 37 47  1  0  0  0
 37 66  1  0  0  0
 37104  1  0  0  0
 38 43  2  0  0  0
 38 46  1  0  0  0
 38 47  1  0  0  0
 39 64  1  0  0  0
 39 67  2  0  0  0
 40 52  1  0  0  0
 40 53  2  0  0  0
 40 58  1  0  0  0
 41105  1  0  0  0
 41106  1  0  0  0
 41107  1  0  0  0
 41 48  1  0  0  0
 42 43  1  0  0  0
 42 66  1  0  0  0
 42108  1  0  0  0
 42109  1  0  0  0
 43 44  1  0  0  0
 44110  1  0  0  0
 45 46  2  0  0  0
 45111  1  0  0  0
 46112  1  0  0  0
 47113  1  0  0  0
 47114  1  0  0  0
 48 56  1  0  0  0
 48 65  1  0  0  0
 48115  1  0  0  0
 49 50  1  0  0  0
 49 53  1  0  0  0
 49 64  1  0  0  0
 49116  1  0  0  0
 50 51  1  0  0  0
 50117  1  0  0  0
 50118  1  0  0  0
 51 52  1  0  0  0
 51119  1  0  0  0
 51120  1  0  0  0
 52121  1  0  0  0
 52122  1  0  0  0
 53 54  1  0  0  0
 54 55  2  0  0  0
 54123  1  0  0  0
 55 57  1  0  0  0
 55124  1  0  0  0
 56 69  2  0  0  0
 57 58  2  0  0  0
 57125  1  0  0  0
 58126  1  0  0  0
 59 60  1  0  0  0
 59 61  1  0  0  0
 59 62  1  0  0  0
 60127  1  0  0  0
 60128  1  0  0  0
 60129  1  0  0  0
 61130  1  0  0  0
 61131  1  0  0  0
 61132  1  0  0  0
 62133  1  0  0  0
 62134  1  0  0  0
 62135  1  0  0  0
 63 65  1  0  0  0
 63136  1  0  0  0
 63137  1  0  0  0
 63138  1  0  0  0
 64139  1  0  0  0
 65140  1  0  0  0
 68 79  1  0  0  0
 71 73  1  0  0  0
 71 75  1  0  0  0
 71141  1  0  0  0
 71142  1  0  0  0
 72 74  1  0  0  0
 72 75  1  0  0  0
 72143  1  0  0  0
 72144  1  0  0  0
 73145  1  0  0  0
 73146  1  0  0  0
 73 76  1  0  0  0
 74 76  1  0  0  0
 74147  1  0  0  0
 74148  1  0  0  0
 75 80  1  0  0  0
 75149  1  0  0  0
 76 81  1  0  0  0
 76150  1  0  0  0
 77151  1  0  0  0
 77152  1  0  0  0
 77153  1  0  0  0
 77 81  1  0  0  0
 78 79  1  0  0  0
 78 81  1  0  0  0
 78154  1  0  0  0
 78155  1  0  0  0
 79156  1  0  0  0
 79157  1  0  0  0
 80158  1  0  0  0
 81159  1  0  0  0
M  CHG  1  81   1
M  ISO  4   1 100  68 101  79 101  80 100
M  END
> <chiral flag>
0

> <version>
0

> <s_m_source_file>
/data/baiqing/PycharmProjects/Reinvent-master-3.2/result/LINK_invent/BTK/process_docking_weight1_custom_product_contain_oxygen_bond_distance_aromatic_linkinvent_7_9_3/rearranged_h_0009.sdf

> <i_m_source_file_index>
11

> <r_mmod_Potential_Energy-OPLS-2005>
246.788650512695

> <r_mmod_Stretch_Energy-OPLS-2005>
172.528228759766

> <r_mmod_Bend_Energy-OPLS-2005>
233.965591430664

> <r_mmod_Torsional_Energy-OPLS-2005>
264.943817138672

> <r_mmod_Improper_Torsional_Energy-OPLS-2005>
4.96181440353394

> <r_mmod_Van_der_Waal_Energy-OPLS-2005>
114.353080749512

> <r_mmod_Electrostatic_Energy-OPLS-2005>
-231.523834228516

> <r_mmod_Solvation_Energy-OPLS-2005>
-433.845489501953

> <b_mmod_Minimization_Converged-OPLS-2005>
0

> <r_mmod_RMS_Derivative-OPLS-2005>
4.1543664932251

$$$$
11
                    3D
 Structure written by MMmdl.
153162  0  0  1  0            999 V2000
  -30.5011  -14.9501   20.4203 C   0  0  0  0  0  0
  -30.4530  -12.5884   19.4893 C   0  0  0  0  0  0
  -29.5251  -12.5277   18.2517 C   0  0  0  0  0  0
  -28.0575  -12.3110   18.6714 C   0  0  0  0  0  0
  -27.6331  -13.2385   19.8397 C   0  0  2  0  0  0
  -28.6776  -13.2460   20.9761 C   0  0  0  0  0  0
  -25.2477  -13.8187   20.5677 C   0  0  0  0  0  0
  -24.1791  -13.0427   20.9230 C   0  0  0  0  0  0
  -24.6398  -11.6911   20.8769 C   0  0  0  0  0  0
  -23.9076  -10.4287   21.0422 C   0  0  0  0  0  0
  -24.3628   -9.4201   21.9197 C   0  0  0  0  0  0
  -23.6300   -8.2239   22.0761 C   0  0  0  0  0  0
  -22.4281   -8.0283   21.3548 C   0  0  0  0  0  0
  -21.9920   -9.0255   20.4648 C   0  0  0  0  0  0
  -22.7253  -10.2132   20.3065 C   0  0  0  0  0  0
  -21.6850   -6.0743   22.5281 C   0  0  0  0  0  0
  -21.4010   -6.5646   23.8215 C   0  0  0  0  0  0
  -21.3659   -5.6795   24.9173 C   0  0  0  0  0  0
  -21.6042   -4.3058   24.7219 C   0  0  0  0  0  0
  -21.8820   -3.8151   23.4342 C   0  0  0  0  0  0
  -21.9191   -4.6971   22.3401 C   0  0  0  0  0  0
  -22.7810  -13.5208   21.1884 C   0  0  0  0  0  0
  -22.1661   -4.2158   21.0980 F   0  0  0  0  0  0
  -21.5629   -3.4540   25.7732 F   0  0  0  0  0  0
  -29.9521  -13.6702   20.3811 N   0  0  0  0  0  0
  -26.2901  -12.9402   20.3235 N   0  0  0  0  0  0
  -25.9327  -11.6542   20.5746 N   0  0  0  0  0  0
  -22.0455  -12.8198   22.0431 N   0  0  0  0  0  0
  -25.4114  -15.1914   20.4036 N   0  0  0  0  0  0
  -31.7072  -15.0665   20.1732 O   0  0  0  0  0  0
  -21.6642   -6.8885   21.4244 O   0  0  0  0  0  0
  -22.3504  -14.5521   20.6734 O   0  0  0  0  0  0
  -24.6432  -31.8435   23.1855 C   0  0  0  0  0  0
  -25.9197  -32.4696   23.8254 C   0  0  1  0  0  0
  -27.2229  -27.1404   20.1613 C   0  0  0  0  0  0
  -25.5949  -33.8501   24.2183 N   0  0  0  0  0  0
  -23.4469  -30.4603   21.5316 C   0  0  2  0  0  0
  -24.8964  -28.8774   20.1176 C   0  0  0  0  0  0
  -22.7559  -29.4548   22.4862 C   0  0  0  0  0  0
  -18.0299  -28.1400   22.8484 C   0  0  0  0  0  0
  -24.1489  -36.7251   23.2640 C   0  0  0  0  0  0
  -26.0008  -30.7199   21.3795 C   0  0  0  0  0  0
  -26.0737  -29.3282   20.7284 C   0  0  0  0  0  0
  -27.2411  -28.4780   20.7251 C   0  0  0  0  0  0
  -26.0180  -26.7780   19.5255 C   0  0  0  0  0  0
  -24.8797  -27.6154   19.5013 C   0  0  0  0  0  0
  -23.6729  -29.7806   20.1544 C   0  0  0  0  0  0
  -25.4120  -36.3033   24.0317 C   0  0  1  0  0  0
  -20.5916  -28.3722   23.1243 C   0  0  2  0  0  0
  -20.6787  -26.9423   22.5409 C   0  0  0  0  0  0
  -19.5760  -26.6387   21.5218 C   0  0  0  0  0  0
  -18.1940  -26.7944   22.1626 C   0  0  0  0  0  0
  -19.1557  -28.8878   23.2861 C   0  0  0  0  0  0
  -18.9477  -30.1476   23.8884 C   0  0  0  0  0  0
  -17.6474  -30.6600   24.0565 C   0  0  0  0  0  0
  -25.9068  -34.9408   23.5059 C   0  0  0  0  0  0
  -16.5361  -29.9097   23.6339 C   0  0  0  0  0  0
  -16.7283  -28.6512   23.0362 C   0  0  0  0  0  0
  -26.4508  -31.6559   25.0697 C   0  0  0  0  0  0
  -25.3698  -31.3813   26.1415 C   0  0  0  0  0  0
  -27.0303  -30.2927   24.6268 C   0  0  0  0  0  0
  -27.6084  -32.4275   25.7463 C   0  0  0  0  0  0
  -27.5576  -37.1780   24.8465 C   0  0  0  0  0  0
  -21.4251  -29.3050   22.3614 N   0  0  0  0  0  0
  -26.4283  -37.3748   23.9414 N   0  0  0  0  0  0
  -24.7170  -31.0295   22.0881 N   0  0  0  0  0  0
  -23.4200  -28.8098   23.3017 O   0  0  0  0  0  0
  -28.3026  -26.1907   20.1578 O   0  0  0  0  0  0
  -26.5654  -34.8910   22.4638 O   0  0  0  0  0  0
  -23.5549  -32.1295   23.7082 O   0  0  0  0  0  0
  -30.1427  -19.9397   21.3229 C   0  0  0  0  0  0
  -28.5452  -19.7942   19.6124 C   0  0  0  0  0  0
  -30.3499  -18.4954   21.2873 C   0  0  0  0  0  0
  -28.7245  -18.3453   19.5989 C   0  0  0  0  0  0
  -29.2234  -20.6946   20.5007 C   0  0  0  0  0  0
  -29.6367  -17.5955   20.4284 C   0  0  0  0  0  0
  -29.1146  -24.3827   21.7327 C   0  0  0  0  0  0
  -29.1946  -22.8331   21.9267 C   0  0  0  0  0  0
  -28.4721  -23.3054   19.7362 C   0  0  0  0  0  0
  -28.1508  -24.6972   20.5732 C   0  0  2  0  0  0
  -29.0037  -22.1726   20.6318 N   0  0  0  0  0  0
  -29.6152  -16.0593   20.5055 N   0  0  0  0  0  0
  -31.4814  -12.7721   19.1743 H   0  0  0  0  0  0
  -30.4663  -11.6321   20.0142 H   0  0  0  0  0  0
  -29.8446  -11.7305   17.5790 H   0  0  0  0  0  0
  -29.6087  -13.4565   17.6854 H   0  0  0  0  0  0
  -27.9547  -11.2689   18.9764 H   0  0  0  0  0  0
  -27.3923  -12.4445   17.8173 H   0  0  0  0  0  0
  -27.6001  -14.2428   19.4174 H   0  0  0  0  0  0
  -28.7672  -12.2606   21.4366 H   0  0  0  0  0  0
  -28.3766  -13.9301   21.7718 H   0  0  0  0  0  0
  -25.2772   -9.5677   22.4773 H   0  0  0  0  0  0
  -24.0006   -7.4627   22.7478 H   0  0  0  0  0  0
  -21.0852   -8.8776   19.8948 H   0  0  0  0  0  0
  -22.3718  -10.9675   19.6173 H   0  0  0  0  0  0
  -21.2002   -7.6155   23.9720 H   0  0  0  0  0  0
  -21.1479   -6.0525   25.9076 H   0  0  0  0  0  0
  -22.0600   -2.7613   23.2835 H   0  0  0  0  0  0
  -22.4068  -11.9851   22.4808 H   0  0  0  0  0  0
  -21.1071  -13.1225   22.2634 H   0  0  0  0  0  0
  -24.6289  -15.8305   20.4959 H   0  0  0  0  0  0
  -26.2282  -15.6289   19.9990 H   0  0  0  0  0  0
  -26.7269  -32.5304   23.0989 H   0  0  0  0  0  0
  -25.0087  -33.9612   25.0328 H   0  0  0  0  0  0
  -22.7506  -31.2867   21.3731 H   0  0  0  0  0  0
  -23.3773  -35.9559   23.3256 H   0  0  0  0  0  0
  -24.3585  -36.8916   22.2062 H   0  0  0  0  0  0
  -23.7205  -37.6422   23.6692 H   0  0  0  0  0  0
  -26.1490  -31.4697   20.6011 H   0  0  0  0  0  0
  -26.8747  -30.7783   22.0165 H   0  0  0  0  0  0
  -28.1466  -28.8255   21.2021 H   0  0  0  0  0  0
  -25.9483  -25.8090   19.0513 H   0  0  0  0  0  0
  -23.9782  -27.2644   19.0178 H   0  0  0  0  0  0
  -23.8097  -30.5496   19.3934 H   0  0  0  0  0  0
  -22.7882  -29.2198   19.8469 H   0  0  0  0  0  0
  -25.1305  -36.1857   25.0808 H   0  0  0  0  0  0
  -21.0011  -28.3307   24.1363 H   0  0  0  0  0  0
  -20.5673  -26.2333   23.3628 H   0  0  0  0  0  0
  -21.6650  -26.7427   22.1208 H   0  0  0  0  0  0
  -19.6922  -25.6294   21.1251 H   0  0  0  0  0  0
  -19.6703  -27.3199   20.6751 H   0  0  0  0  0  0
  -17.4208  -26.6684   21.4030 H   0  0  0  0  0  0
  -18.0342  -26.0094   22.9031 H   0  0  0  0  0  0
  -19.7951  -30.7300   24.2239 H   0  0  0  0  0  0
  -17.5028  -31.6280   24.5170 H   0  0  0  0  0  0
  -15.5363  -30.3000   23.7677 H   0  0  0  0  0  0
  -15.8678  -28.0830   22.7090 H   0  0  0  0  0  0
  -24.5830  -30.7208   25.7754 H   0  0  0  0  0  0
  -24.8957  -32.3036   26.4786 H   0  0  0  0  0  0
  -25.7969  -30.9002   27.0224 H   0  0  0  0  0  0
  -26.2874  -29.6698   24.1275 H   0  0  0  0  0  0
  -27.3884  -29.7193   25.4828 H   0  0  0  0  0  0
  -27.8816  -30.4116   23.9566 H   0  0  0  0  0  0
  -27.2774  -33.3700   26.1836 H   0  0  0  0  0  0
  -28.4015  -32.6591   25.0342 H   0  0  0  0  0  0
  -28.0583  -31.8481   26.5534 H   0  0  0  0  0  0
  -28.2586  -38.0084   24.7515 H   0  0  0  0  0  0
  -28.1075  -36.2612   24.6280 H   0  0  0  0  0  0
  -27.2300  -37.1416   25.8869 H   0  0  0  0  0  0
  -20.9453  -29.8756   21.6792 H   0  0  0  0  0  0
  -26.0148  -38.2812   24.1433 H   0  0  0  0  0  0
  -30.7354  -20.4797   22.0459 H   0  0  0  0  0  0
  -27.8115  -20.2111   18.9372 H   0  0  0  0  0  0
  -31.0500  -18.0717   21.9936 H   0  0  0  0  0  0
  -28.0961  -17.7890   18.9180 H   0  0  0  0  0  0
  -30.1064  -24.7516   21.4683 H   0  0  0  0  0  0
  -28.8263  -24.8931   22.6526 H   0  0  0  0  0  0
  -28.4038  -22.5049   22.6032 H   0  0  0  0  0  0
  -30.1454  -22.5639   22.3871 H   0  0  0  0  0  0
  -29.2327  -23.5138   18.9827 H   0  0  0  0  0  0
  -27.5843  -22.9767   19.1936 H   0  0  0  0  0  0
  -27.1394  -24.5886   20.9679 H   0  0  0  0  0  0
  -28.6724  -15.7064   20.5518 H   0  0  0  0  0  0
  1 25  1  0  0  0
  1 30  2  0  0  0
  1 82  1  0  0  0
  2  3  1  0  0  0
  2 25  1  0  0  0
  2 83  1  0  0  0
  2 84  1  0  0  0
  3  4  1  0  0  0
  3 85  1  0  0  0
  3 86  1  0  0  0
  4  5  1  0  0  0
  4 87  1  0  0  0
  4 88  1  0  0  0
  5  6  1  0  0  0
  5 26  1  0  0  0
  5 89  1  0  0  0
  6 25  1  0  0  0
  6 90  1  0  0  0
  6 91  1  0  0  0
  7  8  2  0  0  0
  7 26  1  0  0  0
  7 29  1  0  0  0
  8  9  1  0  0  0
  8 22  1  0  0  0
  9 10  1  0  0  0
  9 27  2  0  0  0
 10 11  2  0  0  0
 10 15  1  0  0  0
 11 12  1  0  0  0
 11 92  1  0  0  0
 12 13  2  0  0  0
 12 93  1  0  0  0
 13 14  1  0  0  0
 13 31  1  0  0  0
 14 15  2  0  0  0
 14 94  1  0  0  0
 15 95  1  0  0  0
 16 17  2  0  0  0
 16 21  1  0  0  0
 16 31  1  0  0  0
 17 18  1  0  0  0
 17 96  1  0  0  0
 18 19  2  0  0  0
 18 97  1  0  0  0
 19 20  1  0  0  0
 19 24  1  0  0  0
 20 21  2  0  0  0
 20 98  1  0  0  0
 21 23  1  0  0  0
 22 28  1  0  0  0
 22 32  2  0  0  0
 26 27  1  0  0  0
 28 99  1  0  0  0
 28100  1  0  0  0
 29101  1  0  0  0
 29102  1  0  0  0
 33 34  1  0  0  0
 33 66  1  0  0  0
 33 70  2  0  0  0
 34 36  1  0  0  0
 34 59  1  0  0  0
 34103  1  0  0  0
 35 44  2  0  0  0
 35 45  1  0  0  0
 35 68  1  0  0  0
 36 56  1  0  0  0
 36104  1  0  0  0
 37 39  1  0  0  0
 37 47  1  0  0  0
 37 66  1  0  0  0
 37105  1  0  0  0
 38 43  2  0  0  0
 38 46  1  0  0  0
 38 47  1  0  0  0
 39 64  1  0  0  0
 39 67  2  0  0  0
 40 52  1  0  0  0
 40 53  2  0  0  0
 40 58  1  0  0  0
 41106  1  0  0  0
 41107  1  0  0  0
 41108  1  0  0  0
 41 48  1  0  0  0
 42 43  1  0  0  0
 42 66  1  0  0  0
 42109  1  0  0  0
 42110  1  0  0  0
 43 44  1  0  0  0
 44111  1  0  0  0
 45 46  2  0  0  0
 45112  1  0  0  0
 46113  1  0  0  0
 47114  1  0  0  0
 47115  1  0  0  0
 48 56  1  0  0  0
 48 65  1  0  0  0
 48116  1  0  0  0
 49 50  1  0  0  0
 49 53  1  0  0  0
 49 64  1  0  0  0
 49117  1  0  0  0
 50 51  1  0  0  0
 50118  1  0  0  0
 50119  1  0  0  0
 51 52  1  0  0  0
 51120  1  0  0  0
 51121  1  0  0  0
 52122  1  0  0  0
 52123  1  0  0  0
 53 54  1  0  0  0
 54 55  2  0  0  0
 54124  1  0  0  0
 55 57  1  0  0  0
 55125  1  0  0  0
 56 69  2  0  0  0
 57 58  2  0  0  0
 57126  1  0  0  0
 58127  1  0  0  0
 59 60  1  0  0  0
 59 61  1  0  0  0
 59 62  1  0  0  0
 60128  1  0  0  0
 60129  1  0  0  0
 60130  1  0  0  0
 61131  1  0  0  0
 61132  1  0  0  0
 61133  1  0  0  0
 62134  1  0  0  0
 62135  1  0  0  0
 62136  1  0  0  0
 63 65  1  0  0  0
 63137  1  0  0  0
 63138  1  0  0  0
 63139  1  0  0  0
 64140  1  0  0  0
 65141  1  0  0  0
 68 80  1  0  0  0
 71 73  2  0  0  0
 71 75  1  0  0  0
 71142  1  0  0  0
 72 74  1  0  0  0
 72 75  2  0  0  0
 72143  1  0  0  0
 73 76  1  0  0  0
 73144  1  0  0  0
 74 76  2  0  0  0
 74145  1  0  0  0
 75 81  1  0  0  0
 76 82  1  0  0  0
 77 78  1  0  0  0
 77 80  1  0  0  0
 77146  1  0  0  0
 77147  1  0  0  0
 78 81  1  0  0  0
 78148  1  0  0  0
 78149  1  0  0  0
 79 80  1  0  0  0
 79 81  1  0  0  0
 79150  1  0  0  0
 79151  1  0  0  0
 80152  1  0  0  0
 82153  1  0  0  0
M  ISO  4   1 100  68 101  80 101  82 100
M  END
> <chiral flag>
0

> <version>
0

> <s_m_source_file>
/data/baiqing/PycharmProjects/Reinvent-master-3.2/result/LINK_invent/BTK/process_docking_weight1_custom_product_contain_oxygen_bond_distance_aromatic_linkinvent_7_9_3/rearranged_h_0009.sdf

> <i_m_source_file_index>
12

> <r_mmod_Potential_Energy-OPLS-2005>
525.946105957031

> <r_mmod_Stretch_Energy-OPLS-2005>
213.858779907227

> <r_mmod_Bend_Energy-OPLS-2005>
307.925323486328

> <r_mmod_Torsional_Energy-OPLS-2005>
299.310577392578

> <r_mmod_Improper_Torsional_Energy-OPLS-2005>
7.30253410339355

> <r_mmod_Van_der_Waal_Energy-OPLS-2005>
124.300971984863

> <r_mmod_Electrostatic_Energy-OPLS-2005>
-383.096618652344

> <r_mmod_Solvation_Energy-OPLS-2005>
-232.282287597656

> <b_mmod_Minimization_Converged-OPLS-2005>
0

> <r_mmod_RMS_Derivative-OPLS-2005>
0.949168264865875

$$$$
12
                    3D
 Structure written by MMmdl.
152160  0  0  1  0            999 V2000
  -30.5189  -15.0094   20.3811 C   0  0  0  0  0  0
  -30.4384  -12.6210   19.5104 C   0  0  0  0  0  0
  -29.5288  -12.5213   18.2624 C   0  0  0  0  0  0
  -28.0583  -12.3155   18.6735 C   0  0  0  0  0  0
  -27.6255  -13.2548   19.8300 C   0  0  2  0  0  0
  -28.6643  -13.3096   20.9695 C   0  0  0  0  0  0
  -25.2454  -13.8229   20.5697 C   0  0  0  0  0  0
  -24.1782  -13.0450   20.9239 C   0  0  0  0  0  0
  -24.6395  -11.6932   20.8754 C   0  0  0  0  0  0
  -23.9076  -10.4300   21.0418 C   0  0  0  0  0  0
  -24.3638   -9.4206   21.9185 C   0  0  0  0  0  0
  -23.6307   -8.2245   22.0750 C   0  0  0  0  0  0
  -22.4282   -8.0297   21.3555 C   0  0  0  0  0  0
  -21.9925   -9.0270   20.4656 C   0  0  0  0  0  0
  -22.7252  -10.2140   20.3064 C   0  0  0  0  0  0
  -21.6856   -6.0745   22.5277 C   0  0  0  0  0  0
  -21.4015   -6.5641   23.8212 C   0  0  0  0  0  0
  -21.3656   -5.6793   24.9173 C   0  0  0  0  0  0
  -21.6046   -4.3056   24.7226 C   0  0  0  0  0  0
  -21.8816   -3.8152   23.4341 C   0  0  0  0  0  0
  -21.9190   -4.6972   22.3401 C   0  0  0  0  0  0
  -22.7795  -13.5222   21.1885 C   0  0  0  0  0  0
  -22.1661   -4.2152   21.0981 F   0  0  0  0  0  0
  -21.5627   -3.4541   25.7736 F   0  0  0  0  0  0
  -29.9316  -13.7378   20.3663 N   0  0  0  0  0  0
  -26.2868  -12.9467   20.3192 N   0  0  0  0  0  0
  -25.9325  -11.6589   20.5713 N   0  0  0  0  0  0
  -22.0439  -12.8220   22.0446 N   0  0  0  0  0  0
  -25.4113  -15.1958   20.4106 N   0  0  0  0  0  0
  -31.7342  -15.0328   20.1596 O   0  0  0  0  0  0
  -21.6644   -6.8895   21.4244 O   0  0  0  0  0  0
  -22.3477  -14.5519   20.6713 O   0  0  0  0  0  0
  -24.6509  -31.8398   23.1837 C   0  0  0  0  0  0
  -25.9257  -32.4662   23.8246 C   0  0  1  0  0  0
  -27.2111  -27.0786   20.1607 C   0  0  0  0  0  0
  -25.5978  -33.8472   24.2154 N   0  0  0  0  0  0
  -23.4562  -30.4578   21.5314 C   0  0  2  0  0  0
  -24.9031  -28.8722   20.1133 C   0  0  0  0  0  0
  -22.7604  -29.4534   22.4859 C   0  0  0  0  0  0
  -18.0319  -28.1397   22.8474 C   0  0  0  0  0  0
  -24.1493  -36.7246   23.2645 C   0  0  0  0  0  0
  -26.0176  -30.6916   21.3948 C   0  0  0  0  0  0
  -26.0842  -29.2986   20.7349 C   0  0  0  0  0  0
  -27.2400  -28.4207   20.7358 C   0  0  0  0  0  0
  -26.0076  -26.7714   19.4908 C   0  0  0  0  0  0
  -24.8815  -27.6241   19.4731 C   0  0  0  0  0  0
  -23.6841  -29.7830   20.1541 C   0  0  0  0  0  0
  -25.4130  -36.3017   24.0312 C   0  0  1  0  0  0
  -20.5935  -28.3732   23.1225 C   0  0  2  0  0  0
  -20.6805  -26.9429   22.5407 C   0  0  0  0  0  0
  -19.5774  -26.6379   21.5221 C   0  0  0  0  0  0
  -18.1955  -26.7936   22.1625 C   0  0  0  0  0  0
  -19.1576  -28.8885   23.2837 C   0  0  0  0  0  0
  -18.9486  -30.1484   23.8858 C   0  0  0  0  0  0
  -17.6476  -30.6587   24.0560 C   0  0  0  0  0  0
  -25.9084  -34.9391   23.5042 C   0  0  0  0  0  0
  -16.5370  -29.9072   23.6343 C   0  0  0  0  0  0
  -16.7301  -28.6497   23.0354 C   0  0  0  0  0  0
  -26.4534  -31.6565   25.0733 C   0  0  0  0  0  0
  -25.3675  -31.3813   26.1406 C   0  0  0  0  0  0
  -27.0421  -30.2937   24.6411 C   0  0  0  0  0  0
  -27.6046  -32.4353   25.7524 C   0  0  0  0  0  0
  -27.5578  -37.1787   24.8461 C   0  0  0  0  0  0
  -21.4294  -29.3043   22.3588 N   0  0  0  0  0  0
  -26.4290  -37.3733   23.9397 N   0  0  0  0  0  0
  -24.7280  -31.0203   22.0898 N   0  0  0  0  0  0
  -23.4222  -28.8094   23.3041 O   0  0  0  0  0  0
  -28.2550  -26.0653   20.1900 O   0  0  0  0  0  0
  -26.5675  -34.8905   22.4623 O   0  0  0  0  0  0
  -23.5613  -32.1305   23.7019 O   0  0  0  0  0  0
  -30.7124  -19.2888   18.2659 C   0  0  0  0  0  0
  -30.1434  -20.4342   18.8611 C   0  0  0  0  0  0
  -29.2466  -18.9551   20.5518 C   0  0  0  0  0  0
  -30.5635  -17.9700   18.7667 C   0  0  0  0  0  0
  -29.3422  -20.3616   20.0138 C   0  0  0  0  0  0
  -29.8751  -17.7017   19.9901 C   0  0  0  0  0  0
  -31.1138  -16.8715   17.8686 C   0  0  0  0  0  0
  -28.9510  -23.1549   20.0080 C   0  0  0  0  0  0
  -27.9831  -24.5177   20.4059 C   0  0  0  0  0  0
  -29.7422  -16.2220   20.4895 N   0  0  0  0  0  0
  -28.7188  -21.6519   20.4776 N   0  0  0  0  0  0
  -31.4729  -12.7783   19.2015 H   0  0  0  0  0  0
  -30.4375  -11.6811   20.0651 H   0  0  0  0  0  0
  -29.8578  -11.6990   17.6242 H   0  0  0  0  0  0
  -29.6203  -13.4292   17.6640 H   0  0  0  0  0  0
  -27.9493  -11.2756   18.9860 H   0  0  0  0  0  0
  -27.4019  -12.4431   17.8114 H   0  0  0  0  0  0
  -27.5812  -14.2520   19.3901 H   0  0  0  0  0  0
  -28.7642  -12.3390   21.4571 H   0  0  0  0  0  0
  -28.3540  -14.0151   21.7416 H   0  0  0  0  0  0
  -25.2787   -9.5680   22.4748 H   0  0  0  0  0  0
  -24.0017   -7.4635   22.7466 H   0  0  0  0  0  0
  -21.0850   -8.8802   19.8970 H   0  0  0  0  0  0
  -22.3720  -10.9689   19.6175 H   0  0  0  0  0  0
  -21.2008   -7.6150   23.9720 H   0  0  0  0  0  0
  -21.1481   -6.0522   25.9076 H   0  0  0  0  0  0
  -22.0597   -2.7616   23.2840 H   0  0  0  0  0  0
  -22.4072  -11.9908   22.4870 H   0  0  0  0  0  0
  -21.1048  -13.1240   22.2613 H   0  0  0  0  0  0
  -24.6405  -15.8459   20.5249 H   0  0  0  0  0  0
  -26.2417  -15.6327   20.0321 H   0  0  0  0  0  0
  -26.7332  -32.5236   23.0981 H   0  0  0  0  0  0
  -25.0102  -33.9564   25.0288 H   0  0  0  0  0  0
  -22.7620  -31.2859   21.3739 H   0  0  0  0  0  0
  -23.3758  -35.9576   23.3307 H   0  0  0  0  0  0
  -24.3571  -36.8881   22.2060 H   0  0  0  0  0  0
  -23.7254  -37.6441   23.6684 H   0  0  0  0  0  0
  -26.1937  -31.4451   20.6262 H   0  0  0  0  0  0
  -26.8792  -30.7314   22.0490 H   0  0  0  0  0  0
  -28.1404  -28.7466   21.2366 H   0  0  0  0  0  0
  -25.9128  -25.8282   18.9744 H   0  0  0  0  0  0
  -23.9853  -27.2969   18.9642 H   0  0  0  0  0  0
  -23.8260  -30.5544   19.3966 H   0  0  0  0  0  0
  -22.7964  -29.2291   19.8422 H   0  0  0  0  0  0
  -25.1325  -36.1841   25.0804 H   0  0  0  0  0  0
  -21.0023  -28.3334   24.1349 H   0  0  0  0  0  0
  -20.5713  -26.2349   23.3635 H   0  0  0  0  0  0
  -21.6669  -26.7443   22.1199 H   0  0  0  0  0  0
  -19.6938  -25.6282   21.1269 H   0  0  0  0  0  0
  -19.6709  -27.3175   20.6738 H   0  0  0  0  0  0
  -17.4234  -26.6699   21.4015 H   0  0  0  0  0  0
  -18.0336  -26.0080   22.9017 H   0  0  0  0  0  0
  -19.7958  -30.7320   24.2201 H   0  0  0  0  0  0
  -17.5023  -31.6260   24.5173 H   0  0  0  0  0  0
  -15.5365  -30.2951   23.7690 H   0  0  0  0  0  0
  -15.8711  -28.0802   22.7073 H   0  0  0  0  0  0
  -24.5836  -30.7187   25.7724 H   0  0  0  0  0  0
  -24.8888  -32.3020   26.4742 H   0  0  0  0  0  0
  -25.7907  -30.9031   27.0246 H   0  0  0  0  0  0
  -26.3080  -29.6633   24.1380 H   0  0  0  0  0  0
  -27.3935  -29.7283   25.5055 H   0  0  0  0  0  0
  -27.9025  -30.4143   23.9828 H   0  0  0  0  0  0
  -27.2613  -33.3662   26.2049 H   0  0  0  0  0  0
  -28.3875  -32.6904   25.0369 H   0  0  0  0  0  0
  -28.0695  -31.8522   26.5482 H   0  0  0  0  0  0
  -28.2600  -38.0078   24.7487 H   0  0  0  0  0  0
  -28.1067  -36.2606   24.6307 H   0  0  0  0  0  0
  -27.2297  -37.1465   25.8865 H   0  0  0  0  0  0
  -20.9531  -29.8721   21.6722 H   0  0  0  0  0  0
  -26.0160  -38.2811   24.1351 H   0  0  0  0  0  0
  -31.2628  -19.4403   17.3483 H   0  0  0  0  0  0
  -30.3076  -21.3830   18.3724 H   0  0  0  0  0  0
  -28.6485  -18.8265   21.4431 H   0  0  0  0  0  0
  -31.2434  -17.2238   16.8463 H   0  0  0  0  0  0
  -30.4348  -16.0207   17.8065 H   0  0  0  0  0  0
  -32.0923  -16.5377   18.2097 H   0  0  0  0  0  0
  -29.9664  -23.3990   20.3220 H   0  0  0  0  0  0
  -29.0003  -23.1340   18.9185 H   0  0  0  0  0  0
  -27.8194  -24.4452   21.4812 H   0  0  0  0  0  0
  -27.0057  -24.2946   19.9832 H   0  0  0  0  0  0
  -28.8432  -16.0335   20.9082 H   0  0  0  0  0  0
  -28.0830  -21.5644   21.2685 H   0  0  0  0  0  0
  1 25  1  0  0  0
  1 30  2  0  0  0
  1 80  1  0  0  0
  2  3  1  0  0  0
  2 25  1  0  0  0
  2 82  1  0  0  0
  2 83  1  0  0  0
  3  4  1  0  0  0
  3 84  1  0  0  0
  3 85  1  0  0  0
  4  5  1  0  0  0
  4 86  1  0  0  0
  4 87  1  0  0  0
  5  6  1  0  0  0
  5 26  1  0  0  0
  5 88  1  0  0  0
  6 25  1  0  0  0
  6 89  1  0  0  0
  6 90  1  0  0  0
  7  8  2  0  0  0
  7 26  1  0  0  0
  7 29  1  0  0  0
  8  9  1  0  0  0
  8 22  1  0  0  0
  9 10  1  0  0  0
  9 27  2  0  0  0
 10 11  2  0  0  0
 10 15  1  0  0  0
 11 12  1  0  0  0
 11 91  1  0  0  0
 12 13  2  0  0  0
 12 92  1  0  0  0
 13 14  1  0  0  0
 13 31  1  0  0  0
 14 15  2  0  0  0
 14 93  1  0  0  0
 15 94  1  0  0  0
 16 17  2  0  0  0
 16 21  1  0  0  0
 16 31  1  0  0  0
 17 18  1  0  0  0
 17 95  1  0  0  0
 18 19  2  0  0  0
 18 96  1  0  0  0
 19 20  1  0  0  0
 19 24  1  0  0  0
 20 21  2  0  0  0
 20 97  1  0  0  0
 21 23  1  0  0  0
 22 28  1  0  0  0
 22 32  2  0  0  0
 26 27  1  0  0  0
 28 98  1  0  0  0
 28 99  1  0  0  0
 29100  1  0  0  0
 29101  1  0  0  0
 33 34  1  0  0  0
 33 66  1  0  0  0
 33 70  2  0  0  0
 34 36  1  0  0  0
 34 59  1  0  0  0
 34102  1  0  0  0
 35 44  2  0  0  0
 35 45  1  0  0  0
 35 68  1  0  0  0
 36 56  1  0  0  0
 36103  1  0  0  0
 37 39  1  0  0  0
 37 47  1  0  0  0
 37 66  1  0  0  0
 37104  1  0  0  0
 38 43  2  0  0  0
 38 46  1  0  0  0
 38 47  1  0  0  0
 39 64  1  0  0  0
 39 67  2  0  0  0
 40 52  1  0  0  0
 40 53  2  0  0  0
 40 58  1  0  0  0
 41105  1  0  0  0
 41106  1  0  0  0
 41107  1  0  0  0
 41 48  1  0  0  0
 42 43  1  0  0  0
 42 66  1  0  0  0
 42108  1  0  0  0
 42109  1  0  0  0
 43 44  1  0  0  0
 44110  1  0  0  0
 45 46  2  0  0  0
 45111  1  0  0  0
 46112  1  0  0  0
 47113  1  0  0  0
 47114  1  0  0  0
 48 56  1  0  0  0
 48 65  1  0  0  0
 48115  1  0  0  0
 49 50  1  0  0  0
 49 53  1  0  0  0
 49 64  1  0  0  0
 49116  1  0  0  0
 50 51  1  0  0  0
 50117  1  0  0  0
 50118  1  0  0  0
 51 52  1  0  0  0
 51119  1  0  0  0
 51120  1  0  0  0
 52121  1  0  0  0
 52122  1  0  0  0
 53 54  1  0  0  0
 54 55  2  0  0  0
 54123  1  0  0  0
 55 57  1  0  0  0
 55124  1  0  0  0
 56 69  2  0  0  0
 57 58  2  0  0  0
 57125  1  0  0  0
 58126  1  0  0  0
 59 60  1  0  0  0
 59 61  1  0  0  0
 59 62  1  0  0  0
 60127  1  0  0  0
 60128  1  0  0  0
 60129  1  0  0  0
 61130  1  0  0  0
 61131  1  0  0  0
 61132  1  0  0  0
 62133  1  0  0  0
 62134  1  0  0  0
 62135  1  0  0  0
 63 65  1  0  0  0
 63136  1  0  0  0
 63137  1  0  0  0
 63138  1  0  0  0
 64139  1  0  0  0
 65140  1  0  0  0
 68 79  1  0  0  0
 71 72  2  0  0  0
 71 74  1  0  0  0
 71141  1  0  0  0
 72 75  1  0  0  0
 72142  1  0  0  0
 73 75  2  0  0  0
 73 76  1  0  0  0
 73143  1  0  0  0
 74 76  2  0  0  0
 74 77  1  0  0  0
 75 81  1  0  0  0
 76 80  1  0  0  0
 77144  1  0  0  0
 77145  1  0  0  0
 77146  1  0  0  0
 78 79  1  0  0  0
 78 81  1  0  0  0
 78147  1  0  0  0
 78148  1  0  0  0
 79149  1  0  0  0
 79150  1  0  0  0
 80151  1  0  0  0
 81152  1  0  0  0
M  ISO  4   1 100  68 101  79 101  80 100
M  END
> <chiral flag>
0

> <version>
0

> <s_m_source_file>
/data/baiqing/PycharmProjects/Reinvent-master-3.2/result/LINK_invent/BTK/process_docking_weight1_custom_product_contain_oxygen_bond_distance_aromatic_linkinvent_7_9_3/rearranged_h_0009.sdf

> <i_m_source_file_index>
13

> <r_mmod_Potential_Energy-OPLS-2005>
645.192749023438

> <r_mmod_Stretch_Energy-OPLS-2005>
326.628082275391

> <r_mmod_Bend_Energy-OPLS-2005>
287.531951904297

> <r_mmod_Torsional_Energy-OPLS-2005>
231.510223388672

> <r_mmod_Improper_Torsional_Energy-OPLS-2005>
4.07467651367188

> <r_mmod_Van_der_Waal_Energy-OPLS-2005>
137.323257446289

> <r_mmod_Electrostatic_Energy-OPLS-2005>
-357.586181640625

> <r_mmod_Solvation_Energy-OPLS-2005>
-223.68376159668

> <b_mmod_Minimization_Converged-OPLS-2005>
0

> <r_mmod_RMS_Derivative-OPLS-2005>
1.92604458332062

$$$$
13
                    3D
 Structure written by MMmdl.
154162  0  0  1  0            999 V2000
  -30.3269  -15.5528   20.3490 C   0  0  0  0  0  0
  -30.4300  -13.0279   19.5145 C   0  0  0  0  0  0
  -29.5433  -12.6315   18.3021 C   0  0  0  0  0  0
  -28.1128  -12.2900   18.7515 C   0  0  0  0  0  0
  -27.5961  -13.2962   19.8056 C   0  0  2  0  0  0
  -28.6210  -13.5977   20.9199 C   0  0  0  0  0  0
  -25.2331  -13.8259   20.5782 C   0  0  0  0  0  0
  -24.1714  -13.0422   20.9290 C   0  0  0  0  0  0
  -24.6408  -11.6933   20.8767 C   0  0  0  0  0  0
  -23.9108  -10.4287   21.0408 C   0  0  0  0  0  0
  -24.3647   -9.4199   21.9190 C   0  0  0  0  0  0
  -23.6307   -8.2239   22.0756 C   0  0  0  0  0  0
  -22.4288   -8.0287   21.3547 C   0  0  0  0  0  0
  -21.9934   -9.0261   20.4646 C   0  0  0  0  0  0
  -22.7275  -10.2133   20.3055 C   0  0  0  0  0  0
  -21.6852   -6.0742   22.5278 C   0  0  0  0  0  0
  -21.4015   -6.5646   23.8211 C   0  0  0  0  0  0
  -21.3660   -5.6800   24.9177 C   0  0  0  0  0  0
  -21.6040   -4.3059   24.7230 C   0  0  0  0  0  0
  -21.8813   -3.8153   23.4351 C   0  0  0  0  0  0
  -21.9191   -4.6969   22.3405 C   0  0  0  0  0  0
  -22.7731  -13.5169   21.1935 C   0  0  0  0  0  0
  -22.1660   -4.2152   21.0981 F   0  0  0  0  0  0
  -21.5631   -3.4541   25.7743 F   0  0  0  0  0  0
  -29.7973  -14.2026   20.2548 N   0  0  0  0  0  0
  -26.2771  -12.9569   20.3206 N   0  0  0  0  0  0
  -25.9345  -11.6657   20.5694 N   0  0  0  0  0  0
  -22.0387  -12.8143   22.0476 N   0  0  0  0  0  0
  -25.3920  -15.2004   20.4245 N   0  0  0  0  0  0
  -31.5687  -15.5042   20.2774 O   0  0  0  0  0  0
  -21.6645   -6.8889   21.4241 O   0  0  0  0  0  0
  -22.3412  -14.5474   20.6780 O   0  0  0  0  0  0
  -24.6797  -31.8045   23.1536 C   0  0  0  0  0  0
  -25.9400  -32.4490   23.8063 C   0  0  1  0  0  0
  -27.2190  -26.7355   20.2304 C   0  0  0  0  0  0
  -25.5996  -33.8314   24.1959 N   0  0  0  0  0  0
  -23.5034  -30.4093   21.5081 C   0  0  2  0  0  0
  -24.9554  -28.7505   20.1316 C   0  0  0  0  0  0
  -22.7750  -29.4346   22.4726 C   0  0  0  0  0  0
  -18.0341  -28.1428   22.8471 C   0  0  0  0  0  0
  -24.1489  -36.7168   23.2651 C   0  0  0  0  0  0
  -26.0820  -30.5517   21.4104 C   0  0  0  0  0  0
  -26.1465  -29.1149   20.7727 C   0  0  0  0  0  0
  -27.2695  -28.1388   20.7806 C   0  0  0  0  0  0
  -25.9919  -26.5672   19.5431 C   0  0  0  0  0  0
  -24.9128  -27.4981   19.4960 C   0  0  0  0  0  0
  -23.7562  -29.7075   20.1438 C   0  0  0  0  0  0
  -25.4138  -36.2906   24.0282 C   0  0  1  0  0  0
  -20.5974  -28.3779   23.1156 C   0  0  2  0  0  0
  -20.6813  -26.9445   22.5402 C   0  0  0  0  0  0
  -19.5782  -26.6375   21.5227 C   0  0  0  0  0  0
  -18.1966  -26.7958   22.1628 C   0  0  0  0  0  0
  -19.1615  -28.8922   23.2795 C   0  0  0  0  0  0
  -18.9520  -30.1507   23.8832 C   0  0  0  0  0  0
  -17.6508  -30.6607   24.0558 C   0  0  0  0  0  0
  -25.9113  -34.9302   23.4951 C   0  0  0  0  0  0
  -16.5394  -29.9095   23.6353 C   0  0  0  0  0  0
  -16.7322  -28.6519   23.0366 C   0  0  0  0  0  0
  -26.4592  -31.6501   25.0667 C   0  0  0  0  0  0
  -25.3661  -31.3828   26.1281 C   0  0  0  0  0  0
  -27.0513  -30.2843   24.6533 C   0  0  0  0  0  0
  -27.6044  -32.4350   25.7496 C   0  0  0  0  0  0
  -27.5556  -37.1744   24.8469 C   0  0  0  0  0  0
  -21.4401  -29.3042   22.3491 N   0  0  0  0  0  0
  -26.4260  -37.3668   23.9410 N   0  0  0  0  0  0
  -24.7787  -30.9543   22.0769 N   0  0  0  0  0  0
  -23.4214  -28.7925   23.3041 O   0  0  0  0  0  0
  -28.2371  -25.5850   20.1193 O   0  0  0  0  0  0
  -26.5746  -34.8876   22.4562 O   0  0  0  0  0  0
  -23.5827  -32.1098   23.6526 O   0  0  0  0  0  0
  -26.8804  -21.5399   22.5539 C   0  0  0  0  0  0
  -27.0429  -21.2750   24.0416 C   0  0  0  0  0  0
  -28.5550  -21.0877   24.2092 C   0  0  0  0  0  0
  -29.1787  -21.6053   22.9077 C   0  0  0  0  0  0
  -29.1214  -20.3435   20.0121 C   0  0  0  0  0  0
  -29.5684  -18.6126   20.7166 C   0  0  0  0  0  0
  -28.4819  -23.9476   20.6702 C   0  0  0  0  0  0
  -28.3448  -22.0160   20.5598 C   0  0  2  0  0  0
  -28.0737  -21.6879   21.9620 N   0  0  0  0  0  0
  -29.5500  -16.8902   20.3229 N   0  0  0  0  0  0
  -25.7787  -21.6141   22.0065 O   0  0  0  0  0  0
  -31.4225  -13.2953   19.1492 H   0  0  0  0  0  0
  -30.5856  -12.1778   20.1806 H   0  0  0  0  0  0
  -29.9842  -11.7896   17.7661 H   0  0  0  0  0  0
  -29.5109  -13.4625   17.5959 H   0  0  0  0  0  0
  -28.1314  -11.2900   19.1849 H   0  0  0  0  0  0
  -27.4399  -12.2428   17.8948 H   0  0  0  0  0  0
  -27.4659  -14.2261   19.2503 H   0  0  0  0  0  0
  -28.8683  -12.7045   21.4954 H   0  0  0  0  0  0
  -28.2045  -14.3153   21.6286 H   0  0  0  0  0  0
  -25.2783   -9.5676   22.4779 H   0  0  0  0  0  0
  -24.0003   -7.4632   22.7481 H   0  0  0  0  0  0
  -21.0865   -8.8801   19.8953 H   0  0  0  0  0  0
  -22.3741  -10.9684   19.6176 H   0  0  0  0  0  0
  -21.2005   -7.6154   23.9718 H   0  0  0  0  0  0
  -21.1487   -6.0531   25.9080 H   0  0  0  0  0  0
  -22.0588   -2.7613   23.2851 H   0  0  0  0  0  0
  -22.4020  -11.9817   22.4874 H   0  0  0  0  0  0
  -21.0995  -13.1147   22.2670 H   0  0  0  0  0  0
  -24.6197  -15.8463   20.5479 H   0  0  0  0  0  0
  -26.2334  -15.6485   20.0877 H   0  0  0  0  0  0
  -26.7477  -32.4981   23.0772 H   0  0  0  0  0  0
  -25.0097  -33.9359   25.0086 H   0  0  0  0  0  0
  -22.8273  -31.2462   21.3194 H   0  0  0  0  0  0
  -23.3752  -35.9496   23.3272 H   0  0  0  0  0  0
  -24.3561  -36.8867   22.2073 H   0  0  0  0  0  0
  -23.7251  -37.6340   23.6749 H   0  0  0  0  0  0
  -26.2756  -31.2740   20.6155 H   0  0  0  0  0  0
  -26.9385  -30.6251   22.0680 H   0  0  0  0  0  0
  -28.1831  -28.4406   21.2736 H   0  0  0  0  0  0
  -25.8449  -25.6254   19.0335 H   0  0  0  0  0  0
  -24.0148  -27.2108   18.9662 H   0  0  0  0  0  0
  -23.9363  -30.4671   19.3813 H   0  0  0  0  0  0
  -22.8603  -29.1773   19.8147 H   0  0  0  0  0  0
  -25.1350  -36.1663   25.0773 H   0  0  0  0  0  0
  -21.0071  -28.3390   24.1272 H   0  0  0  0  0  0
  -20.5707  -26.2398   23.3660 H   0  0  0  0  0  0
  -21.6678  -26.7405   22.1206 H   0  0  0  0  0  0
  -19.6938  -25.6270   21.1294 H   0  0  0  0  0  0
  -19.6725  -27.3168   20.6745 H   0  0  0  0  0  0
  -17.4243  -26.6719   21.4016 H   0  0  0  0  0  0
  -18.0321  -26.0127   22.9044 H   0  0  0  0  0  0
  -19.7993  -30.7350   24.2168 H   0  0  0  0  0  0
  -17.5058  -31.6284   24.5175 H   0  0  0  0  0  0
  -15.5392  -30.2975   23.7710 H   0  0  0  0  0  0
  -15.8725  -28.0812   22.7103 H   0  0  0  0  0  0
  -24.5863  -30.7158   25.7585 H   0  0  0  0  0  0
  -24.8829  -32.3059   26.4490 H   0  0  0  0  0  0
  -25.7836  -30.9131   27.0195 H   0  0  0  0  0  0
  -26.3219  -29.6465   24.1531 H   0  0  0  0  0  0
  -27.3974  -29.7274   25.5249 H   0  0  0  0  0  0
  -27.9185  -30.3976   24.0027 H   0  0  0  0  0  0
  -27.2574  -33.3721   26.1864 H   0  0  0  0  0  0
  -28.3973  -32.6798   25.0413 H   0  0  0  0  0  0
  -28.0574  -31.8608   26.5583 H   0  0  0  0  0  0
  -28.2549  -38.0061   24.7494 H   0  0  0  0  0  0
  -28.1069  -36.2580   24.6312 H   0  0  0  0  0  0
  -27.2273  -37.1406   25.8873 H   0  0  0  0  0  0
  -20.9687  -29.8722   21.6592 H   0  0  0  0  0  0
  -26.0077  -38.2713   24.1419 H   0  0  0  0  0  0
  -26.4817  -20.3944   24.3536 H   0  0  0  0  0  0
  -26.6874  -22.1389   24.6052 H   0  0  0  0  0  0
  -28.7885  -20.0302   24.3410 H   0  0  0  0  0  0
  -28.9411  -21.6200   25.0795 H   0  0  0  0  0  0
  -29.9767  -20.9501   22.5574 H   0  0  0  0  0  0
  -29.6051  -22.5990   23.0555 H   0  0  0  0  0  0
  -28.4722  -20.0749   19.1786 H   0  0  0  0  0  0
  -30.0333  -20.6498   19.4979 H   0  0  0  0  0  0
  -28.9687  -18.5932   21.6273 H   0  0  0  0  0  0
  -30.5802  -18.7497   21.0984 H   0  0  0  0  0  0
  -29.5284  -24.0411   20.9605 H   0  0  0  0  0  0
  -27.9478  -24.1108   21.6059 H   0  0  0  0  0  0
  -27.3896  -21.9453   20.0379 H   0  0  0  0  0  0
  -28.5890  -16.6332   20.1491 H   0  0  0  0  0  0
  1 25  1  0  0  0
  1 30  2  0  0  0
  1 80  1  0  0  0
  2  3  1  0  0  0
  2 25  1  0  0  0
  2 82  1  0  0  0
  2 83  1  0  0  0
  3  4  1  0  0  0
  3 84  1  0  0  0
  3 85  1  0  0  0
  4  5  1  0  0  0
  4 86  1  0  0  0
  4 87  1  0  0  0
  5  6  1  0  0  0
  5 26  1  0  0  0
  5 88  1  0  0  0
  6 25  1  0  0  0
  6 89  1  0  0  0
  6 90  1  0  0  0
  7  8  2  0  0  0
  7 26  1  0  0  0
  7 29  1  0  0  0
  8  9  1  0  0  0
  8 22  1  0  0  0
  9 10  1  0  0  0
  9 27  2  0  0  0
 10 11  2  0  0  0
 10 15  1  0  0  0
 11 12  1  0  0  0
 11 91  1  0  0  0
 12 13  2  0  0  0
 12 92  1  0  0  0
 13 14  1  0  0  0
 13 31  1  0  0  0
 14 15  2  0  0  0
 14 93  1  0  0  0
 15 94  1  0  0  0
 16 17  2  0  0  0
 16 21  1  0  0  0
 16 31  1  0  0  0
 17 18  1  0  0  0
 17 95  1  0  0  0
 18 19  2  0  0  0
 18 96  1  0  0  0
 19 20  1  0  0  0
 19 24  1  0  0  0
 20 21  2  0  0  0
 20 97  1  0  0  0
 21 23  1  0  0  0
 22 28  1  0  0  0
 22 32  2  0  0  0
 26 27  1  0  0  0
 28 98  1  0  0  0
 28 99  1  0  0  0
 29100  1  0  0  0
 29101  1  0  0  0
 33 34  1  0  0  0
 33 66  1  0  0  0
 33 70  2  0  0  0
 34 36  1  0  0  0
 34 59  1  0  0  0
 34102  1  0  0  0
 35 44  2  0  0  0
 35 45  1  0  0  0
 35 68  1  0  0  0
 36 56  1  0  0  0
 36103  1  0  0  0
 37 39  1  0  0  0
 37 47  1  0  0  0
 37 66  1  0  0  0
 37104  1  0  0  0
 38 43  2  0  0  0
 38 46  1  0  0  0
 38 47  1  0  0  0
 39 64  1  0  0  0
 39 67  2  0  0  0
 40 52  1  0  0  0
 40 53  2  0  0  0
 40 58  1  0  0  0
 41105  1  0  0  0
 41106  1  0  0  0
 41107  1  0  0  0
 41 48  1  0  0  0
 42 43  1  0  0  0
 42 66  1  0  0  0
 42108  1  0  0  0
 42109  1  0  0  0
 43 44  1  0  0  0
 44110  1  0  0  0
 45 46  2  0  0  0
 45111  1  0  0  0
 46112  1  0  0  0
 47113  1  0  0  0
 47114  1  0  0  0
 48 56  1  0  0  0
 48 65  1  0  0  0
 48115  1  0  0  0
 49 50  1  0  0  0
 49 53  1  0  0  0
 49 64  1  0  0  0
 49116  1  0  0  0
 50 51  1  0  0  0
 50117  1  0  0  0
 50118  1  0  0  0
 51 52  1  0  0  0
 51119  1  0  0  0
 51120  1  0  0  0
 52121  1  0  0  0
 52122  1  0  0  0
 53 54  1  0  0  0
 54 55  2  0  0  0
 54123  1  0  0  0
 55 57  1  0  0  0
 55124  1  0  0  0
 56 69  2  0  0  0
 57 58  2  0  0  0
 57125  1  0  0  0
 58126  1  0  0  0
 59 60  1  0  0  0
 59 61  1  0  0  0
 59 62  1  0  0  0
 60127  1  0  0  0
 60128  1  0  0  0
 60129  1  0  0  0
 61130  1  0  0  0
 61131  1  0  0  0
 61132  1  0  0  0
 62133  1  0  0  0
 62134  1  0  0  0
 62135  1  0  0  0
 63 65  1  0  0  0
 63136  1  0  0  0
 63137  1  0  0  0
 63138  1  0  0  0
 64139  1  0  0  0
 65140  1  0  0  0
 68 77  1  0  0  0
 71 72  1  0  0  0
 71 79  1  0  0  0
 71 81  2  0  0  0
 72 73  1  0  0  0
 72141  1  0  0  0
 72142  1  0  0  0
 73 74  1  0  0  0
 73143  1  0  0  0
 73144  1  0  0  0
 74 79  1  0  0  0
 74145  1  0  0  0
 74146  1  0  0  0
 75 76  1  0  0  0
 75147  1  0  0  0
 75148  1  0  0  0
 75 78  1  0  0  0
 76 80  1  0  0  0
 76149  1  0  0  0
 76150  1  0  0  0
 77 78  1  0  0  0
 77151  1  0  0  0
 77152  1  0  0  0
 78 79  1  0  0  0
 78153  1  0  0  0
 80154  1  0  0  0
M  ISO  4   1 100  68 101  77 101  80 100
M  END
> <chiral flag>
0

> <version>
0

> <s_m_source_file>
/data/baiqing/PycharmProjects/Reinvent-master-3.2/result/LINK_invent/BTK/process_docking_weight1_custom_product_contain_oxygen_bond_distance_aromatic_linkinvent_7_9_3/rearranged_h_0009.sdf

> <i_m_source_file_index>
14

> <r_mmod_Potential_Energy-OPLS-2005>
2543.72900390625

> <r_mmod_Stretch_Energy-OPLS-2005>
1099.3662109375

> <r_mmod_Bend_Energy-OPLS-2005>
828.121887207031

> <r_mmod_Torsional_Energy-OPLS-2005>
317.214050292969

> <r_mmod_Improper_Torsional_Energy-OPLS-2005>
5.57860422134399

> <r_mmod_Van_der_Waal_Energy-OPLS-2005>
104.934478759766

> <r_mmod_Electrostatic_Energy-OPLS-2005>
-365.649475097656

> <r_mmod_Solvation_Energy-OPLS-2005>
-235.781356811523

> <b_mmod_Minimization_Converged-OPLS-2005>
0

> <r_mmod_RMS_Derivative-OPLS-2005>
1.83294498920441

$$$$
14
                    3D
 Structure written by MMmdl.
151159  0  0  1  0            999 V2000
  -30.4356  -15.3461   20.3067 C   0  0  0  0  0  0
  -30.4442  -12.8587   19.5104 C   0  0  0  0  0  0
  -29.5372  -12.5601   18.2891 C   0  0  0  0  0  0
  -28.0988  -12.2405   18.7370 C   0  0  0  0  0  0
  -27.5996  -13.2300   19.8128 C   0  0  2  0  0  0
  -28.6450  -13.5053   20.9244 C   0  0  0  0  0  0
  -25.2336  -13.8047   20.5798 C   0  0  0  0  0  0
  -24.1680  -13.0297   20.9314 C   0  0  0  0  0  0
  -24.6329  -11.6804   20.8830 C   0  0  0  0  0  0
  -23.9024  -10.4214   21.0452 C   0  0  0  0  0  0
  -24.3585   -9.4137   21.9217 C   0  0  0  0  0  0
  -23.6264   -8.2180   22.0767 C   0  0  0  0  0  0
  -22.4250   -8.0239   21.3546 C   0  0  0  0  0  0
  -21.9884   -9.0213   20.4651 C   0  0  0  0  0  0
  -22.7213  -10.2083   20.3075 C   0  0  0  0  0  0
  -21.6833   -6.0717   22.5281 C   0  0  0  0  0  0
  -21.4001   -6.5626   23.8214 C   0  0  0  0  0  0
  -21.3656   -5.6780   24.9177 C   0  0  0  0  0  0
  -21.6048   -4.3044   24.7229 C   0  0  0  0  0  0
  -21.8820   -3.8134   23.4351 C   0  0  0  0  0  0
  -21.9188   -4.6948   22.3406 C   0  0  0  0  0  0
  -22.7708  -13.5116   21.1919 C   0  0  0  0  0  0
  -22.1657   -4.2138   21.0982 F   0  0  0  0  0  0
  -21.5632   -3.4531   25.7743 F   0  0  0  0  0  0
  -29.8660  -14.0273   20.2724 N   0  0  0  0  0  0
  -26.2762  -12.9256   20.3291 N   0  0  0  0  0  0
  -25.9254  -11.6413   20.5803 N   0  0  0  0  0  0
  -22.0334  -12.8151   22.0482 N   0  0  0  0  0  0
  -25.3788  -15.1779   20.4216 N   0  0  0  0  0  0
  -31.6735  -15.3125   20.2350 O   0  0  0  0  0  0
  -21.6609   -6.8849   21.4242 O   0  0  0  0  0  0
  -22.3430  -14.5431   20.6740 O   0  0  0  0  0  0
  -24.6628  -31.8223   23.1680 C   0  0  0  0  0  0
  -25.9307  -32.4583   23.8152 C   0  0  1  0  0  0
  -27.2382  -26.9300   20.1838 C   0  0  0  0  0  0
  -25.5968  -33.8396   24.2061 N   0  0  0  0  0  0
  -23.4791  -30.4302   21.5173 C   0  0  2  0  0  0
  -24.9370  -28.8141   20.1104 C   0  0  0  0  0  0
  -22.7670  -29.4425   22.4781 C   0  0  0  0  0  0
  -18.0322  -28.1409   22.8466 C   0  0  0  0  0  0
  -24.1495  -36.7209   23.2647 C   0  0  0  0  0  0
  -26.0469  -30.6284   21.3988 C   0  0  0  0  0  0
  -26.1179  -29.2172   20.7452 C   0  0  0  0  0  0
  -27.2585  -28.2952   20.7593 C   0  0  0  0  0  0
  -26.0291  -26.6792   19.4946 C   0  0  0  0  0  0
  -24.9181  -27.5656   19.4649 C   0  0  0  0  0  0
  -23.7197  -29.7396   20.1451 C   0  0  0  0  0  0
  -25.4136  -36.2967   24.0299 C   0  0  1  0  0  0
  -20.5946  -28.3753   23.1190 C   0  0  2  0  0  0
  -20.6798  -26.9433   22.5407 C   0  0  0  0  0  0
  -19.5773  -26.6372   21.5219 C   0  0  0  0  0  0
  -18.1954  -26.7940   22.1624 C   0  0  0  0  0  0
  -19.1583  -28.8903   23.2812 C   0  0  0  0  0  0
  -18.9494  -30.1492   23.8846 C   0  0  0  0  0  0
  -17.6486  -30.6598   24.0555 C   0  0  0  0  0  0
  -25.9099  -34.9349   23.5008 C   0  0  0  0  0  0
  -16.5376  -29.9085   23.6341 C   0  0  0  0  0  0
  -16.7304  -28.6506   23.0360 C   0  0  0  0  0  0
  -26.4557  -31.6529   25.0684 C   0  0  0  0  0  0
  -25.3676  -31.3782   26.1335 C   0  0  0  0  0  0
  -27.0458  -30.2895   24.6420 C   0  0  0  0  0  0
  -27.6045  -32.4339   25.7488 C   0  0  0  0  0  0
  -27.5572  -37.1760   24.8465 C   0  0  0  0  0  0
  -21.4337  -29.3038   22.3534 N   0  0  0  0  0  0
  -26.4283  -37.3702   23.9405 N   0  0  0  0  0  0
  -24.7507  -30.9876   22.0820 N   0  0  0  0  0  0
  -23.4212  -28.8007   23.3036 O   0  0  0  0  0  0
  -28.2584  -25.8428   20.2977 O   0  0  0  0  0  0
  -26.5719  -34.8890   22.4610 O   0  0  0  0  0  0
  -23.5694  -32.1198   23.6767 O   0  0  0  0  0  0
  -29.3814  -19.7970   20.6341 C   0  0  0  0  0  0
  -28.0473  -17.6993   18.6333 C   0  0  0  0  0  0
  -29.3699  -18.4080   18.4492 C   0  0  0  0  0  0
  -28.4731  -16.4161   19.3431 C   0  0  0  0  0  0
  -29.9053  -18.2965   19.8731 C   0  0  2  0  0  0
  -28.9136  -22.7207   20.6321 C   0  0  0  0  0  0
  -28.1668  -24.2248   19.9539 C   0  0  0  0  0  0
  -29.6777  -16.6430   20.1563 N   0  0  0  0  0  0
  -29.1543  -21.1563   20.0699 N   0  0  0  0  0  0
  -29.2079  -19.6993   21.8486 O   0  0  0  0  0  0
  -31.4548  -13.0774   19.1630 H   0  0  0  0  0  0
  -30.5384  -11.9806   20.1512 H   0  0  0  0  0  0
  -29.9422  -11.7291   17.7095 H   0  0  0  0  0  0
  -29.5315  -13.4239   17.6226 H   0  0  0  0  0  0
  -28.0936  -11.2289   19.1444 H   0  0  0  0  0  0
  -27.4240  -12.2290   17.8798 H   0  0  0  0  0  0
  -27.4401  -14.1229   19.2307 H   0  0  0  0  0  0
  -28.8475  -12.6080   21.5109 H   0  0  0  0  0  0
  -28.2640  -14.2511   21.6234 H   0  0  0  0  0  0
  -25.2728   -9.5616   22.4794 H   0  0  0  0  0  0
  -23.9971   -7.4566   22.7480 H   0  0  0  0  0  0
  -21.0816   -8.8736   19.8953 H   0  0  0  0  0  0
  -22.3690  -10.9631   19.6188 H   0  0  0  0  0  0
  -21.1987   -7.6133   23.9715 H   0  0  0  0  0  0
  -21.1479   -6.0508   25.9079 H   0  0  0  0  0  0
  -22.0607   -2.7598   23.2849 H   0  0  0  0  0  0
  -22.3922  -11.9821   22.4906 H   0  0  0  0  0  0
  -21.0958  -13.1209   22.2667 H   0  0  0  0  0  0
  -24.5989  -15.8149   20.5433 H   0  0  0  0  0  0
  -26.2151  -15.6368   20.0912 H   0  0  0  0  0  0
  -26.7378  -32.5126   23.0868 H   0  0  0  0  0  0
  -25.0044  -33.9469   25.0164 H   0  0  0  0  0  0
  -22.7924  -31.2612   21.3433 H   0  0  0  0  0  0
  -23.3769  -35.9529   23.3281 H   0  0  0  0  0  0
  -24.3568  -36.8886   22.2067 H   0  0  0  0  0  0
  -23.7244  -37.6385   23.6724 H   0  0  0  0  0  0
  -26.2253  -31.3681   20.6172 H   0  0  0  0  0  0
  -26.9075  -30.6879   22.0534 H   0  0  0  0  0  0
  -28.1498  -28.6010   21.2891 H   0  0  0  0  0  0
  -25.9075  -25.7257   19.0014 H   0  0  0  0  0  0
  -24.0219  -27.2499   18.9487 H   0  0  0  0  0  0
  -23.8709  -30.5058   19.3839 H   0  0  0  0  0  0
  -22.8307  -29.1897   19.8312 H   0  0  0  0  0  0
  -25.1335  -36.1764   25.0791 H   0  0  0  0  0  0
  -21.0034  -28.3366   24.1314 H   0  0  0  0  0  0
  -20.5680  -26.2372   23.3650 H   0  0  0  0  0  0
  -21.6660  -26.7408   22.1213 H   0  0  0  0  0  0
  -19.6932  -25.6270   21.1278 H   0  0  0  0  0  0
  -19.6713  -27.3156   20.6730 H   0  0  0  0  0  0
  -17.4224  -26.6684   21.4026 H   0  0  0  0  0  0
  -18.0348  -26.0094   22.9031 H   0  0  0  0  0  0
  -19.7968  -30.7324   24.2189 H   0  0  0  0  0  0
  -17.5037  -31.6271   24.5170 H   0  0  0  0  0  0
  -15.5374  -30.2972   23.7693 H   0  0  0  0  0  0
  -15.8704  -28.0810   22.7102 H   0  0  0  0  0  0
  -24.5869  -30.7126   25.7633 H   0  0  0  0  0  0
  -24.8852  -32.2985   26.4634 H   0  0  0  0  0  0
  -25.7896  -30.9019   27.0194 H   0  0  0  0  0  0
  -26.3128  -29.6561   24.1413 H   0  0  0  0  0  0
  -27.3980  -29.7270   25.5077 H   0  0  0  0  0  0
  -27.9071  -30.4079   23.9843 H   0  0  0  0  0  0
  -27.2611  -33.3684   26.1939 H   0  0  0  0  0  0
  -28.3919  -32.6830   25.0362 H   0  0  0  0  0  0
  -28.0643  -31.8547   26.5506 H   0  0  0  0  0  0
  -28.2571  -38.0072   24.7511 H   0  0  0  0  0  0
  -28.1087  -36.2597   24.6298 H   0  0  0  0  0  0
  -27.2285  -37.1408   25.8867 H   0  0  0  0  0  0
  -20.9602  -29.8714   21.6643 H   0  0  0  0  0  0
  -26.0133  -38.2764   24.1404 H   0  0  0  0  0  0
  -27.5433  -17.4999   17.6861 H   0  0  0  0  0  0
  -27.3622  -18.2827   19.2518 H   0  0  0  0  0  0
  -29.2529  -19.4235   18.0703 H   0  0  0  0  0  0
  -30.0097  -17.8721   17.7458 H   0  0  0  0  0  0
  -28.6640  -15.6788   18.5605 H   0  0  0  0  0  0
  -27.6813  -16.0873   20.0027 H   0  0  0  0  0  0
  -30.9890  -18.4141   19.8299 H   0  0  0  0  0  0
  -28.4474  -22.5864   21.6084 H   0  0  0  0  0  0
  -29.9299  -23.0291   20.8778 H   0  0  0  0  0  0
  -27.0987  -24.0104   19.9529 H   0  0  0  0  0  0
  -28.4353  -24.2007   18.8978 H   0  0  0  0  0  0
  -29.2758  -21.1503   19.0653 H   0  0  0  0  0  0
  1 25  1  0  0  0
  1 30  2  0  0  0
  1 78  1  0  0  0
  2  3  1  0  0  0
  2 25  1  0  0  0
  2 81  1  0  0  0
  2 82  1  0  0  0
  3  4  1  0  0  0
  3 83  1  0  0  0
  3 84  1  0  0  0
  4  5  1  0  0  0
  4 85  1  0  0  0
  4 86  1  0  0  0
  5  6  1  0  0  0
  5 26  1  0  0  0
  5 87  1  0  0  0
  6 25  1  0  0  0
  6 88  1  0  0  0
  6 89  1  0  0  0
  7  8  2  0  0  0
  7 26  1  0  0  0
  7 29  1  0  0  0
  8  9  1  0  0  0
  8 22  1  0  0  0
  9 10  1  0  0  0
  9 27  2  0  0  0
 10 11  2  0  0  0
 10 15  1  0  0  0
 11 12  1  0  0  0
 11 90  1  0  0  0
 12 13  2  0  0  0
 12 91  1  0  0  0
 13 14  1  0  0  0
 13 31  1  0  0  0
 14 15  2  0  0  0
 14 92  1  0  0  0
 15 93  1  0  0  0
 16 17  2  0  0  0
 16 21  1  0  0  0
 16 31  1  0  0  0
 17 18  1  0  0  0
 17 94  1  0  0  0
 18 19  2  0  0  0
 18 95  1  0  0  0
 19 20  1  0  0  0
 19 24  1  0  0  0
 20 21  2  0  0  0
 20 96  1  0  0  0
 21 23  1  0  0  0
 22 28  1  0  0  0
 22 32  2  0  0  0
 26 27  1  0  0  0
 28 97  1  0  0  0
 28 98  1  0  0  0
 29 99  1  0  0  0
 29100  1  0  0  0
 33 34  1  0  0  0
 33 66  1  0  0  0
 33 70  2  0  0  0
 34 36  1  0  0  0
 34 59  1  0  0  0
 34101  1  0  0  0
 35 44  2  0  0  0
 35 45  1  0  0  0
 35 68  1  0  0  0
 36 56  1  0  0  0
 36102  1  0  0  0
 37 39  1  0  0  0
 37 47  1  0  0  0
 37 66  1  0  0  0
 37103  1  0  0  0
 38 43  2  0  0  0
 38 46  1  0  0  0
 38 47  1  0  0  0
 39 64  1  0  0  0
 39 67  2  0  0  0
 40 52  1  0  0  0
 40 53  2  0  0  0
 40 58  1  0  0  0
 41104  1  0  0  0
 41105  1  0  0  0
 41106  1  0  0  0
 41 48  1  0  0  0
 42 43  1  0  0  0
 42 66  1  0  0  0
 42107  1  0  0  0
 42108  1  0  0  0
 43 44  1  0  0  0
 44109  1  0  0  0
 45 46  2  0  0  0
 45110  1  0  0  0
 46111  1  0  0  0
 47112  1  0  0  0
 47113  1  0  0  0
 48 56  1  0  0  0
 48 65  1  0  0  0
 48114  1  0  0  0
 49 50  1  0  0  0
 49 53  1  0  0  0
 49 64  1  0  0  0
 49115  1  0  0  0
 50 51  1  0  0  0
 50116  1  0  0  0
 50117  1  0  0  0
 51 52  1  0  0  0
 51118  1  0  0  0
 51119  1  0  0  0
 52120  1  0  0  0
 52121  1  0  0  0
 53 54  1  0  0  0
 54 55  2  0  0  0
 54122  1  0  0  0
 55 57  1  0  0  0
 55123  1  0  0  0
 56 69  2  0  0  0
 57 58  2  0  0  0
 57124  1  0  0  0
 58125  1  0  0  0
 59 60  1  0  0  0
 59 61  1  0  0  0
 59 62  1  0  0  0
 60126  1  0  0  0
 60127  1  0  0  0
 60128  1  0  0  0
 61129  1  0  0  0
 61130  1  0  0  0
 61131  1  0  0  0
 62132  1  0  0  0
 62133  1  0  0  0
 62134  1  0  0  0
 63 65  1  0  0  0
 63135  1  0  0  0
 63136  1  0  0  0
 63137  1  0  0  0
 64138  1  0  0  0
 65139  1  0  0  0
 68 77  1  0  0  0
 71 79  1  0  0  0
 71 80  2  0  0  0
 71 75  1  0  0  0
 72 73  1  0  0  0
 72 74  1  0  0  0
 72140  1  0  0  0
 72141  1  0  0  0
 73 75  1  0  0  0
 73142  1  0  0  0
 73143  1  0  0  0
 74 78  1  0  0  0
 74144  1  0  0  0
 74145  1  0  0  0
 75 78  1  0  0  0
 75146  1  0  0  0
 76 77  1  0  0  0
 76 79  1  0  0  0
 76147  1  0  0  0
 76148  1  0  0  0
 77149  1  0  0  0
 77150  1  0  0  0
 79151  1  0  0  0
M  ISO  4   1 100  68 101  77 101  78 100
M  END
> <chiral flag>
0

> <version>
0

> <s_m_source_file>
/data/baiqing/PycharmProjects/Reinvent-master-3.2/result/LINK_invent/BTK/process_docking_weight1_custom_product_contain_oxygen_bond_distance_aromatic_linkinvent_7_9_3/rearranged_h_0009.sdf

> <i_m_source_file_index>
15

> <r_mmod_Potential_Energy-OPLS-2005>
1428.60339355469

> <r_mmod_Stretch_Energy-OPLS-2005>
636.473327636719

> <r_mmod_Bend_Energy-OPLS-2005>
507.500549316406

> <r_mmod_Torsional_Energy-OPLS-2005>
270.4462890625

> <r_mmod_Improper_Torsional_Energy-OPLS-2005>
10.1523065567017

> <r_mmod_Van_der_Waal_Energy-OPLS-2005>
120.580345153809

> <r_mmod_Electrostatic_Energy-OPLS-2005>
-379.536407470703

> <r_mmod_Solvation_Energy-OPLS-2005>
-247.910186767578

> <b_mmod_Minimization_Converged-OPLS-2005>
0

> <r_mmod_RMS_Derivative-OPLS-2005>
0.772704601287842

$$$$
15
                    3D
 Structure written by MMmdl.
156165  0  0  1  0            999 V2000
  -30.5511  -14.7815   20.4577 C   0  0  0  0  0  0
  -30.4505  -12.4783   19.4668 C   0  0  0  0  0  0
  -29.5163  -12.5192   18.2345 C   0  0  0  0  0  0
  -28.0419  -12.3321   18.6482 C   0  0  0  0  0  0
  -27.6446  -13.2250   19.8528 C   0  0  2  0  0  0
  -28.6916  -13.1379   20.9853 C   0  0  0  0  0  0
  -25.2528  -13.8183   20.5685 C   0  0  0  0  0  0
  -24.1819  -13.0431   20.9206 C   0  0  0  0  0  0
  -24.6403  -11.6909   20.8745 C   0  0  0  0  0  0
  -23.9076  -10.4290   21.0409 C   0  0  0  0  0  0
  -24.3624   -9.4205   21.9186 C   0  0  0  0  0  0
  -23.6294   -8.2243   22.0754 C   0  0  0  0  0  0
  -22.4275   -8.0284   21.3545 C   0  0  0  0  0  0
  -21.9914   -9.0260   20.4648 C   0  0  0  0  0  0
  -22.7248  -10.2137   20.3057 C   0  0  0  0  0  0
  -21.6854   -6.0738   22.5281 C   0  0  0  0  0  0
  -21.4016   -6.5642   23.8214 C   0  0  0  0  0  0
  -21.3657   -5.6792   24.9175 C   0  0  0  0  0  0
  -21.6044   -4.3054   24.7225 C   0  0  0  0  0  0
  -21.8818   -3.8148   23.4345 C   0  0  0  0  0  0
  -21.9191   -4.6965   22.3402 C   0  0  0  0  0  0
  -22.7839  -13.5217   21.1865 C   0  0  0  0  0  0
  -22.1658   -4.2151   21.0978 F   0  0  0  0  0  0
  -21.5632   -3.4540   25.7739 F   0  0  0  0  0  0
  -29.9899  -13.5218   20.4104 N   0  0  0  0  0  0
  -26.2952  -12.9373   20.3276 N   0  0  0  0  0  0
  -25.9330  -11.6522   20.5741 N   0  0  0  0  0  0
  -22.0487  -12.8209   22.0426 N   0  0  0  0  0  0
  -25.4172  -15.1914   20.4101 N   0  0  0  0  0  0
  -31.7367  -14.9435   20.1502 O   0  0  0  0  0  0
  -21.6637   -6.8883   21.4243 O   0  0  0  0  0  0
  -22.3516  -14.5517   20.6710 O   0  0  0  0  0  0
  -24.6345  -31.8516   23.1946 C   0  0  0  0  0  0
  -25.9154  -32.4737   23.8304 C   0  0  1  0  0  0
  -27.2251  -27.2375   20.1366 C   0  0  0  0  0  0
  -25.5934  -33.8540   24.2224 N   0  0  0  0  0  0
  -23.4324  -30.4723   21.5388 C   0  0  2  0  0  0
  -24.8799  -28.9098   20.1139 C   0  0  0  0  0  0
  -22.7514  -29.4584   22.4902 C   0  0  0  0  0  0
  -18.0295  -28.1392   22.8488 C   0  0  0  0  0  0
  -24.1490  -36.7275   23.2642 C   0  0  0  0  0  0
  -25.9796  -30.7592   21.3756 C   0  0  0  0  0  0
  -26.0533  -29.3788   20.7179 C   0  0  0  0  0  0
  -27.2301  -28.5587   20.7079 C   0  0  0  0  0  0
  -26.0237  -26.8329   19.5181 C   0  0  0  0  0  0
  -24.8715  -27.6461   19.5018 C   0  0  0  0  0  0
  -23.6520  -29.8007   20.1574 C   0  0  0  0  0  0
  -25.4121  -36.3057   24.0318 C   0  0  1  0  0  0
  -20.5901  -28.3704   23.1267 C   0  0  2  0  0  0
  -20.6781  -26.9419   22.5411 C   0  0  0  0  0  0
  -19.5752  -26.6385   21.5219 C   0  0  0  0  0  0
  -18.1933  -26.7933   22.1630 C   0  0  0  0  0  0
  -19.1550  -28.8867   23.2869 C   0  0  0  0  0  0
  -18.9467  -30.1470   23.8884 C   0  0  0  0  0  0
  -17.6464  -30.6589   24.0568 C   0  0  0  0  0  0
  -25.9062  -34.9432   23.5076 C   0  0  0  0  0  0
  -16.5357  -29.9084   23.6338 C   0  0  0  0  0  0
  -16.7282  -28.6507   23.0354 C   0  0  0  0  0  0
  -26.4508  -31.6580   25.0715 C   0  0  0  0  0  0
  -25.3719  -31.3738   26.1429 C   0  0  0  0  0  0
  -27.0366  -30.2995   24.6230 C   0  0  0  0  0  0
  -27.6052  -32.4335   25.7493 C   0  0  0  0  0  0
  -27.5577  -37.1792   24.8463 C   0  0  0  0  0  0
  -21.4218  -29.3043   22.3649 N   0  0  0  0  0  0
  -26.4290  -37.3762   23.9407 N   0  0  0  0  0  0
  -24.7013  -31.0461   22.0929 N   0  0  0  0  0  0
  -23.4202  -28.8135   23.3019 O   0  0  0  0  0  0
  -28.3358  -26.3549   20.1617 O   0  0  0  0  0  0
  -26.5640  -34.8917   22.4651 O   0  0  0  0  0  0
  -23.5489  -32.1345   23.7234 O   0  0  0  0  0  0
  -30.4293  -19.6848   20.8614 C   0  0  0  0  0  0
  -30.6303  -18.2545   20.9406 C   0  0  0  0  0  0
  -28.3161  -19.3494   19.8283 C   0  0  0  0  0  0
  -29.2640  -20.3073   20.3023 C   0  0  0  0  0  0
  -29.6592  -17.3144   20.4827 C   0  0  0  0  0  0
  -28.4957  -17.9263   19.9315 C   0  0  0  0  0  0
  -28.1045  -23.9183   19.0930 C   0  0  0  0  0  0
  -29.3708  -24.1905   21.1350 C   0  0  0  0  0  0
  -27.9898  -22.3540   19.3856 C   0  0  0  0  0  0
  -29.2961  -22.6203   21.4019 C   0  0  0  0  0  0
  -28.1808  -24.8539   20.3524 C   0  0  0  0  0  0
  -29.0769  -21.7646   20.2096 N   0  0  0  0  0  0
  -29.6664  -15.8321   20.6648 N   0  0  0  0  0  0
  -27.5012  -17.1130   19.4965 F   0  0  0  0  0  0
  -31.4858  -12.6375   19.1601 H   0  0  0  0  0  0
  -30.4233  -11.4963   19.9418 H   0  0  0  0  0  0
  -29.8030  -11.7503   17.5159 H   0  0  0  0  0  0
  -29.6307  -13.4748   17.7202 H   0  0  0  0  0  0
  -27.9029  -11.2818   18.9067 H   0  0  0  0  0  0
  -27.3834  -12.5255   17.8006 H   0  0  0  0  0  0
  -27.6387  -14.2484   19.4781 H   0  0  0  0  0  0
  -28.7376  -12.1270   21.3932 H   0  0  0  0  0  0
  -28.4199  -13.7862   21.8199 H   0  0  0  0  0  0
  -25.2771   -9.5679   22.4759 H   0  0  0  0  0  0
  -24.0005   -7.4632   22.7471 H   0  0  0  0  0  0
  -21.0848   -8.8785   19.8948 H   0  0  0  0  0  0
  -22.3713  -10.9680   19.6166 H   0  0  0  0  0  0
  -21.2009   -7.6150   23.9720 H   0  0  0  0  0  0
  -21.1479   -6.0522   25.9079 H   0  0  0  0  0  0
  -22.0597   -2.7610   23.2847 H   0  0  0  0  0  0
  -22.4113  -11.9871   22.4806 H   0  0  0  0  0  0
  -21.1103  -13.1229   22.2634 H   0  0  0  0  0  0
  -24.6365  -15.8292   20.5141 H   0  0  0  0  0  0
  -26.2432  -15.6503   20.0413 H   0  0  0  0  0  0
  -26.7223  -32.5378   23.1045 H   0  0  0  0  0  0
  -25.0073  -33.9669   25.0364 H   0  0  0  0  0  0
  -22.7307  -31.2955   21.3887 H   0  0  0  0  0  0
  -23.3757  -35.9601   23.3298 H   0  0  0  0  0  0
  -24.3575  -36.8911   22.2056 H   0  0  0  0  0  0
  -23.7238  -37.6469   23.6682 H   0  0  0  0  0  0
  -26.1209  -31.5194   20.6061 H   0  0  0  0  0  0
  -26.8556  -30.8085   22.0110 H   0  0  0  0  0  0
  -28.1331  -28.9178   21.1817 H   0  0  0  0  0  0
  -25.9559  -25.8636   19.0508 H   0  0  0  0  0  0
  -23.9720  -27.2789   19.0267 H   0  0  0  0  0  0
  -23.7785  -30.5741   19.3985 H   0  0  0  0  0  0
  -22.7699  -29.2342   19.8539 H   0  0  0  0  0  0
  -25.1306  -36.1895   25.0808 H   0  0  0  0  0  0
  -20.9994  -28.3289   24.1388 H   0  0  0  0  0  0
  -20.5687  -26.2314   23.3617 H   0  0  0  0  0  0
  -21.6647  -26.7438   22.1203 H   0  0  0  0  0  0
  -19.6912  -25.6294   21.1251 H   0  0  0  0  0  0
  -19.6690  -27.3196   20.6749 H   0  0  0  0  0  0
  -17.4202  -26.6692   21.4030 H   0  0  0  0  0  0
  -18.0325  -26.0075   22.9026 H   0  0  0  0  0  0
  -19.7942  -30.7296   24.2240 H   0  0  0  0  0  0
  -17.5015  -31.6267   24.5174 H   0  0  0  0  0  0
  -15.5356  -30.2981   23.7665 H   0  0  0  0  0  0
  -15.8686  -28.0823   22.7066 H   0  0  0  0  0  0
  -24.5896  -30.7089   25.7748 H   0  0  0  0  0  0
  -24.8912  -32.2912   26.4837 H   0  0  0  0  0  0
  -25.8021  -30.8919   27.0218 H   0  0  0  0  0  0
  -26.2962  -29.6729   24.1244 H   0  0  0  0  0  0
  -27.4024  -29.7272   25.4765 H   0  0  0  0  0  0
  -27.8847  -30.4260   23.9497 H   0  0  0  0  0  0
  -27.2650  -33.3644   26.2041 H   0  0  0  0  0  0
  -28.3874  -32.6881   25.0329 H   0  0  0  0  0  0
  -28.0711  -31.8483   26.5431 H   0  0  0  0  0  0
  -28.2587  -38.0097   24.7519 H   0  0  0  0  0  0
  -28.1081  -36.2627   24.6282 H   0  0  0  0  0  0
  -27.2294  -37.1432   25.8865 H   0  0  0  0  0  0
  -20.9408  -29.8752   21.6840 H   0  0  0  0  0  0
  -26.0163  -38.2829   24.1423 H   0  0  0  0  0  0
  -31.2164  -20.3184   21.2437 H   0  0  0  0  0  0
  -31.5354  -17.8860   21.4009 H   0  0  0  0  0  0
  -27.3935  -19.6944   19.3875 H   0  0  0  0  0  0
  -27.2586  -24.2089   18.4721 H   0  0  0  0  0  0
  -28.9851  -24.0919   18.4731 H   0  0  0  0  0  0
  -30.2959  -24.4018   20.5973 H   0  0  0  0  0  0
  -29.4766  -24.6961   22.0953 H   0  0  0  0  0  0
  -27.9499  -21.8270   18.4312 H   0  0  0  0  0  0
  -27.0371  -22.1553   19.8794 H   0  0  0  0  0  0
  -28.4884  -22.4228   22.1086 H   0  0  0  0  0  0
  -30.2127  -22.3101   21.9049 H   0  0  0  0  0  0
  -27.2770  -24.6980   20.9435 H   0  0  0  0  0  0
  -28.7330  -15.4709   20.7868 H   0  0  0  0  0  0
  1 25  1  0  0  0
  1 30  2  0  0  0
  1 83  1  0  0  0
  2  3  1  0  0  0
  2 25  1  0  0  0
  2 85  1  0  0  0
  2 86  1  0  0  0
  3  4  1  0  0  0
  3 87  1  0  0  0
  3 88  1  0  0  0
  4  5  1  0  0  0
  4 89  1  0  0  0
  4 90  1  0  0  0
  5  6  1  0  0  0
  5 26  1  0  0  0
  5 91  1  0  0  0
  6 25  1  0  0  0
  6 92  1  0  0  0
  6 93  1  0  0  0
  7  8  2  0  0  0
  7 26  1  0  0  0
  7 29  1  0  0  0
  8  9  1  0  0  0
  8 22  1  0  0  0
  9 10  1  0  0  0
  9 27  2  0  0  0
 10 11  2  0  0  0
 10 15  1  0  0  0
 11 12  1  0  0  0
 11 94  1  0  0  0
 12 13  2  0  0  0
 12 95  1  0  0  0
 13 14  1  0  0  0
 13 31  1  0  0  0
 14 15  2  0  0  0
 14 96  1  0  0  0
 15 97  1  0  0  0
 16 17  2  0  0  0
 16 21  1  0  0  0
 16 31  1  0  0  0
 17 18  1  0  0  0
 17 98  1  0  0  0
 18 19  2  0  0  0
 18 99  1  0  0  0
 19 20  1  0  0  0
 19 24  1  0  0  0
 20 21  2  0  0  0
 20100  1  0  0  0
 21 23  1  0  0  0
 22 28  1  0  0  0
 22 32  2  0  0  0
 26 27  1  0  0  0
 28101  1  0  0  0
 28102  1  0  0  0
 29103  1  0  0  0
 29104  1  0  0  0
 33 34  1  0  0  0
 33 66  1  0  0  0
 33 70  2  0  0  0
 34 36  1  0  0  0
 34 59  1  0  0  0
 34105  1  0  0  0
 35 44  2  0  0  0
 35 45  1  0  0  0
 35 68  1  0  0  0
 36 56  1  0  0  0
 36106  1  0  0  0
 37 39  1  0  0  0
 37 47  1  0  0  0
 37 66  1  0  0  0
 37107  1  0  0  0
 38 43  2  0  0  0
 38 46  1  0  0  0
 38 47  1  0  0  0
 39 64  1  0  0  0
 39 67  2  0  0  0
 40 52  1  0  0  0
 40 53  2  0  0  0
 40 58  1  0  0  0
 41108  1  0  0  0
 41109  1  0  0  0
 41110  1  0  0  0
 41 48  1  0  0  0
 42 43  1  0  0  0
 42 66  1  0  0  0
 42111  1  0  0  0
 42112  1  0  0  0
 43 44  1  0  0  0
 44113  1  0  0  0
 45 46  2  0  0  0
 45114  1  0  0  0
 46115  1  0  0  0
 47116  1  0  0  0
 47117  1  0  0  0
 48 56  1  0  0  0
 48 65  1  0  0  0
 48118  1  0  0  0
 49 50  1  0  0  0
 49 53  1  0  0  0
 49 64  1  0  0  0
 49119  1  0  0  0
 50 51  1  0  0  0
 50120  1  0  0  0
 50121  1  0  0  0
 51 52  1  0  0  0
 51122  1  0  0  0
 51123  1  0  0  0
 52124  1  0  0  0
 52125  1  0  0  0
 53 54  1  0  0  0
 54 55  2  0  0  0
 54126  1  0  0  0
 55 57  1  0  0  0
 55127  1  0  0  0
 56 69  2  0  0  0
 57 58  2  0  0  0
 57128  1  0  0  0
 58129  1  0  0  0
 59 60  1  0  0  0
 59 61  1  0  0  0
 59 62  1  0  0  0
 60130  1  0  0  0
 60131  1  0  0  0
 60132  1  0  0  0
 61133  1  0  0  0
 61134  1  0  0  0
 61135  1  0  0  0
 62136  1  0  0  0
 62137  1  0  0  0
 62138  1  0  0  0
 63 65  1  0  0  0
 63139  1  0  0  0
 63140  1  0  0  0
 63141  1  0  0  0
 64142  1  0  0  0
 65143  1  0  0  0
 68 81  1  0  0  0
 71 72  2  0  0  0
 71 74  1  0  0  0
 71144  1  0  0  0
 72 75  1  0  0  0
 72145  1  0  0  0
 73 74  2  0  0  0
 73 76  1  0  0  0
 73146  1  0  0  0
 74 82  1  0  0  0
 75 76  2  0  0  0
 75 83  1  0  0  0
 76 84  1  0  0  0
 77 79  1  0  0  0
 77 81  1  0  0  0
 77147  1  0  0  0
 77148  1  0  0  0
 78 80  1  0  0  0
 78 81  1  0  0  0
 78149  1  0  0  0
 78150  1  0  0  0
 79 82  1  0  0  0
 79151  1  0  0  0
 79152  1  0  0  0
 80 82  1  0  0  0
 80153  1  0  0  0
 80154  1  0  0  0
 81155  1  0  0  0
 83156  1  0  0  0
M  ISO  4   1 100  68 101  81 101  83 100
M  END
> <chiral flag>
0

> <version>
0

> <s_m_source_file>
/data/baiqing/PycharmProjects/Reinvent-master-3.2/result/LINK_invent/BTK/process_docking_weight1_custom_product_contain_oxygen_bond_distance_aromatic_linkinvent_7_9_3/rearranged_h_0009.sdf

> <i_m_source_file_index>
16

> <r_mmod_Potential_Energy-OPLS-2005>
170.554336547852

> <r_mmod_Stretch_Energy-OPLS-2005>
124.410308837891

> <r_mmod_Bend_Energy-OPLS-2005>
192.851425170898

> <r_mmod_Torsional_Energy-OPLS-2005>
257.186309814453

> <r_mmod_Improper_Torsional_Energy-OPLS-2005>
9.0206241607666

> <r_mmod_Van_der_Waal_Energy-OPLS-2005>
136.276718139648

> <r_mmod_Electrostatic_Energy-OPLS-2005>
-431.85888671875

> <r_mmod_Solvation_Energy-OPLS-2005>
-216.415161132812

> <b_mmod_Minimization_Converged-OPLS-2005>
0

> <r_mmod_RMS_Derivative-OPLS-2005>
0.520573854446411

$$$$
16
                    3D
 Structure written by MMmdl.
158167  0  0  1  0            999 V2000
  -30.6265  -14.7458   20.5063 C   0  0  0  0  0  0
  -30.4482  -12.4657   19.4712 C   0  0  0  0  0  0
  -29.5147  -12.5224   18.2400 C   0  0  0  0  0  0
  -28.0415  -12.3337   18.6541 C   0  0  0  0  0  0
  -27.6440  -13.2221   19.8616 C   0  0  2  0  0  0
  -28.6986  -13.1440   20.9929 C   0  0  0  0  0  0
  -25.2218  -13.7869   20.5401 C   0  0  0  0  0  0
  -24.1658  -13.0175   20.9220 C   0  0  0  0  0  0
  -24.6388  -11.6736   20.8842 C   0  0  0  0  0  0
  -23.9079  -10.4153   21.0459 C   0  0  0  0  0  0
  -24.3616   -9.4079   21.9235 C   0  0  0  0  0  0
  -23.6263   -8.2141   22.0780 C   0  0  0  0  0  0
  -22.4250   -8.0221   21.3552 C   0  0  0  0  0  0
  -21.9902   -9.0198   20.4654 C   0  0  0  0  0  0
  -22.7262  -10.2050   20.3078 C   0  0  0  0  0  0
  -21.6823   -6.0706   22.5282 C   0  0  0  0  0  0
  -21.3994   -6.5620   23.8213 C   0  0  0  0  0  0
  -21.3653   -5.6780   24.9179 C   0  0  0  0  0  0
  -21.6043   -4.3045   24.7234 C   0  0  0  0  0  0
  -21.8820   -3.8131   23.4357 C   0  0  0  0  0  0
  -21.9182   -4.6940   22.3409 C   0  0  0  0  0  0
  -22.7690  -13.5008   21.1874 C   0  0  0  0  0  0
  -22.1657   -4.2129   21.0986 F   0  0  0  0  0  0
  -21.5631   -3.4533   25.7750 F   0  0  0  0  0  0
  -30.0092  -13.5116   20.4238 N   0  0  0  0  0  0
  -26.2899  -12.9272   20.3323 N   0  0  0  0  0  0
  -25.9355  -11.6421   20.5920 N   0  0  0  0  0  0
  -22.0365  -12.8066   22.0497 N   0  0  0  0  0  0
  -25.3168  -15.1425   20.3141 N   0  0  0  0  0  0
  -31.7938  -14.8875   20.1334 O   0  0  0  0  0  0
  -21.6594   -6.8841   21.4244 O   0  0  0  0  0  0
  -22.3370  -14.5323   20.6724 O   0  0  0  0  0  0
  -24.6270  -31.8579   23.1999 C   0  0  0  0  0  0
  -25.9108  -32.4772   23.8343 C   0  0  1  0  0  0
  -27.2499  -27.3045   20.1472 C   0  0  0  0  0  0
  -25.5918  -33.8572   24.2276 N   0  0  0  0  0  0
  -23.4243  -30.4748   21.5424 C   0  0  2  0  0  0
  -24.8790  -28.9111   20.1320 C   0  0  0  0  0  0
  -22.7480  -29.4605   22.4950 C   0  0  0  0  0  0
  -18.0285  -28.1385   22.8484 C   0  0  0  0  0  0
  -24.1487  -36.7292   23.2637 C   0  0  0  0  0  0
  -25.9642  -30.7820   21.3750 C   0  0  0  0  0  0
  -26.0448  -29.3987   20.7385 C   0  0  0  0  0  0
  -27.2342  -28.6074   20.7365 C   0  0  0  0  0  0
  -26.0620  -26.8610   19.5313 C   0  0  0  0  0  0
  -24.8880  -27.6441   19.5237 C   0  0  0  0  0  0
  -23.6465  -29.7953   20.1646 C   0  0  0  0  0  0
  -25.4110  -36.3080   24.0331 C   0  0  1  0  0  0
  -20.5884  -28.3687   23.1285 C   0  0  2  0  0  0
  -20.6777  -26.9410   22.5413 C   0  0  0  0  0  0
  -19.5755  -26.6384   21.5214 C   0  0  0  0  0  0
  -18.1932  -26.7929   22.1621 C   0  0  0  0  0  0
  -19.1537  -28.8854   23.2879 C   0  0  0  0  0  0
  -18.9460  -30.1456   23.8894 C   0  0  0  0  0  0
  -17.6460  -30.6586   24.0561 C   0  0  0  0  0  0
  -25.9045  -34.9448   23.5106 C   0  0  0  0  0  0
  -16.5351  -29.9083   23.6330 C   0  0  0  0  0  0
  -16.7272  -28.6502   23.0350 C   0  0  0  0  0  0
  -26.4497  -31.6580   25.0712 C   0  0  0  0  0  0
  -25.3731  -31.3719   26.1440 C   0  0  0  0  0  0
  -27.0345  -30.3004   24.6165 C   0  0  0  0  0  0
  -27.6055  -32.4314   25.7487 C   0  0  0  0  0  0
  -27.5581  -37.1797   24.8462 C   0  0  0  0  0  0
  -21.4192  -29.3037   22.3680 N   0  0  0  0  0  0
  -26.4288  -37.3775   23.9412 N   0  0  0  0  0  0
  -24.6903  -31.0564   22.0963 N   0  0  0  0  0  0
  -23.4186  -28.8160   23.3054 O   0  0  0  0  0  0
  -28.3976  -26.5156   19.9850 O   0  0  0  0  0  0
  -26.5615  -34.8919   22.4672 O   0  0  0  0  0  0
  -23.5426  -32.1384   23.7310 O   0  0  0  0  0  0
  -30.9261  -19.5822   21.0937 C   0  0  0  0  0  0
  -31.0265  -18.1458   20.9576 C   0  0  0  0  0  0
  -28.5660  -19.4629   20.7933 C   0  0  0  0  0  0
  -29.6796  -20.2843   21.0473 C   0  0  0  0  0  0
  -28.6481  -18.0423   20.7064 C   0  0  0  0  0  0
  -29.8773  -17.3096   20.8016 C   0  0  0  0  0  0
  -28.4360  -23.9562   20.6745 C   0  0  0  0  0  0
  -30.3472  -25.3473   20.8921 C   0  0  0  0  0  0
  -30.7140  -23.8456   20.9792 C   0  0  0  0  0  0
  -28.8177  -25.4641   20.9376 C   0  0  1  0  0  0
  -29.4160  -21.7483   21.6043 C   0  0  0  0  0  0
  -27.3458  -17.2946   20.5798 C   0  0  0  0  0  0
  -29.4762  -23.0742   20.8594 N   0  0  0  0  0  0
  -29.8243  -15.8142   20.8590 N   0  0  0  0  0  0
  -27.2683  -23.6108   20.4711 O   0  0  0  0  0  0
  -26.2642  -18.0767   20.5835 F   0  0  0  0  0  0
  -27.3744  -16.6220   19.4296 F   0  0  0  0  0  0
  -27.2670  -16.4563   21.6146 F   0  0  0  0  0  0
  -31.4856  -12.6040   19.1620 H   0  0  0  0  0  0
  -30.4064  -11.4827   19.9430 H   0  0  0  0  0  0
  -29.7993  -11.7586   17.5150 H   0  0  0  0  0  0
  -29.6327  -13.4827   17.7356 H   0  0  0  0  0  0
  -27.9029  -11.2830   18.9108 H   0  0  0  0  0  0
  -27.3826  -12.5296   17.8074 H   0  0  0  0  0  0
  -27.6367  -14.2426   19.4884 H   0  0  0  0  0  0
  -28.7389  -12.1369   21.4107 H   0  0  0  0  0  0
  -28.4251  -13.7983   21.8220 H   0  0  0  0  0  0
  -25.2753   -9.5541   22.4824 H   0  0  0  0  0  0
  -23.9945   -7.4520   22.7501 H   0  0  0  0  0  0
  -21.0833   -8.8737   19.8954 H   0  0  0  0  0  0
  -22.3753  -10.9605   19.6190 H   0  0  0  0  0  0
  -21.1984   -7.6128   23.9712 H   0  0  0  0  0  0
  -21.1478   -6.0513   25.9082 H   0  0  0  0  0  0
  -22.0608   -2.7594   23.2864 H   0  0  0  0  0  0
  -22.3989  -11.9740   22.4899 H   0  0  0  0  0  0
  -21.1001  -13.1125   22.2735 H   0  0  0  0  0  0
  -24.5217  -15.7613   20.4145 H   0  0  0  0  0  0
  -26.1269  -15.5979   19.9112 H   0  0  0  0  0  0
  -26.7175  -32.5457   23.1095 H   0  0  0  0  0  0
  -25.0075  -33.9716   25.0427 H   0  0  0  0  0  0
  -22.7187  -31.2940   21.3897 H   0  0  0  0  0  0
  -23.3751  -35.9622   23.3294 H   0  0  0  0  0  0
  -24.3576  -36.8917   22.2051 H   0  0  0  0  0  0
  -23.7238  -37.6492   23.6661 H   0  0  0  0  0  0
  -26.0881  -31.5337   20.5942 H   0  0  0  0  0  0
  -26.8467  -30.8456   21.9998 H   0  0  0  0  0  0
  -28.1405  -28.9958   21.1798 H   0  0  0  0  0  0
  -26.0508  -25.8977   19.0405 H   0  0  0  0  0  0
  -23.9971  -27.2631   19.0439 H   0  0  0  0  0  0
  -23.7706  -30.5638   19.4007 H   0  0  0  0  0  0
  -22.7678  -29.2220   19.8636 H   0  0  0  0  0  0
  -25.1288  -36.1930   25.0823 H   0  0  0  0  0  0
  -20.9968  -28.3263   24.1409 H   0  0  0  0  0  0
  -20.5680  -26.2294   23.3612 H   0  0  0  0  0  0
  -21.6647  -26.7445   22.1205 H   0  0  0  0  0  0
  -19.6918  -25.6294   21.1244 H   0  0  0  0  0  0
  -19.6696  -27.3193   20.6743 H   0  0  0  0  0  0
  -17.4205  -26.6674   21.4022 H   0  0  0  0  0  0
  -18.0330  -26.0071   22.9017 H   0  0  0  0  0  0
  -19.7936  -30.7275   24.2261 H   0  0  0  0  0  0
  -17.5014  -31.6267   24.5161 H   0  0  0  0  0  0
  -15.5351  -30.2984   23.7658 H   0  0  0  0  0  0
  -15.8672  -28.0821   22.7068 H   0  0  0  0  0  0
  -24.5904  -30.7070   25.7770 H   0  0  0  0  0  0
  -24.8928  -32.2887   26.4867 H   0  0  0  0  0  0
  -25.8057  -30.8897   27.0214 H   0  0  0  0  0  0
  -26.2921  -29.6746   24.1199 H   0  0  0  0  0  0
  -27.4053  -29.7263   25.4667 H   0  0  0  0  0  0
  -27.8781  -30.4290   23.9381 H   0  0  0  0  0  0
  -27.2664  -33.3613   26.2065 H   0  0  0  0  0  0
  -28.3870  -32.6874   25.0321 H   0  0  0  0  0  0
  -28.0718  -31.8438   26.5405 H   0  0  0  0  0  0
  -28.2590  -38.0102   24.7520 H   0  0  0  0  0  0
  -28.1084  -36.2634   24.6271 H   0  0  0  0  0  0
  -27.2300  -37.1427   25.8864 H   0  0  0  0  0  0
  -20.9379  -29.8740   21.6868 H   0  0  0  0  0  0
  -26.0170  -38.2847   24.1422 H   0  0  0  0  0  0
  -31.8257  -20.1376   21.3224 H   0  0  0  0  0  0
  -31.9989  -17.6839   21.0579 H   0  0  0  0  0  0
  -27.5935  -19.9322   20.7793 H   0  0  0  0  0  0
  -30.7246  -25.7552   19.9534 H   0  0  0  0  0  0
  -30.8122  -25.9196   21.6953 H   0  0  0  0  0  0
  -31.2146  -23.6437   21.9269 H   0  0  0  0  0  0
  -31.4050  -23.5638   20.1835 H   0  0  0  0  0  0
  -28.4903  -25.7250   21.9450 H   0  0  0  0  0  0
  -30.0733  -21.8378   22.4694 H   0  0  0  0  0  0
  -28.4276  -21.7130   22.0656 H   0  0  0  0  0  0
  -28.9006  -15.4788   21.0940 H   0  0  0  0  0  0
  1 25  1  0  0  0
  1 30  2  0  0  0
  1 84  1  0  0  0
  2  3  1  0  0  0
  2 25  1  0  0  0
  2 89  1  0  0  0
  2 90  1  0  0  0
  3  4  1  0  0  0
  3 91  1  0  0  0
  3 92  1  0  0  0
  4  5  1  0  0  0
  4 93  1  0  0  0
  4 94  1  0  0  0
  5  6  1  0  0  0
  5 26  1  0  0  0
  5 95  1  0  0  0
  6 25  1  0  0  0
  6 96  1  0  0  0
  6 97  1  0  0  0
  7  8  2  0  0  0
  7 26  1  0  0  0
  7 29  1  0  0  0
  8  9  1  0  0  0
  8 22  1  0  0  0
  9 10  1  0  0  0
  9 27  2  0  0  0
 10 11  2  0  0  0
 10 15  1  0  0  0
 11 12  1  0  0  0
 11 98  1  0  0  0
 12 13  2  0  0  0
 12 99  1  0  0  0
 13 14  1  0  0  0
 13 31  1  0  0  0
 14 15  2  0  0  0
 14100  1  0  0  0
 15101  1  0  0  0
 16 17  2  0  0  0
 16 21  1  0  0  0
 16 31  1  0  0  0
 17 18  1  0  0  0
 17102  1  0  0  0
 18 19  2  0  0  0
 18103  1  0  0  0
 19 20  1  0  0  0
 19 24  1  0  0  0
 20 21  2  0  0  0
 20104  1  0  0  0
 21 23  1  0  0  0
 22 28  1  0  0  0
 22 32  2  0  0  0
 26 27  1  0  0  0
 28105  1  0  0  0
 28106  1  0  0  0
 29107  1  0  0  0
 29108  1  0  0  0
 33 34  1  0  0  0
 33 66  1  0  0  0
 33 70  2  0  0  0
 34 36  1  0  0  0
 34 59  1  0  0  0
 34109  1  0  0  0
 35 44  2  0  0  0
 35 45  1  0  0  0
 35 68  1  0  0  0
 36 56  1  0  0  0
 36110  1  0  0  0
 37 39  1  0  0  0
 37 47  1  0  0  0
 37 66  1  0  0  0
 37111  1  0  0  0
 38 43  2  0  0  0
 38 46  1  0  0  0
 38 47  1  0  0  0
 39 64  1  0  0  0
 39 67  2  0  0  0
 40 52  1  0  0  0
 40 53  2  0  0  0
 40 58  1  0  0  0
 41112  1  0  0  0
 41113  1  0  0  0
 41114  1  0  0  0
 41 48  1  0  0  0
 42 43  1  0  0  0
 42 66  1  0  0  0
 42115  1  0  0  0
 42116  1  0  0  0
 43 44  1  0  0  0
 44117  1  0  0  0
 45 46  2  0  0  0
 45118  1  0  0  0
 46119  1  0  0  0
 47120  1  0  0  0
 47121  1  0  0  0
 48 56  1  0  0  0
 48 65  1  0  0  0
 48122  1  0  0  0
 49 50  1  0  0  0
 49 53  1  0  0  0
 49 64  1  0  0  0
 49123  1  0  0  0
 50 51  1  0  0  0
 50124  1  0  0  0
 50125  1  0  0  0
 51 52  1  0  0  0
 51126  1  0  0  0
 51127  1  0  0  0
 52128  1  0  0  0
 52129  1  0  0  0
 53 54  1  0  0  0
 54 55  2  0  0  0
 54130  1  0  0  0
 55 57  1  0  0  0
 55131  1  0  0  0
 56 69  2  0  0  0
 57 58  2  0  0  0
 57132  1  0  0  0
 58133  1  0  0  0
 59 60  1  0  0  0
 59 61  1  0  0  0
 59 62  1  0  0  0
 60134  1  0  0  0
 60135  1  0  0  0
 60136  1  0  0  0
 61137  1  0  0  0
 61138  1  0  0  0
 61139  1  0  0  0
 62140  1  0  0  0
 62141  1  0  0  0
 62142  1  0  0  0
 63 65  1  0  0  0
 63143  1  0  0  0
 63144  1  0  0  0
 63145  1  0  0  0
 64146  1  0  0  0
 65147  1  0  0  0
 68 80  1  0  0  0
 71 72  2  0  0  0
 71 74  1  0  0  0
 71148  1  0  0  0
 72 76  1  0  0  0
 72149  1  0  0  0
 73 74  2  0  0  0
 73 75  1  0  0  0
 73150  1  0  0  0
 74 81  1  0  0  0
 75 76  2  0  0  0
 75 82  1  0  0  0
 76 84  1  0  0  0
 77 80  1  0  0  0
 77 83  1  0  0  0
 77 85  2  0  0  0
 78 79  1  0  0  0
 78 80  1  0  0  0
 78151  1  0  0  0
 78152  1  0  0  0
 79 83  1  0  0  0
 79153  1  0  0  0
 79154  1  0  0  0
 80155  1  0  0  0
 81 83  1  0  0  0
 81156  1  0  0  0
 81157  1  0  0  0
 82 86  1  0  0  0
 82 87  1  0  0  0
 82 88  1  0  0  0
 84158  1  0  0  0
M  ISO  4   1 100  68 101  80 101  84 100
M  END
> <chiral flag>
0

> <version>
0

> <s_m_source_file>
/data/baiqing/PycharmProjects/Reinvent-master-3.2/result/LINK_invent/BTK/process_docking_weight1_custom_product_contain_oxygen_bond_distance_aromatic_linkinvent_7_9_3/rearranged_h_0009.sdf

> <i_m_source_file_index>
17

> <r_mmod_Potential_Energy-OPLS-2005>
334.625854492188

> <r_mmod_Stretch_Energy-OPLS-2005>
100.256607055664

> <r_mmod_Bend_Energy-OPLS-2005>
223.932495117188

> <r_mmod_Torsional_Energy-OPLS-2005>
309.407196044922

> <r_mmod_Improper_Torsional_Energy-OPLS-2005>
12.8781099319458

> <r_mmod_Van_der_Waal_Energy-OPLS-2005>
145.435913085938

> <r_mmod_Electrostatic_Energy-OPLS-2005>
-308.083251953125

> <r_mmod_Solvation_Energy-OPLS-2005>
-219.126571655273

> <b_mmod_Minimization_Converged-OPLS-2005>
0

> <r_mmod_RMS_Derivative-OPLS-2005>
0.480294406414032

$$$$
17
                    3D
 Structure written by MMmdl.
152160  0  0  1  0            999 V2000
  -30.5144  -14.8981   20.4385 C   0  0  0  0  0  0
  -30.4550  -12.5524   19.4883 C   0  0  0  0  0  0
  -29.5256  -12.5304   18.2506 C   0  0  0  0  0  0
  -28.0549  -12.3225   18.6645 C   0  0  0  0  0  0
  -27.6400  -13.2348   19.8477 C   0  0  2  0  0  0
  -28.6846  -13.2034   20.9850 C   0  0  0  0  0  0
  -25.2507  -13.8185   20.5687 C   0  0  0  0  0  0
  -24.1808  -13.0433   20.9228 C   0  0  0  0  0  0
  -24.6403  -11.6912   20.8756 C   0  0  0  0  0  0
  -23.9077  -10.4290   21.0412 C   0  0  0  0  0  0
  -24.3624   -9.4203   21.9188 C   0  0  0  0  0  0
  -23.6295   -8.2241   22.0756 C   0  0  0  0  0  0
  -22.4277   -8.0282   21.3546 C   0  0  0  0  0  0
  -21.9916   -9.0259   20.4648 C   0  0  0  0  0  0
  -22.7250  -10.2135   20.3059 C   0  0  0  0  0  0
  -21.6853   -6.0737   22.5278 C   0  0  0  0  0  0
  -21.4015   -6.5640   23.8212 C   0  0  0  0  0  0
  -21.3659   -5.6792   24.9174 C   0  0  0  0  0  0
  -21.6044   -4.3055   24.7224 C   0  0  0  0  0  0
  -21.8819   -3.8147   23.4346 C   0  0  0  0  0  0
  -21.9193   -4.6964   22.3402 C   0  0  0  0  0  0
  -22.7828  -13.5217   21.1879 C   0  0  0  0  0  0
  -22.1661   -4.2150   21.0979 F   0  0  0  0  0  0
  -21.5628   -3.4539   25.7737 F   0  0  0  0  0  0
  -29.9712  -13.6186   20.4051 N   0  0  0  0  0  0
  -26.2930  -12.9393   20.3254 N   0  0  0  0  0  0
  -25.9332  -11.6537   20.5740 N   0  0  0  0  0  0
  -22.0470  -12.8209   22.0432 N   0  0  0  0  0  0
  -25.4175  -15.1906   20.4049 N   0  0  0  0  0  0
  -31.7003  -15.0441   20.1205 O   0  0  0  0  0  0
  -21.6639   -6.8880   21.4241 O   0  0  0  0  0  0
  -22.3517  -14.5522   20.6719 O   0  0  0  0  0  0
  -24.6418  -31.8460   23.1900 C   0  0  0  0  0  0
  -25.9198  -32.4706   23.8283 C   0  0  1  0  0  0
  -27.2219  -27.1599   20.1445 C   0  0  0  0  0  0
  -25.5952  -33.8511   24.2201 N   0  0  0  0  0  0
  -23.4442  -30.4663   21.5354 C   0  0  2  0  0  0
  -24.8940  -28.8976   20.1109 C   0  0  0  0  0  0
  -22.7559  -29.4558   22.4869 C   0  0  0  0  0  0
  -18.0304  -28.1394   22.8479 C   0  0  0  0  0  0
  -24.1492  -36.7261   23.2641 C   0  0  0  0  0  0
  -25.9991  -30.7276   21.3852 C   0  0  0  0  0  0
  -26.0715  -29.3413   20.7261 C   0  0  0  0  0  0
  -27.2367  -28.4890   20.7252 C   0  0  0  0  0  0
  -26.0155  -26.8127   19.4945 C   0  0  0  0  0  0
  -24.8777  -27.6457   19.4804 C   0  0  0  0  0  0
  -23.6694  -29.7968   20.1544 C   0  0  0  0  0  0
  -25.4122  -36.3038   24.0317 C   0  0  1  0  0  0
  -20.5915  -28.3719   23.1241 C   0  0  2  0  0  0
  -20.6789  -26.9424   22.5404 C   0  0  0  0  0  0
  -19.5762  -26.6382   21.5213 C   0  0  0  0  0  0
  -18.1944  -26.7933   22.1625 C   0  0  0  0  0  0
  -19.1560  -28.8874   23.2853 C   0  0  0  0  0  0
  -18.9476  -30.1470   23.8878 C   0  0  0  0  0  0
  -17.6473  -30.6590   24.0560 C   0  0  0  0  0  0
  -25.9072  -34.9413   23.5066 C   0  0  0  0  0  0
  -16.5364  -29.9084   23.6334 C   0  0  0  0  0  0
  -16.7289  -28.6502   23.0356 C   0  0  0  0  0  0
  -26.4525  -31.6566   25.0716 C   0  0  0  0  0  0
  -25.3714  -31.3748   26.1413 C   0  0  0  0  0  0
  -27.0390  -30.2966   24.6283 C   0  0  0  0  0  0
  -27.6054  -32.4330   25.7504 C   0  0  0  0  0  0
  -27.5575  -37.1788   24.8465 C   0  0  0  0  0  0
  -21.4253  -29.3048   22.3615 N   0  0  0  0  0  0
  -26.4287  -37.3749   23.9408 N   0  0  0  0  0  0
  -24.7148  -31.0337   22.0923 N   0  0  0  0  0  0
  -23.4211  -28.8105   23.3012 O   0  0  0  0  0  0
  -28.2839  -26.1897   20.2098 O   0  0  0  0  0  0
  -26.5655  -34.8907   22.4643 O   0  0  0  0  0  0
  -23.5542  -32.1326   23.7133 O   0  0  0  0  0  0
  -30.5129  -18.5116   20.3224 C   0  0  0  0  0  0
  -30.2139  -19.9466   20.2560 C   0  0  0  0  0  0
  -28.2286  -18.0763   20.7024 C   0  0  0  0  0  0
  -27.9217  -19.4858   20.6245 C   0  0  0  0  0  0
  -29.5220  -17.4899   20.5496 C   0  0  0  0  0  0
  -28.8953  -20.5157   20.3938 C   0  0  0  0  0  0
  -26.4632  -19.8832   20.8031 C   0  0  0  0  0  0
  -29.0118  -23.3594   20.3296 C   0  0  0  0  0  0
  -27.9900  -24.6730   20.0914 C   0  0  0  0  0  0
  -29.6274  -15.9701   20.6734 N   0  0  0  0  0  0
  -28.4286  -21.9233   20.2955 N   0  0  0  0  0  0
  -31.4867  -12.7253   19.1781 H   0  0  0  0  0  0
  -30.4526  -11.5847   19.9924 H   0  0  0  0  0  0
  -29.8342  -11.7450   17.5592 H   0  0  0  0  0  0
  -29.6213  -13.4712   17.7062 H   0  0  0  0  0  0
  -27.9382  -11.2763   18.9498 H   0  0  0  0  0  0
  -27.3941  -12.4810   17.8116 H   0  0  0  0  0  0
  -27.6197  -14.2481   19.4461 H   0  0  0  0  0  0
  -28.7581  -12.2050   21.4185 H   0  0  0  0  0  0
  -28.3901  -13.8659   21.8006 H   0  0  0  0  0  0
  -25.2769   -9.5675   22.4764 H   0  0  0  0  0  0
  -24.0002   -7.4630   22.7473 H   0  0  0  0  0  0
  -21.0848   -8.8782   19.8953 H   0  0  0  0  0  0
  -22.3712  -10.9677   19.6170 H   0  0  0  0  0  0
  -21.2009   -7.6148   23.9716 H   0  0  0  0  0  0
  -21.1480   -6.0523   25.9077 H   0  0  0  0  0  0
  -22.0598   -2.7610   23.2846 H   0  0  0  0  0  0
  -22.4087  -11.9873   22.4825 H   0  0  0  0  0  0
  -21.1086  -13.1230   22.2631 H   0  0  0  0  0  0
  -24.6342  -15.8295   20.4870 H   0  0  0  0  0  0
  -26.2273  -15.6128   19.9714 H   0  0  0  0  0  0
  -26.7265  -32.5321   23.1015 H   0  0  0  0  0  0
  -25.0080  -33.9628   25.0335 H   0  0  0  0  0  0
  -22.7459  -31.2917   21.3824 H   0  0  0  0  0  0
  -23.3756  -35.9590   23.3293 H   0  0  0  0  0  0
  -24.3578  -36.8902   22.2058 H   0  0  0  0  0  0
  -23.7246  -37.6455   23.6684 H   0  0  0  0  0  0
  -26.1518  -31.4836   20.6138 H   0  0  0  0  0  0
  -26.8706  -30.7773   22.0263 H   0  0  0  0  0  0
  -28.1343  -28.8248   21.2252 H   0  0  0  0  0  0
  -25.9127  -25.8576   19.0036 H   0  0  0  0  0  0
  -23.9787  -27.3003   18.9884 H   0  0  0  0  0  0
  -23.8043  -30.5717   19.3989 H   0  0  0  0  0  0
  -22.7849  -29.2375   19.8442 H   0  0  0  0  0  0
  -25.1309  -36.1867   25.0809 H   0  0  0  0  0  0
  -21.0008  -28.3307   24.1361 H   0  0  0  0  0  0
  -20.5686  -26.2332   23.3621 H   0  0  0  0  0  0
  -21.6656  -26.7434   22.1200 H   0  0  0  0  0  0
  -19.6923  -25.6288   21.1255 H   0  0  0  0  0  0
  -19.6696  -27.3182   20.6734 H   0  0  0  0  0  0
  -17.4212  -26.6677   21.4030 H   0  0  0  0  0  0
  -18.0344  -26.0080   22.9027 H   0  0  0  0  0  0
  -19.7951  -30.7292   24.2241 H   0  0  0  0  0  0
  -17.5025  -31.6268   24.5165 H   0  0  0  0  0  0
  -15.5364  -30.2979   23.7668 H   0  0  0  0  0  0
  -15.8690  -28.0813   22.7083 H   0  0  0  0  0  0
  -24.5902  -30.7086   25.7736 H   0  0  0  0  0  0
  -24.8893  -32.2928   26.4785 H   0  0  0  0  0  0
  -25.8003  -30.8960   27.0225 H   0  0  0  0  0  0
  -26.3004  -29.6689   24.1283 H   0  0  0  0  0  0
  -27.4005  -29.7261   25.4849 H   0  0  0  0  0  0
  -27.8909  -30.4208   23.9595 H   0  0  0  0  0  0
  -27.2644  -33.3647   26.2031 H   0  0  0  0  0  0
  -28.3894  -32.6864   25.0355 H   0  0  0  0  0  0
  -28.0690  -31.8489   26.5465 H   0  0  0  0  0  0
  -28.2585  -38.0091   24.7510 H   0  0  0  0  0  0
  -28.1079  -36.2620   24.6294 H   0  0  0  0  0  0
  -27.2292  -37.1437   25.8868 H   0  0  0  0  0  0
  -20.9461  -29.8761   21.6796 H   0  0  0  0  0  0
  -26.0154  -38.2817   24.1409 H   0  0  0  0  0  0
  -31.5415  -18.2042   20.1970 H   0  0  0  0  0  0
  -31.0390  -20.6205   20.0746 H   0  0  0  0  0  0
  -27.4044  -17.4031   20.8896 H   0  0  0  0  0  0
  -25.8310  -19.0245   21.0302 H   0  0  0  0  0  0
  -26.0785  -20.3444   19.8931 H   0  0  0  0  0  0
  -26.3569  -20.5930   21.6241 H   0  0  0  0  0  0
  -29.4934  -23.4824   21.3004 H   0  0  0  0  0  0
  -29.8174  -23.4113   19.5961 H   0  0  0  0  0  0
  -27.1385  -24.5033   20.7517 H   0  0  0  0  0  0
  -27.6038  -24.5311   19.0824 H   0  0  0  0  0  0
  -28.7386  -15.5686   20.9285 H   0  0  0  0  0  0
  -27.4137  -21.9665   20.3183 H   0  0  0  0  0  0
  1 25  1  0  0  0
  1 30  2  0  0  0
  1 80  1  0  0  0
  2  3  1  0  0  0
  2 25  1  0  0  0
  2 82  1  0  0  0
  2 83  1  0  0  0
  3  4  1  0  0  0
  3 84  1  0  0  0
  3 85  1  0  0  0
  4  5  1  0  0  0
  4 86  1  0  0  0
  4 87  1  0  0  0
  5  6  1  0  0  0
  5 26  1  0  0  0
  5 88  1  0  0  0
  6 25  1  0  0  0
  6 89  1  0  0  0
  6 90  1  0  0  0
  7  8  2  0  0  0
  7 26  1  0  0  0
  7 29  1  0  0  0
  8  9  1  0  0  0
  8 22  1  0  0  0
  9 10  1  0  0  0
  9 27  2  0  0  0
 10 11  2  0  0  0
 10 15  1  0  0  0
 11 12  1  0  0  0
 11 91  1  0  0  0
 12 13  2  0  0  0
 12 92  1  0  0  0
 13 14  1  0  0  0
 13 31  1  0  0  0
 14 15  2  0  0  0
 14 93  1  0  0  0
 15 94  1  0  0  0
 16 17  2  0  0  0
 16 21  1  0  0  0
 16 31  1  0  0  0
 17 18  1  0  0  0
 17 95  1  0  0  0
 18 19  2  0  0  0
 18 96  1  0  0  0
 19 20  1  0  0  0
 19 24  1  0  0  0
 20 21  2  0  0  0
 20 97  1  0  0  0
 21 23  1  0  0  0
 22 28  1  0  0  0
 22 32  2  0  0  0
 26 27  1  0  0  0
 28 98  1  0  0  0
 28 99  1  0  0  0
 29100  1  0  0  0
 29101  1  0  0  0
 33 34  1  0  0  0
 33 66  1  0  0  0
 33 70  2  0  0  0
 34 36  1  0  0  0
 34 59  1  0  0  0
 34102  1  0  0  0
 35 44  2  0  0  0
 35 45  1  0  0  0
 35 68  1  0  0  0
 36 56  1  0  0  0
 36103  1  0  0  0
 37 39  1  0  0  0
 37 47  1  0  0  0
 37 66  1  0  0  0
 37104  1  0  0  0
 38 43  2  0  0  0
 38 46  1  0  0  0
 38 47  1  0  0  0
 39 64  1  0  0  0
 39 67  2  0  0  0
 40 52  1  0  0  0
 40 53  2  0  0  0
 40 58  1  0  0  0
 41105  1  0  0  0
 41106  1  0  0  0
 41107  1  0  0  0
 41 48  1  0  0  0
 42 43  1  0  0  0
 42 66  1  0  0  0
 42108  1  0  0  0
 42109  1  0  0  0
 43 44  1  0  0  0
 44110  1  0  0  0
 45 46  2  0  0  0
 45111  1  0  0  0
 46112  1  0  0  0
 47113  1  0  0  0
 47114  1  0  0  0
 48 56  1  0  0  0
 48 65  1  0  0  0
 48115  1  0  0  0
 49 50  1  0  0  0
 49 53  1  0  0  0
 49 64  1  0  0  0
 49116  1  0  0  0
 50 51  1  0  0  0
 50117  1  0  0  0
 50118  1  0  0  0
 51 52  1  0  0  0
 51119  1  0  0  0
 51120  1  0  0  0
 52121  1  0  0  0
 52122  1  0  0  0
 53 54  1  0  0  0
 54 55  2  0  0  0
 54123  1  0  0  0
 55 57  1  0  0  0
 55124  1  0  0  0
 56 69  2  0  0  0
 57 58  2  0  0  0
 57125  1  0  0  0
 58126  1  0  0  0
 59 60  1  0  0  0
 59 61  1  0  0  0
 59 62  1  0  0  0
 60127  1  0  0  0
 60128  1  0  0  0
 60129  1  0  0  0
 61130  1  0  0  0
 61131  1  0  0  0
 61132  1  0  0  0
 62133  1  0  0  0
 62134  1  0  0  0
 62135  1  0  0  0
 63 65  1  0  0  0
 63136  1  0  0  0
 63137  1  0  0  0
 63138  1  0  0  0
 64139  1  0  0  0
 65140  1  0  0  0
 68 79  1  0  0  0
 71 72  2  0  0  0
 71 75  1  0  0  0
 71141  1  0  0  0
 72 76  1  0  0  0
 72142  1  0  0  0
 73 74  1  0  0  0
 73 75  2  0  0  0
 73143  1  0  0  0
 74 76  2  0  0  0
 74 77  1  0  0  0
 75 80  1  0  0  0
 76 81  1  0  0  0
 77144  1  0  0  0
 77145  1  0  0  0
 77146  1  0  0  0
 78 79  1  0  0  0
 78 81  1  0  0  0
 78147  1  0  0  0
 78148  1  0  0  0
 79149  1  0  0  0
 79150  1  0  0  0
 80151  1  0  0  0
 81152  1  0  0  0
M  ISO  4   1 100  68 101  79 101  80 100
M  END
> <chiral flag>
0

> <version>
0

> <s_m_source_file>
/data/baiqing/PycharmProjects/Reinvent-master-3.2/result/LINK_invent/BTK/process_docking_weight1_custom_product_contain_oxygen_bond_distance_aromatic_linkinvent_7_9_3/rearranged_h_0009.sdf

> <i_m_source_file_index>
18

> <r_mmod_Potential_Energy-OPLS-2005>
379.068420410156

> <r_mmod_Stretch_Energy-OPLS-2005>
203.779541015625

> <r_mmod_Bend_Energy-OPLS-2005>
288.774139404297

> <r_mmod_Torsional_Energy-OPLS-2005>
203.61247253418

> <r_mmod_Improper_Torsional_Energy-OPLS-2005>
4.70212125778198

> <r_mmod_Van_der_Waal_Energy-OPLS-2005>
134.3603515625

> <r_mmod_Electrostatic_Energy-OPLS-2005>
-401.699554443359

> <r_mmod_Solvation_Energy-OPLS-2005>
-219.972503662109

> <b_mmod_Minimization_Converged-OPLS-2005>
0

> <r_mmod_RMS_Derivative-OPLS-2005>
0.17198321223259

$$$$
18
                    3D
 Structure written by MMmdl.
148156  0  0  1  0            999 V2000
  -30.5173  -15.0245   20.4070 C   0  0  0  0  0  0
  -30.4305  -12.6381   19.5159 C   0  0  0  0  0  0
  -29.5242  -12.5687   18.2637 C   0  0  0  0  0  0
  -28.0615  -12.3279   18.6785 C   0  0  0  0  0  0
  -27.6257  -13.2587   19.8408 C   0  0  2  0  0  0
  -28.6602  -13.3226   20.9832 C   0  0  0  0  0  0
  -25.2432  -13.8217   20.5684 C   0  0  0  0  0  0
  -24.1769  -13.0447   20.9213 C   0  0  0  0  0  0
  -24.6390  -11.6930   20.8734 C   0  0  0  0  0  0
  -23.9063  -10.4312   21.0378 C   0  0  0  0  0  0
  -24.3624   -9.4226   21.9155 C   0  0  0  0  0  0
  -23.6319   -8.2243   22.0737 C   0  0  0  0  0  0
  -22.4282   -8.0281   21.3552 C   0  0  0  0  0  0
  -21.9919   -9.0231   20.4625 C   0  0  0  0  0  0
  -22.7227  -10.2119   20.3032 C   0  0  0  0  0  0
  -21.6866   -6.0732   22.5279 C   0  0  0  0  0  0
  -21.4022   -6.5643   23.8207 C   0  0  0  0  0  0
  -21.3659   -5.6791   24.9168 C   0  0  0  0  0  0
  -21.6056   -4.3055   24.7226 C   0  0  0  0  0  0
  -21.8814   -3.8147   23.4342 C   0  0  0  0  0  0
  -21.9196   -4.6960   22.3400 C   0  0  0  0  0  0
  -22.7793  -13.5209   21.1883 C   0  0  0  0  0  0
  -22.1664   -4.2153   21.0973 F   0  0  0  0  0  0
  -21.5628   -3.4535   25.7729 F   0  0  0  0  0  0
  -29.9297  -13.7511   20.3840 N   0  0  0  0  0  0
  -26.2868  -12.9467   20.3236 N   0  0  0  0  0  0
  -25.9327  -11.6591   20.5726 N   0  0  0  0  0  0
  -22.0456  -12.8184   22.0427 N   0  0  0  0  0  0
  -25.4092  -15.1928   20.4035 N   0  0  0  0  0  0
  -31.7277  -15.0427   20.1628 O   0  0  0  0  0  0
  -21.6661   -6.8866   21.4238 O   0  0  0  0  0  0
  -22.3477  -14.5511   20.6716 O   0  0  0  0  0  0
  -24.6479  -31.8414   23.1866 C   0  0  0  0  0  0
  -25.9227  -32.4682   23.8294 C   0  0  1  0  0  0
  -27.2096  -27.0718   20.1810 C   0  0  0  0  0  0
  -25.5947  -33.8490   24.2193 N   0  0  0  0  0  0
  -23.4583  -30.4575   21.5287 C   0  0  2  0  0  0
  -24.9092  -28.8715   20.1157 C   0  0  0  0  0  0
  -22.7604  -29.4546   22.4834 C   0  0  0  0  0  0
  -18.0311  -28.1414   22.8462 C   0  0  0  0  0  0
  -24.1496  -36.7254   23.2635 C   0  0  0  0  0  0
  -26.0177  -30.6923   21.3994 C   0  0  0  0  0  0
  -26.0861  -29.2954   20.7447 C   0  0  0  0  0  0
  -27.2391  -28.4139   20.7550 C   0  0  0  0  0  0
  -26.0134  -26.7714   19.4952 C   0  0  0  0  0  0
  -24.8898  -27.6275   19.4696 C   0  0  0  0  0  0
  -23.6926  -29.7834   20.1499 C   0  0  0  0  0  0
  -25.4125  -36.3028   24.0315 C   0  0  1  0  0  0
  -20.5928  -28.3764   23.1207 C   0  0  2  0  0  0
  -20.6794  -26.9464   22.5397 C   0  0  0  0  0  0
  -19.5778  -26.6398   21.5197 C   0  0  0  0  0  0
  -18.1951  -26.7958   22.1608 C   0  0  0  0  0  0
  -19.1566  -28.8903   23.2820 C   0  0  0  0  0  0
  -18.9475  -30.1481   23.8882 C   0  0  0  0  0  0
  -17.6468  -30.6603   24.0567 C   0  0  0  0  0  0
  -25.9077  -34.9396   23.5067 C   0  0  0  0  0  0
  -16.5359  -29.9101   23.6327 C   0  0  0  0  0  0
  -16.7286  -28.6512   23.0353 C   0  0  0  0  0  0
  -26.4519  -31.6576   25.0755 C   0  0  0  0  0  0
  -25.3661  -31.3788   26.1412 C   0  0  0  0  0  0
  -27.0366  -30.2957   24.6394 C   0  0  0  0  0  0
  -27.6068  -32.4342   25.7522 C   0  0  0  0  0  0
  -27.5593  -37.1785   24.8449 C   0  0  0  0  0  0
  -21.4292  -29.3084   22.3580 N   0  0  0  0  0  0
  -26.4285  -37.3747   23.9412 N   0  0  0  0  0  0
  -24.7270  -31.0220   22.0918 N   0  0  0  0  0  0
  -23.4224  -28.8066   23.2992 O   0  0  0  0  0  0
  -28.2412  -26.0486   20.2342 O   0  0  0  0  0  0
  -26.5668  -34.8905   22.4654 O   0  0  0  0  0  0
  -23.5571  -32.1291   23.7038 O   0  0  0  0  0  0
  -30.3359  -20.5158   19.2214 C   0  0  0  0  0  0
  -31.0773  -19.4090   18.7526 C   0  0  0  0  0  0
  -29.1535  -18.9544   20.6477 C   0  0  0  0  0  0
  -29.9264  -17.7414   20.1882 C   0  0  0  0  0  0
  -29.3260  -20.3839   20.1948 C   0  0  0  0  0  0
  -30.8865  -18.0785   19.1971 C   0  0  0  0  0  0
  -27.9313  -24.5083   20.4638 C   0  0  0  0  0  0
  -28.8668  -23.0981   20.1508 C   0  0  0  0  0  0
  -29.7452  -16.2334   20.5727 N   0  0  0  0  0  0
  -28.5955  -21.6090   20.6018 O   0  0  0  0  0  0
  -31.6233  -17.1223   18.5892 F   0  0  0  0  0  0
  -31.4669  -12.7924   19.2157 H   0  0  0  0  0  0
  -30.4127  -11.6880   20.0528 H   0  0  0  0  0  0
  -29.8599  -11.7843   17.5880 H   0  0  0  0  0  0
  -29.6000  -13.5043   17.7054 H   0  0  0  0  0  0
  -27.9734  -11.2872   18.9912 H   0  0  0  0  0  0
  -27.3941  -12.4477   17.8224 H   0  0  0  0  0  0
  -27.5766  -14.2590   19.4067 H   0  0  0  0  0  0
  -28.7594  -12.3610   21.4867 H   0  0  0  0  0  0
  -28.3423  -14.0374   21.7453 H   0  0  0  0  0  0
  -25.2751   -9.5730   22.4759 H   0  0  0  0  0  0
  -24.0027   -7.4648   22.7464 H   0  0  0  0  0  0
  -21.0846   -8.8746   19.8939 H   0  0  0  0  0  0
  -22.3659  -10.9667   19.6172 H   0  0  0  0  0  0
  -21.2020   -7.6154   23.9717 H   0  0  0  0  0  0
  -21.1489   -6.0520   25.9075 H   0  0  0  0  0  0
  -22.0594   -2.7617   23.2835 H   0  0  0  0  0  0
  -22.4087  -11.9848   22.4828 H   0  0  0  0  0  0
  -21.1085  -13.1189   22.2621 H   0  0  0  0  0  0
  -24.6318  -15.8393   20.4685 H   0  0  0  0  0  0
  -26.2445  -15.6210   20.0289 H   0  0  0  0  0  0
  -26.7288  -32.5278   23.1025 H   0  0  0  0  0  0
  -25.0101  -33.9615   25.0339 H   0  0  0  0  0  0
  -22.7620  -31.2830   21.3688 H   0  0  0  0  0  0
  -23.3782  -35.9563   23.3246 H   0  0  0  0  0  0
  -24.3594  -36.8937   22.2061 H   0  0  0  0  0  0
  -23.7213  -37.6420   23.6703 H   0  0  0  0  0  0
  -26.1836  -31.4404   20.6236 H   0  0  0  0  0  0
  -26.8825  -30.7484   22.0482 H   0  0  0  0  0  0
  -28.1351  -28.7305   21.2719 H   0  0  0  0  0  0
  -25.9141  -25.8321   18.9741 H   0  0  0  0  0  0
  -23.9978  -27.3052   18.9509 H   0  0  0  0  0  0
  -23.8470  -30.5557   19.3958 H   0  0  0  0  0  0
  -22.8057  -29.2323   19.8319 H   0  0  0  0  0  0
  -25.1317  -36.1869   25.0806 H   0  0  0  0  0  0
  -20.9996  -28.3344   24.1334 H   0  0  0  0  0  0
  -20.5661  -26.2379   23.3614 H   0  0  0  0  0  0
  -21.6653  -26.7459   22.1203 H   0  0  0  0  0  0
  -19.6939  -25.6280   21.1269 H   0  0  0  0  0  0
  -19.6712  -27.3155   20.6676 H   0  0  0  0  0  0
  -17.4217  -26.6672   21.4013 H   0  0  0  0  0  0
  -18.0378  -26.0106   22.9014 H   0  0  0  0  0  0
  -19.7936  -30.7294   24.2271 H   0  0  0  0  0  0
  -17.5016  -31.6282   24.5173 H   0  0  0  0  0  0
  -15.5355  -30.3004   23.7666 H   0  0  0  0  0  0
  -15.8681  -28.0821   22.7114 H   0  0  0  0  0  0
  -24.5885  -30.7092   25.7712 H   0  0  0  0  0  0
  -24.8767  -32.2949   26.4730 H   0  0  0  0  0  0
  -25.7880  -30.9033   27.0272 H   0  0  0  0  0  0
  -26.2972  -29.6691   24.1384 H   0  0  0  0  0  0
  -27.3896  -29.7283   25.5018 H   0  0  0  0  0  0
  -27.8941  -30.4158   23.9771 H   0  0  0  0  0  0
  -27.2710  -33.3690   26.2039 H   0  0  0  0  0  0
  -28.3906  -32.6834   25.0347 H   0  0  0  0  0  0
  -28.0719  -31.8501   26.5479 H   0  0  0  0  0  0
  -28.2568  -38.0127   24.7572 H   0  0  0  0  0  0
  -28.1149  -36.2673   24.6189 H   0  0  0  0  0  0
  -27.2341  -37.1311   25.8855 H   0  0  0  0  0  0
  -20.9510  -29.8801   21.6751 H   0  0  0  0  0  0
  -26.0166  -38.2823   24.1425 H   0  0  0  0  0  0
  -30.5553  -21.4839   18.7976 H   0  0  0  0  0  0
  -31.8170  -19.5852   17.9858 H   0  0  0  0  0  0
  -28.3839  -18.7769   21.3866 H   0  0  0  0  0  0
  -27.7102  -24.4705   21.5309 H   0  0  0  0  0  0
  -26.9665  -24.2958   20.0064 H   0  0  0  0  0  0
  -29.8730  -23.3106   20.5136 H   0  0  0  0  0  0
  -28.9635  -23.0608   19.0659 H   0  0  0  0  0  0
  -28.8235  -16.0339   20.9287 H   0  0  0  0  0  0
  1 25  1  0  0  0
  1 30  2  0  0  0
  1 79  1  0  0  0
  2  3  1  0  0  0
  2 25  1  0  0  0
  2 82  1  0  0  0
  2 83  1  0  0  0
  3  4  1  0  0  0
  3 84  1  0  0  0
  3 85  1  0  0  0
  4  5  1  0  0  0
  4 86  1  0  0  0
  4 87  1  0  0  0
  5  6  1  0  0  0
  5 26  1  0  0  0
  5 88  1  0  0  0
  6 25  1  0  0  0
  6 89  1  0  0  0
  6 90  1  0  0  0
  7  8  2  0  0  0
  7 26  1  0  0  0
  7 29  1  0  0  0
  8  9  1  0  0  0
  8 22  1  0  0  0
  9 10  1  0  0  0
  9 27  2  0  0  0
 10 11  2  0  0  0
 10 15  1  0  0  0
 11 12  1  0  0  0
 11 91  1  0  0  0
 12 13  2  0  0  0
 12 92  1  0  0  0
 13 14  1  0  0  0
 13 31  1  0  0  0
 14 15  2  0  0  0
 14 93  1  0  0  0
 15 94  1  0  0  0
 16 17  2  0  0  0
 16 21  1  0  0  0
 16 31  1  0  0  0
 17 18  1  0  0  0
 17 95  1  0  0  0
 18 19  2  0  0  0
 18 96  1  0  0  0
 19 20  1  0  0  0
 19 24  1  0  0  0
 20 21  2  0  0  0
 20 97  1  0  0  0
 21 23  1  0  0  0
 22 28  1  0  0  0
 22 32  2  0  0  0
 26 27  1  0  0  0
 28 98  1  0  0  0
 28 99  1  0  0  0
 29100  1  0  0  0
 29101  1  0  0  0
 33 34  1  0  0  0
 33 66  1  0  0  0
 33 70  2  0  0  0
 34 36  1  0  0  0
 34 59  1  0  0  0
 34102  1  0  0  0
 35 44  2  0  0  0
 35 45  1  0  0  0
 35 68  1  0  0  0
 36 56  1  0  0  0
 36103  1  0  0  0
 37 39  1  0  0  0
 37 47  1  0  0  0
 37 66  1  0  0  0
 37104  1  0  0  0
 38 43  2  0  0  0
 38 46  1  0  0  0
 38 47  1  0  0  0
 39 64  1  0  0  0
 39 67  2  0  0  0
 40 52  1  0  0  0
 40 53  2  0  0  0
 40 58  1  0  0  0
 41105  1  0  0  0
 41106  1  0  0  0
 41107  1  0  0  0
 41 48  1  0  0  0
 42 43  1  0  0  0
 42 66  1  0  0  0
 42108  1  0  0  0
 42109  1  0  0  0
 43 44  1  0  0  0
 44110  1  0  0  0
 45 46  2  0  0  0
 45111  1  0  0  0
 46112  1  0  0  0
 47113  1  0  0  0
 47114  1  0  0  0
 48 56  1  0  0  0
 48 65  1  0  0  0
 48115  1  0  0  0
 49 50  1  0  0  0
 49 53  1  0  0  0
 49 64  1  0  0  0
 49116  1  0  0  0
 50 51  1  0  0  0
 50117  1  0  0  0
 50118  1  0  0  0
 51 52  1  0  0  0
 51119  1  0  0  0
 51120  1  0  0  0
 52121  1  0  0  0
 52122  1  0  0  0
 53 54  1  0  0  0
 54 55  2  0  0  0
 54123  1  0  0  0
 55 57  1  0  0  0
 55124  1  0  0  0
 56 69  2  0  0  0
 57 58  2  0  0  0
 57125  1  0  0  0
 58126  1  0  0  0
 59 60  1  0  0  0
 59 61  1  0  0  0
 59 62  1  0  0  0
 60127  1  0  0  0
 60128  1  0  0  0
 60129  1  0  0  0
 61130  1  0  0  0
 61131  1  0  0  0
 61132  1  0  0  0
 62133  1  0  0  0
 62134  1  0  0  0
 62135  1  0  0  0
 63 65  1  0  0  0
 63136  1  0  0  0
 63137  1  0  0  0
 63138  1  0  0  0
 64139  1  0  0  0
 65140  1  0  0  0
 68 77  1  0  0  0
 71 72  2  0  0  0
 71 75  1  0  0  0
 71141  1  0  0  0
 72 76  1  0  0  0
 72142  1  0  0  0
 73 74  1  0  0  0
 73 75  2  0  0  0
 73143  1  0  0  0
 74 76  2  0  0  0
 74 79  1  0  0  0
 75 80  1  0  0  0
 76 81  1  0  0  0
 77 78  1  0  0  0
 77144  1  0  0  0
 77145  1  0  0  0
 78 80  1  0  0  0
 78146  1  0  0  0
 78147  1  0  0  0
 79148  1  0  0  0
M  ISO  4   1 100  68 101  77 101  79 100
M  END
> <chiral flag>
0

> <version>
0

> <s_m_source_file>
/data/baiqing/PycharmProjects/Reinvent-master-3.2/result/LINK_invent/BTK/process_docking_weight1_custom_product_contain_oxygen_bond_distance_aromatic_linkinvent_7_9_3/rearranged_h_0009.sdf

> <i_m_source_file_index>
19

> <r_mmod_Potential_Energy-OPLS-2005>
633.688171386719

> <r_mmod_Stretch_Energy-OPLS-2005>
333.935974121094

> <r_mmod_Bend_Energy-OPLS-2005>
284.134338378906

> <r_mmod_Torsional_Energy-OPLS-2005>
227.697479248047

> <r_mmod_Improper_Torsional_Energy-OPLS-2005>
3.42818999290466

> <r_mmod_Van_der_Waal_Energy-OPLS-2005>
136.98274230957

> <r_mmod_Electrostatic_Energy-OPLS-2005>
-381.424957275391

> <r_mmod_Solvation_Energy-OPLS-2005>
-221.292602539062

> <b_mmod_Minimization_Converged-OPLS-2005>
0

> <r_mmod_RMS_Derivative-OPLS-2005>
3.83293390274048

$$$$
19
                    3D
 Structure written by MMmdl.
151159  0  0  1  0            999 V2000
  -30.5976  -14.7449   20.4182 C   0  0  0  0  0  0
  -30.4361  -12.4486   19.4713 C   0  0  0  0  0  0
  -29.5135  -12.5141   18.2339 C   0  0  0  0  0  0
  -28.0388  -12.3419   18.6416 C   0  0  0  0  0  0
  -27.6461  -13.2336   19.8509 C   0  0  2  0  0  0
  -28.6911  -13.1502   20.9860 C   0  0  0  0  0  0
  -25.2524  -13.8213   20.5632 C   0  0  0  0  0  0
  -24.1819  -13.0456   20.9173 C   0  0  0  0  0  0
  -24.6404  -11.6931   20.8705 C   0  0  0  0  0  0
  -23.9071  -10.4314   21.0386 C   0  0  0  0  0  0
  -24.3622   -9.4216   21.9160 C   0  0  0  0  0  0
  -23.6292   -8.2259   22.0740 C   0  0  0  0  0  0
  -22.4261   -8.0311   21.3538 C   0  0  0  0  0  0
  -21.9897   -9.0292   20.4651 C   0  0  0  0  0  0
  -22.7236  -10.2153   20.3058 C   0  0  0  0  0  0
  -21.6859   -6.0740   22.5273 C   0  0  0  0  0  0
  -21.4020   -6.5634   23.8207 C   0  0  0  0  0  0
  -21.3654   -5.6770   24.9162 C   0  0  0  0  0  0
  -21.6046   -4.3041   24.7209 C   0  0  0  0  0  0
  -21.8828   -3.8145   23.4327 C   0  0  0  0  0  0
  -21.9197   -4.6959   22.3389 C   0  0  0  0  0  0
  -22.7843  -13.5257   21.1849 C   0  0  0  0  0  0
  -22.1665   -4.2163   21.0959 F   0  0  0  0  0  0
  -21.5614   -3.4525   25.7701 F   0  0  0  0  0  0
  -29.9953  -13.5049   20.4108 N   0  0  0  0  0  0
  -26.2960  -12.9422   20.3234 N   0  0  0  0  0  0
  -25.9339  -11.6567   20.5694 N   0  0  0  0  0  0
  -22.0492  -12.8266   22.0430 N   0  0  0  0  0  0
  -25.4239  -15.1938   20.4023 N   0  0  0  0  0  0
  -31.7770  -14.8475   20.0686 O   0  0  0  0  0  0
  -21.6651   -6.8890   21.4234 O   0  0  0  0  0  0
  -22.3534  -14.5566   20.6694 O   0  0  0  0  0  0
  -24.6317  -31.8560   23.1983 C   0  0  0  0  0  0
  -25.9137  -32.4765   23.8329 C   0  0  1  0  0  0
  -27.2232  -27.2650   20.1180 C   0  0  0  0  0  0
  -25.5929  -33.8552   24.2259 N   0  0  0  0  0  0
  -23.4293  -30.4798   21.5417 C   0  0  2  0  0  0
  -24.8776  -28.9332   20.1065 C   0  0  0  0  0  0
  -22.7503  -29.4604   22.4903 C   0  0  0  0  0  0
  -18.0297  -28.1414   22.8474 C   0  0  0  0  0  0
  -24.1483  -36.7295   23.2634 C   0  0  0  0  0  0
  -25.9749  -30.7695   21.3779 C   0  0  0  0  0  0
  -26.0486  -29.3923   20.7209 C   0  0  0  0  0  0
  -27.2234  -28.5698   20.7196 C   0  0  0  0  0  0
  -26.0303  -26.8887   19.4541 C   0  0  0  0  0  0
  -24.8742  -27.6903   19.4614 C   0  0  0  0  0  0
  -23.6466  -29.8170   20.1570 C   0  0  0  0  0  0
  -25.4103  -36.3073   24.0327 C   0  0  1  0  0  0
  -20.5897  -28.3723   23.1271 C   0  0  2  0  0  0
  -20.6781  -26.9438   22.5418 C   0  0  0  0  0  0
  -19.5759  -26.6389   21.5220 C   0  0  0  0  0  0
  -18.1937  -26.7951   22.1623 C   0  0  0  0  0  0
  -19.1550  -28.8881   23.2863 C   0  0  0  0  0  0
  -18.9467  -30.1483   23.8892 C   0  0  0  0  0  0
  -17.6463  -30.6600   24.0574 C   0  0  0  0  0  0
  -25.9050  -34.9448   23.5105 C   0  0  0  0  0  0
  -16.5357  -29.9104   23.6327 C   0  0  0  0  0  0
  -16.7281  -28.6526   23.0334 C   0  0  0  0  0  0
  -26.4499  -31.6578   25.0709 C   0  0  0  0  0  0
  -25.3733  -31.3768   26.1448 C   0  0  0  0  0  0
  -27.0292  -30.2977   24.6191 C   0  0  0  0  0  0
  -27.6088  -32.4301   25.7443 C   0  0  0  0  0  0
  -27.5598  -37.1773   24.8445 C   0  0  0  0  0  0
  -21.4217  -29.3066   22.3648 N   0  0  0  0  0  0
  -26.4276  -37.3786   23.9440 N   0  0  0  0  0  0
  -24.6974  -31.0531   22.0960 N   0  0  0  0  0  0
  -23.4213  -28.8137   23.2985 O   0  0  0  0  0  0
  -28.3072  -26.3516   20.1970 O   0  0  0  0  0  0
  -26.5624  -34.8926   22.4674 O   0  0  0  0  0  0
  -23.5466  -32.1364   23.7300 O   0  0  0  0  0  0
  -30.2878  -18.6008   18.0480 C   0  0  0  0  0  0
  -29.9636  -19.7976   18.7257 C   0  0  0  0  0  0
  -30.2645  -17.3472   18.6986 C   0  0  0  0  0  0
  -29.5410  -18.4727   20.7240 C   0  0  0  0  0  0
  -29.5791  -19.7814   20.0825 C   0  0  0  0  0  0
  -29.9026  -17.2287   20.0591 C   0  0  0  0  0  0
  -28.9859  -23.7554   20.4921 C   0  0  0  0  0  0
  -29.3224  -21.1633   20.8363 C   0  0  0  0  0  0
  -28.0503  -24.8995   19.8758 C   0  0  0  0  0  0
  -29.8225  -15.8716   20.6626 N   0  0  0  0  0  0
  -28.8143  -22.4231   20.1364 N   0  0  0  0  0  0
  -29.8265  -24.0713   21.3367 O   0  0  0  0  0  0
  -31.4751  -12.5749   19.1640 H   0  0  0  0  0  0
  -30.3821  -11.4688   19.9483 H   0  0  0  0  0  0
  -29.7869  -11.7464   17.5066 H   0  0  0  0  0  0
  -29.6430  -13.4737   17.7315 H   0  0  0  0  0  0
  -27.8819  -11.2907   18.8847 H   0  0  0  0  0  0
  -27.3958  -12.5578   17.7873 H   0  0  0  0  0  0
  -27.6447  -14.2580   19.4752 H   0  0  0  0  0  0
  -28.7210  -12.1420   21.4028 H   0  0  0  0  0  0
  -28.4330  -13.8153   21.8109 H   0  0  0  0  0  0
  -25.2782   -9.5684   22.4727 H   0  0  0  0  0  0
  -24.0008   -7.4637   22.7450 H   0  0  0  0  0  0
  -21.0822   -8.8839   19.8955 H   0  0  0  0  0  0
  -22.3719  -10.9699   19.6186 H   0  0  0  0  0  0
  -21.2029   -7.6141   23.9713 H   0  0  0  0  0  0
  -21.1453   -6.0497   25.9053 H   0  0  0  0  0  0
  -22.0608   -2.7617   23.2829 H   0  0  0  0  0  0
  -22.4110  -11.9964   22.4879 H   0  0  0  0  0  0
  -21.1132  -13.1327   22.2648 H   0  0  0  0  0  0
  -24.6646  -15.8548   20.5226 H   0  0  0  0  0  0
  -26.2679  -15.6215   20.0424 H   0  0  0  0  0  0
  -26.7202  -32.5421   23.1069 H   0  0  0  0  0  0
  -25.0053  -33.9679   25.0396 H   0  0  0  0  0  0
  -22.7255  -31.3015   21.3960 H   0  0  0  0  0  0
  -23.3759  -35.9614   23.3253 H   0  0  0  0  0  0
  -24.3592  -36.8962   22.2061 H   0  0  0  0  0  0
  -23.7207  -37.6469   23.6689 H   0  0  0  0  0  0
  -26.1096  -31.5300   20.6072 H   0  0  0  0  0  0
  -26.8540  -30.8221   22.0074 H   0  0  0  0  0  0
  -28.1162  -28.9163   21.2224 H   0  0  0  0  0  0
  -25.9516  -25.9513   18.9252 H   0  0  0  0  0  0
  -23.9839  -27.3402   18.9582 H   0  0  0  0  0  0
  -23.7690  -30.5922   19.3997 H   0  0  0  0  0  0
  -22.7652  -29.2496   19.8533 H   0  0  0  0  0  0
  -25.1271  -36.1917   25.0812 H   0  0  0  0  0  0
  -20.9985  -28.3318   24.1393 H   0  0  0  0  0  0
  -20.5665  -26.2340   23.3631 H   0  0  0  0  0  0
  -21.6655  -26.7439   22.1236 H   0  0  0  0  0  0
  -19.6917  -25.6287   21.1278 H   0  0  0  0  0  0
  -19.6702  -27.3176   20.6734 H   0  0  0  0  0  0
  -17.4197  -26.6688   21.4038 H   0  0  0  0  0  0
  -18.0340  -26.0112   22.9038 H   0  0  0  0  0  0
  -19.7937  -30.7310   24.2265 H   0  0  0  0  0  0
  -17.5011  -31.6279   24.5186 H   0  0  0  0  0  0
  -15.5362  -30.3006   23.7652 H   0  0  0  0  0  0
  -15.8681  -28.0855   22.7039 H   0  0  0  0  0  0
  -24.5901  -30.7100   25.7820 H   0  0  0  0  0  0
  -24.8922  -32.2943   26.4846 H   0  0  0  0  0  0
  -25.8055  -30.8981   27.0244 H   0  0  0  0  0  0
  -26.2835  -29.6751   24.1227 H   0  0  0  0  0  0
  -27.3952  -29.7226   25.4708 H   0  0  0  0  0  0
  -27.8744  -30.4208   23.9418 H   0  0  0  0  0  0
  -27.2735  -33.3621   26.2012 H   0  0  0  0  0  0
  -28.3883  -32.6825   25.0238 H   0  0  0  0  0  0
  -28.0770  -31.8418   26.5350 H   0  0  0  0  0  0
  -28.2570  -38.0121   24.7581 H   0  0  0  0  0  0
  -28.1142  -36.2662   24.6135 H   0  0  0  0  0  0
  -27.2352  -37.1261   25.8856 H   0  0  0  0  0  0
  -20.9410  -29.8799   21.6858 H   0  0  0  0  0  0
  -26.0156  -38.2846   24.1515 H   0  0  0  0  0  0
  -30.5656  -18.6424   17.0019 H   0  0  0  0  0  0
  -30.0301  -20.7395   18.1979 H   0  0  0  0  0  0
  -30.5060  -16.4665   18.1171 H   0  0  0  0  0  0
  -29.2439  -18.4349   21.7632 H   0  0  0  0  0  0
  -30.2665  -21.4156   21.3210 H   0  0  0  0  0  0
  -28.6338  -20.9604   21.6561 H   0  0  0  0  0  0
  -27.0603  -24.6304   20.2430 H   0  0  0  0  0  0
  -28.0381  -24.7813   18.7930 H   0  0  0  0  0  0
  -28.9644  -15.6855   21.1623 H   0  0  0  0  0  0
  -28.1178  -22.2650   19.4212 H   0  0  0  0  0  0
  1 25  1  0  0  0
  1 30  2  0  0  0
  1 80  1  0  0  0
  2  3  1  0  0  0
  2 25  1  0  0  0
  2 83  1  0  0  0
  2 84  1  0  0  0
  3  4  1  0  0  0
  3 85  1  0  0  0
  3 86  1  0  0  0
  4  5  1  0  0  0
  4 87  1  0  0  0
  4 88  1  0  0  0
  5  6  1  0  0  0
  5 26  1  0  0  0
  5 89  1  0  0  0
  6 25  1  0  0  0
  6 90  1  0  0  0
  6 91  1  0  0  0
  7  8  2  0  0  0
  7 26  1  0  0  0
  7 29  1  0  0  0
  8  9  1  0  0  0
  8 22  1  0  0  0
  9 10  1  0  0  0
  9 27  2  0  0  0
 10 11  2  0  0  0
 10 15  1  0  0  0
 11 12  1  0  0  0
 11 92  1  0  0  0
 12 13  2  0  0  0
 12 93  1  0  0  0
 13 14  1  0  0  0
 13 31  1  0  0  0
 14 15  2  0  0  0
 14 94  1  0  0  0
 15 95  1  0  0  0
 16 17  2  0  0  0
 16 21  1  0  0  0
 16 31  1  0  0  0
 17 18  1  0  0  0
 17 96  1  0  0  0
 18 19  2  0  0  0
 18 97  1  0  0  0
 19 20  1  0  0  0
 19 24  1  0  0  0
 20 21  2  0  0  0
 20 98  1  0  0  0
 21 23  1  0  0  0
 22 28  1  0  0  0
 22 32  2  0  0  0
 26 27  1  0  0  0
 28 99  1  0  0  0
 28100  1  0  0  0
 29101  1  0  0  0
 29102  1  0  0  0
 33 34  1  0  0  0
 33 66  1  0  0  0
 33 70  2  0  0  0
 34 36  1  0  0  0
 34 59  1  0  0  0
 34103  1  0  0  0
 35 44  2  0  0  0
 35 45  1  0  0  0
 35 68  1  0  0  0
 36 56  1  0  0  0
 36104  1  0  0  0
 37 39  1  0  0  0
 37 47  1  0  0  0
 37 66  1  0  0  0
 37105  1  0  0  0
 38 43  2  0  0  0
 38 46  1  0  0  0
 38 47  1  0  0  0
 39 64  1  0  0  0
 39 67  2  0  0  0
 40 52  1  0  0  0
 40 53  2  0  0  0
 40 58  1  0  0  0
 41106  1  0  0  0
 41107  1  0  0  0
 41108  1  0  0  0
 41 48  1  0  0  0
 42 43  1  0  0  0
 42 66  1  0  0  0
 42109  1  0  0  0
 42110  1  0  0  0
 43 44  1  0  0  0
 44111  1  0  0  0
 45 46  2  0  0  0
 45112  1  0  0  0
 46113  1  0  0  0
 47114  1  0  0  0
 47115  1  0  0  0
 48 56  1  0  0  0
 48 65  1  0  0  0
 48116  1  0  0  0
 49 50  1  0  0  0
 49 53  1  0  0  0
 49 64  1  0  0  0
 49117  1  0  0  0
 50 51  1  0  0  0
 50118  1  0  0  0
 50119  1  0  0  0
 51 52  1  0  0  0
 51120  1  0  0  0
 51121  1  0  0  0
 52122  1  0  0  0
 52123  1  0  0  0
 53 54  1  0  0  0
 54 55  2  0  0  0
 54124  1  0  0  0
 55 57  1  0  0  0
 55125  1  0  0  0
 56 69  2  0  0  0
 57 58  2  0  0  0
 57126  1  0  0  0
 58127  1  0  0  0
 59 60  1  0  0  0
 59 61  1  0  0  0
 59 62  1  0  0  0
 60128  1  0  0  0
 60129  1  0  0  0
 60130  1  0  0  0
 61131  1  0  0  0
 61132  1  0  0  0
 61133  1  0  0  0
 62134  1  0  0  0
 62135  1  0  0  0
 62136  1  0  0  0
 63 65  1  0  0  0
 63137  1  0  0  0
 63138  1  0  0  0
 63139  1  0  0  0
 64140  1  0  0  0
 65141  1  0  0  0
 68 79  1  0  0  0
 71 72  2  0  0  0
 71 73  1  0  0  0
 71142  1  0  0  0
 72 75  1  0  0  0
 72143  1  0  0  0
 73 76  2  0  0  0
 73144  1  0  0  0
 74 75  2  0  0  0
 74 76  1  0  0  0
 74145  1  0  0  0
 75 78  1  0  0  0
 76 80  1  0  0  0
 77 79  1  0  0  0
 77 81  1  0  0  0
 77 82  2  0  0  0
 78 81  1  0  0  0
 78146  1  0  0  0
 78147  1  0  0  0
 79148  1  0  0  0
 79149  1  0  0  0
 80150  1  0  0  0
 81151  1  0  0  0
M  ISO  4   1 100  68 101  79 101  80 100
M  END
> <chiral flag>
0

> <version>
0

> <s_m_source_file>
/data/baiqing/PycharmProjects/Reinvent-master-3.2/result/LINK_invent/BTK/process_docking_weight1_custom_product_contain_oxygen_bond_distance_aromatic_linkinvent_7_9_3/rearranged_h_0009.sdf

> <i_m_source_file_index>
20

> <r_mmod_Potential_Energy-OPLS-2005>
85.4810256958008

> <r_mmod_Stretch_Energy-OPLS-2005>
120.807792663574

> <r_mmod_Bend_Energy-OPLS-2005>
152.481475830078

> <r_mmod_Torsional_Energy-OPLS-2005>
231.772384643555

> <r_mmod_Improper_Torsional_Energy-OPLS-2005>
5.49780511856079

> <r_mmod_Van_der_Waal_Energy-OPLS-2005>
140.538269042969

> <r_mmod_Electrostatic_Energy-OPLS-2005>
-398.400085449219

> <r_mmod_Solvation_Energy-OPLS-2005>
-253.995498657227

> <b_mmod_Minimization_Converged-OPLS-2005>
0

> <r_mmod_RMS_Derivative-OPLS-2005>
3.58414220809937

$$$$
20
                    3D
 Structure written by MMmdl.
151159  0  0  1  0            999 V2000
  -30.6835  -14.6372   20.4794 C   0  0  0  0  0  0
  -30.4155  -12.3912   19.4637 C   0  0  0  0  0  0
  -29.4998  -12.4935   18.2268 C   0  0  0  0  0  0
  -28.0254  -12.3355   18.6422 C   0  0  0  0  0  0
  -27.6439  -13.2296   19.8531 C   0  0  2  0  0  0
  -28.6888  -13.1444   20.9879 C   0  0  0  0  0  0
  -25.2514  -13.8203   20.5698 C   0  0  0  0  0  0
  -24.1801  -13.0448   20.9207 C   0  0  0  0  0  0
  -24.6388  -11.6925   20.8752 C   0  0  0  0  0  0
  -23.9067  -10.4299   21.0411 C   0  0  0  0  0  0
  -24.3619   -9.4211   21.9186 C   0  0  0  0  0  0
  -23.6295   -8.2245   22.0754 C   0  0  0  0  0  0
  -22.4276   -8.0284   21.3546 C   0  0  0  0  0  0
  -21.9911   -9.0258   20.4649 C   0  0  0  0  0  0
  -22.7239  -10.2139   20.3059 C   0  0  0  0  0  0
  -21.6855   -6.0735   22.5279 C   0  0  0  0  0  0
  -21.4015   -6.5639   23.8214 C   0  0  0  0  0  0
  -21.3660   -5.6791   24.9174 C   0  0  0  0  0  0
  -21.6043   -4.3053   24.7226 C   0  0  0  0  0  0
  -21.8817   -3.8146   23.4347 C   0  0  0  0  0  0
  -21.9193   -4.6963   22.3403 C   0  0  0  0  0  0
  -22.7821  -13.5230   21.1863 C   0  0  0  0  0  0
  -22.1661   -4.2149   21.0980 F   0  0  0  0  0  0
  -21.5630   -3.4538   25.7738 F   0  0  0  0  0  0
  -29.9994  -13.4525   20.4051 N   0  0  0  0  0  0
  -26.2945  -12.9410   20.3299 N   0  0  0  0  0  0
  -25.9319  -11.6551   20.5763 N   0  0  0  0  0  0
  -22.0467  -12.8224   22.0424 N   0  0  0  0  0  0
  -25.4205  -15.1926   20.4109 N   0  0  0  0  0  0
  -31.8703  -14.6907   20.1500 O   0  0  0  0  0  0
  -21.6641   -6.8879   21.4240 O   0  0  0  0  0  0
  -22.3501  -14.5534   20.6711 O   0  0  0  0  0  0
  -24.6254  -31.8608   23.2038 C   0  0  0  0  0  0
  -25.9104  -32.4784   23.8365 C   0  0  1  0  0  0
  -27.2149  -27.3214   20.1254 C   0  0  0  0  0  0
  -25.5922  -33.8585   24.2287 N   0  0  0  0  0  0
  -23.4193  -30.4854   21.5459 C   0  0  2  0  0  0
  -24.8660  -28.9436   20.1093 C   0  0  0  0  0  0
  -22.7474  -29.4630   22.4934 C   0  0  0  0  0  0
  -18.0288  -28.1383   22.8489 C   0  0  0  0  0  0
  -24.1489  -36.7298   23.2638 C   0  0  0  0  0  0
  -25.9605  -30.7922   21.3764 C   0  0  0  0  0  0
  -26.0343  -29.4204   20.7187 C   0  0  0  0  0  0
  -27.2153  -28.6204   20.7180 C   0  0  0  0  0  0
  -26.0341  -26.9068   19.4722 C   0  0  0  0  0  0
  -24.8677  -27.6923   19.4749 C   0  0  0  0  0  0
  -23.6343  -29.8233   20.1599 C   0  0  0  0  0  0
  -25.4111  -36.3087   24.0332 C   0  0  1  0  0  0
  -20.5888  -28.3688   23.1282 C   0  0  2  0  0  0
  -20.6776  -26.9412   22.5409 C   0  0  0  0  0  0
  -19.5750  -26.6383   21.5213 C   0  0  0  0  0  0
  -18.1931  -26.7926   22.1627 C   0  0  0  0  0  0
  -19.1540  -28.8851   23.2882 C   0  0  0  0  0  0
  -18.9462  -30.1454   23.8898 C   0  0  0  0  0  0
  -17.6462  -30.6585   24.0563 C   0  0  0  0  0  0
  -25.9048  -34.9456   23.5109 C   0  0  0  0  0  0
  -16.5354  -29.9084   23.6328 C   0  0  0  0  0  0
  -16.7276  -28.6501   23.0350 C   0  0  0  0  0  0
  -26.4487  -31.6594   25.0736 C   0  0  0  0  0  0
  -25.3721  -31.3739   26.1466 C   0  0  0  0  0  0
  -27.0325  -30.3015   24.6194 C   0  0  0  0  0  0
  -27.6047  -32.4330   25.7504 C   0  0  0  0  0  0
  -27.5579  -37.1803   24.8463 C   0  0  0  0  0  0
  -21.4188  -29.3045   22.3677 N   0  0  0  0  0  0
  -26.4290  -37.3779   23.9409 N   0  0  0  0  0  0
  -24.6871  -31.0625   22.0989 N   0  0  0  0  0  0
  -23.4200  -28.8166   23.3009 O   0  0  0  0  0  0
  -28.3057  -26.4437   20.1689 O   0  0  0  0  0  0
  -26.5616  -34.8920   22.4675 O   0  0  0  0  0  0
  -23.5418  -32.1406   23.7366 O   0  0  0  0  0  0
  -30.6455  -19.6796   20.0605 C   0  0  0  0  0  0
  -30.1222  -21.0056   20.0942 C   0  0  0  0  0  0
  -28.6510  -18.8152   21.0840 C   0  0  0  0  0  0
  -29.9377  -18.5477   20.5568 C   0  0  0  0  0  0
  -28.8451  -21.2789   20.6423 C   0  0  0  0  0  0
  -28.1255  -20.1442   21.1249 C   0  0  0  0  0  0
  -30.6645  -17.1524   20.5597 C   0  0  0  0  0  0
  -28.0238  -25.0854   20.7005 C   0  0  0  0  0  0
  -28.8701  -23.8042   20.2722 C   0  0  0  0  0  0
  -29.9992  -15.8078   20.7025 N   0  0  0  0  0  0
  -28.2608  -22.5594   20.7551 O   0  0  0  0  0  0
  -26.8948  -20.3338   21.6593 F   0  0  0  0  0  0
  -31.4614  -12.4779   19.1643 H   0  0  0  0  0  0
  -30.3220  -11.4110   19.9336 H   0  0  0  0  0  0
  -29.7662  -11.7299   17.4948 H   0  0  0  0  0  0
  -29.6449  -13.4561   17.7335 H   0  0  0  0  0  0
  -27.8699  -11.2865   18.8962 H   0  0  0  0  0  0
  -27.3689  -12.5435   17.7966 H   0  0  0  0  0  0
  -27.6474  -14.2554   19.4839 H   0  0  0  0  0  0
  -28.6977  -12.1495   21.4354 H   0  0  0  0  0  0
  -28.4431  -13.8399   21.7918 H   0  0  0  0  0  0
  -25.2764   -9.5689   22.4759 H   0  0  0  0  0  0
  -24.0009   -7.4634   22.7470 H   0  0  0  0  0  0
  -21.0844   -8.8779   19.8954 H   0  0  0  0  0  0
  -22.3699  -10.9680   19.6171 H   0  0  0  0  0  0
  -21.2009   -7.6147   23.9715 H   0  0  0  0  0  0
  -21.1484   -6.0522   25.9077 H   0  0  0  0  0  0
  -22.0597   -2.7609   23.2844 H   0  0  0  0  0  0
  -22.4088  -11.9894   22.4824 H   0  0  0  0  0  0
  -21.1082  -13.1247   22.2625 H   0  0  0  0  0  0
  -24.6512  -15.8450   20.5169 H   0  0  0  0  0  0
  -26.2654  -15.6313   20.0684 H   0  0  0  0  0  0
  -26.7175  -32.5455   23.1117 H   0  0  0  0  0  0
  -25.0064  -33.9734   25.0427 H   0  0  0  0  0  0
  -22.7129  -31.3061   21.4045 H   0  0  0  0  0  0
  -23.3749  -35.9633   23.3300 H   0  0  0  0  0  0
  -24.3582  -36.8919   22.2053 H   0  0  0  0  0  0
  -23.7246  -37.6504   23.6657 H   0  0  0  0  0  0
  -26.0932  -31.5556   20.6087 H   0  0  0  0  0  0
  -26.8403  -30.8394   22.0065 H   0  0  0  0  0  0
  -28.1098  -28.9773   21.2090 H   0  0  0  0  0  0
  -25.9996  -25.9537   18.9639 H   0  0  0  0  0  0
  -23.9761  -27.3261   18.9845 H   0  0  0  0  0  0
  -23.7541  -30.6016   19.4053 H   0  0  0  0  0  0
  -22.7541  -29.2538   19.8562 H   0  0  0  0  0  0
  -25.1289  -36.1942   25.0824 H   0  0  0  0  0  0
  -20.9984  -28.3262   24.1400 H   0  0  0  0  0  0
  -20.5677  -26.2299   23.3609 H   0  0  0  0  0  0
  -21.6645  -26.7439   22.1202 H   0  0  0  0  0  0
  -19.6910  -25.6293   21.1243 H   0  0  0  0  0  0
  -19.6682  -27.3194   20.6742 H   0  0  0  0  0  0
  -17.4199  -26.6673   21.4031 H   0  0  0  0  0  0
  -18.0332  -26.0068   22.9025 H   0  0  0  0  0  0
  -19.7938  -30.7269   24.2268 H   0  0  0  0  0  0
  -17.5017  -31.6266   24.5165 H   0  0  0  0  0  0
  -15.5353  -30.2985   23.7649 H   0  0  0  0  0  0
  -15.8679  -28.0821   22.7061 H   0  0  0  0  0  0
  -24.5890  -30.7092   25.7800 H   0  0  0  0  0  0
  -24.8919  -32.2910   26.4891 H   0  0  0  0  0  0
  -25.8045  -30.8918   27.0242 H   0  0  0  0  0  0
  -26.2902  -29.6776   24.1203 H   0  0  0  0  0  0
  -27.4001  -29.7263   25.4702 H   0  0  0  0  0  0
  -27.8783  -30.4297   23.9434 H   0  0  0  0  0  0
  -27.2654  -33.3626   26.2087 H   0  0  0  0  0  0
  -28.3852  -32.6899   25.0329 H   0  0  0  0  0  0
  -28.0723  -31.8456   26.5417 H   0  0  0  0  0  0
  -28.2595  -38.0101   24.7510 H   0  0  0  0  0  0
  -28.1076  -36.2633   24.6283 H   0  0  0  0  0  0
  -27.2301  -37.1453   25.8868 H   0  0  0  0  0  0
  -20.9361  -29.8777   21.6898 H   0  0  0  0  0  0
  -26.0173  -38.2855   24.1407 H   0  0  0  0  0  0
  -31.6381  -19.5369   19.6551 H   0  0  0  0  0  0
  -30.7272  -21.8124   19.7071 H   0  0  0  0  0  0
  -28.0605  -18.0069   21.4893 H   0  0  0  0  0  0
  -31.4195  -17.2096   21.3459 H   0  0  0  0  0  0
  -31.2322  -17.1252   19.6273 H   0  0  0  0  0  0
  -28.0944  -25.1698   21.7853 H   0  0  0  0  0  0
  -26.9843  -24.8121   20.5287 H   0  0  0  0  0  0
  -29.8886  -23.8937   20.6514 H   0  0  0  0  0  0
  -28.9348  -23.7563   19.1847 H   0  0  0  0  0  0
  -29.0140  -15.7678   20.9118 H   0  0  0  0  0  0
  1 25  1  0  0  0
  1 30  2  0  0  0
  1 80  1  0  0  0
  2  3  1  0  0  0
  2 25  1  0  0  0
  2 83  1  0  0  0
  2 84  1  0  0  0
  3  4  1  0  0  0
  3 85  1  0  0  0
  3 86  1  0  0  0
  4  5  1  0  0  0
  4 87  1  0  0  0
  4 88  1  0  0  0
  5  6  1  0  0  0
  5 26  1  0  0  0
  5 89  1  0  0  0
  6 25  1  0  0  0
  6 90  1  0  0  0
  6 91  1  0  0  0
  7  8  2  0  0  0
  7 26  1  0  0  0
  7 29  1  0  0  0
  8  9  1  0  0  0
  8 22  1  0  0  0
  9 10  1  0  0  0
  9 27  2  0  0  0
 10 11  2  0  0  0
 10 15  1  0  0  0
 11 12  1  0  0  0
 11 92  1  0  0  0
 12 13  2  0  0  0
 12 93  1  0  0  0
 13 14  1  0  0  0
 13 31  1  0  0  0
 14 15  2  0  0  0
 14 94  1  0  0  0
 15 95  1  0  0  0
 16 17  2  0  0  0
 16 21  1  0  0  0
 16 31  1  0  0  0
 17 18  1  0  0  0
 17 96  1  0  0  0
 18 19  2  0  0  0
 18 97  1  0  0  0
 19 20  1  0  0  0
 19 24  1  0  0  0
 20 21  2  0  0  0
 20 98  1  0  0  0
 21 23  1  0  0  0
 22 28  1  0  0  0
 22 32  2  0  0  0
 26 27  1  0  0  0
 28 99  1  0  0  0
 28100  1  0  0  0
 29101  1  0  0  0
 29102  1  0  0  0
 33 34  1  0  0  0
 33 66  1  0  0  0
 33 70  2  0  0  0
 34 36  1  0  0  0
 34 59  1  0  0  0
 34103  1  0  0  0
 35 44  2  0  0  0
 35 45  1  0  0  0
 35 68  1  0  0  0
 36 56  1  0  0  0
 36104  1  0  0  0
 37 39  1  0  0  0
 37 47  1  0  0  0
 37 66  1  0  0  0
 37105  1  0  0  0
 38 43  2  0  0  0
 38 46  1  0  0  0
 38 47  1  0  0  0
 39 64  1  0  0  0
 39 67  2  0  0  0
 40 52  1  0  0  0
 40 53  2  0  0  0
 40 58  1  0  0  0
 41106  1  0  0  0
 41107  1  0  0  0
 41108  1  0  0  0
 41 48  1  0  0  0
 42 43  1  0  0  0
 42 66  1  0  0  0
 42109  1  0  0  0
 42110  1  0  0  0
 43 44  1  0  0  0
 44111  1  0  0  0
 45 46  2  0  0  0
 45112  1  0  0  0
 46113  1  0  0  0
 47114  1  0  0  0
 47115  1  0  0  0
 48 56  1  0  0  0
 48 65  1  0  0  0
 48116  1  0  0  0
 49 50  1  0  0  0
 49 53  1  0  0  0
 49 64  1  0  0  0
 49117  1  0  0  0
 50 51  1  0  0  0
 50118  1  0  0  0
 50119  1  0  0  0
 51 52  1  0  0  0
 51120  1  0  0  0
 51121  1  0  0  0
 52122  1  0  0  0
 52123  1  0  0  0
 53 54  1  0  0  0
 54 55  2  0  0  0
 54124  1  0  0  0
 55 57  1  0  0  0
 55125  1  0  0  0
 56 69  2  0  0  0
 57 58  2  0  0  0
 57126  1  0  0  0
 58127  1  0  0  0
 59 60  1  0  0  0
 59 61  1  0  0  0
 59 62  1  0  0  0
 60128  1  0  0  0
 60129  1  0  0  0
 60130  1  0  0  0
 61131  1  0  0  0
 61132  1  0  0  0
 61133  1  0  0  0
 62134  1  0  0  0
 62135  1  0  0  0
 62136  1  0  0  0
 63 65  1  0  0  0
 63137  1  0  0  0
 63138  1  0  0  0
 63139  1  0  0  0
 64140  1  0  0  0
 65141  1  0  0  0
 68 78  1  0  0  0
 71 72  2  0  0  0
 71 74  1  0  0  0
 71142  1  0  0  0
 72 75  1  0  0  0
 72143  1  0  0  0
 73 74  2  0  0  0
 73 76  1  0  0  0
 73144  1  0  0  0
 74 77  1  0  0  0
 75 76  2  0  0  0
 75 81  1  0  0  0
 76 82  1  0  0  0
 77 80  1  0  0  0
 77145  1  0  0  0
 77146  1  0  0  0
 78 79  1  0  0  0
 78147  1  0  0  0
 78148  1  0  0  0
 79 81  1  0  0  0
 79149  1  0  0  0
 79150  1  0  0  0
 80151  1  0  0  0
M  ISO  4   1 100  68 101  78 101  80 100
M  END
> <chiral flag>
0

> <version>
0

> <s_m_source_file>
/data/baiqing/PycharmProjects/Reinvent-master-3.2/result/LINK_invent/BTK/process_docking_weight1_custom_product_contain_oxygen_bond_distance_aromatic_linkinvent_7_9_3/rearranged_h_0009.sdf

> <i_m_source_file_index>
21

> <r_mmod_Potential_Energy-OPLS-2005>
57.1438636779785

> <r_mmod_Stretch_Energy-OPLS-2005>
77.1801834106445

> <r_mmod_Bend_Energy-OPLS-2005>
156.112350463867

> <r_mmod_Torsional_Energy-OPLS-2005>
214.515319824219

> <r_mmod_Improper_Torsional_Energy-OPLS-2005>
5.03410863876343

> <r_mmod_Van_der_Waal_Energy-OPLS-2005>
145.950302124023

> <r_mmod_Electrostatic_Energy-OPLS-2005>
-386.678894042969

> <r_mmod_Solvation_Energy-OPLS-2005>
-209.099853515625

> <b_mmod_Minimization_Converged-OPLS-2005>
0

> <r_mmod_RMS_Derivative-OPLS-2005>
0.420190036296844

$$$$
21
                    3D
 Structure written by MMmdl.
137144  0  0  1  0            999 V2000
  -29.9622  -16.5635   20.2664 C   0  0  0  0  0  0
  -30.3146  -13.7964   19.5233 C   0  0  0  0  0  0
  -29.5702  -12.9451   18.4142 C   0  0  0  0  0  0
  -28.2376  -12.3814   18.9086 C   0  0  0  0  0  0
  -27.5746  -13.4257   19.8177 C   0  0  2  0  0  0
  -28.5152  -14.1357   20.8613 C   0  0  0  0  0  0
  -25.2174  -13.8479   20.5951 C   0  0  0  0  0  0
  -24.1675  -13.0467   20.9341 C   0  0  0  0  0  0
  -24.6541  -11.7031   20.8745 C   0  0  0  0  0  0
  -23.9255  -10.4321   21.0342 C   0  0  0  0  0  0
  -24.3739   -9.4228   21.9149 C   0  0  0  0  0  0
  -23.6364   -8.2283   22.0747 C   0  0  0  0  0  0
  -22.4340   -8.0323   21.3544 C   0  0  0  0  0  0
  -22.0014   -9.0304   20.4634 C   0  0  0  0  0  0
  -22.7395  -10.2158   20.3018 C   0  0  0  0  0  0
  -21.6878   -6.0765   22.5277 C   0  0  0  0  0  0
  -21.4033   -6.5657   23.8214 C   0  0  0  0  0  0
  -21.3665   -5.6802   24.9171 C   0  0  0  0  0  0
  -21.6043   -4.3064   24.7217 C   0  0  0  0  0  0
  -21.8816   -3.8163   23.4335 C   0  0  0  0  0  0
  -21.9200   -4.6987   22.3396 C   0  0  0  0  0  0
  -22.7650  -13.5092   21.1938 C   0  0  0  0  0  0
  -22.1663   -4.2170   21.0973 F   0  0  0  0  0  0
  -21.5624   -3.4543   25.7727 F   0  0  0  0  0  0
  -29.5188  -15.0444   20.1465 N   0  0  0  0  0  0
  -26.2805  -13.0063   20.3476 N   0  0  0  0  0  0
  -25.9548  -11.6990   20.5678 N   0  0  0  0  0  0
  -22.0351  -12.8040   22.0489 N   0  0  0  0  0  0
  -25.3555  -15.2242   20.4383 N   0  0  0  0  0  0
  -31.2063  -16.3142   20.2293 O   0  0  0  0  0  0
  -21.6677   -6.8928   21.4248 O   0  0  0  0  0  0
  -22.3283  -14.5375   20.6771 O   0  0  0  0  0  0
  -24.7449  -31.7216   23.0979 C   0  0  0  0  0  0
  -25.9712  -32.4091   23.7768 C   0  0  1  0  0  0
  -27.2626  -26.0606   20.2671 C   0  0  0  0  0  0
  -25.6018  -33.7953   24.1581 N   0  0  0  0  0  0
  -23.5996  -30.2922   21.4680 C   0  0  2  0  0  0
  -25.0624  -28.4936   20.1392 C   0  0  0  0  0  0
  -22.8035  -29.3895   22.4550 C   0  0  0  0  0  0
  -18.0376  -28.1454   22.8421 C   0  0  0  0  0  0
  -24.1496  -36.6992   23.2671 C   0  0  0  0  0  0
  -26.1999  -30.2411   21.4589 C   0  0  0  0  0  0
  -26.2597  -28.7329   20.8212 C   0  0  0  0  0  0
  -27.3097  -27.5690   20.8335 C   0  0  0  0  0  0
  -26.0272  -26.1946   19.5192 C   0  0  0  0  0  0
  -25.0234  -27.2541   19.4619 C   0  0  0  0  0  0
  -23.8874  -29.5253   20.1333 C   0  0  0  0  0  0
  -25.4170  -36.2677   24.0236 C   0  0  1  0  0  0
  -20.6038  -28.3836   23.1031 C   0  0  2  0  0  0
  -20.6806  -26.9436   22.5420 C   0  0  0  0  0  0
  -19.5796  -26.6348   21.5224 C   0  0  0  0  0  0
  -18.1977  -26.7969   22.1607 C   0  0  0  0  0  0
  -19.1657  -28.8984   23.2686 C   0  0  0  0  0  0
  -18.9553  -30.1552   23.8759 C   0  0  0  0  0  0
  -17.6536  -30.6619   24.0537 C   0  0  0  0  0  0
  -25.9187  -34.9084   23.4798 C   0  0  0  0  0  0
  -16.5422  -29.9090   23.6366 C   0  0  0  0  0  0
  -16.7352  -28.6518   23.0376 C   0  0  0  0  0  0
  -26.4693  -31.6408   25.0652 C   0  0  0  0  0  0
  -25.3596  -31.3898   26.1149 C   0  0  0  0  0  0
  -27.0730  -30.2690   24.7003 C   0  0  0  0  0  0
  -27.6017  -32.4426   25.7501 C   0  0  0  0  0  0
  -27.5543  -37.1648   24.8466 C   0  0  0  0  0  0
  -21.4628  -29.2949   22.3282 N   0  0  0  0  0  0
  -26.4242  -37.3509   23.9408 N   0  0  0  0  0  0
  -24.8802  -30.8007   22.0600 N   0  0  0  0  0  0
  -23.4175  -28.7613   23.3197 O   0  0  0  0  0  0
  -28.1668  -24.5661   20.3212 O   0  0  0  0  0  0
  -26.5925  -34.8791   22.4483 O   0  0  0  0  0  0
  -23.6336  -32.0588   23.5524 O   0  0  0  0  0  0
  -29.2006  -20.3375   20.3201 C   0  0  0  0  0  0
  -28.2004  -22.4649   20.2188 C   0  0  0  0  0  0
  -29.3170  -18.2279   20.2702 N   0  0  0  0  0  0
  -31.2155  -14.1817   19.0448 H   0  0  0  0  0  0
  -30.7050  -13.1434   20.3066 H   0  0  0  0  0  0
  -30.2109  -12.1390   18.0541 H   0  0  0  0  0  0
  -29.3823  -13.5901   17.5547 H   0  0  0  0  0  0
  -28.4305  -11.4738   19.4819 H   0  0  0  0  0  0
  -27.5913  -12.1016   18.0755 H   0  0  0  0  0  0
  -27.3204  -14.2160   19.1091 H   0  0  0  0  0  0
  -28.9720  -13.4238   21.5512 H   0  0  0  0  0  0
  -27.9168  -14.7884   21.4973 H   0  0  0  0  0  0
  -25.2871   -9.5690   22.4748 H   0  0  0  0  0  0
  -24.0047   -7.4683   22.7489 H   0  0  0  0  0  0
  -21.0938   -8.8851   19.8945 H   0  0  0  0  0  0
  -22.3854  -10.9697   19.6127 H   0  0  0  0  0  0
  -21.2035   -7.6165   23.9725 H   0  0  0  0  0  0
  -21.1486   -6.0529   25.9075 H   0  0  0  0  0  0
  -22.0587   -2.7625   23.2829 H   0  0  0  0  0  0
  -22.4039  -11.9742   22.4895 H   0  0  0  0  0  0
  -21.0937  -13.0980   22.2674 H   0  0  0  0  0  0
  -24.5768  -15.8638   20.5540 H   0  0  0  0  0  0
  -26.2060  -15.6839   20.1380 H   0  0  0  0  0  0
  -26.7876  -32.4443   23.0543 H   0  0  0  0  0  0
  -24.9961  -33.8879   24.9601 H   0  0  0  0  0  0
  -22.9629  -31.1444   21.2211 H   0  0  0  0  0  0
  -23.3792  -35.9283   23.3224 H   0  0  0  0  0  0
  -24.3542  -36.8804   22.2107 H   0  0  0  0  0  0
  -23.7229  -37.6104   23.6874 H   0  0  0  0  0  0
  -26.4659  -30.9211   20.6487 H   0  0  0  0  0  0
  -27.0298  -30.3291   22.1459 H   0  0  0  0  0  0
  -28.1985  -27.7908   21.4071 H   0  0  0  0  0  0
  -25.7596  -25.3099   18.9588 H   0  0  0  0  0  0
  -24.1415  -27.0455   18.8719 H   0  0  0  0  0  0
  -24.1127  -30.2559   19.3556 H   0  0  0  0  0  0
  -22.9802  -29.0216   19.7958 H   0  0  0  0  0  0
  -25.1411  -36.1346   25.0723 H   0  0  0  0  0  0
  -21.0093  -28.3507   24.1170 H   0  0  0  0  0  0
  -20.5606  -26.2478   23.3738 H   0  0  0  0  0  0
  -21.6663  -26.7276   22.1281 H   0  0  0  0  0  0
  -19.6940  -25.6222   21.1342 H   0  0  0  0  0  0
  -19.6763  -27.3084   20.6699 H   0  0  0  0  0  0
  -17.4253  -26.6718   21.4002 H   0  0  0  0  0  0
  -18.0338  -26.0144   22.9029 H   0  0  0  0  0  0
  -19.8031  -30.7398   24.2071 H   0  0  0  0  0  0
  -17.5087  -31.6284   24.5168 H   0  0  0  0  0  0
  -15.5417  -30.2952   23.7771 H   0  0  0  0  0  0
  -15.8752  -28.0794   22.7169 H   0  0  0  0  0  0
  -24.5845  -30.7190   25.7424 H   0  0  0  0  0  0
  -24.8725  -32.3171   26.4173 H   0  0  0  0  0  0
  -25.7627  -30.9316   27.0189 H   0  0  0  0  0  0
  -26.3552  -29.6093   24.2123 H   0  0  0  0  0  0
  -27.4038  -29.7408   25.5956 H   0  0  0  0  0  0
  -27.9570  -30.3690   24.0706 H   0  0  0  0  0  0
  -27.2476  -33.3875   26.1635 H   0  0  0  0  0  0
  -28.4042  -32.6752   25.0488 H   0  0  0  0  0  0
  -28.0450  -31.8868   26.5774 H   0  0  0  0  0  0
  -28.2488  -38.0006   24.7515 H   0  0  0  0  0  0
  -28.1107  -36.2518   24.6291 H   0  0  0  0  0  0
  -27.2256  -37.1265   25.8866 H   0  0  0  0  0  0
  -21.0089  -29.8498   21.6159 H   0  0  0  0  0  0
  -26.0011  -38.2526   24.1435 H   0  0  0  0  0  0
  -30.0015  -20.5173   19.6027 H   0  0  0  0  0  0
  -29.6902  -20.4553   21.2869 H   0  0  0  0  0  0
  -27.7199  -22.3753   19.2446 H   0  0  0  0  0  0
  -27.3860  -22.2933   20.9225 H   0  0  0  0  0  0
  -30.3181  -18.3884   20.2986 H   0  0  0  0  0  0
  1 25  1  0  0  0
  1 30  2  0  0  0
  1 73  1  0  0  0
  2  3  1  0  0  0
  2 25  1  0  0  0
  2 74  1  0  0  0
  2 75  1  0  0  0
  3  4  1  0  0  0
  3 76  1  0  0  0
  3 77  1  0  0  0
  4  5  1  0  0  0
  4 78  1  0  0  0
  4 79  1  0  0  0
  5  6  1  0  0  0
  5 26  1  0  0  0
  5 80  1  0  0  0
  6 25  1  0  0  0
  6 81  1  0  0  0
  6 82  1  0  0  0
  7  8  2  0  0  0
  7 26  1  0  0  0
  7 29  1  0  0  0
  8  9  1  0  0  0
  8 22  1  0  0  0
  9 10  1  0  0  0
  9 27  2  0  0  0
 10 11  2  0  0  0
 10 15  1  0  0  0
 11 12  1  0  0  0
 11 83  1  0  0  0
 12 13  2  0  0  0
 12 84  1  0  0  0
 13 14  1  0  0  0
 13 31  1  0  0  0
 14 15  2  0  0  0
 14 85  1  0  0  0
 15 86  1  0  0  0
 16 17  2  0  0  0
 16 21  1  0  0  0
 16 31  1  0  0  0
 17 18  1  0  0  0
 17 87  1  0  0  0
 18 19  2  0  0  0
 18 88  1  0  0  0
 19 20  1  0  0  0
 19 24  1  0  0  0
 20 21  2  0  0  0
 20 89  1  0  0  0
 21 23  1  0  0  0
 22 28  1  0  0  0
 22 32  2  0  0  0
 26 27  1  0  0  0
 28 90  1  0  0  0
 28 91  1  0  0  0
 29 92  1  0  0  0
 29 93  1  0  0  0
 33 34  1  0  0  0
 33 66  1  0  0  0
 33 70  2  0  0  0
 34 36  1  0  0  0
 34 59  1  0  0  0
 34 94  1  0  0  0
 35 44  2  0  0  0
 35 45  1  0  0  0
 35 68  1  0  0  0
 36 56  1  0  0  0
 36 95  1  0  0  0
 37 39  1  0  0  0
 37 47  1  0  0  0
 37 66  1  0  0  0
 37 96  1  0  0  0
 38 43  2  0  0  0
 38 46  1  0  0  0
 38 47  1  0  0  0
 39 64  1  0  0  0
 39 67  2  0  0  0
 40 52  1  0  0  0
 40 53  2  0  0  0
 40 58  1  0  0  0
 41 97  1  0  0  0
 41 98  1  0  0  0
 41 99  1  0  0  0
 41 48  1  0  0  0
 42 43  1  0  0  0
 42 66  1  0  0  0
 42100  1  0  0  0
 42101  1  0  0  0
 43 44  1  0  0  0
 44102  1  0  0  0
 45 46  2  0  0  0
 45103  1  0  0  0
 46104  1  0  0  0
 47105  1  0  0  0
 47106  1  0  0  0
 48 56  1  0  0  0
 48 65  1  0  0  0
 48107  1  0  0  0
 49 50  1  0  0  0
 49 53  1  0  0  0
 49 64  1  0  0  0
 49108  1  0  0  0
 50 51  1  0  0  0
 50109  1  0  0  0
 50110  1  0  0  0
 51 52  1  0  0  0
 51111  1  0  0  0
 51112  1  0  0  0
 52113  1  0  0  0
 52114  1  0  0  0
 53 54  1  0  0  0
 54 55  2  0  0  0
 54115  1  0  0  0
 55 57  1  0  0  0
 55116  1  0  0  0
 56 69  2  0  0  0
 57 58  2  0  0  0
 57117  1  0  0  0
 58118  1  0  0  0
 59 60  1  0  0  0
 59 61  1  0  0  0
 59 62  1  0  0  0
 60119  1  0  0  0
 60120  1  0  0  0
 60121  1  0  0  0
 61122  1  0  0  0
 61123  1  0  0  0
 61124  1  0  0  0
 62125  1  0  0  0
 62126  1  0  0  0
 62127  1  0  0  0
 63 65  1  0  0  0
 63128  1  0  0  0
 63129  1  0  0  0
 63130  1  0  0  0
 64131  1  0  0  0
 65132  1  0  0  0
 68 72  1  0  0  0
 71 72  1  0  0  0
 71 73  1  0  0  0
 71133  1  0  0  0
 71134  1  0  0  0
 72135  1  0  0  0
 72136  1  0  0  0
 73137  1  0  0  0
M  ISO  4   1 100  68 101  72 101  73 100
M  END
> <chiral flag>
0

> <version>
0

> <s_m_source_file>
/data/baiqing/PycharmProjects/Reinvent-master-3.2/result/LINK_invent/BTK/process_docking_weight1_custom_product_contain_oxygen_bond_distance_aromatic_linkinvent_7_9_3/rearranged_h_0009.sdf

> <i_m_source_file_index>
22

> <r_mmod_Potential_Energy-OPLS-2005>
6948.9697265625

> <r_mmod_Stretch_Energy-OPLS-2005>
3136.46411132812

> <r_mmod_Bend_Energy-OPLS-2005>
1268.50207519531

> <r_mmod_Torsional_Energy-OPLS-2005>
217.324829101562

> <r_mmod_Improper_Torsional_Energy-OPLS-2005>
4.82364273071289

> <r_mmod_Van_der_Waal_Energy-OPLS-2005>
120.95548248291

> <r_mmod_Electrostatic_Energy-OPLS-2005>
-391.247985839844

> <r_mmod_Solvation_Energy-OPLS-2005>
-221.174652099609

> <b_mmod_Minimization_Converged-OPLS-2005>
1

> <r_mmod_RMS_Derivative-OPLS-2005>
0.042349461466074

$$$$
22
                    3D
 Structure written by MMmdl.
148156  0  0  1  0            999 V2000
  -30.5089  -14.9122   20.4351 C   0  0  0  0  0  0
  -30.4555  -12.5616   19.4901 C   0  0  0  0  0  0
  -29.5264  -12.5317   18.2520 C   0  0  0  0  0  0
  -28.0565  -12.3206   18.6662 C   0  0  0  0  0  0
  -27.6389  -13.2354   19.8464 C   0  0  2  0  0  0
  -28.6835  -13.2119   20.9840 C   0  0  0  0  0  0
  -25.2500  -13.8182   20.5681 C   0  0  0  0  0  0
  -24.1806  -13.0431   20.9230 C   0  0  0  0  0  0
  -24.6402  -11.6911   20.8760 C   0  0  0  0  0  0
  -23.9076  -10.4289   21.0416 C   0  0  0  0  0  0
  -24.3624   -9.4201   21.9190 C   0  0  0  0  0  0
  -23.6294   -8.2240   22.0758 C   0  0  0  0  0  0
  -22.4276   -8.0282   21.3547 C   0  0  0  0  0  0
  -21.9915   -9.0259   20.4652 C   0  0  0  0  0  0
  -22.7249  -10.2135   20.3063 C   0  0  0  0  0  0
  -21.6853   -6.0736   22.5279 C   0  0  0  0  0  0
  -21.4015   -6.5640   23.8212 C   0  0  0  0  0  0
  -21.3659   -5.6793   24.9175 C   0  0  0  0  0  0
  -21.6044   -4.3056   24.7225 C   0  0  0  0  0  0
  -21.8818   -3.8147   23.4347 C   0  0  0  0  0  0
  -21.9192   -4.6963   22.3402 C   0  0  0  0  0  0
  -22.7826  -13.5218   21.1880 C   0  0  0  0  0  0
  -22.1661   -4.2149   21.0979 F   0  0  0  0  0  0
  -21.5626   -3.4539   25.7738 F   0  0  0  0  0  0
  -29.9682  -13.6307   20.4025 N   0  0  0  0  0  0
  -26.2925  -12.9392   20.3247 N   0  0  0  0  0  0
  -25.9332  -11.6537   20.5742 N   0  0  0  0  0  0
  -22.0465  -12.8213   22.0434 N   0  0  0  0  0  0
  -25.4162  -15.1901   20.4026 N   0  0  0  0  0  0
  -31.6970  -15.0562   20.1234 O   0  0  0  0  0  0
  -21.6639   -6.8881   21.4242 O   0  0  0  0  0  0
  -22.3518  -14.5520   20.6717 O   0  0  0  0  0  0
  -24.6422  -31.8456   23.1895 C   0  0  0  0  0  0
  -25.9199  -32.4704   23.8282 C   0  0  1  0  0  0
  -27.2214  -27.1519   20.1469 C   0  0  0  0  0  0
  -25.5952  -33.8509   24.2201 N   0  0  0  0  0  0
  -23.4453  -30.4654   21.5351 C   0  0  2  0  0  0
  -24.8953  -28.8959   20.1105 C   0  0  0  0  0  0
  -22.7562  -29.4552   22.4864 C   0  0  0  0  0  0
  -18.0305  -28.1392   22.8480 C   0  0  0  0  0  0
  -24.1492  -36.7261   23.2642 C   0  0  0  0  0  0
  -26.0006  -30.7245   21.3860 C   0  0  0  0  0  0
  -26.0728  -29.3373   20.7273 C   0  0  0  0  0  0
  -27.2369  -28.4820   20.7280 C   0  0  0  0  0  0
  -26.0152  -26.8096   19.4937 C   0  0  0  0  0  0
  -24.8787  -27.6448   19.4786 C   0  0  0  0  0  0
  -23.6712  -29.7962   20.1539 C   0  0  0  0  0  0
  -25.4122  -36.3038   24.0318 C   0  0  1  0  0  0
  -20.5917  -28.3717   23.1239 C   0  0  2  0  0  0
  -20.6789  -26.9422   22.5403 C   0  0  0  0  0  0
  -19.5760  -26.6380   21.5213 C   0  0  0  0  0  0
  -18.1944  -26.7931   22.1628 C   0  0  0  0  0  0
  -19.1562  -28.8873   23.2853 C   0  0  0  0  0  0
  -18.9477  -30.1469   23.8878 C   0  0  0  0  0  0
  -17.6473  -30.6589   24.0558 C   0  0  0  0  0  0
  -25.9071  -34.9412   23.5068 C   0  0  0  0  0  0
  -16.5365  -29.9082   23.6333 C   0  0  0  0  0  0
  -16.7289  -28.6500   23.0357 C   0  0  0  0  0  0
  -26.4522  -31.6564   25.0716 C   0  0  0  0  0  0
  -25.3712  -31.3749   26.1414 C   0  0  0  0  0  0
  -27.0385  -30.2963   24.6283 C   0  0  0  0  0  0
  -27.6053  -32.4328   25.7502 C   0  0  0  0  0  0
  -27.5575  -37.1788   24.8465 C   0  0  0  0  0  0
  -21.4255  -29.3048   22.3615 N   0  0  0  0  0  0
  -26.4286  -37.3749   23.9408 N   0  0  0  0  0  0
  -24.7158  -31.0325   22.0923 N   0  0  0  0  0  0
  -23.4210  -28.8096   23.3008 O   0  0  0  0  0  0
  -28.2796  -26.1752   20.2158 O   0  0  0  0  0  0
  -26.5655  -34.8906   22.4645 O   0  0  0  0  0  0
  -23.5543  -32.1325   23.7122 O   0  0  0  0  0  0
  -30.4979  -18.5502   20.3681 C   0  0  0  0  0  0
  -30.1918  -19.9876   20.3030 C   0  0  0  0  0  0
  -28.2013  -18.0915   20.6159 C   0  0  0  0  0  0
  -29.5058  -17.5125   20.5303 C   0  0  0  0  0  0
  -28.8604  -20.5427   20.3787 C   0  0  0  0  0  0
  -27.8953  -19.4982   20.5370 C   0  0  0  0  0  0
  -27.9814  -24.6559   20.0800 C   0  0  0  0  0  0
  -28.9666  -23.3090   20.3181 C   0  0  0  0  0  0
  -29.6181  -15.9877   20.6567 N   0  0  0  0  0  0
  -28.3436  -21.9122   20.2867 O   0  0  0  0  0  0
  -26.5907  -19.8568   20.6201 F   0  0  0  0  0  0
  -31.4867  -12.7370   19.1791 H   0  0  0  0  0  0
  -30.4561  -11.5962   19.9987 H   0  0  0  0  0  0
  -29.8377  -11.7454   17.5632 H   0  0  0  0  0  0
  -29.6191  -13.4710   17.7045 H   0  0  0  0  0  0
  -27.9424  -11.2750   18.9545 H   0  0  0  0  0  0
  -27.3955  -12.4747   17.8124 H   0  0  0  0  0  0
  -27.6160  -14.2467   19.4405 H   0  0  0  0  0  0
  -28.7608  -12.2155   21.4218 H   0  0  0  0  0  0
  -28.3869  -13.8773   21.7964 H   0  0  0  0  0  0
  -25.2769   -9.5672   22.4767 H   0  0  0  0  0  0
  -24.0000   -7.4629   22.7477 H   0  0  0  0  0  0
  -21.0844   -8.8784   19.8957 H   0  0  0  0  0  0
  -22.3712  -10.9678   19.6174 H   0  0  0  0  0  0
  -21.2010   -7.6149   23.9716 H   0  0  0  0  0  0
  -21.1480   -6.0523   25.9077 H   0  0  0  0  0  0
  -22.0597   -2.7608   23.2848 H   0  0  0  0  0  0
  -22.4083  -11.9878   22.4830 H   0  0  0  0  0  0
  -21.1084  -13.1242   22.2641 H   0  0  0  0  0  0
  -24.6295  -15.8261   20.4770 H   0  0  0  0  0  0
  -26.2182  -15.6066   19.9499 H   0  0  0  0  0  0
  -26.7265  -32.5316   23.1014 H   0  0  0  0  0  0
  -25.0077  -33.9626   25.0333 H   0  0  0  0  0  0
  -22.7472  -31.2910   21.3818 H   0  0  0  0  0  0
  -23.3757  -35.9590   23.3292 H   0  0  0  0  0  0
  -24.3578  -36.8903   22.2059 H   0  0  0  0  0  0
  -23.7245  -37.6454   23.6684 H   0  0  0  0  0  0
  -26.1536  -31.4794   20.6136 H   0  0  0  0  0  0
  -26.8721  -30.7754   22.0269 H   0  0  0  0  0  0
  -28.1335  -28.8156   21.2313 H   0  0  0  0  0  0
  -25.9102  -25.8553   19.0018 H   0  0  0  0  0  0
  -23.9801  -27.3016   18.9846 H   0  0  0  0  0  0
  -23.8070  -30.5716   19.3992 H   0  0  0  0  0  0
  -22.7864  -29.2380   19.8427 H   0  0  0  0  0  0
  -25.1309  -36.1869   25.0810 H   0  0  0  0  0  0
  -21.0010  -28.3306   24.1360 H   0  0  0  0  0  0
  -20.5685  -26.2330   23.3621 H   0  0  0  0  0  0
  -21.6654  -26.7429   22.1199 H   0  0  0  0  0  0
  -19.6921  -25.6286   21.1255 H   0  0  0  0  0  0
  -19.6694  -27.3179   20.6734 H   0  0  0  0  0  0
  -17.4210  -26.6673   21.4035 H   0  0  0  0  0  0
  -18.0346  -26.0078   22.9030 H   0  0  0  0  0  0
  -19.7952  -30.7291   24.2241 H   0  0  0  0  0  0
  -17.5025  -31.6268   24.5163 H   0  0  0  0  0  0
  -15.5364  -30.2977   23.7663 H   0  0  0  0  0  0
  -15.8691  -28.0808   22.7085 H   0  0  0  0  0  0
  -24.5894  -30.7094   25.7734 H   0  0  0  0  0  0
  -24.8898  -32.2930   26.4792 H   0  0  0  0  0  0
  -25.7998  -30.8952   27.0222 H   0  0  0  0  0  0
  -26.2998  -29.6690   24.1281 H   0  0  0  0  0  0
  -27.3997  -29.7256   25.4848 H   0  0  0  0  0  0
  -27.8906  -30.4204   23.9597 H   0  0  0  0  0  0
  -27.2645  -33.3646   26.2028 H   0  0  0  0  0  0
  -28.3892  -32.6860   25.0352 H   0  0  0  0  0  0
  -28.0689  -31.8488   26.5463 H   0  0  0  0  0  0
  -28.2585  -38.0091   24.7510 H   0  0  0  0  0  0
  -28.1079  -36.2622   24.6295 H   0  0  0  0  0  0
  -27.2293  -37.1437   25.8868 H   0  0  0  0  0  0
  -20.9461  -29.8768   21.6802 H   0  0  0  0  0  0
  -26.0155  -38.2818   24.1409 H   0  0  0  0  0  0
  -31.5349  -18.2525   20.2974 H   0  0  0  0  0  0
  -31.0171  -20.6732   20.1773 H   0  0  0  0  0  0
  -27.3590  -17.4297   20.7477 H   0  0  0  0  0  0
  -27.1214  -24.4889   20.7294 H   0  0  0  0  0  0
  -27.6025  -24.5258   19.0670 H   0  0  0  0  0  0
  -29.4518  -23.4117   21.2888 H   0  0  0  0  0  0
  -29.7707  -23.3307   19.5826 H   0  0  0  0  0  0
  -28.7268  -15.5824   20.8973 H   0  0  0  0  0  0
  1 25  1  0  0  0
  1 30  2  0  0  0
  1 79  1  0  0  0
  2  3  1  0  0  0
  2 25  1  0  0  0
  2 82  1  0  0  0
  2 83  1  0  0  0
  3  4  1  0  0  0
  3 84  1  0  0  0
  3 85  1  0  0  0
  4  5  1  0  0  0
  4 86  1  0  0  0
  4 87  1  0  0  0
  5  6  1  0  0  0
  5 26  1  0  0  0
  5 88  1  0  0  0
  6 25  1  0  0  0
  6 89  1  0  0  0
  6 90  1  0  0  0
  7  8  2  0  0  0
  7 26  1  0  0  0
  7 29  1  0  0  0
  8  9  1  0  0  0
  8 22  1  0  0  0
  9 10  1  0  0  0
  9 27  2  0  0  0
 10 11  2  0  0  0
 10 15  1  0  0  0
 11 12  1  0  0  0
 11 91  1  0  0  0
 12 13  2  0  0  0
 12 92  1  0  0  0
 13 14  1  0  0  0
 13 31  1  0  0  0
 14 15  2  0  0  0
 14 93  1  0  0  0
 15 94  1  0  0  0
 16 17  2  0  0  0
 16 21  1  0  0  0
 16 31  1  0  0  0
 17 18  1  0  0  0
 17 95  1  0  0  0
 18 19  2  0  0  0
 18 96  1  0  0  0
 19 20  1  0  0  0
 19 24  1  0  0  0
 20 21  2  0  0  0
 20 97  1  0  0  0
 21 23  1  0  0  0
 22 28  1  0  0  0
 22 32  2  0  0  0
 26 27  1  0  0  0
 28 98  1  0  0  0
 28 99  1  0  0  0
 29100  1  0  0  0
 29101  1  0  0  0
 33 34  1  0  0  0
 33 66  1  0  0  0
 33 70  2  0  0  0
 34 36  1  0  0  0
 34 59  1  0  0  0
 34102  1  0  0  0
 35 44  2  0  0  0
 35 45  1  0  0  0
 35 68  1  0  0  0
 36 56  1  0  0  0
 36103  1  0  0  0
 37 39  1  0  0  0
 37 47  1  0  0  0
 37 66  1  0  0  0
 37104  1  0  0  0
 38 43  2  0  0  0
 38 46  1  0  0  0
 38 47  1  0  0  0
 39 64  1  0  0  0
 39 67  2  0  0  0
 40 52  1  0  0  0
 40 53  2  0  0  0
 40 58  1  0  0  0
 41105  1  0  0  0
 41106  1  0  0  0
 41107  1  0  0  0
 41 48  1  0  0  0
 42 43  1  0  0  0
 42 66  1  0  0  0
 42108  1  0  0  0
 42109  1  0  0  0
 43 44  1  0  0  0
 44110  1  0  0  0
 45 46  2  0  0  0
 45111  1  0  0  0
 46112  1  0  0  0
 47113  1  0  0  0
 47114  1  0  0  0
 48 56  1  0  0  0
 48 65  1  0  0  0
 48115  1  0  0  0
 49 50  1  0  0  0
 49 53  1  0  0  0
 49 64  1  0  0  0
 49116  1  0  0  0
 50 51  1  0  0  0
 50117  1  0  0  0
 50118  1  0  0  0
 51 52  1  0  0  0
 51119  1  0  0  0
 51120  1  0  0  0
 52121  1  0  0  0
 52122  1  0  0  0
 53 54  1  0  0  0
 54 55  2  0  0  0
 54123  1  0  0  0
 55 57  1  0  0  0
 55124  1  0  0  0
 56 69  2  0  0  0
 57 58  2  0  0  0
 57125  1  0  0  0
 58126  1  0  0  0
 59 60  1  0  0  0
 59 61  1  0  0  0
 59 62  1  0  0  0
 60127  1  0  0  0
 60128  1  0  0  0
 60129  1  0  0  0
 61130  1  0  0  0
 61131  1  0  0  0
 61132  1  0  0  0
 62133  1  0  0  0
 62134  1  0  0  0
 62135  1  0  0  0
 63 65  1  0  0  0
 63136  1  0  0  0
 63137  1  0  0  0
 63138  1  0  0  0
 64139  1  0  0  0
 65140  1  0  0  0
 68 77  1  0  0  0
 71 72  2  0  0  0
 71 74  1  0  0  0
 71141  1  0  0  0
 72 75  1  0  0  0
 72142  1  0  0  0
 73 74  2  0  0  0
 73 76  1  0  0  0
 73143  1  0  0  0
 74 79  1  0  0  0
 75 76  2  0  0  0
 75 80  1  0  0  0
 76 81  1  0  0  0
 77 78  1  0  0  0
 77144  1  0  0  0
 77145  1  0  0  0
 78 80  1  0  0  0
 78146  1  0  0  0
 78147  1  0  0  0
 79148  1  0  0  0
M  ISO  4   1 100  68 101  77 101  79 100
M  END
> <chiral flag>
0

> <version>
0

> <s_m_source_file>
/data/baiqing/PycharmProjects/Reinvent-master-3.2/result/LINK_invent/BTK/process_docking_weight1_custom_product_contain_oxygen_bond_distance_aromatic_linkinvent_7_9_3/rearranged_h_0009.sdf

> <i_m_source_file_index>
23

> <r_mmod_Potential_Energy-OPLS-2005>
491.091247558594

> <r_mmod_Stretch_Energy-OPLS-2005>
216.953765869141

> <r_mmod_Bend_Energy-OPLS-2005>
302.484619140625

> <r_mmod_Torsional_Energy-OPLS-2005>
212.021713256836

> <r_mmod_Improper_Torsional_Energy-OPLS-2005>
4.76716709136963

> <r_mmod_Van_der_Waal_Energy-OPLS-2005>
130.573699951172

> <r_mmod_Electrostatic_Energy-OPLS-2005>
-337.487060546875

> <r_mmod_Solvation_Energy-OPLS-2005>
-212.451721191406

> <b_mmod_Minimization_Converged-OPLS-2005>
0

> <r_mmod_RMS_Derivative-OPLS-2005>
0.366873770952225

$$$$
23
                    3D
 Structure written by MMmdl.
158167  0  0  1  0            999 V2000
  -30.6017  -14.6756   20.4856 C   0  0  0  0  0  0
  -30.4420  -12.4111   19.4585 C   0  0  0  0  0  0
  -29.5105  -12.5100   18.2285 C   0  0  0  0  0  0
  -28.0334  -12.3420   18.6391 C   0  0  0  0  0  0
  -27.6520  -13.2178   19.8622 C   0  0  2  0  0  0
  -28.6970  -13.0853   20.9930 C   0  0  0  0  0  0
  -25.2559  -13.8168   20.5682 C   0  0  0  0  0  0
  -24.1830  -13.0435   20.9202 C   0  0  0  0  0  0
  -24.6403  -11.6905   20.8752 C   0  0  0  0  0  0
  -23.9067  -10.4288   21.0414 C   0  0  0  0  0  0
  -24.3617   -9.4201   21.9186 C   0  0  0  0  0  0
  -23.6295   -8.2236   22.0751 C   0  0  0  0  0  0
  -22.4275   -8.0277   21.3547 C   0  0  0  0  0  0
  -21.9912   -9.0249   20.4644 C   0  0  0  0  0  0
  -22.7240  -10.2134   20.3059 C   0  0  0  0  0  0
  -21.6851   -6.0739   22.5281 C   0  0  0  0  0  0
  -21.4010   -6.5641   23.8215 C   0  0  0  0  0  0
  -21.3661   -5.6793   24.9174 C   0  0  0  0  0  0
  -21.6043   -4.3057   24.7221 C   0  0  0  0  0  0
  -21.8819   -3.8150   23.4342 C   0  0  0  0  0  0
  -21.9192   -4.6968   22.3402 C   0  0  0  0  0  0
  -22.7850  -13.5230   21.1858 C   0  0  0  0  0  0
  -22.1662   -4.2154   21.0981 F   0  0  0  0  0  0
  -21.5629   -3.4542   25.7736 F   0  0  0  0  0  0
  -30.0089  -13.4380   20.4287 N   0  0  0  0  0  0
  -26.2987  -12.9353   20.3317 N   0  0  0  0  0  0
  -25.9332  -11.6508   20.5764 N   0  0  0  0  0  0
  -22.0496  -12.8222   22.0416 N   0  0  0  0  0  0
  -25.4258  -15.1882   20.4045 N   0  0  0  0  0  0
  -31.7706  -14.8347   20.1202 O   0  0  0  0  0  0
  -21.6640   -6.8877   21.4241 O   0  0  0  0  0  0
  -22.3540  -14.5539   20.6708 O   0  0  0  0  0  0
  -24.6267  -31.8580   23.2017 C   0  0  0  0  0  0
  -25.9110  -32.4768   23.8343 C   0  0  1  0  0  0
  -27.2234  -27.3079   20.1256 C   0  0  0  0  0  0
  -25.5921  -33.8570   24.2270 N   0  0  0  0  0  0
  -23.4216  -30.4816   21.5435 C   0  0  2  0  0  0
  -24.8692  -28.9331   20.1109 C   0  0  0  0  0  0
  -22.7474  -29.4619   22.4926 C   0  0  0  0  0  0
  -18.0284  -28.1383   22.8485 C   0  0  0  0  0  0
  -24.1489  -36.7285   23.2634 C   0  0  0  0  0  0
  -25.9638  -30.7857   21.3754 C   0  0  0  0  0  0
  -26.0381  -29.4122   20.7169 C   0  0  0  0  0  0
  -27.2200  -28.6120   20.7122 C   0  0  0  0  0  0
  -26.0369  -26.8864   19.4870 C   0  0  0  0  0  0
  -24.8713  -27.6762   19.4852 C   0  0  0  0  0  0
  -23.6372  -29.8148   20.1590 C   0  0  0  0  0  0
  -25.4107  -36.3074   24.0331 C   0  0  1  0  0  0
  -20.5887  -28.3685   23.1281 C   0  0  2  0  0  0
  -20.6778  -26.9406   22.5409 C   0  0  0  0  0  0
  -19.5755  -26.6380   21.5216 C   0  0  0  0  0  0
  -18.1931  -26.7925   22.1621 C   0  0  0  0  0  0
  -19.1539  -28.8848   23.2881 C   0  0  0  0  0  0
  -18.9465  -30.1449   23.8895 C   0  0  0  0  0  0
  -17.6467  -30.6586   24.0566 C   0  0  0  0  0  0
  -25.9048  -34.9447   23.5106 C   0  0  0  0  0  0
  -16.5355  -29.9086   23.6334 C   0  0  0  0  0  0
  -16.7271  -28.6505   23.0351 C   0  0  0  0  0  0
  -26.4489  -31.6590   25.0723 C   0  0  0  0  0  0
  -25.3719  -31.3735   26.1449 C   0  0  0  0  0  0
  -27.0337  -30.3012   24.6183 C   0  0  0  0  0  0
  -27.6046  -32.4329   25.7495 C   0  0  0  0  0  0
  -27.5596  -37.1763   24.8437 C   0  0  0  0  0  0
  -21.4186  -29.3043   22.3673 N   0  0  0  0  0  0
  -26.4267  -37.3790   23.9445 N   0  0  0  0  0  0
  -24.6894  -31.0578   22.0971 N   0  0  0  0  0  0
  -23.4195  -28.8155   23.3008 O   0  0  0  0  0  0
  -28.3310  -26.4460   20.1549 O   0  0  0  0  0  0
  -26.5627  -34.8925   22.4679 O   0  0  0  0  0  0
  -23.5430  -32.1381   23.7335 O   0  0  0  0  0  0
  -30.9405  -19.3397   20.0593 C   0  0  0  0  0  0
  -30.9917  -17.9295   20.2884 C   0  0  0  0  0  0
  -28.6226  -17.9454   20.6507 C   0  0  0  0  0  0
  -29.7366  -20.1037   20.0941 C   0  0  0  0  0  0
  -28.5631  -19.3572   20.4016 C   0  0  0  0  0  0
  -29.8229  -17.1789   20.5765 C   0  0  0  0  0  0
  -28.6082  -23.9086   19.5737 C   0  0  0  0  0  0
  -28.8237  -24.5796   21.8190 C   0  0  0  0  0  0
  -29.0829  -23.0543   21.6595 C   0  0  0  0  0  0
  -28.0957  -25.0229   20.5419 C   0  0  1  0  0  0
  -27.2074  -20.0398   20.4150 C   0  0  0  0  0  0
  -29.7728  -21.6131   19.6024 C   0  0  0  0  0  0
  -29.0427  -22.7833   20.2250 N   0  0  0  0  0  0
  -29.7678  -15.7242   20.8013 N   0  0  0  0  0  0
  -28.6113  -24.0592   18.3482 O   0  0  0  0  0  0
  -31.4824  -12.5437   19.1559 H   0  0  0  0  0  0
  -30.3861  -11.4182   19.9068 H   0  0  0  0  0  0
  -29.7798  -11.7546   17.4892 H   0  0  0  0  0  0
  -29.6468  -13.4767   17.7408 H   0  0  0  0  0  0
  -27.8743  -11.2897   18.8763 H   0  0  0  0  0  0
  -27.3779  -12.5652   17.7961 H   0  0  0  0  0  0
  -27.6652  -14.2505   19.5139 H   0  0  0  0  0  0
  -28.7161  -12.0657   21.3804 H   0  0  0  0  0  0
  -28.4386  -13.7205   21.8417 H   0  0  0  0  0  0
  -25.2762   -9.5682   22.4764 H   0  0  0  0  0  0
  -24.0004   -7.4627   22.7471 H   0  0  0  0  0  0
  -21.0843   -8.8767   19.8949 H   0  0  0  0  0  0
  -22.3693  -10.9675   19.6170 H   0  0  0  0  0  0
  -21.2001   -7.6149   23.9719 H   0  0  0  0  0  0
  -21.1485   -6.0524   25.9077 H   0  0  0  0  0  0
  -22.0599   -2.7613   23.2841 H   0  0  0  0  0  0
  -22.4109  -11.9878   22.4797 H   0  0  0  0  0  0
  -21.1111  -13.1244   22.2623 H   0  0  0  0  0  0
  -24.6487  -15.8343   20.4894 H   0  0  0  0  0  0
  -26.2525  -15.6146   20.0075 H   0  0  0  0  0  0
  -26.7173  -32.5435   23.1088 H   0  0  0  0  0  0
  -25.0063  -33.9717   25.0410 H   0  0  0  0  0  0
  -22.7168  -31.3029   21.3986 H   0  0  0  0  0  0
  -23.3773  -35.9589   23.3231 H   0  0  0  0  0  0
  -24.3601  -36.8973   22.2064 H   0  0  0  0  0  0
  -23.7200  -37.6452   23.6690 H   0  0  0  0  0  0
  -26.0980  -31.5487   20.6072 H   0  0  0  0  0  0
  -26.8436  -30.8328   22.0055 H   0  0  0  0  0  0
  -28.1172  -28.9728   21.1950 H   0  0  0  0  0  0
  -26.0010  -25.9267   18.9914 H   0  0  0  0  0  0
  -23.9779  -27.3058   19.0025 H   0  0  0  0  0  0
  -23.7564  -30.5910   19.4025 H   0  0  0  0  0  0
  -22.7568  -29.2448   19.8562 H   0  0  0  0  0  0
  -25.1276  -36.1907   25.0818 H   0  0  0  0  0  0
  -20.9985  -28.3255   24.1400 H   0  0  0  0  0  0
  -20.5685  -26.2291   23.3609 H   0  0  0  0  0  0
  -21.6644  -26.7435   22.1195 H   0  0  0  0  0  0
  -19.6926  -25.6296   21.1233 H   0  0  0  0  0  0
  -19.6697  -27.3197   20.6759 H   0  0  0  0  0  0
  -17.4203  -26.6668   21.4018 H   0  0  0  0  0  0
  -18.0327  -26.0067   22.9019 H   0  0  0  0  0  0
  -19.7945  -30.7269   24.2254 H   0  0  0  0  0  0
  -17.5024  -31.6268   24.5164 H   0  0  0  0  0  0
  -15.5355  -30.2997   23.7667 H   0  0  0  0  0  0
  -15.8664  -28.0834   22.7069 H   0  0  0  0  0  0
  -24.5889  -30.7093   25.7777 H   0  0  0  0  0  0
  -24.8920  -32.2910   26.4863 H   0  0  0  0  0  0
  -25.8037  -30.8913   27.0230 H   0  0  0  0  0  0
  -26.2921  -29.6762   24.1192 H   0  0  0  0  0  0
  -27.4029  -29.7261   25.4687 H   0  0  0  0  0  0
  -27.8788  -30.4302   23.9419 H   0  0  0  0  0  0
  -27.2638  -33.3615   26.2082 H   0  0  0  0  0  0
  -28.3842  -32.6913   25.0319 H   0  0  0  0  0  0
  -28.0724  -31.8456   26.5403 H   0  0  0  0  0  0
  -28.2501  -38.0173   24.7653 H   0  0  0  0  0  0
  -28.1209  -36.2717   24.6035 H   0  0  0  0  0  0
  -27.2349  -37.1131   25.8841 H   0  0  0  0  0  0
  -20.9355  -29.8763   21.6885 H   0  0  0  0  0  0
  -26.0140  -38.2837   24.1558 H   0  0  0  0  0  0
  -31.8659  -19.8379   19.8045 H   0  0  0  0  0  0
  -31.9481  -17.4309   20.2213 H   0  0  0  0  0  0
  -27.6987  -17.4290   20.8701 H   0  0  0  0  0  0
  -29.7732  -25.1092   21.9024 H   0  0  0  0  0  0
  -28.2470  -24.8018   22.7174 H   0  0  0  0  0  0
  -28.3017  -22.4767   22.1537 H   0  0  0  0  0  0
  -30.0397  -22.7615   22.0945 H   0  0  0  0  0  0
  -27.0341  -24.8258   20.6935 H   0  0  0  0  0  0
  -26.3984  -19.3129   20.3373 H   0  0  0  0  0  0
  -27.1051  -20.7281   19.5760 H   0  0  0  0  0  0
  -27.0681  -20.5994   21.3394 H   0  0  0  0  0  0
  -29.4746  -21.5718   18.5542 H   0  0  0  0  0  0
  -30.8199  -21.9168   19.5710 H   0  0  0  0  0  0
  -28.8651  -15.3936   21.1051 H   0  0  0  0  0  0
  1 25  1  0  0  0
  1 30  2  0  0  0
  1 84  1  0  0  0
  2  3  1  0  0  0
  2 25  1  0  0  0
  2 86  1  0  0  0
  2 87  1  0  0  0
  3  4  1  0  0  0
  3 88  1  0  0  0
  3 89  1  0  0  0
  4  5  1  0  0  0
  4 90  1  0  0  0
  4 91  1  0  0  0
  5  6  1  0  0  0
  5 26  1  0  0  0
  5 92  1  0  0  0
  6 25  1  0  0  0
  6 93  1  0  0  0
  6 94  1  0  0  0
  7  8  2  0  0  0
  7 26  1  0  0  0
  7 29  1  0  0  0
  8  9  1  0  0  0
  8 22  1  0  0  0
  9 10  1  0  0  0
  9 27  2  0  0  0
 10 11  2  0  0  0
 10 15  1  0  0  0
 11 12  1  0  0  0
 11 95  1  0  0  0
 12 13  2  0  0  0
 12 96  1  0  0  0
 13 14  1  0  0  0
 13 31  1  0  0  0
 14 15  2  0  0  0
 14 97  1  0  0  0
 15 98  1  0  0  0
 16 17  2  0  0  0
 16 21  1  0  0  0
 16 31  1  0  0  0
 17 18  1  0  0  0
 17 99  1  0  0  0
 18 19  2  0  0  0
 18100  1  0  0  0
 19 20  1  0  0  0
 19 24  1  0  0  0
 20 21  2  0  0  0
 20101  1  0  0  0
 21 23  1  0  0  0
 22 28  1  0  0  0
 22 32  2  0  0  0
 26 27  1  0  0  0
 28102  1  0  0  0
 28103  1  0  0  0
 29104  1  0  0  0
 29105  1  0  0  0
 33 34  1  0  0  0
 33 66  1  0  0  0
 33 70  2  0  0  0
 34 36  1  0  0  0
 34 59  1  0  0  0
 34106  1  0  0  0
 35 44  2  0  0  0
 35 45  1  0  0  0
 35 68  1  0  0  0
 36 56  1  0  0  0
 36107  1  0  0  0
 37 39  1  0  0  0
 37 47  1  0  0  0
 37 66  1  0  0  0
 37108  1  0  0  0
 38 43  2  0  0  0
 38 46  1  0  0  0
 38 47  1  0  0  0
 39 64  1  0  0  0
 39 67  2  0  0  0
 40 52  1  0  0  0
 40 53  2  0  0  0
 40 58  1  0  0  0
 41109  1  0  0  0
 41110  1  0  0  0
 41111  1  0  0  0
 41 48  1  0  0  0
 42 43  1  0  0  0
 42 66  1  0  0  0
 42112  1  0  0  0
 42113  1  0  0  0
 43 44  1  0  0  0
 44114  1  0  0  0
 45 46  2  0  0  0
 45115  1  0  0  0
 46116  1  0  0  0
 47117  1  0  0  0
 47118  1  0  0  0
 48 56  1  0  0  0
 48 65  1  0  0  0
 48119  1  0  0  0
 49 50  1  0  0  0
 49 53  1  0  0  0
 49 64  1  0  0  0
 49120  1  0  0  0
 50 51  1  0  0  0
 50121  1  0  0  0
 50122  1  0  0  0
 51 52  1  0  0  0
 51123  1  0  0  0
 51124  1  0  0  0
 52125  1  0  0  0
 52126  1  0  0  0
 53 54  1  0  0  0
 54 55  2  0  0  0
 54127  1  0  0  0
 55 57  1  0  0  0
 55128  1  0  0  0
 56 69  2  0  0  0
 57 58  2  0  0  0
 57129  1  0  0  0
 58130  1  0  0  0
 59 60  1  0  0  0
 59 61  1  0  0  0
 59 62  1  0  0  0
 60131  1  0  0  0
 60132  1  0  0  0
 60133  1  0  0  0
 61134  1  0  0  0
 61135  1  0  0  0
 61136  1  0  0  0
 62137  1  0  0  0
 62138  1  0  0  0
 62139  1  0  0  0
 63 65  1  0  0  0
 63140  1  0  0  0
 63141  1  0  0  0
 63142  1  0  0  0
 64143  1  0  0  0
 65144  1  0  0  0
 68 80  1  0  0  0
 71 72  2  0  0  0
 71 74  1  0  0  0
 71145  1  0  0  0
 72 76  1  0  0  0
 72146  1  0  0  0
 73 75  1  0  0  0
 73 76  2  0  0  0
 73147  1  0  0  0
 74 75  2  0  0  0
 74 82  1  0  0  0
 75 81  1  0  0  0
 76 84  1  0  0  0
 77 80  1  0  0  0
 77 83  1  0  0  0
 77 85  2  0  0  0
 78 79  1  0  0  0
 78 80  1  0  0  0
 78148  1  0  0  0
 78149  1  0  0  0
 79 83  1  0  0  0
 79150  1  0  0  0
 79151  1  0  0  0
 80152  1  0  0  0
 81153  1  0  0  0
 81154  1  0  0  0
 81155  1  0  0  0
 82 83  1  0  0  0
 82156  1  0  0  0
 82157  1  0  0  0
 84158  1  0  0  0
M  ISO  4   1 100  68 101  80 101  84 100
M  END
> <chiral flag>
0

> <version>
0

> <s_m_source_file>
/data/baiqing/PycharmProjects/Reinvent-master-3.2/result/LINK_invent/BTK/process_docking_weight1_custom_product_contain_oxygen_bond_distance_aromatic_linkinvent_7_9_3/rearranged_h_0009.sdf

> <i_m_source_file_index>
24

> <r_mmod_Potential_Energy-OPLS-2005>
141.611526489258

> <r_mmod_Stretch_Energy-OPLS-2005>
86.5821380615234

> <r_mmod_Bend_Energy-OPLS-2005>
183.970840454102

> <r_mmod_Torsional_Energy-OPLS-2005>
257.399993896484

> <r_mmod_Improper_Torsional_Energy-OPLS-2005>
6.40034914016724

> <r_mmod_Van_der_Waal_Energy-OPLS-2005>
130.965438842773

> <r_mmod_Electrostatic_Energy-OPLS-2005>
-353.833984375

> <r_mmod_Solvation_Energy-OPLS-2005>
-227.386978149414

> <b_mmod_Minimization_Converged-OPLS-2005>
0

> <r_mmod_RMS_Derivative-OPLS-2005>
1.07799279689789

$$$$
24
                    3D
 Structure written by MMmdl.
151159  0  0  1  0            999 V2000
  -30.4850  -15.1448   20.3865 C   0  0  0  0  0  0
  -30.4204  -12.7184   19.5199 C   0  0  0  0  0  0
  -29.5167  -12.5559   18.2747 C   0  0  0  0  0  0
  -28.0605  -12.3014   18.6992 C   0  0  0  0  0  0
  -27.6078  -13.2682   19.8241 C   0  0  2  0  0  0
  -28.6430  -13.4007   20.9603 C   0  0  0  0  0  0
  -25.2365  -13.8264   20.5731 C   0  0  0  0  0  0
  -24.1710  -13.0446   20.9223 C   0  0  0  0  0  0
  -24.6365  -11.6943   20.8758 C   0  0  0  0  0  0
  -23.9074  -10.4301   21.0406 C   0  0  0  0  0  0
  -24.3620   -9.4220   21.9181 C   0  0  0  0  0  0
  -23.6289   -8.2255   22.0759 C   0  0  0  0  0  0
  -22.4276   -8.0292   21.3551 C   0  0  0  0  0  0
  -21.9914   -9.0265   20.4653 C   0  0  0  0  0  0
  -22.7246  -10.2137   20.3059 C   0  0  0  0  0  0
  -21.6849   -6.0735   22.5279 C   0  0  0  0  0  0
  -21.4010   -6.5641   23.8210 C   0  0  0  0  0  0
  -21.3648   -5.6796   24.9168 C   0  0  0  0  0  0
  -21.6038   -4.3055   24.7227 C   0  0  0  0  0  0
  -21.8820   -3.8151   23.4354 C   0  0  0  0  0  0
  -21.9192   -4.6968   22.3403 C   0  0  0  0  0  0
  -22.7738  -13.5204   21.1886 C   0  0  0  0  0  0
  -22.1656   -4.2146   21.0981 F   0  0  0  0  0  0
  -21.5625   -3.4541   25.7744 F   0  0  0  0  0  0
  -29.8864  -13.8652   20.3335 N   0  0  0  0  0  0
  -26.2772  -12.9519   20.3218 N   0  0  0  0  0  0
  -25.9296  -11.6628   20.5747 N   0  0  0  0  0  0
  -22.0410  -12.8182   22.0460 N   0  0  0  0  0  0
  -25.4048  -15.2003   20.4204 N   0  0  0  0  0  0
  -31.7048  -15.1255   20.1636 O   0  0  0  0  0  0
  -21.6639   -6.8886   21.4249 O   0  0  0  0  0  0
  -22.3409  -14.5507   20.6736 O   0  0  0  0  0  0
  -24.6562  -31.8279   23.1753 C   0  0  0  0  0  0
  -25.9257  -32.4599   23.8201 C   0  0  1  0  0  0
  -27.2120  -26.9938   20.1677 C   0  0  0  0  0  0
  -25.5934  -33.8416   24.2102 N   0  0  0  0  0  0
  -23.4691  -30.4413   21.5226 C   0  0  2  0  0  0
  -24.9206  -28.8432   20.1068 C   0  0  0  0  0  0
  -22.7652  -29.4445   22.4785 C   0  0  0  0  0  0
  -18.0328  -28.1405   22.8481 C   0  0  0  0  0  0
  -24.1474  -36.7212   23.2660 C   0  0  0  0  0  0
  -26.0344  -30.6510   21.4013 C   0  0  0  0  0  0
  -26.0991  -29.2496   20.7426 C   0  0  0  0  0  0
  -27.2414  -28.3416   20.7561 C   0  0  0  0  0  0
  -26.0109  -26.7274   19.4751 C   0  0  0  0  0  0
  -24.8969  -27.6010   19.4542 C   0  0  0  0  0  0
  -23.7050  -29.7641   20.1454 C   0  0  0  0  0  0
  -25.4116  -36.2975   24.0314 C   0  0  1  0  0  0
  -20.5952  -28.3739   23.1199 C   0  0  2  0  0  0
  -20.6797  -26.9421   22.5414 C   0  0  0  0  0  0
  -19.5761  -26.6379   21.5227 C   0  0  0  0  0  0
  -18.1949  -26.7933   22.1640 C   0  0  0  0  0  0
  -19.1594  -28.8895   23.2823 C   0  0  0  0  0  0
  -18.9499  -30.1490   23.8848 C   0  0  0  0  0  0
  -17.6498  -30.6597   24.0566 C   0  0  0  0  0  0
  -25.9085  -34.9352   23.5034 C   0  0  0  0  0  0
  -16.5386  -29.9086   23.6347 C   0  0  0  0  0  0
  -16.7313  -28.6515   23.0352 C   0  0  0  0  0  0
  -26.4538  -31.6534   25.0716 C   0  0  0  0  0  0
  -25.3686  -31.3745   26.1387 C   0  0  0  0  0  0
  -27.0440  -30.2906   24.6427 C   0  0  0  0  0  0
  -27.6048  -32.4341   25.7484 C   0  0  0  0  0  0
  -27.5553  -37.1759   24.8491 C   0  0  0  0  0  0
  -21.4332  -29.3027   22.3542 N   0  0  0  0  0  0
  -26.4265  -37.3700   23.9422 N   0  0  0  0  0  0
  -24.7404  -30.9991   22.0867 N   0  0  0  0  0  0
  -23.4229  -28.7999   23.2990 O   0  0  0  0  0  0
  -28.2188  -25.9210   20.2682 O   0  0  0  0  0  0
  -26.5731  -34.8884   22.4650 O   0  0  0  0  0  0
  -23.5637  -32.1233   23.6864 O   0  0  0  0  0  0
  -28.6325  -21.2942   19.7421 C   0  0  0  0  0  0
  -28.9143  -18.7389   19.0984 C   0  0  0  0  0  0
  -29.6148  -19.1480   21.2699 C   0  0  0  0  0  0
  -29.8970  -17.4220   19.1900 C   0  0  0  0  0  0
  -29.4903  -17.4664   21.4399 C   0  0  0  0  0  0
  -28.7484  -22.8375   20.4733 C   0  0  0  0  0  0
  -28.0013  -24.3501   19.9336 C   0  0  0  0  0  0
  -29.0604  -19.9120   20.0659 N   0  0  0  0  0  0
  -29.7599  -16.4290   20.3268 N   0  0  0  0  0  0
  -28.0650  -21.3973   18.6513 O   0  0  0  0  0  0
  -31.4510  -12.8838   19.2037 H   0  0  0  0  0  0
  -30.4378  -11.7992   20.1087 H   0  0  0  0  0  0
  -29.8734  -11.7431   17.6413 H   0  0  0  0  0  0
  -29.5631  -13.4641   17.6729 H   0  0  0  0  0  0
  -27.9938  -11.2714   19.0506 H   0  0  0  0  0  0
  -27.3943  -12.3731   17.8382 H   0  0  0  0  0  0
  -27.5369  -14.2455   19.3430 H   0  0  0  0  0  0
  -28.7805  -12.4562   21.4896 H   0  0  0  0  0  0
  -28.3068  -14.1298   21.6989 H   0  0  0  0  0  0
  -25.2761   -9.5693   22.4767 H   0  0  0  0  0  0
  -23.9987   -7.4660   22.7495 H   0  0  0  0  0  0
  -21.0836   -8.8794   19.8972 H   0  0  0  0  0  0
  -22.3700  -10.9678   19.6179 H   0  0  0  0  0  0
  -21.1999   -7.6144   23.9714 H   0  0  0  0  0  0
  -21.1454   -6.0520   25.9071 H   0  0  0  0  0  0
  -22.0605   -2.7613   23.2856 H   0  0  0  0  0  0
  -22.4039  -11.9831   22.4811 H   0  0  0  0  0  0
  -21.1057  -13.1237   22.2736 H   0  0  0  0  0  0
  -24.6446  -15.8591   20.5459 H   0  0  0  0  0  0
  -26.2667  -15.6443   20.1304 H   0  0  0  0  0  0
  -26.7308  -32.5141   23.0904 H   0  0  0  0  0  0
  -24.9943  -33.9509   25.0155 H   0  0  0  0  0  0
  -22.7783  -31.2707   21.3558 H   0  0  0  0  0  0
  -23.3755  -35.9523   23.3296 H   0  0  0  0  0  0
  -24.3545  -36.8905   22.2084 H   0  0  0  0  0  0
  -23.7231  -37.6385   23.6750 H   0  0  0  0  0  0
  -26.2125  -31.3924   20.6219 H   0  0  0  0  0  0
  -26.8946  -30.6988   22.0565 H   0  0  0  0  0  0
  -28.1318  -28.6446   21.2890 H   0  0  0  0  0  0
  -25.8936  -25.7818   18.9669 H   0  0  0  0  0  0
  -24.0012  -27.2880   18.9347 H   0  0  0  0  0  0
  -23.8585  -30.5362   19.3907 H   0  0  0  0  0  0
  -22.8172  -29.2149   19.8268 H   0  0  0  0  0  0
  -25.1299  -36.1774   25.0802 H   0  0  0  0  0  0
  -21.0039  -28.3343   24.1324 H   0  0  0  0  0  0
  -20.5695  -26.2353   23.3655 H   0  0  0  0  0  0
  -21.6645  -26.7397   22.1207 H   0  0  0  0  0  0
  -19.6920  -25.6281   21.1277 H   0  0  0  0  0  0
  -19.6696  -27.3166   20.6740 H   0  0  0  0  0  0
  -17.4216  -26.6699   21.4047 H   0  0  0  0  0  0
  -18.0322  -26.0081   22.9042 H   0  0  0  0  0  0
  -19.7978  -30.7326   24.2189 H   0  0  0  0  0  0
  -17.5048  -31.6270   24.5181 H   0  0  0  0  0  0
  -15.5384  -30.2970   23.7705 H   0  0  0  0  0  0
  -15.8719  -28.0840   22.7055 H   0  0  0  0  0  0
  -24.5848  -30.7135   25.7675 H   0  0  0  0  0  0
  -24.8902  -32.2926   26.4786 H   0  0  0  0  0  0
  -25.7911  -30.8905   27.0200 H   0  0  0  0  0  0
  -26.3101  -29.6574   24.1430 H   0  0  0  0  0  0
  -27.3981  -29.7269   25.5071 H   0  0  0  0  0  0
  -27.9031  -30.4106   23.9828 H   0  0  0  0  0  0
  -27.2658  -33.3727   26.1868 H   0  0  0  0  0  0
  -28.3916  -32.6760   25.0332 H   0  0  0  0  0  0
  -28.0632  -31.8599   26.5543 H   0  0  0  0  0  0
  -28.2573  -38.0045   24.7479 H   0  0  0  0  0  0
  -28.1038  -36.2568   24.6370 H   0  0  0  0  0  0
  -27.2270  -37.1466   25.8895 H   0  0  0  0  0  0
  -20.9575  -29.8765   21.6721 H   0  0  0  0  0  0
  -26.0124  -38.2763   24.1416 H   0  0  0  0  0  0
  -27.8723  -18.4144   19.1242 H   0  0  0  0  0  0
  -29.0581  -19.1363   18.0925 H   0  0  0  0  0  0
  -30.6762  -19.3991   21.3163 H   0  0  0  0  0  0
  -29.1818  -19.6079   22.1593 H   0  0  0  0  0  0
  -30.9364  -17.7505   19.1447 H   0  0  0  0  0  0
  -29.7429  -16.8474   18.2747 H   0  0  0  0  0  0
  -28.4640  -17.2643   21.7531 H   0  0  0  0  0  0
  -30.0921  -17.1802   22.3038 H   0  0  0  0  0  0
  -29.8197  -23.0281   20.5219 H   0  0  0  0  0  0
  -28.4502  -22.6875   21.5110 H   0  0  0  0  0  0
  -26.9406  -24.1791   20.1165 H   0  0  0  0  0  0
  -28.0883  -24.3239   18.8471 H   0  0  0  0  0  0
  1 25  1  0  0  0
  1 30  2  0  0  0
  1 79  1  0  0  0
  2  3  1  0  0  0
  2 25  1  0  0  0
  2 81  1  0  0  0
  2 82  1  0  0  0
  3  4  1  0  0  0
  3 83  1  0  0  0
  3 84  1  0  0  0
  4  5  1  0  0  0
  4 85  1  0  0  0
  4 86  1  0  0  0
  5  6  1  0  0  0
  5 26  1  0  0  0
  5 87  1  0  0  0
  6 25  1  0  0  0
  6 88  1  0  0  0
  6 89  1  0  0  0
  7  8  2  0  0  0
  7 26  1  0  0  0
  7 29  1  0  0  0
  8  9  1  0  0  0
  8 22  1  0  0  0
  9 10  1  0  0  0
  9 27  2  0  0  0
 10 11  2  0  0  0
 10 15  1  0  0  0
 11 12  1  0  0  0
 11 90  1  0  0  0
 12 13  2  0  0  0
 12 91  1  0  0  0
 13 14  1  0  0  0
 13 31  1  0  0  0
 14 15  2  0  0  0
 14 92  1  0  0  0
 15 93  1  0  0  0
 16 17  2  0  0  0
 16 21  1  0  0  0
 16 31  1  0  0  0
 17 18  1  0  0  0
 17 94  1  0  0  0
 18 19  2  0  0  0
 18 95  1  0  0  0
 19 20  1  0  0  0
 19 24  1  0  0  0
 20 21  2  0  0  0
 20 96  1  0  0  0
 21 23  1  0  0  0
 22 28  1  0  0  0
 22 32  2  0  0  0
 26 27  1  0  0  0
 28 97  1  0  0  0
 28 98  1  0  0  0
 29 99  1  0  0  0
 29100  1  0  0  0
 33 34  1  0  0  0
 33 66  1  0  0  0
 33 70  2  0  0  0
 34 36  1  0  0  0
 34 59  1  0  0  0
 34101  1  0  0  0
 35 44  2  0  0  0
 35 45  1  0  0  0
 35 68  1  0  0  0
 36 56  1  0  0  0
 36102  1  0  0  0
 37 39  1  0  0  0
 37 47  1  0  0  0
 37 66  1  0  0  0
 37103  1  0  0  0
 38 43  2  0  0  0
 38 46  1  0  0  0
 38 47  1  0  0  0
 39 64  1  0  0  0
 39 67  2  0  0  0
 40 52  1  0  0  0
 40 53  2  0  0  0
 40 58  1  0  0  0
 41104  1  0  0  0
 41105  1  0  0  0
 41106  1  0  0  0
 41 48  1  0  0  0
 42 43  1  0  0  0
 42 66  1  0  0  0
 42107  1  0  0  0
 42108  1  0  0  0
 43 44  1  0  0  0
 44109  1  0  0  0
 45 46  2  0  0  0
 45110  1  0  0  0
 46111  1  0  0  0
 47112  1  0  0  0
 47113  1  0  0  0
 48 56  1  0  0  0
 48 65  1  0  0  0
 48114  1  0  0  0
 49 50  1  0  0  0
 49 53  1  0  0  0
 49 64  1  0  0  0
 49115  1  0  0  0
 50 51  1  0  0  0
 50116  1  0  0  0
 50117  1  0  0  0
 51 52  1  0  0  0
 51118  1  0  0  0
 51119  1  0  0  0
 52120  1  0  0  0
 52121  1  0  0  0
 53 54  1  0  0  0
 54 55  2  0  0  0
 54122  1  0  0  0
 55 57  1  0  0  0
 55123  1  0  0  0
 56 69  2  0  0  0
 57 58  2  0  0  0
 57124  1  0  0  0
 58125  1  0  0  0
 59 60  1  0  0  0
 59 61  1  0  0  0
 59 62  1  0  0  0
 60126  1  0  0  0
 60127  1  0  0  0
 60128  1  0  0  0
 61129  1  0  0  0
 61130  1  0  0  0
 61131  1  0  0  0
 62132  1  0  0  0
 62133  1  0  0  0
 62134  1  0  0  0
 63 65  1  0  0  0
 63135  1  0  0  0
 63136  1  0  0  0
 63137  1  0  0  0
 64138  1  0  0  0
 65139  1  0  0  0
 68 77  1  0  0  0
 71 76  1  0  0  0
 71 78  1  0  0  0
 71 80  2  0  0  0
 72 74  1  0  0  0
 72 78  1  0  0  0
 72140  1  0  0  0
 72141  1  0  0  0
 73 75  1  0  0  0
 73 78  1  0  0  0
 73142  1  0  0  0
 73143  1  0  0  0
 74 79  1  0  0  0
 74144  1  0  0  0
 74145  1  0  0  0
 75 79  1  0  0  0
 75146  1  0  0  0
 75147  1  0  0  0
 76 77  1  0  0  0
 76148  1  0  0  0
 76149  1  0  0  0
 77150  1  0  0  0
 77151  1  0  0  0
M  ISO  4   1 100  68 101  77 101  79 100
M  END
> <chiral flag>
0

> <version>
0

> <s_m_source_file>
/data/baiqing/PycharmProjects/Reinvent-master-3.2/result/LINK_invent/BTK/process_docking_weight1_custom_product_contain_oxygen_bond_distance_aromatic_linkinvent_7_9_3/rearranged_h_0009.sdf

> <i_m_source_file_index>
25

> <r_mmod_Potential_Energy-OPLS-2005>
1206.60302734375

> <r_mmod_Stretch_Energy-OPLS-2005>
432.200531005859

> <r_mmod_Bend_Energy-OPLS-2005>
427.795440673828

> <r_mmod_Torsional_Energy-OPLS-2005>
386.406799316406

> <r_mmod_Improper_Torsional_Energy-OPLS-2005>
13.2422733306885

> <r_mmod_Van_der_Waal_Energy-OPLS-2005>
124.042320251465

> <r_mmod_Electrostatic_Energy-OPLS-2005>
-301.777465820312

> <r_mmod_Solvation_Energy-OPLS-2005>
-228.599227905273

> <b_mmod_Minimization_Converged-OPLS-2005>
0

> <r_mmod_RMS_Derivative-OPLS-2005>
2.2428719997406

$$$$
25
                    3D
 Structure written by MMmdl.
156164  0  0  1  0            999 V2000
  -30.6096  -14.6386   20.5221 C   0  0  0  0  0  0
  -30.4490  -12.4003   19.4486 C   0  0  0  0  0  0
  -29.5079  -12.4977   18.2256 C   0  0  0  0  0  0
  -28.0302  -12.3386   18.6394 C   0  0  0  0  0  0
  -27.6584  -13.2090   19.8687 C   0  0  2  0  0  0
  -28.7020  -13.0441   20.9970 C   0  0  0  0  0  0
  -25.2604  -13.8156   20.5688 C   0  0  0  0  0  0
  -24.1847  -13.0442   20.9195 C   0  0  0  0  0  0
  -24.6397  -11.6908   20.8752 C   0  0  0  0  0  0
  -23.9043  -10.4301   21.0425 C   0  0  0  0  0  0
  -24.3615   -9.4210   21.9183 C   0  0  0  0  0  0
  -23.6304   -8.2238   22.0736 C   0  0  0  0  0  0
  -22.4262   -8.0294   21.3551 C   0  0  0  0  0  0
  -21.9917   -9.0255   20.4629 C   0  0  0  0  0  0
  -22.7239  -10.2139   20.3047 C   0  0  0  0  0  0
  -21.6854   -6.0740   22.5282 C   0  0  0  0  0  0
  -21.4007   -6.5647   23.8222 C   0  0  0  0  0  0
  -21.3654   -5.6796   24.9190 C   0  0  0  0  0  0
  -21.6037   -4.3055   24.7234 C   0  0  0  0  0  0
  -21.8833   -3.8152   23.4356 C   0  0  0  0  0  0
  -21.9209   -4.6967   22.3412 C   0  0  0  0  0  0
  -22.7882  -13.5262   21.1886 C   0  0  0  0  0  0
  -22.1677   -4.2161   21.0984 F   0  0  0  0  0  0
  -21.5631   -3.4534   25.7748 F   0  0  0  0  0  0
  -30.0176  -13.4047   20.4422 N   0  0  0  0  0  0
  -26.3020  -12.9320   20.3351 N   0  0  0  0  0  0
  -25.9329  -11.6474   20.5777 N   0  0  0  0  0  0
  -22.0515  -12.8239   22.0409 N   0  0  0  0  0  0
  -25.4385  -15.1862   20.4025 N   0  0  0  0  0  0
  -31.7556  -14.8300   20.1022 O   0  0  0  0  0  0
  -21.6648   -6.8881   21.4232 O   0  0  0  0  0  0
  -22.3597  -14.5588   20.6767 O   0  0  0  0  0  0
  -24.6184  -31.8605   23.2018 C   0  0  0  0  0  0
  -25.9023  -32.4816   23.8328 C   0  0  1  0  0  0
  -27.2398  -27.3587   20.1260 C   0  0  0  0  0  0
  -25.5816  -33.8610   24.2244 N   0  0  0  0  0  0
  -23.4111  -30.4850   21.5410 C   0  0  2  0  0  0
  -24.8649  -28.9343   20.1179 C   0  0  0  0  0  0
  -22.7432  -29.4638   22.4913 C   0  0  0  0  0  0
  -18.0291  -28.1427   22.8524 C   0  0  0  0  0  0
  -24.1446  -36.7283   23.2656 C   0  0  0  0  0  0
  -25.9471  -30.8080   21.3608 C   0  0  0  0  0  0
  -26.0272  -29.4331   20.7155 C   0  0  0  0  0  0
  -27.2194  -28.6580   20.7075 C   0  0  0  0  0  0
  -26.0527  -26.8870   19.5245 C   0  0  0  0  0  0
  -24.8742  -27.6643   19.5146 C   0  0  0  0  0  0
  -23.6299  -29.8135   20.1577 C   0  0  0  0  0  0
  -25.4079  -36.3107   24.0340 C   0  0  1  0  0  0
  -20.5889  -28.3673   23.1326 C   0  0  2  0  0  0
  -20.6762  -26.9394   22.5444 C   0  0  0  0  0  0
  -19.5721  -26.6394   21.5263 C   0  0  0  0  0  0
  -18.1906  -26.7980   22.1654 C   0  0  0  0  0  0
  -19.1555  -28.8854   23.2949 C   0  0  0  0  0  0
  -18.9486  -30.1469   23.8918 C   0  0  0  0  0  0
  -17.6489  -30.6623   24.0581 C   0  0  0  0  0  0
  -25.9028  -34.9488   23.5106 C   0  0  0  0  0  0
  -16.5372  -29.9146   23.6340 C   0  0  0  0  0  0
  -16.7279  -28.6567   23.0374 C   0  0  0  0  0  0
  -26.4445  -31.6626   25.0699 C   0  0  0  0  0  0
  -25.3710  -31.3754   26.1451 C   0  0  0  0  0  0
  -27.0259  -30.3060   24.6089 C   0  0  0  0  0  0
  -27.5983  -32.4380   25.7488 C   0  0  0  0  0  0
  -27.5549  -37.1789   24.8485 C   0  0  0  0  0  0
  -21.4157  -29.3033   22.3703 N   0  0  0  0  0  0
  -26.4244  -37.3800   23.9474 N   0  0  0  0  0  0
  -24.6775  -31.0664   22.0925 N   0  0  0  0  0  0
  -23.4231  -28.8182   23.2929 O   0  0  0  0  0  0
  -28.3873  -26.5683   20.1035 O   0  0  0  0  0  0
  -26.5654  -34.8961   22.4716 O   0  0  0  0  0  0
  -23.5353  -32.1336   23.7376 O   0  0  0  0  0  0
  -28.4387  -19.1905   21.0336 C   0  0  0  0  0  0
  -30.4784  -19.2481   19.7668 C   0  0  0  0  0  0
  -28.6527  -17.8059   21.2986 C   0  0  0  0  0  0
  -30.6806  -17.8526   20.0078 C   0  0  0  0  0  0
  -29.3402  -19.9593   20.2508 C   0  0  0  0  0  0
  -29.7567  -17.0871   20.7676 C   0  0  0  0  0  0
  -27.8941  -22.4217   21.7272 C   0  0  0  0  0  0
  -29.0007  -21.4158   19.7288 C   0  0  0  0  0  0
  -28.6632  -23.9531   19.8977 C   0  0  0  0  0  0
  -28.3417  -25.2531   20.7589 C   0  0  0  0  0  0
  -29.8084  -15.6415   20.9958 N   0  0  0  0  0  0
  -28.8830  -22.6296   20.6417 N   0  3  1  0  0  0
  -31.4840  -12.5502   19.1358 H   0  0  0  0  0  0
  -30.4136  -11.4007   19.8864 H   0  0  0  0  0  0
  -29.7654  -11.7315   17.4923 H   0  0  0  0  0  0
  -29.6490  -13.4584   17.7307 H   0  0  0  0  0  0
  -27.8664  -11.2846   18.8722 H   0  0  0  0  0  0
  -27.3740  -12.5695   17.7962 H   0  0  0  0  0  0
  -27.6809  -14.2474   19.5319 H   0  0  0  0  0  0
  -28.7220  -12.0142   21.3551 H   0  0  0  0  0  0
  -28.4431  -13.6508   21.8650 H   0  0  0  0  0  0
  -25.2754   -9.5725   22.4761 H   0  0  0  0  0  0
  -24.0040   -7.4638   22.7451 H   0  0  0  0  0  0
  -21.0859   -8.8761   19.8932 H   0  0  0  0  0  0
  -22.3687  -10.9678   19.6163 H   0  0  0  0  0  0
  -21.1966   -7.6159   23.9736 H   0  0  0  0  0  0
  -21.1456   -6.0519   25.9102 H   0  0  0  0  0  0
  -22.0606   -2.7609   23.2854 H   0  0  0  0  0  0
  -22.4120  -11.9881   22.4771 H   0  0  0  0  0  0
  -21.1126  -13.1237   22.2590 H   0  0  0  0  0  0
  -24.6722  -15.8455   20.4867 H   0  0  0  0  0  0
  -26.2883  -15.6075   20.0489 H   0  0  0  0  0  0
  -26.7096  -32.5498   23.1090 H   0  0  0  0  0  0
  -24.9874  -33.9743   25.0317 H   0  0  0  0  0  0
  -22.7016  -31.3020   21.3946 H   0  0  0  0  0  0
  -23.3728  -35.9595   23.3349 H   0  0  0  0  0  0
  -24.3504  -36.8867   22.2069 H   0  0  0  0  0  0
  -23.7198  -37.6485   23.6658 H   0  0  0  0  0  0
  -26.0604  -31.5662   20.5828 H   0  0  0  0  0  0
  -26.8344  -30.8720   21.9768 H   0  0  0  0  0  0
  -28.1144  -29.0445   21.1734 H   0  0  0  0  0  0
  -26.0322  -25.9135   19.0596 H   0  0  0  0  0  0
  -23.9778  -27.2749   19.0504 H   0  0  0  0  0  0
  -23.7476  -30.5860   19.3961 H   0  0  0  0  0  0
  -22.7512  -29.2450   19.8517 H   0  0  0  0  0  0
  -25.1270  -36.1928   25.0824 H   0  0  0  0  0  0
  -21.0008  -28.3227   24.1428 H   0  0  0  0  0  0
  -20.5670  -26.2246   23.3610 H   0  0  0  0  0  0
  -21.6620  -26.7424   22.1197 H   0  0  0  0  0  0
  -19.6841  -25.6318   21.1248 H   0  0  0  0  0  0
  -19.6671  -27.3248   20.6839 H   0  0  0  0  0  0
  -17.4160  -26.6774   21.4064 H   0  0  0  0  0  0
  -18.0255  -26.0149   22.9058 H   0  0  0  0  0  0
  -19.7968  -30.7305   24.2269 H   0  0  0  0  0  0
  -17.5063  -31.6316   24.5183 H   0  0  0  0  0  0
  -15.5383  -30.3075   23.7660 H   0  0  0  0  0  0
  -15.8677  -28.0914   22.7062 H   0  0  0  0  0  0
  -24.5865  -30.7105   25.7813 H   0  0  0  0  0  0
  -24.8921  -32.2926   26.4890 H   0  0  0  0  0  0
  -25.8057  -30.8950   27.0213 H   0  0  0  0  0  0
  -26.2783  -29.6846   24.1144 H   0  0  0  0  0  0
  -27.4051  -29.7283   25.4516 H   0  0  0  0  0  0
  -27.8603  -30.4396   23.9204 H   0  0  0  0  0  0
  -27.2540  -33.3680   26.2037 H   0  0  0  0  0  0
  -28.3811  -32.6955   25.0340 H   0  0  0  0  0  0
  -28.0621  -31.8537   26.5446 H   0  0  0  0  0  0
  -28.2594  -38.0065   24.7515 H   0  0  0  0  0  0
  -28.1001  -36.2590   24.6300 H   0  0  0  0  0  0
  -27.2257  -37.1442   25.8882 H   0  0  0  0  0  0
  -20.9286  -29.8744   21.6934 H   0  0  0  0  0  0
  -26.0113  -38.2842   24.1536 H   0  0  0  0  0  0
  -27.5244  -19.6367   21.3956 H   0  0  0  0  0  0
  -31.1887  -19.7608   19.1301 H   0  0  0  0  0  0
  -27.9058  -17.2896   21.8855 H   0  0  0  0  0  0
  -31.5433  -17.3755   19.5598 H   0  0  0  0  0  0
  -28.1332  -21.5431   22.3225 H   0  0  0  0  0  0
  -26.8888  -22.3109   21.3164 H   0  0  0  0  0  0
  -27.8799  -23.2441   22.4386 H   0  0  0  0  0  0
  -28.0596  -21.3344   19.1827 H   0  0  0  0  0  0
  -29.7423  -21.6674   18.9689 H   0  0  0  0  0  0
  -29.5555  -24.1510   19.3011 H   0  0  0  0  0  0
  -27.8563  -23.8224   19.1737 H   0  0  0  0  0  0
  -29.0734  -25.3128   21.5657 H   0  0  0  0  0  0
  -27.3765  -25.1348   21.2569 H   0  0  0  0  0  0
  -28.9776  -15.2753   21.4325 H   0  0  0  0  0  0
  -29.7814  -22.7114   21.0949 H   0  0  0  0  0  0
  1 25  1  0  0  0
  1 30  2  0  0  0
  1 81  1  0  0  0
  2  3  1  0  0  0
  2 25  1  0  0  0
  2 83  1  0  0  0
  2 84  1  0  0  0
  3  4  1  0  0  0
  3 85  1  0  0  0
  3 86  1  0  0  0
  4  5  1  0  0  0
  4 87  1  0  0  0
  4 88  1  0  0  0
  5  6  1  0  0  0
  5 26  1  0  0  0
  5 89  1  0  0  0
  6 25  1  0  0  0
  6 90  1  0  0  0
  6 91  1  0  0  0
  7  8  2  0  0  0
  7 26  1  0  0  0
  7 29  1  0  0  0
  8  9  1  0  0  0
  8 22  1  0  0  0
  9 10  1  0  0  0
  9 27  2  0  0  0
 10 11  2  0  0  0
 10 15  1  0  0  0
 11 12  1  0  0  0
 11 92  1  0  0  0
 12 13  2  0  0  0
 12 93  1  0  0  0
 13 14  1  0  0  0
 13 31  1  0  0  0
 14 15  2  0  0  0
 14 94  1  0  0  0
 15 95  1  0  0  0
 16 17  2  0  0  0
 16 21  1  0  0  0
 16 31  1  0  0  0
 17 18  1  0  0  0
 17 96  1  0  0  0
 18 19  2  0  0  0
 18 97  1  0  0  0
 19 20  1  0  0  0
 19 24  1  0  0  0
 20 21  2  0  0  0
 20 98  1  0  0  0
 21 23  1  0  0  0
 22 28  1  0  0  0
 22 32  2  0  0  0
 26 27  1  0  0  0
 28 99  1  0  0  0
 28100  1  0  0  0
 29101  1  0  0  0
 29102  1  0  0  0
 33 34  1  0  0  0
 33 66  1  0  0  0
 33 70  2  0  0  0
 34 36  1  0  0  0
 34 59  1  0  0  0
 34103  1  0  0  0
 35 44  2  0  0  0
 35 45  1  0  0  0
 35 68  1  0  0  0
 36 56  1  0  0  0
 36104  1  0  0  0
 37 39  1  0  0  0
 37 47  1  0  0  0
 37 66  1  0  0  0
 37105  1  0  0  0
 38 43  2  0  0  0
 38 46  1  0  0  0
 38 47  1  0  0  0
 39 64  1  0  0  0
 39 67  2  0  0  0
 40 52  1  0  0  0
 40 53  2  0  0  0
 40 58  1  0  0  0
 41106  1  0  0  0
 41107  1  0  0  0
 41108  1  0  0  0
 41 48  1  0  0  0
 42 43  1  0  0  0
 42 66  1  0  0  0
 42109  1  0  0  0
 42110  1  0  0  0
 43 44  1  0  0  0
 44111  1  0  0  0
 45 46  2  0  0  0
 45112  1  0  0  0
 46113  1  0  0  0
 47114  1  0  0  0
 47115  1  0  0  0
 48 56  1  0  0  0
 48 65  1  0  0  0
 48116  1  0  0  0
 49 50  1  0  0  0
 49 53  1  0  0  0
 49 64  1  0  0  0
 49117  1  0  0  0
 50 51  1  0  0  0
 50118  1  0  0  0
 50119  1  0  0  0
 51 52  1  0  0  0
 51120  1  0  0  0
 51121  1  0  0  0
 52122  1  0  0  0
 52123  1  0  0  0
 53 54  1  0  0  0
 54 55  2  0  0  0
 54124  1  0  0  0
 55 57  1  0  0  0
 55125  1  0  0  0
 56 69  2  0  0  0
 57 58  2  0  0  0
 57126  1  0  0  0
 58127  1  0  0  0
 59 60  1  0  0  0
 59 61  1  0  0  0
 59 62  1  0  0  0
 60128  1  0  0  0
 60129  1  0  0  0
 60130  1  0  0  0
 61131  1  0  0  0
 61132  1  0  0  0
 61133  1  0  0  0
 62134  1  0  0  0
 62135  1  0  0  0
 62136  1  0  0  0
 63 65  1  0  0  0
 63137  1  0  0  0
 63138  1  0  0  0
 63139  1  0  0  0
 64140  1  0  0  0
 65141  1  0  0  0
 68 80  1  0  0  0
 71 73  2  0  0  0
 71 75  1  0  0  0
 71142  1  0  0  0
 72 74  1  0  0  0
 72 75  2  0  0  0
 72143  1  0  0  0
 73 76  1  0  0  0
 73144  1  0  0  0
 74 76  2  0  0  0
 74145  1  0  0  0
 75 78  1  0  0  0
 76 81  1  0  0  0
 77146  1  0  0  0
 77147  1  0  0  0
 77148  1  0  0  0
 77 82  1  0  0  0
 78 82  1  0  0  0
 78149  1  0  0  0
 78150  1  0  0  0
 79 80  1  0  0  0
 79 82  1  0  0  0
 79151  1  0  0  0
 79152  1  0  0  0
 80153  1  0  0  0
 80154  1  0  0  0
 81155  1  0  0  0
 82156  1  0  0  0
M  CHG  1  82   1
M  ISO  4   1 100  68 101  80 101  81 100
M  END
> <chiral flag>
0

> <version>
0

> <s_m_source_file>
/data/baiqing/PycharmProjects/Reinvent-master-3.2/result/LINK_invent/BTK/process_docking_weight1_custom_product_contain_oxygen_bond_distance_aromatic_linkinvent_7_9_3/rearranged_h_0009.sdf

> <i_m_source_file_index>
26

> <r_mmod_Potential_Energy-OPLS-2005>
-46.2242965698242

> <r_mmod_Stretch_Energy-OPLS-2005>
77.0525512695312

> <r_mmod_Bend_Energy-OPLS-2005>
142.855529785156

> <r_mmod_Torsional_Energy-OPLS-2005>
232.801986694336

> <r_mmod_Improper_Torsional_Energy-OPLS-2005>
4.9382848739624

> <r_mmod_Van_der_Waal_Energy-OPLS-2005>
141.620910644531

> <r_mmod_Electrostatic_Energy-OPLS-2005>
-244.637939453125

> <r_mmod_Solvation_Energy-OPLS-2005>
-439.630676269531

> <b_mmod_Minimization_Converged-OPLS-2005>
0

> <r_mmod_RMS_Derivative-OPLS-2005>
4.94676208496094

$$$$
26
                    3D
 Structure written by MMmdl.
151159  0  0  1  0            999 V2000
  -30.5694  -14.6346   20.4636 C   0  0  0  0  0  0
  -30.4375  -12.3747   19.4542 C   0  0  0  0  0  0
  -29.5034  -12.4882   18.2269 C   0  0  0  0  0  0
  -28.0206  -12.3476   18.6293 C   0  0  0  0  0  0
  -27.6466  -13.2095   19.8617 C   0  0  2  0  0  0
  -28.6883  -13.0347   20.9889 C   0  0  0  0  0  0
  -25.2482  -13.8115   20.5805 C   0  0  0  0  0  0
  -24.1780  -13.0368   20.9247 C   0  0  0  0  0  0
  -24.6330  -11.6829   20.8724 C   0  0  0  0  0  0
  -23.9007  -10.4242   21.0371 C   0  0  0  0  0  0
  -24.3580   -9.4176   21.9152 C   0  0  0  0  0  0
  -23.6269   -8.2208   22.0714 C   0  0  0  0  0  0
  -22.4250   -8.0239   21.3505 C   0  0  0  0  0  0
  -21.9878   -9.0199   20.4601 C   0  0  0  0  0  0
  -22.7190  -10.2069   20.3005 C   0  0  0  0  0  0
  -21.6840   -6.0697   22.5271 C   0  0  0  0  0  0
  -21.4011   -6.5601   23.8209 C   0  0  0  0  0  0
  -21.3639   -5.6749   24.9170 C   0  0  0  0  0  0
  -21.6057   -4.3019   24.7231 C   0  0  0  0  0  0
  -21.8837   -3.8099   23.4356 C   0  0  0  0  0  0
  -21.9214   -4.6923   22.3407 C   0  0  0  0  0  0
  -22.7798  -13.5147   21.1939 C   0  0  0  0  0  0
  -22.1678   -4.2104   21.0990 F   0  0  0  0  0  0
  -21.5632   -3.4523   25.7754 F   0  0  0  0  0  0
  -30.0054  -13.3882   20.4344 N   0  0  0  0  0  0
  -26.2916  -12.9320   20.3285 N   0  0  0  0  0  0
  -25.9251  -11.6454   20.5682 N   0  0  0  0  0  0
  -22.0432  -12.8121   22.0442 N   0  0  0  0  0  0
  -25.3975  -15.1883   20.4464 N   0  0  0  0  0  0
  -31.7313  -14.8276   20.0909 O   0  0  0  0  0  0
  -21.6613   -6.8837   21.4218 O   0  0  0  0  0  0
  -22.3481  -14.5460   20.6784 O   0  0  0  0  0  0
  -24.6285  -31.8629   23.2024 C   0  0  0  0  0  0
  -25.9139  -32.4787   23.8373 C   0  0  1  0  0  0
  -27.2137  -27.3100   20.1007 C   0  0  0  0  0  0
  -25.5976  -33.8597   24.2301 N   0  0  0  0  0  0
  -23.4203  -30.4892   21.5454 C   0  0  2  0  0  0
  -24.8637  -28.9427   20.1087 C   0  0  0  0  0  0
  -22.7474  -29.4696   22.4962 C   0  0  0  0  0  0
  -18.0308  -28.1248   22.8629 C   0  0  0  0  0  0
  -24.1490  -36.7259   23.2647 C   0  0  0  0  0  0
  -25.9651  -30.7818   21.3832 C   0  0  0  0  0  0
  -26.0340  -29.4114   20.7175 C   0  0  0  0  0  0
  -27.2149  -28.6064   20.7044 C   0  0  0  0  0  0
  -26.0253  -26.9014   19.4588 C   0  0  0  0  0  0
  -24.8628  -27.6954   19.4652 C   0  0  0  0  0  0
  -23.6349  -29.8256   20.1604 C   0  0  0  0  0  0
  -25.4122  -36.3088   24.0351 C   0  0  1  0  0  0
  -20.5932  -28.3679   23.1222 C   0  0  2  0  0  0
  -20.6887  -26.9508   22.5064 C   0  0  0  0  0  0
  -19.5590  -26.6285   21.5187 C   0  0  0  0  0  0
  -18.1963  -26.7679   22.1963 C   0  0  0  0  0  0
  -19.1573  -28.8809   23.2871 C   0  0  0  0  0  0
  -18.9461  -30.1479   23.8762 C   0  0  0  0  0  0
  -17.6458  -30.6606   24.0375 C   0  0  0  0  0  0
  -25.9063  -34.9459   23.5117 C   0  0  0  0  0  0
  -16.5373  -29.9038   23.6248 C   0  0  0  0  0  0
  -16.7298  -28.6355   23.0459 C   0  0  0  0  0  0
  -26.4511  -31.6604   25.0747 C   0  0  0  0  0  0
  -25.3713  -31.3748   26.1438 C   0  0  0  0  0  0
  -27.0381  -30.3025   24.6259 C   0  0  0  0  0  0
  -27.6115  -32.4310   25.7479 C   0  0  0  0  0  0
  -27.5580  -37.1808   24.8484 C   0  0  0  0  0  0
  -21.4187  -29.3152   22.3744 N   0  0  0  0  0  0
  -26.4304  -37.3778   23.9403 N   0  0  0  0  0  0
  -24.6900  -31.0616   22.0994 N   0  0  0  0  0  0
  -23.4217  -28.8182   23.2988 O   0  0  0  0  0  0
  -28.3253  -26.4520   20.0917 O   0  0  0  0  0  0
  -26.5605  -34.8913   22.4669 O   0  0  0  0  0  0
  -23.5450  -32.1452   23.7340 O   0  0  0  0  0  0
  -30.6058  -18.0277   20.5970 C   0  0  0  0  0  0
  -28.2069  -18.8986   19.4724 C   0  0  0  0  0  0
  -29.6223  -17.0407   20.3359 C   0  0  0  0  0  0
  -29.1403  -19.9147   19.8249 C   0  0  0  0  0  0
  -30.3694  -19.4232   20.3653 C   0  0  0  0  0  0
  -28.4266  -17.5135   19.7366 C   0  0  0  0  0  0
  -29.0604  -23.9215   19.7337 C   0  0  0  0  0  0
  -28.1321  -25.0142   20.4414 C   0  0  0  0  0  0
  -29.2747  -22.4355   20.3354 C   0  0  0  0  0  0
  -29.7082  -15.6466   20.7821 N   0  0  0  0  0  0
  -28.8024  -21.2736   19.5527 O   0  0  0  0  0  0
  -31.3692  -20.2841   20.6595 F   0  0  0  0  0  0
  -27.4566  -16.6269   19.4151 F   0  0  0  0  0  0
  -31.4730  -12.5241   19.1477 H   0  0  0  0  0  0
  -30.3957  -11.3772   19.8918 H   0  0  0  0  0  0
  -29.7553  -11.7248   17.4898 H   0  0  0  0  0  0
  -29.6578  -13.4505   17.7354 H   0  0  0  0  0  0
  -27.8379  -11.2939   18.8441 H   0  0  0  0  0  0
  -27.3722  -12.5986   17.7873 H   0  0  0  0  0  0
  -27.6639  -14.2459   19.5281 H   0  0  0  0  0  0
  -28.6892  -12.0028   21.3442 H   0  0  0  0  0  0
  -28.4279  -13.6451   21.8543 H   0  0  0  0  0  0
  -25.2725   -9.5681   22.4714 H   0  0  0  0  0  0
  -23.9995   -7.4608   22.7437 H   0  0  0  0  0  0
  -21.0804   -8.8689   19.8922 H   0  0  0  0  0  0
  -22.3651  -10.9588   19.6103 H   0  0  0  0  0  0
  -21.1970   -7.6103   23.9712 H   0  0  0  0  0  0
  -21.1441   -6.0459   25.9074 H   0  0  0  0  0  0
  -22.0637   -2.7564   23.2869 H   0  0  0  0  0  0
  -22.4102  -11.9799   22.4840 H   0  0  0  0  0  0
  -21.0997  -13.1005   22.2624 H   0  0  0  0  0  0
  -24.6094  -15.8101   20.6039 H   0  0  0  0  0  0
  -26.2187  -15.6712   20.0929 H   0  0  0  0  0  0
  -26.7234  -32.5420   23.1148 H   0  0  0  0  0  0
  -25.0217  -33.9762   25.0508 H   0  0  0  0  0  0
  -22.7166  -31.3125   21.4010 H   0  0  0  0  0  0
  -23.3774  -35.9578   23.3348 H   0  0  0  0  0  0
  -24.3556  -36.8794   22.2048 H   0  0  0  0  0  0
  -23.7202  -37.6471   23.6599 H   0  0  0  0  0  0
  -26.1139  -31.5508   20.6256 H   0  0  0  0  0  0
  -26.8416  -30.8144   22.0183 H   0  0  0  0  0  0
  -28.1130  -28.9684   21.1886 H   0  0  0  0  0  0
  -25.9819  -25.9585   18.9364 H   0  0  0  0  0  0
  -23.9744  -27.3392   18.9596 H   0  0  0  0  0  0
  -23.7532  -30.6013   19.4049 H   0  0  0  0  0  0
  -22.7532  -29.2564   19.8610 H   0  0  0  0  0  0
  -25.1299  -36.1983   25.0851 H   0  0  0  0  0  0
  -21.0077  -28.3091   24.1320 H   0  0  0  0  0  0
  -21.6603  -26.7843   22.0408 H   0  0  0  0  0  0
  -20.6403  -26.2323   23.3285 H   0  0  0  0  0  0
  -19.6734  -25.6154   21.1311 H   0  0  0  0  0  0
  -19.6162  -27.3022   20.6627 H   0  0  0  0  0  0
  -18.0852  -25.9972   22.9615 H   0  0  0  0  0  0
  -17.4004  -26.6003   21.4677 H   0  0  0  0  0  0
  -19.7923  -30.7360   24.2036 H   0  0  0  0  0  0
  -17.4956  -31.6344   24.4800 H   0  0  0  0  0  0
  -15.5364  -30.2950   23.7530 H   0  0  0  0  0  0
  -15.8689  -28.0575   22.7378 H   0  0  0  0  0  0
  -24.5901  -30.7107   25.7692 H   0  0  0  0  0  0
  -24.8915  -32.2938   26.4830 H   0  0  0  0  0  0
  -25.8008  -30.8895   27.0220 H   0  0  0  0  0  0
  -26.3013  -29.6717   24.1279 H   0  0  0  0  0  0
  -27.4056  -29.7312   25.4795 H   0  0  0  0  0  0
  -27.8865  -30.4280   23.9529 H   0  0  0  0  0  0
  -27.2814  -33.3619   26.2096 H   0  0  0  0  0  0
  -28.3909  -32.6861   25.0278 H   0  0  0  0  0  0
  -28.0837  -31.8413   26.5349 H   0  0  0  0  0  0
  -28.2670  -38.0039   24.7488 H   0  0  0  0  0  0
  -28.1034  -36.2590   24.6416 H   0  0  0  0  0  0
  -27.2295  -37.1545   25.8887 H   0  0  0  0  0  0
  -20.9322  -29.9001   21.7082 H   0  0  0  0  0  0
  -26.0203  -38.2869   24.1373 H   0  0  0  0  0  0
  -31.5509  -17.7198   21.0162 H   0  0  0  0  0  0
  -27.2756  -19.1808   19.0055 H   0  0  0  0  0  0
  -30.0428  -24.3913   19.7473 H   0  0  0  0  0  0
  -28.8063  -23.8528   18.6740 H   0  0  0  0  0  0
  -27.0954  -24.6996   20.3392 H   0  0  0  0  0  0
  -28.3207  -24.9651   21.5138 H   0  0  0  0  0  0
  -28.8169  -22.3814   21.3218 H   0  0  0  0  0  0
  -30.3461  -22.3338   20.5237 H   0  0  0  0  0  0
  -28.8304  -15.2850   21.1241 H   0  0  0  0  0  0
  1 25  1  0  0  0
  1 30  2  0  0  0
  1 80  1  0  0  0
  2  3  1  0  0  0
  2 25  1  0  0  0
  2 84  1  0  0  0
  2 85  1  0  0  0
  3  4  1  0  0  0
  3 86  1  0  0  0
  3 87  1  0  0  0
  4  5  1  0  0  0
  4 88  1  0  0  0
  4 89  1  0  0  0
  5  6  1  0  0  0
  5 26  1  0  0  0
  5 90  1  0  0  0
  6 25  1  0  0  0
  6 91  1  0  0  0
  6 92  1  0  0  0
  7  8  2  0  0  0
  7 26  1  0  0  0
  7 29  1  0  0  0
  8  9  1  0  0  0
  8 22  1  0  0  0
  9 10  1  0  0  0
  9 27  2  0  0  0
 10 11  2  0  0  0
 10 15  1  0  0  0
 11 12  1  0  0  0
 11 93  1  0  0  0
 12 13  2  0  0  0
 12 94  1  0  0  0
 13 14  1  0  0  0
 13 31  1  0  0  0
 14 15  2  0  0  0
 14 95  1  0  0  0
 15 96  1  0  0  0
 16 17  2  0  0  0
 16 21  1  0  0  0
 16 31  1  0  0  0
 17 18  1  0  0  0
 17 97  1  0  0  0
 18 19  2  0  0  0
 18 98  1  0  0  0
 19 20  1  0  0  0
 19 24  1  0  0  0
 20 21  2  0  0  0
 20 99  1  0  0  0
 21 23  1  0  0  0
 22 28  1  0  0  0
 22 32  2  0  0  0
 26 27  1  0  0  0
 28100  1  0  0  0
 28101  1  0  0  0
 29102  1  0  0  0
 29103  1  0  0  0
 33 34  1  0  0  0
 33 66  1  0  0  0
 33 70  2  0  0  0
 34 36  1  0  0  0
 34 59  1  0  0  0
 34104  1  0  0  0
 35 44  2  0  0  0
 35 45  1  0  0  0
 35 68  1  0  0  0
 36 56  1  0  0  0
 36105  1  0  0  0
 37 39  1  0  0  0
 37 47  1  0  0  0
 37 66  1  0  0  0
 37106  1  0  0  0
 38 43  2  0  0  0
 38 46  1  0  0  0
 38 47  1  0  0  0
 39 64  1  0  0  0
 39 67  2  0  0  0
 40 52  1  0  0  0
 40 53  2  0  0  0
 40 58  1  0  0  0
 41107  1  0  0  0
 41108  1  0  0  0
 41109  1  0  0  0
 41 48  1  0  0  0
 42 43  1  0  0  0
 42 66  1  0  0  0
 42110  1  0  0  0
 42111  1  0  0  0
 43 44  1  0  0  0
 44112  1  0  0  0
 45 46  2  0  0  0
 45113  1  0  0  0
 46114  1  0  0  0
 47115  1  0  0  0
 47116  1  0  0  0
 48 56  1  0  0  0
 48 65  1  0  0  0
 48117  1  0  0  0
 49 50  1  0  0  0
 49 53  1  0  0  0
 49 64  1  0  0  0
 49118  1  0  0  0
 50 51  1  0  0  0
 50119  1  0  0  0
 50120  1  0  0  0
 51 52  1  0  0  0
 51121  1  0  0  0
 51122  1  0  0  0
 52123  1  0  0  0
 52124  1  0  0  0
 53 54  1  0  0  0
 54 55  2  0  0  0
 54125  1  0  0  0
 55 57  1  0  0  0
 55126  1  0  0  0
 56 69  2  0  0  0
 57 58  2  0  0  0
 57127  1  0  0  0
 58128  1  0  0  0
 59 60  1  0  0  0
 59 61  1  0  0  0
 59 62  1  0  0  0
 60129  1  0  0  0
 60130  1  0  0  0
 60131  1  0  0  0
 61132  1  0  0  0
 61133  1  0  0  0
 61134  1  0  0  0
 62135  1  0  0  0
 62136  1  0  0  0
 62137  1  0  0  0
 63 65  1  0  0  0
 63138  1  0  0  0
 63139  1  0  0  0
 63140  1  0  0  0
 64141  1  0  0  0
 65142  1  0  0  0
 68 78  1  0  0  0
 71 73  2  0  0  0
 71 75  1  0  0  0
 71143  1  0  0  0
 72 74  1  0  0  0
 72 76  2  0  0  0
 72144  1  0  0  0
 73 76  1  0  0  0
 73 80  1  0  0  0
 74 75  2  0  0  0
 74 81  1  0  0  0
 75 82  1  0  0  0
 76 83  1  0  0  0
 77 78  1  0  0  0
 77 79  1  0  0  0
 77145  1  0  0  0
 77146  1  0  0  0
 78147  1  0  0  0
 78148  1  0  0  0
 79 81  1  0  0  0
 79149  1  0  0  0
 79150  1  0  0  0
 80151  1  0  0  0
M  ISO  4   1 100  68 101  78 101  80 100
M  END
> <chiral flag>
0

> <version>
0

> <s_m_source_file>
/data/baiqing/PycharmProjects/Reinvent-master-3.2/result/LINK_invent/BTK/process_docking_weight1_custom_product_contain_oxygen_bond_distance_aromatic_linkinvent_7_9_3/rearranged_h_0009.sdf

> <i_m_source_file_index>
27

> <r_mmod_Potential_Energy-OPLS-2005>
102.17041015625

> <r_mmod_Stretch_Energy-OPLS-2005>
90.379280090332

> <r_mmod_Bend_Energy-OPLS-2005>
159.205230712891

> <r_mmod_Torsional_Energy-OPLS-2005>
268.782775878906

> <r_mmod_Improper_Torsional_Energy-OPLS-2005>
5.80839776992798

> <r_mmod_Van_der_Waal_Energy-OPLS-2005>
144.05290222168

> <r_mmod_Electrostatic_Energy-OPLS-2005>
-418.21044921875

> <r_mmod_Solvation_Energy-OPLS-2005>
-199.910629272461

> <b_mmod_Minimization_Converged-OPLS-2005>
0

> <r_mmod_RMS_Derivative-OPLS-2005>
7.06093120574951

$$$$
27
                    3D
 Structure written by MMmdl.
155164  0  0  1  0            999 V2000
  -30.4310  -15.4131   20.4999 C   0  0  0  0  0  0
  -30.4832  -12.9721   19.5119 C   0  0  0  0  0  0
  -29.5514  -12.6787   18.3078 C   0  0  0  0  0  0
  -28.1003  -12.3962   18.7326 C   0  0  0  0  0  0
  -27.6496  -13.3064   19.9007 C   0  0  2  0  0  0
  -28.7221  -13.4036   21.0107 C   0  0  0  0  0  0
  -25.2497  -13.8306   20.5962 C   0  0  0  0  0  0
  -24.1832  -13.0487   20.9307 C   0  0  0  0  0  0
  -24.6537  -11.6986   20.8835 C   0  0  0  0  0  0
  -23.9204  -10.4333   21.0376 C   0  0  0  0  0  0
  -24.3719   -9.4201   21.9126 C   0  0  0  0  0  0
  -23.6366   -8.2252   22.0715 C   0  0  0  0  0  0
  -22.4327   -8.0314   21.3518 C   0  0  0  0  0  0
  -21.9973   -9.0312   20.4623 C   0  0  0  0  0  0
  -22.7352  -10.2170   20.3029 C   0  0  0  0  0  0
  -21.6879   -6.0754   22.5276 C   0  0  0  0  0  0
  -21.4019   -6.5629   23.8217 C   0  0  0  0  0  0
  -21.3671   -5.6770   24.9177 C   0  0  0  0  0  0
  -21.6054   -4.3036   24.7203 C   0  0  0  0  0  0
  -21.8832   -3.8143   23.4323 C   0  0  0  0  0  0
  -21.9194   -4.6977   22.3395 C   0  0  0  0  0  0
  -22.7808  -13.5187   21.1869 C   0  0  0  0  0  0
  -22.1648   -4.2166   21.0976 F   0  0  0  0  0  0
  -21.5661   -3.4516   25.7703 F   0  0  0  0  0  0
  -29.8872  -14.0723   20.3829 N   0  0  0  0  0  0
  -26.3092  -12.9676   20.3760 N   0  0  0  0  0  0
  -25.9549  -11.6729   20.6005 N   0  0  0  0  0  0
  -22.0444  -12.8213   22.0419 N   0  0  0  0  0  0
  -25.4059  -15.2040   20.4303 N   0  0  0  0  0  0
  -31.6320  -15.3930   20.1783 O   0  0  0  0  0  0
  -21.6679   -6.8912   21.4240 O   0  0  0  0  0  0
  -22.3475  -14.5468   20.6655 O   0  0  0  0  0  0
  -24.6666  -31.8217   23.1694 C   0  0  0  0  0  0
  -25.9322  -32.4599   23.8193 C   0  0  1  0  0  0
  -27.2361  -26.9015   20.2264 C   0  0  0  0  0  0
  -25.5988  -33.8410   24.2091 N   0  0  0  0  0  0
  -23.4845  -30.4280   21.5193 C   0  0  2  0  0  0
  -24.9446  -28.8098   20.1179 C   0  0  0  0  0  0
  -22.7713  -29.4413   22.4813 C   0  0  0  0  0  0
  -18.0311  -28.1402   22.8467 C   0  0  0  0  0  0
  -24.1488  -36.7206   23.2659 C   0  0  0  0  0  0
  -26.0529  -30.6308   21.3996 C   0  0  0  0  0  0
  -26.1270  -29.2147   20.7507 C   0  0  0  0  0  0
  -27.2675  -28.2852   20.7679 C   0  0  0  0  0  0
  -26.0299  -26.6635   19.5228 C   0  0  0  0  0  0
  -24.9257  -27.5587   19.4761 C   0  0  0  0  0  0
  -23.7314  -29.7427   20.1456 C   0  0  0  0  0  0
  -25.4133  -36.2969   24.0317 C   0  0  1  0  0  0
  -20.5941  -28.3755   23.1193 C   0  0  2  0  0  0
  -20.6786  -26.9439   22.5414 C   0  0  0  0  0  0
  -19.5751  -26.6370   21.5227 C   0  0  0  0  0  0
  -18.1939  -26.7938   22.1623 C   0  0  0  0  0  0
  -19.1568  -28.8901   23.2801 C   0  0  0  0  0  0
  -18.9491  -30.1494   23.8843 C   0  0  0  0  0  0
  -17.6480  -30.6594   24.0558 C   0  0  0  0  0  0
  -25.9099  -34.9359   23.5007 C   0  0  0  0  0  0
  -16.5370  -29.9083   23.6338 C   0  0  0  0  0  0
  -16.7293  -28.6496   23.0362 C   0  0  0  0  0  0
  -26.4560  -31.6540   25.0719 C   0  0  0  0  0  0
  -25.3716  -31.3791   26.1395 C   0  0  0  0  0  0
  -27.0459  -30.2911   24.6474 C   0  0  0  0  0  0
  -27.6052  -32.4345   25.7513 C   0  0  0  0  0  0
  -27.5542  -37.1782   24.8485 C   0  0  0  0  0  0
  -21.4377  -29.3037   22.3559 N   0  0  0  0  0  0
  -26.4270  -37.3706   23.9410 N   0  0  0  0  0  0
  -24.7566  -30.9876   22.0849 N   0  0  0  0  0  0
  -23.4235  -28.7987   23.3068 O   0  0  0  0  0  0
  -28.2416  -25.7883   20.3370 O   0  0  0  0  0  0
  -26.5689  -34.8891   22.4588 O   0  0  0  0  0  0
  -23.5710  -32.1190   23.6774 O   0  0  0  0  0  0
  -32.1971  -18.8584   22.5416 C   0  0  0  0  0  0
  -31.1884  -20.6111   21.2427 C   0  0  0  0  0  0
  -31.1358  -18.0204   22.1843 C   0  0  0  0  0  0
  -30.2663  -18.2693   21.0662 C   0  0  0  0  0  0
  -30.0337  -19.8629   20.8668 C   0  0  0  0  0  0
  -32.2646  -20.1302   21.9962 C   0  0  0  0  0  0
  -30.7690  -16.9197   23.1923 C   0  0  0  0  0  0
  -29.2295  -16.6545   23.1734 C   0  0  0  0  0  0
  -28.6252  -16.6503   21.7294 C   0  0  0  0  0  0
  -28.0186  -24.1277   20.3278 C   0  0  0  0  0  0
  -29.0539  -22.6318   20.6298 C   0  0  0  0  0  0
  -29.7197  -16.7519   20.7658 N   0  0  0  0  0  0
  -29.0000  -20.9426   20.4462 O   0  0  0  0  0  0
  -33.2810  -20.9594   22.3342 F   0  0  0  0  0  0
  -31.4491  -13.2703   19.0968 H   0  0  0  0  0  0
  -30.7124  -12.0764   20.0892 H   0  0  0  0  0  0
  -29.9475  -11.8540   17.7136 H   0  0  0  0  0  0
  -29.5617  -13.5533   17.6529 H   0  0  0  0  0  0
  -28.0389  -11.3549   19.0419 H   0  0  0  0  0  0
  -27.4244  -12.5258   17.8867 H   0  0  0  0  0  0
  -27.5863  -14.3138   19.4876 H   0  0  0  0  0  0
  -28.9775  -12.4113   21.3924 H   0  0  0  0  0  0
  -28.3983  -13.9410   21.8941 H   0  0  0  0  0  0
  -25.2860   -9.5683   22.4690 H   0  0  0  0  0  0
  -24.0084   -7.4650   22.7424 H   0  0  0  0  0  0
  -21.0895   -8.8850   19.8960 H   0  0  0  0  0  0
  -22.3779  -10.9725   19.6161 H   0  0  0  0  0  0
  -21.1993   -7.6126   23.9729 H   0  0  0  0  0  0
  -21.1484   -6.0488   25.9085 H   0  0  0  0  0  0
  -22.0598   -2.7613   23.2819 H   0  0  0  0  0  0
  -22.4117  -11.9965   22.4942 H   0  0  0  0  0  0
  -21.1034  -13.1203   22.2552 H   0  0  0  0  0  0
  -24.6412  -15.8599   20.5485 H   0  0  0  0  0  0
  -26.2508  -15.6341   20.0825 H   0  0  0  0  0  0
  -26.7417  -32.5133   23.0941 H   0  0  0  0  0  0
  -25.0153  -33.9489   25.0261 H   0  0  0  0  0  0
  -22.7993  -31.2596   21.3456 H   0  0  0  0  0  0
  -23.3738  -35.9543   23.3351 H   0  0  0  0  0  0
  -24.3582  -36.8803   22.2063 H   0  0  0  0  0  0
  -23.7262  -37.6418   23.6686 H   0  0  0  0  0  0
  -26.2325  -31.3727   20.6195 H   0  0  0  0  0  0
  -26.9133  -30.6956   22.0541 H   0  0  0  0  0  0
  -28.1669  -28.6059   21.2760 H   0  0  0  0  0  0
  -25.9136  -25.7131   19.0251 H   0  0  0  0  0  0
  -24.0319  -27.2474   18.9511 H   0  0  0  0  0  0
  -23.9005  -30.5163   19.3939 H   0  0  0  0  0  0
  -22.8422  -29.2051   19.8126 H   0  0  0  0  0  0
  -25.1334  -36.1787   25.0812 H   0  0  0  0  0  0
  -21.0000  -28.3357   24.1319 H   0  0  0  0  0  0
  -20.5675  -26.2398   23.3664 H   0  0  0  0  0  0
  -21.6657  -26.7419   22.1218 H   0  0  0  0  0  0
  -19.6932  -25.6272   21.1284 H   0  0  0  0  0  0
  -19.6672  -27.3170   20.6748 H   0  0  0  0  0  0
  -17.4217  -26.6690   21.4009 H   0  0  0  0  0  0
  -18.0301  -26.0078   22.9012 H   0  0  0  0  0  0
  -19.7975  -30.7310   24.2197 H   0  0  0  0  0  0
  -17.5040  -31.6268   24.5178 H   0  0  0  0  0  0
  -15.5369  -30.2970   23.7697 H   0  0  0  0  0  0
  -15.8694  -28.0800   22.7119 H   0  0  0  0  0  0
  -24.5916  -30.7103   25.7752 H   0  0  0  0  0  0
  -24.8857  -32.2951   26.4725 H   0  0  0  0  0  0
  -25.7948  -30.9047   27.0254 H   0  0  0  0  0  0
  -26.3121  -29.6591   24.1448 H   0  0  0  0  0  0
  -27.3950  -29.7284   25.5144 H   0  0  0  0  0  0
  -27.9083  -30.4095   23.9923 H   0  0  0  0  0  0
  -27.2647  -33.3717   26.1938 H   0  0  0  0  0  0
  -28.3927  -32.6798   25.0381 H   0  0  0  0  0  0
  -28.0668  -31.8585   26.5542 H   0  0  0  0  0  0
  -28.2616  -38.0015   24.7414 H   0  0  0  0  0  0
  -28.0944  -36.2525   24.6427 H   0  0  0  0  0  0
  -27.2248  -37.1601   25.8888 H   0  0  0  0  0  0
  -20.9685  -29.8736   21.6670 H   0  0  0  0  0  0
  -26.0108  -38.2780   24.1327 H   0  0  0  0  0  0
  -32.9235  -18.5631   23.2899 H   0  0  0  0  0  0
  -31.2870  -21.6570   21.0250 H   0  0  0  0  0  0
  -31.0654  -17.2251   24.1989 H   0  0  0  0  0  0
  -31.3403  -16.0145   22.9926 H   0  0  0  0  0  0
  -28.7494  -17.4669   23.7264 H   0  0  0  0  0  0
  -28.9780  -15.7448   23.7238 H   0  0  0  0  0  0
  -27.9089  -15.8621   21.5439 H   0  0  0  0  0  0
  -28.0152  -17.5472   21.6191 H   0  0  0  0  0  0
  -27.1822  -24.0162   21.0227 H   0  0  0  0  0  0
  -27.5662  -23.9445   19.3523 H   0  0  0  0  0  0
  -29.3219  -22.7434   21.6840 H   0  0  0  0  0  0
  -29.9510  -22.9157   20.0854 H   0  0  0  0  0  0
  1 25  1  0  0  0
  1 30  2  0  0  0
  1 82  1  0  0  0
  2  3  1  0  0  0
  2 25  1  0  0  0
  2 85  1  0  0  0
  2 86  1  0  0  0
  3  4  1  0  0  0
  3 87  1  0  0  0
  3 88  1  0  0  0
  4  5  1  0  0  0
  4 89  1  0  0  0
  4 90  1  0  0  0
  5  6  1  0  0  0
  5 26  1  0  0  0
  5 91  1  0  0  0
  6 25  1  0  0  0
  6 92  1  0  0  0
  6 93  1  0  0  0
  7  8  2  0  0  0
  7 26  1  0  0  0
  7 29  1  0  0  0
  8  9  1  0  0  0
  8 22  1  0  0  0
  9 10  1  0  0  0
  9 27  2  0  0  0
 10 11  2  0  0  0
 10 15  1  0  0  0
 11 12  1  0  0  0
 11 94  1  0  0  0
 12 13  2  0  0  0
 12 95  1  0  0  0
 13 14  1  0  0  0
 13 31  1  0  0  0
 14 15  2  0  0  0
 14 96  1  0  0  0
 15 97  1  0  0  0
 16 17  2  0  0  0
 16 21  1  0  0  0
 16 31  1  0  0  0
 17 18  1  0  0  0
 17 98  1  0  0  0
 18 19  2  0  0  0
 18 99  1  0  0  0
 19 20  1  0  0  0
 19 24  1  0  0  0
 20 21  2  0  0  0
 20100  1  0  0  0
 21 23  1  0  0  0
 22 28  1  0  0  0
 22 32  2  0  0  0
 26 27  1  0  0  0
 28101  1  0  0  0
 28102  1  0  0  0
 29103  1  0  0  0
 29104  1  0  0  0
 33 34  1  0  0  0
 33 66  1  0  0  0
 33 70  2  0  0  0
 34 36  1  0  0  0
 34 59  1  0  0  0
 34105  1  0  0  0
 35 44  2  0  0  0
 35 45  1  0  0  0
 35 68  1  0  0  0
 36 56  1  0  0  0
 36106  1  0  0  0
 37 39  1  0  0  0
 37 47  1  0  0  0
 37 66  1  0  0  0
 37107  1  0  0  0
 38 43  2  0  0  0
 38 46  1  0  0  0
 38 47  1  0  0  0
 39 64  1  0  0  0
 39 67  2  0  0  0
 40 52  1  0  0  0
 40 53  2  0  0  0
 40 58  1  0  0  0
 41108  1  0  0  0
 41109  1  0  0  0
 41110  1  0  0  0
 41 48  1  0  0  0
 42 43  1  0  0  0
 42 66  1  0  0  0
 42111  1  0  0  0
 42112  1  0  0  0
 43 44  1  0  0  0
 44113  1  0  0  0
 45 46  2  0  0  0
 45114  1  0  0  0
 46115  1  0  0  0
 47116  1  0  0  0
 47117  1  0  0  0
 48 56  1  0  0  0
 48 65  1  0  0  0
 48118  1  0  0  0
 49 50  1  0  0  0
 49 53  1  0  0  0
 49 64  1  0  0  0
 49119  1  0  0  0
 50 51  1  0  0  0
 50120  1  0  0  0
 50121  1  0  0  0
 51 52  1  0  0  0
 51122  1  0  0  0
 51123  1  0  0  0
 52124  1  0  0  0
 52125  1  0  0  0
 53 54  1  0  0  0
 54 55  2  0  0  0
 54126  1  0  0  0
 55 57  1  0  0  0
 55127  1  0  0  0
 56 69  2  0  0  0
 57 58  2  0  0  0
 57128  1  0  0  0
 58129  1  0  0  0
 59 60  1  0  0  0
 59 61  1  0  0  0
 59 62  1  0  0  0
 60130  1  0  0  0
 60131  1  0  0  0
 60132  1  0  0  0
 61133  1  0  0  0
 61134  1  0  0  0
 61135  1  0  0  0
 62136  1  0  0  0
 62137  1  0  0  0
 62138  1  0  0  0
 63 65  1  0  0  0
 63139  1  0  0  0
 63140  1  0  0  0
 63141  1  0  0  0
 64142  1  0  0  0
 65143  1  0  0  0
 68 80  1  0  0  0
 71 73  2  0  0  0
 71 76  1  0  0  0
 71144  1  0  0  0
 72 75  1  0  0  0
 72 76  2  0  0  0
 72145  1  0  0  0
 73 74  1  0  0  0
 73 77  1  0  0  0
 74 75  2  0  0  0
 74 82  1  0  0  0
 75 83  1  0  0  0
 76 84  1  0  0  0
 77 78  1  0  0  0
 77146  1  0  0  0
 77147  1  0  0  0
 78 79  1  0  0  0
 78148  1  0  0  0
 78149  1  0  0  0
 79 82  1  0  0  0
 79150  1  0  0  0
 79151  1  0  0  0
 80 81  1  0  0  0
 80152  1  0  0  0
 80153  1  0  0  0
 81 83  1  0  0  0
 81154  1  0  0  0
 81155  1  0  0  0
M  ISO  4   1 100  68 101  80 101  82 100
M  END
> <chiral flag>
0

> <version>
0

> <s_m_source_file>
/data/baiqing/PycharmProjects/Reinvent-master-3.2/result/LINK_invent/BTK/process_docking_weight1_custom_product_contain_oxygen_bond_distance_aromatic_linkinvent_7_9_3/rearranged_h_0009.sdf

> <i_m_source_file_index>
28

> <r_mmod_Potential_Energy-OPLS-2005>
2078.02783203125

> <r_mmod_Stretch_Energy-OPLS-2005>
798.728698730469

> <r_mmod_Bend_Energy-OPLS-2005>
638.900817871094

> <r_mmod_Torsional_Energy-OPLS-2005>
395.707855224609

> <r_mmod_Improper_Torsional_Energy-OPLS-2005>
13.5514993667603

> <r_mmod_Van_der_Waal_Energy-OPLS-2005>
167.577972412109

> <r_mmod_Electrostatic_Energy-OPLS-2005>
-290.622222900391

> <r_mmod_Solvation_Energy-OPLS-2005>
-199.803070068359

> <b_mmod_Minimization_Converged-OPLS-2005>
0

> <r_mmod_RMS_Derivative-OPLS-2005>
7.33335733413696

$$$$
28
                    3D
 Structure written by MMmdl.
148156  0  0  1  0            999 V2000
  -30.5214  -14.9152   20.4322 C   0  0  0  0  0  0
  -30.4560  -12.5613   19.4932 C   0  0  0  0  0  0
  -29.5263  -12.5225   18.2560 C   0  0  0  0  0  0
  -28.0560  -12.3176   18.6734 C   0  0  0  0  0  0
  -27.6385  -13.2396   19.8491 C   0  0  2  0  0  0
  -28.6855  -13.2218   20.9846 C   0  0  0  0  0  0
  -25.2459  -13.8158   20.5697 C   0  0  0  0  0  0
  -24.1765  -13.0390   20.9179 C   0  0  0  0  0  0
  -24.6393  -11.6885   20.8728 C   0  0  0  0  0  0
  -23.9070  -10.4267   21.0393 C   0  0  0  0  0  0
  -24.3618   -9.4189   21.9177 C   0  0  0  0  0  0
  -23.6287   -8.2227   22.0750 C   0  0  0  0  0  0
  -22.4268   -8.0269   21.3541 C   0  0  0  0  0  0
  -21.9903   -9.0243   20.4647 C   0  0  0  0  0  0
  -22.7235  -10.2117   20.3050 C   0  0  0  0  0  0
  -21.6852   -6.0726   22.5279 C   0  0  0  0  0  0
  -21.4012   -6.5629   23.8210 C   0  0  0  0  0  0
  -21.3659   -5.6784   24.9173 C   0  0  0  0  0  0
  -21.6046   -4.3046   24.7225 C   0  0  0  0  0  0
  -21.8819   -3.8139   23.4345 C   0  0  0  0  0  0
  -21.9194   -4.6956   22.3402 C   0  0  0  0  0  0
  -22.7791  -13.5179   21.1863 C   0  0  0  0  0  0
  -22.1663   -4.2144   21.0979 F   0  0  0  0  0  0
  -21.5632   -3.4530   25.7737 F   0  0  0  0  0  0
  -29.9702  -13.6372   20.3996 N   0  0  0  0  0  0
  -26.2930  -12.9409   20.3303 N   0  0  0  0  0  0
  -25.9337  -11.6539   20.5759 N   0  0  0  0  0  0
  -22.0457  -12.8183   22.0447 N   0  0  0  0  0  0
  -25.4009  -15.1882   20.4184 N   0  0  0  0  0  0
  -31.7098  -15.0488   20.1197 O   0  0  0  0  0  0
  -21.6633   -6.8868   21.4238 O   0  0  0  0  0  0
  -22.3464  -14.5487   20.6720 O   0  0  0  0  0  0
  -24.6417  -31.8452   23.1899 C   0  0  0  0  0  0
  -25.9199  -32.4701   23.8276 C   0  0  1  0  0  0
  -27.2222  -27.1526   20.1448 C   0  0  0  0  0  0
  -25.5963  -33.8506   24.2202 N   0  0  0  0  0  0
  -23.4442  -30.4662   21.5348 C   0  0  2  0  0  0
  -24.8945  -28.8965   20.1100 C   0  0  0  0  0  0
  -22.7558  -29.4553   22.4857 C   0  0  0  0  0  0
  -18.0310  -28.1394   22.8468 C   0  0  0  0  0  0
  -24.1494  -36.7248   23.2642 C   0  0  0  0  0  0
  -25.9996  -30.7246   21.3863 C   0  0  0  0  0  0
  -26.0726  -29.3379   20.7264 C   0  0  0  0  0  0
  -27.2371  -28.4831   20.7255 C   0  0  0  0  0  0
  -26.0147  -26.8095   19.4943 C   0  0  0  0  0  0
  -24.8785  -27.6452   19.4787 C   0  0  0  0  0  0
  -23.6702  -29.7971   20.1536 C   0  0  0  0  0  0
  -25.4127  -36.3035   24.0318 C   0  0  1  0  0  0
  -20.5917  -28.3714   23.1234 C   0  0  2  0  0  0
  -20.6791  -26.9415   22.5409 C   0  0  0  0  0  0
  -19.5773  -26.6381   21.5204 C   0  0  0  0  0  0
  -18.1953  -26.7936   22.1610 C   0  0  0  0  0  0
  -19.1564  -28.8872   23.2845 C   0  0  0  0  0  0
  -18.9482  -30.1470   23.8868 C   0  0  0  0  0  0
  -17.6479  -30.6588   24.0559 C   0  0  0  0  0  0
  -25.9072  -34.9408   23.5067 C   0  0  0  0  0  0
  -16.5370  -29.9079   23.6341 C   0  0  0  0  0  0
  -16.7295  -28.6502   23.0351 C   0  0  0  0  0  0
  -26.4528  -31.6562   25.0707 C   0  0  0  0  0  0
  -25.3724  -31.3763   26.1419 C   0  0  0  0  0  0
  -27.0377  -30.2957   24.6274 C   0  0  0  0  0  0
  -27.6085  -32.4306   25.7471 C   0  0  0  0  0  0
  -27.5583  -37.1777   24.8465 C   0  0  0  0  0  0
  -21.4253  -29.3042   22.3607 N   0  0  0  0  0  0
  -26.4289  -37.3751   23.9413 N   0  0  0  0  0  0
  -24.7147  -31.0326   22.0924 N   0  0  0  0  0  0
  -23.4214  -28.8101   23.2998 O   0  0  0  0  0  0
  -28.2831  -26.1774   20.2081 O   0  0  0  0  0  0
  -26.5645  -34.8904   22.4637 O   0  0  0  0  0  0
  -23.5543  -32.1321   23.7134 O   0  0  0  0  0  0
  -30.5390  -18.5592   20.3119 C   0  0  0  0  0  0
  -30.2281  -19.9961   20.2516 C   0  0  0  0  0  0
  -27.9577  -19.5005   20.6233 C   0  0  0  0  0  0
  -29.5558  -17.5246   20.5374 C   0  0  0  0  0  0
  -28.9022  -20.5492   20.4006 C   0  0  0  0  0  0
  -28.2572  -18.0929   20.6946 C   0  0  0  0  0  0
  -27.9882  -24.6555   20.0887 C   0  0  0  0  0  0
  -28.9899  -23.3140   20.2894 C   0  0  0  0  0  0
  -29.6477  -16.0010   20.6557 N   0  0  0  0  0  0
  -28.3721  -21.9139   20.3335 O   0  0  0  0  0  0
  -27.2334  -17.2380   20.9233 F   0  0  0  0  0  0
  -31.4877  -12.7311   19.1805 H   0  0  0  0  0  0
  -30.4555  -11.5990   20.0081 H   0  0  0  0  0  0
  -29.8357  -11.7251   17.5785 H   0  0  0  0  0  0
  -29.6217  -13.4538   17.6962 H   0  0  0  0  0  0
  -27.9448  -11.2745   18.9718 H   0  0  0  0  0  0
  -27.3927  -12.4619   17.8198 H   0  0  0  0  0  0
  -27.6113  -14.2499   19.4400 H   0  0  0  0  0  0
  -28.7627  -12.2279   21.4282 H   0  0  0  0  0  0
  -28.3905  -13.8918   21.7938 H   0  0  0  0  0  0
  -25.2762   -9.5668   22.4749 H   0  0  0  0  0  0
  -23.9997   -7.4619   22.7465 H   0  0  0  0  0  0
  -21.0833   -8.8763   19.8957 H   0  0  0  0  0  0
  -22.3691  -10.9656   19.6162 H   0  0  0  0  0  0
  -21.2000   -7.6137   23.9710 H   0  0  0  0  0  0
  -21.1484   -6.0514   25.9077 H   0  0  0  0  0  0
  -22.0601   -2.7602   23.2845 H   0  0  0  0  0  0
  -22.4080  -11.9854   22.4844 H   0  0  0  0  0  0
  -21.1086  -13.1224   22.2682 H   0  0  0  0  0  0
  -24.6307  -15.8255   20.5832 H   0  0  0  0  0  0
  -26.2721  -15.6785   20.2515 H   0  0  0  0  0  0
  -26.7256  -32.5313   23.0995 H   0  0  0  0  0  0
  -25.0120  -33.9624   25.0359 H   0  0  0  0  0  0
  -22.7457  -31.2916   21.3825 H   0  0  0  0  0  0
  -23.3764  -35.9569   23.3295 H   0  0  0  0  0  0
  -24.3583  -36.8891   22.2059 H   0  0  0  0  0  0
  -23.7234  -37.6438   23.6676 H   0  0  0  0  0  0
  -26.1548  -31.4813   20.6161 H   0  0  0  0  0  0
  -26.8698  -30.7733   22.0286 H   0  0  0  0  0  0
  -28.1339  -28.8182   21.2272 H   0  0  0  0  0  0
  -25.9091  -25.8553   19.0022 H   0  0  0  0  0  0
  -23.9799  -27.3022   18.9846 H   0  0  0  0  0  0
  -23.8050  -30.5726   19.3985 H   0  0  0  0  0  0
  -22.7852  -29.2385   19.8435 H   0  0  0  0  0  0
  -25.1315  -36.1864   25.0809 H   0  0  0  0  0  0
  -21.0014  -28.3306   24.1352 H   0  0  0  0  0  0
  -20.5663  -26.2325   23.3628 H   0  0  0  0  0  0
  -21.6662  -26.7413   22.1223 H   0  0  0  0  0  0
  -19.6932  -25.6283   21.1254 H   0  0  0  0  0  0
  -19.6724  -27.3171   20.6718 H   0  0  0  0  0  0
  -17.4226  -26.6676   21.4011 H   0  0  0  0  0  0
  -18.0354  -26.0083   22.9012 H   0  0  0  0  0  0
  -19.7958  -30.7294   24.2221 H   0  0  0  0  0  0
  -17.5034  -31.6265   24.5168 H   0  0  0  0  0  0
  -15.5369  -30.2970   23.7682 H   0  0  0  0  0  0
  -15.8697  -28.0816   22.7070 H   0  0  0  0  0  0
  -24.5924  -30.7070   25.7768 H   0  0  0  0  0  0
  -24.8877  -32.2943   26.4751 H   0  0  0  0  0  0
  -25.8032  -30.9027   27.0250 H   0  0  0  0  0  0
  -26.2980  -29.6682   24.1288 H   0  0  0  0  0  0
  -27.4006  -29.7261   25.4840 H   0  0  0  0  0  0
  -27.8891  -30.4196   23.9575 H   0  0  0  0  0  0
  -27.2716  -33.3639   26.1992 H   0  0  0  0  0  0
  -28.3918  -32.6809   25.0300 H   0  0  0  0  0  0
  -28.0715  -31.8450   26.5425 H   0  0  0  0  0  0
  -28.2603  -38.0072   24.7516 H   0  0  0  0  0  0
  -28.1080  -36.2606   24.6286 H   0  0  0  0  0  0
  -27.2304  -37.1424   25.8870 H   0  0  0  0  0  0
  -20.9449  -29.8759   21.6797 H   0  0  0  0  0  0
  -26.0160  -38.2818   24.1433 H   0  0  0  0  0  0
  -31.5690  -18.2594   20.1836 H   0  0  0  0  0  0
  -31.0442  -20.6817   20.0723 H   0  0  0  0  0  0
  -26.9238  -19.7840   20.7511 H   0  0  0  0  0  0
  -27.1559  -24.4881   20.7736 H   0  0  0  0  0  0
  -27.5690  -24.5159   19.0932 H   0  0  0  0  0  0
  -29.5433  -23.4398   21.2200 H   0  0  0  0  0  0
  -29.7405  -23.3184   19.4988 H   0  0  0  0  0  0
  -28.7399  -15.6306   20.8942 H   0  0  0  0  0  0
  1 25  1  0  0  0
  1 30  2  0  0  0
  1 79  1  0  0  0
  2  3  1  0  0  0
  2 25  1  0  0  0
  2 82  1  0  0  0
  2 83  1  0  0  0
  3  4  1  0  0  0
  3 84  1  0  0  0
  3 85  1  0  0  0
  4  5  1  0  0  0
  4 86  1  0  0  0
  4 87  1  0  0  0
  5  6  1  0  0  0
  5 26  1  0  0  0
  5 88  1  0  0  0
  6 25  1  0  0  0
  6 89  1  0  0  0
  6 90  1  0  0  0
  7  8  2  0  0  0
  7 26  1  0  0  0
  7 29  1  0  0  0
  8  9  1  0  0  0
  8 22  1  0  0  0
  9 10  1  0  0  0
  9 27  2  0  0  0
 10 11  2  0  0  0
 10 15  1  0  0  0
 11 12  1  0  0  0
 11 91  1  0  0  0
 12 13  2  0  0  0
 12 92  1  0  0  0
 13 14  1  0  0  0
 13 31  1  0  0  0
 14 15  2  0  0  0
 14 93  1  0  0  0
 15 94  1  0  0  0
 16 17  2  0  0  0
 16 21  1  0  0  0
 16 31  1  0  0  0
 17 18  1  0  0  0
 17 95  1  0  0  0
 18 19  2  0  0  0
 18 96  1  0  0  0
 19 20  1  0  0  0
 19 24  1  0  0  0
 20 21  2  0  0  0
 20 97  1  0  0  0
 21 23  1  0  0  0
 22 28  1  0  0  0
 22 32  2  0  0  0
 26 27  1  0  0  0
 28 98  1  0  0  0
 28 99  1  0  0  0
 29100  1  0  0  0
 29101  1  0  0  0
 33 34  1  0  0  0
 33 66  1  0  0  0
 33 70  2  0  0  0
 34 36  1  0  0  0
 34 59  1  0  0  0
 34102  1  0  0  0
 35 44  2  0  0  0
 35 45  1  0  0  0
 35 68  1  0  0  0
 36 56  1  0  0  0
 36103  1  0  0  0
 37 39  1  0  0  0
 37 47  1  0  0  0
 37 66  1  0  0  0
 37104  1  0  0  0
 38 43  2  0  0  0
 38 46  1  0  0  0
 38 47  1  0  0  0
 39 64  1  0  0  0
 39 67  2  0  0  0
 40 52  1  0  0  0
 40 53  2  0  0  0
 40 58  1  0  0  0
 41105  1  0  0  0
 41106  1  0  0  0
 41107  1  0  0  0
 41 48  1  0  0  0
 42 43  1  0  0  0
 42 66  1  0  0  0
 42108  1  0  0  0
 42109  1  0  0  0
 43 44  1  0  0  0
 44110  1  0  0  0
 45 46  2  0  0  0
 45111  1  0  0  0
 46112  1  0  0  0
 47113  1  0  0  0
 47114  1  0  0  0
 48 56  1  0  0  0
 48 65  1  0  0  0
 48115  1  0  0  0
 49 50  1  0  0  0
 49 53  1  0  0  0
 49 64  1  0  0  0
 49116  1  0  0  0
 50 51  1  0  0  0
 50117  1  0  0  0
 50118  1  0  0  0
 51 52  1  0  0  0
 51119  1  0  0  0
 51120  1  0  0  0
 52121  1  0  0  0
 52122  1  0  0  0
 53 54  1  0  0  0
 54 55  2  0  0  0
 54123  1  0  0  0
 55 57  1  0  0  0
 55124  1  0  0  0
 56 69  2  0  0  0
 57 58  2  0  0  0
 57125  1  0  0  0
 58126  1  0  0  0
 59 60  1  0  0  0
 59 61  1  0  0  0
 59 62  1  0  0  0
 60127  1  0  0  0
 60128  1  0  0  0
 60129  1  0  0  0
 61130  1  0  0  0
 61131  1  0  0  0
 61132  1  0  0  0
 62133  1  0  0  0
 62134  1  0  0  0
 62135  1  0  0  0
 63 65  1  0  0  0
 63136  1  0  0  0
 63137  1  0  0  0
 63138  1  0  0  0
 64139  1  0  0  0
 65140  1  0  0  0
 68 77  1  0  0  0
 71 72  2  0  0  0
 71 74  1  0  0  0
 71141  1  0  0  0
 72 75  1  0  0  0
 72142  1  0  0  0
 73 75  2  0  0  0
 73 76  1  0  0  0
 73143  1  0  0  0
 74 76  2  0  0  0
 74 79  1  0  0  0
 75 80  1  0  0  0
 76 81  1  0  0  0
 77 78  1  0  0  0
 77144  1  0  0  0
 77145  1  0  0  0
 78 80  1  0  0  0
 78146  1  0  0  0
 78147  1  0  0  0
 79148  1  0  0  0
M  ISO  4   1 100  68 101  77 101  79 100
M  END
> <chiral flag>
0

> <version>
0

> <s_m_source_file>
/data/baiqing/PycharmProjects/Reinvent-master-3.2/result/LINK_invent/BTK/process_docking_weight1_custom_product_contain_oxygen_bond_distance_aromatic_linkinvent_7_9_3/rearranged_h_0009.sdf

> <i_m_source_file_index>
29

> <r_mmod_Potential_Energy-OPLS-2005>
429.317779541016

> <r_mmod_Stretch_Energy-OPLS-2005>
215.171890258789

> <r_mmod_Bend_Energy-OPLS-2005>
307.654571533203

> <r_mmod_Torsional_Energy-OPLS-2005>
210.088012695312

> <r_mmod_Improper_Torsional_Energy-OPLS-2005>
3.85878729820251

> <r_mmod_Van_der_Waal_Energy-OPLS-2005>
133.190078735352

> <r_mmod_Electrostatic_Energy-OPLS-2005>
-411.460144042969

> <r_mmod_Solvation_Energy-OPLS-2005>
-203.061370849609

> <b_mmod_Minimization_Converged-OPLS-2005>
0

> <r_mmod_RMS_Derivative-OPLS-2005>
0.840658664703369

$$$$
29
                    3D
 Structure written by MMmdl.
155163  0  0  1  0            999 V2000
  -30.2002  -15.4655   20.0935 C   0  0  0  0  0  0
  -30.4159  -12.9981   19.4382 C   0  0  0  0  0  0
  -29.5180  -12.5543   18.2661 C   0  0  0  0  0  0
  -28.1049  -12.2101   18.7661 C   0  0  0  0  0  0
  -27.5660  -13.2600   19.7650 C   0  0  2  0  0  0
  -28.5761  -13.6016   20.8645 C   0  0  0  0  0  0
  -25.2274  -13.8187   20.5766 C   0  0  0  0  0  0
  -24.1639  -13.0372   20.9320 C   0  0  0  0  0  0
  -24.6292  -11.6891   20.8796 C   0  0  0  0  0  0
  -23.9024  -10.4264   21.0434 C   0  0  0  0  0  0
  -24.3602   -9.4177   21.9199 C   0  0  0  0  0  0
  -23.6280   -8.2205   22.0763 C   0  0  0  0  0  0
  -22.4261   -8.0255   21.3548 C   0  0  0  0  0  0
  -21.9888   -9.0220   20.4645 C   0  0  0  0  0  0
  -22.7213  -10.2103   20.3061 C   0  0  0  0  0  0
  -21.6845   -6.0719   22.5282 C   0  0  0  0  0  0
  -21.4005   -6.5628   23.8213 C   0  0  0  0  0  0
  -21.3660   -5.6783   24.9177 C   0  0  0  0  0  0
  -21.6047   -4.3048   24.7231 C   0  0  0  0  0  0
  -21.8817   -3.8137   23.4356 C   0  0  0  0  0  0
  -21.9189   -4.6947   22.3409 C   0  0  0  0  0  0
  -22.7681  -13.5158   21.1969 C   0  0  0  0  0  0
  -22.1658   -4.2135   21.0985 F   0  0  0  0  0  0
  -21.5633   -3.4537   25.7746 F   0  0  0  0  0  0
  -29.7452  -14.1394   20.1543 N   0  0  0  0  0  0
  -26.2594  -12.9407   20.3021 N   0  0  0  0  0  0
  -25.9184  -11.6535   20.5626 N   0  0  0  0  0  0
  -22.0328  -12.8135   22.0523 N   0  0  0  0  0  0
  -25.3875  -15.1924   20.4280 N   0  0  0  0  0  0
  -31.4335  -15.5230   20.0639 O   0  0  0  0  0  0
  -21.6632   -6.8856   21.4241 O   0  0  0  0  0  0
  -22.3376  -14.5462   20.6810 O   0  0  0  0  0  0
  -24.6075  -31.9156   23.2404 C   0  0  0  0  0  0
  -25.9011  -32.4908   23.8608 C   0  0  1  0  0  0
  -27.0425  -27.7251   20.0319 C   0  0  0  0  0  0
  -25.5767  -33.8723   24.2464 N   0  0  0  0  0  0
  -23.3018  -30.5992   21.6082 C   0  0  2  0  0  0
  -24.6199  -29.1220   20.1721 C   0  0  0  0  0  0
  -22.7292  -29.5043   22.5013 C   0  0  0  0  0  0
  -18.0252  -28.1342   22.8648 C   0  0  0  0  0  0
  -24.1350  -36.7233   23.2647 C   0  0  0  0  0  0
  -25.7123  -31.0601   21.2371 C   0  0  0  0  0  0
  -25.7952  -29.6942   20.7282 C   0  0  0  0  0  0
  -26.9691  -28.9717   20.6471 C   0  0  0  0  0  0
  -25.8426  -26.9846   19.9455 C   0  0  0  0  0  0
  -24.6453  -27.6940   19.8106 C   0  0  0  0  0  0
  -23.4009  -30.0356   20.2309 C   0  0  0  0  0  0
  -25.4042  -36.3174   24.0342 C   0  0  1  0  0  0
  -20.5848  -28.3583   23.1441 C   0  0  2  0  0  0
  -20.6613  -26.9307   22.5558 C   0  0  0  0  0  0
  -19.5642  -26.6346   21.5377 C   0  0  0  0  0  0
  -18.1859  -26.7929   22.1736 C   0  0  0  0  0  0
  -19.1487  -28.8797   23.3079 C   0  0  0  0  0  0
  -18.9321  -30.1351   23.9169 C   0  0  0  0  0  0
  -17.6315  -30.6562   24.0589 C   0  0  0  0  0  0
  -25.9068  -34.9535   23.5251 C   0  0  0  0  0  0
  -16.5237  -29.9083   23.6132 C   0  0  0  0  0  0
  -16.7225  -28.6435   23.0305 C   0  0  0  0  0  0
  -26.4453  -31.6635   25.0734 C   0  0  0  0  0  0
  -25.4031  -31.3528   26.1632 C   0  0  0  0  0  0
  -27.0099  -30.3193   24.5615 C   0  0  0  0  0  0
  -27.6171  -32.4333   25.7383 C   0  0  0  0  0  0
  -27.5586  -37.1719   24.8459 C   0  0  0  0  0  0
  -21.4201  -29.3190   22.4182 N   0  0  0  0  0  0
  -26.4263  -37.3926   23.9437 N   0  0  0  0  0  0
  -24.5789  -31.1865   22.1017 N   0  0  0  0  0  0
  -23.4212  -28.7699   23.1912 O   0  0  0  0  0  0
  -28.2967  -27.2081   20.2006 O   0  0  0  0  0  0
  -26.5760  -34.9018   22.4861 O   0  0  0  0  0  0
  -23.5469  -32.1706   23.7970 O   0  0  0  0  0  0
  -29.7229  -20.9290   19.0202 C   0  0  0  0  0  0
  -29.4417  -22.2954   18.6782 C   0  0  0  0  0  0
  -27.1397  -21.8258   18.6922 C   0  0  0  0  0  0
  -28.7692  -19.8481   19.2234 C   0  0  0  0  0  0
  -28.1592  -22.8260   18.4537 C   0  0  0  0  0  0
  -27.4059  -20.4158   19.0589 C   0  0  0  0  0  0
  -27.8315  -24.6151   16.5755 C   0  0  0  0  0  0
  -29.5463  -18.3060   19.5462 C   0  0  0  0  0  0
  -27.9970  -25.4387   18.5840 C   0  0  0  0  0  0
  -28.5800  -25.8439   19.8165 C   0  0  0  0  0  0
  -29.3278  -16.6603   19.8550 N   0  0  0  0  0  0
  -28.1052  -24.2048   17.9374 N   0  0  0  0  0  0
  -26.3118  -19.6726   19.2730 F   0  0  0  0  0  0
  -31.3617  -13.3381   19.0140 H   0  0  0  0  0  0
  -30.6556  -12.2004   20.1380 H   0  0  0  0  0  0
  -29.9671  -11.7001   17.7664 H   0  0  0  0  0  0
  -29.4510  -13.3520   17.5218 H   0  0  0  0  0  0
  -28.1791  -11.2485   19.2751 H   0  0  0  0  0  0
  -27.4186  -12.0626   17.9277 H   0  0  0  0  0  0
  -27.4157  -14.1585   19.1600 H   0  0  0  0  0  0
  -28.8284  -12.7604   21.5071 H   0  0  0  0  0  0
  -28.1581  -14.3823   21.5003 H   0  0  0  0  0  0
  -25.2742   -9.5666   22.4774 H   0  0  0  0  0  0
  -23.9993   -7.4605   22.7476 H   0  0  0  0  0  0
  -21.0830   -8.8736   19.8953 H   0  0  0  0  0  0
  -22.3672  -10.9644   19.6181 H   0  0  0  0  0  0
  -21.1991   -7.6137   23.9712 H   0  0  0  0  0  0
  -21.1486   -6.0519   25.9083 H   0  0  0  0  0  0
  -22.0599   -2.7598   23.2861 H   0  0  0  0  0  0
  -22.3954  -11.9809   22.4910 H   0  0  0  0  0  0
  -21.0933  -13.1141   22.2711 H   0  0  0  0  0  0
  -24.6158  -15.8354   20.5671 H   0  0  0  0  0  0
  -26.2253  -15.6520   20.1000 H   0  0  0  0  0  0
  -26.7159  -32.5673   23.1663 H   0  0  0  0  0  0
  -24.9321  -34.0184   25.0045 H   0  0  0  0  0  0
  -22.5746  -31.3940   21.6053 H   0  0  0  0  0  0
  -23.3930  -35.9269   23.3110 H   0  0  0  0  0  0
  -24.3464  -36.9129   22.2137 H   0  0  0  0  0  0
  -23.6792  -37.6149   23.6902 H   0  0  0  0  0  0
  -25.5685  -31.7207   20.3661 H   0  0  0  0  0  0
  -26.6969  -31.2915   21.6067 H   0  0  0  0  0  0
  -27.9169  -29.4700   20.9842 H   0  0  0  0  0  0
  -25.7244  -25.9009   20.0099 H   0  0  0  0  0  0
  -23.7169  -27.1900   19.6189 H   0  0  0  0  0  0
  -23.5118  -30.8637   19.5974 H   0  0  0  0  0  0
  -22.4612  -29.5632   19.9110 H   0  0  0  0  0  0
  -25.1244  -36.2135   25.0887 H   0  0  0  0  0  0
  -20.9821  -28.3078   24.1638 H   0  0  0  0  0  0
  -20.5303  -26.2422   23.3878 H   0  0  0  0  0  0
  -21.6554  -26.7185   22.1529 H   0  0  0  0  0  0
  -19.6773  -25.6284   21.1327 H   0  0  0  0  0  0
  -19.6439  -27.3254   20.7028 H   0  0  0  0  0  0
  -17.4170  -26.6882   21.4009 H   0  0  0  0  0  0
  -17.9992  -25.9922   22.8942 H   0  0  0  0  0  0
  -19.7658  -30.7133   24.2814 H   0  0  0  0  0  0
  -17.4726  -31.6323   24.5123 H   0  0  0  0  0  0
  -15.5168  -30.3049   23.7289 H   0  0  0  0  0  0
  -15.8660  -28.0813   22.6897 H   0  0  0  0  0  0
  -24.6411  -30.6526   25.8226 H   0  0  0  0  0  0
  -24.8936  -32.2489   26.5230 H   0  0  0  0  0  0
  -25.8741  -30.8926   27.0312 H   0  0  0  0  0  0
  -26.2283  -29.6740   24.1705 H   0  0  0  0  0  0
  -27.5141  -29.7476   25.3399 H   0  0  0  0  0  0
  -27.7158  -30.4649   23.7497 H   0  0  0  0  0  0
  -27.2946  -33.3868   26.1625 H   0  0  0  0  0  0
  -28.4052  -32.6530   25.0142 H   0  0  0  0  0  0
  -28.0776  -31.8722   26.5565 H   0  0  0  0  0  0
  -28.2556  -38.0062   24.7710 H   0  0  0  0  0  0
  -28.1091  -36.2640   24.6022 H   0  0  0  0  0  0
  -27.2275  -37.1025   25.8829 H   0  0  0  0  0  0
  -20.9350  -29.9184   21.7896 H   0  0  0  0  0  0
  -26.0167  -38.2962   24.1640 H   0  0  0  0  0  0
  -30.7548  -20.7341   19.1187 H   0  0  0  0  0  0
  -30.2511  -23.0019   18.5518 H   0  0  0  0  0  0
  -26.1252  -22.2106   18.6010 H   0  0  0  0  0  0
  -27.9201  -23.7853   15.8361 H   0  0  0  0  0  0
  -28.5390  -25.3663   16.2363 H   0  0  0  0  0  0
  -26.8710  -25.1021   16.4970 H   0  0  0  0  0  0
  -30.1886  -18.6344   20.3583 H   0  0  0  0  0  0
  -30.1752  -18.2897   18.6568 H   0  0  0  0  0  0
  -28.2649  -26.2742   17.9314 H   0  0  0  0  0  0
  -26.9357  -25.4070   18.7019 H   0  0  0  0  0  0
  -28.1379  -25.3710   20.6984 H   0  0  0  0  0  0
  -29.6283  -26.0774   19.8616 H   0  0  0  0  0  0
  -28.3327  -16.4486   19.8067 H   0  0  0  0  0  0
  1 25  1  0  0  0
  1 30  2  0  0  0
  1 81  1  0  0  0
  2  3  1  0  0  0
  2 25  1  0  0  0
  2 84  1  0  0  0
  2 85  1  0  0  0
  3  4  1  0  0  0
  3 86  1  0  0  0
  3 87  1  0  0  0
  4  5  1  0  0  0
  4 88  1  0  0  0
  4 89  1  0  0  0
  5  6  1  0  0  0
  5 26  1  0  0  0
  5 90  1  0  0  0
  6 25  1  0  0  0
  6 91  1  0  0  0
  6 92  1  0  0  0
  7  8  2  0  0  0
  7 26  1  0  0  0
  7 29  1  0  0  0
  8  9  1  0  0  0
  8 22  1  0  0  0
  9 10  1  0  0  0
  9 27  2  0  0  0
 10 11  2  0  0  0
 10 15  1  0  0  0
 11 12  1  0  0  0
 11 93  1  0  0  0
 12 13  2  0  0  0
 12 94  1  0  0  0
 13 14  1  0  0  0
 13 31  1  0  0  0
 14 15  2  0  0  0
 14 95  1  0  0  0
 15 96  1  0  0  0
 16 17  2  0  0  0
 16 21  1  0  0  0
 16 31  1  0  0  0
 17 18  1  0  0  0
 17 97  1  0  0  0
 18 19  2  0  0  0
 18 98  1  0  0  0
 19 20  1  0  0  0
 19 24  1  0  0  0
 20 21  2  0  0  0
 20 99  1  0  0  0
 21 23  1  0  0  0
 22 28  1  0  0  0
 22 32  2  0  0  0
 26 27  1  0  0  0
 28100  1  0  0  0
 28101  1  0  0  0
 29102  1  0  0  0
 29103  1  0  0  0
 33 34  1  0  0  0
 33 66  1  0  0  0
 33 70  2  0  0  0
 34 36  1  0  0  0
 34 59  1  0  0  0
 34104  1  0  0  0
 35 44  2  0  0  0
 35 45  1  0  0  0
 35 68  1  0  0  0
 36 56  1  0  0  0
 36105  1  0  0  0
 37 39  1  0  0  0
 37 47  1  0  0  0
 37 66  1  0  0  0
 37106  1  0  0  0
 38 43  2  0  0  0
 38 46  1  0  0  0
 38 47  1  0  0  0
 39 64  1  0  0  0
 39 67  2  0  0  0
 40 52  1  0  0  0
 40 53  2  0  0  0
 40 58  1  0  0  0
 41107  1  0  0  0
 41108  1  0  0  0
 41109  1  0  0  0
 41 48  1  0  0  0
 42 43  1  0  0  0
 42 66  1  0  0  0
 42110  1  0  0  0
 42111  1  0  0  0
 43 44  1  0  0  0
 44112  1  0  0  0
 45 46  2  0  0  0
 45113  1  0  0  0
 46114  1  0  0  0
 47115  1  0  0  0
 47116  1  0  0  0
 48 56  1  0  0  0
 48 65  1  0  0  0
 48117  1  0  0  0
 49 50  1  0  0  0
 49 53  1  0  0  0
 49 64  1  0  0  0
 49118  1  0  0  0
 50 51  1  0  0  0
 50119  1  0  0  0
 50120  1  0  0  0
 51 52  1  0  0  0
 51121  1  0  0  0
 51122  1  0  0  0
 52123  1  0  0  0
 52124  1  0  0  0
 53 54  1  0  0  0
 54 55  2  0  0  0
 54125  1  0  0  0
 55 57  1  0  0  0
 55126  1  0  0  0
 56 69  2  0  0  0
 57 58  2  0  0  0
 57127  1  0  0  0
 58128  1  0  0  0
 59 60  1  0  0  0
 59 61  1  0  0  0
 59 62  1  0  0  0
 60129  1  0  0  0
 60130  1  0  0  0
 60131  1  0  0  0
 61132  1  0  0  0
 61133  1  0  0  0
 61134  1  0  0  0
 62135  1  0  0  0
 62136  1  0  0  0
 62137  1  0  0  0
 63 65  1  0  0  0
 63138  1  0  0  0
 63139  1  0  0  0
 63140  1  0  0  0
 64141  1  0  0  0
 65142  1  0  0  0
 68 80  1  0  0  0
 71 72  2  0  0  0
 71 74  1  0  0  0
 71143  1  0  0  0
 72 75  1  0  0  0
 72144  1  0  0  0
 73 75  2  0  0  0
 73 76  1  0  0  0
 73145  1  0  0  0
 74 76  2  0  0  0
 74 78  1  0  0  0
 75 82  1  0  0  0
 76 83  1  0  0  0
 77 82  1  0  0  0
 77146  1  0  0  0
 77147  1  0  0  0
 77148  1  0  0  0
 78 81  1  0  0  0
 78149  1  0  0  0
 78150  1  0  0  0
 79 80  1  0  0  0
 79 82  1  0  0  0
 79151  1  0  0  0
 79152  1  0  0  0
 80153  1  0  0  0
 80154  1  0  0  0
 81155  1  0  0  0
M  ISO  4   1 100  68 101  80 101  81 100
M  END
> <chiral flag>
0

> <version>
0

> <s_m_source_file>
/data/baiqing/PycharmProjects/Reinvent-master-3.2/result/LINK_invent/BTK/process_docking_weight1_custom_product_contain_oxygen_bond_distance_aromatic_linkinvent_7_9_3/rearranged_h_0009.sdf

> <i_m_source_file_index>
30

> <r_mmod_Potential_Energy-OPLS-2005>
1450.30725097656

> <r_mmod_Stretch_Energy-OPLS-2005>
349.715301513672

> <r_mmod_Bend_Energy-OPLS-2005>
563.630126953125

> <r_mmod_Torsional_Energy-OPLS-2005>
275.981964111328

> <r_mmod_Improper_Torsional_Energy-OPLS-2005>
17.8028717041016

> <r_mmod_Van_der_Waal_Energy-OPLS-2005>
195.080139160156

> <r_mmod_Electrostatic_Energy-OPLS-2005>
-360.411010742188

> <r_mmod_Solvation_Energy-OPLS-2005>
-212.73779296875

> <b_mmod_Minimization_Converged-OPLS-2005>
0

> <r_mmod_RMS_Derivative-OPLS-2005>
87.7099761962891

$$$$
30
                    3D
 Structure written by MMmdl.
151159  0  0  1  0            999 V2000
  -30.6187  -14.6492   20.4963 C   0  0  0  0  0  0
  -30.4388  -12.3971   19.4558 C   0  0  0  0  0  0
  -29.5091  -12.5078   18.2265 C   0  0  0  0  0  0
  -28.0321  -12.3427   18.6377 C   0  0  0  0  0  0
  -27.6527  -13.2166   19.8626 C   0  0  2  0  0  0
  -28.6968  -13.0772   20.9938 C   0  0  0  0  0  0
  -25.2557  -13.8172   20.5682 C   0  0  0  0  0  0
  -24.1828  -13.0438   20.9196 C   0  0  0  0  0  0
  -24.6396  -11.6909   20.8742 C   0  0  0  0  0  0
  -23.9066  -10.4292   21.0408 C   0  0  0  0  0  0
  -24.3616   -9.4206   21.9185 C   0  0  0  0  0  0
  -23.6290   -8.2242   22.0754 C   0  0  0  0  0  0
  -22.4273   -8.0282   21.3545 C   0  0  0  0  0  0
  -21.9909   -9.0257   20.4648 C   0  0  0  0  0  0
  -22.7238  -10.2135   20.3057 C   0  0  0  0  0  0
  -21.6852   -6.0736   22.5279 C   0  0  0  0  0  0
  -21.4016   -6.5639   23.8214 C   0  0  0  0  0  0
  -21.3658   -5.6791   24.9176 C   0  0  0  0  0  0
  -21.6042   -4.3054   24.7225 C   0  0  0  0  0  0
  -21.8819   -3.8146   23.4346 C   0  0  0  0  0  0
  -21.9193   -4.6963   22.3403 C   0  0  0  0  0  0
  -22.7848  -13.5230   21.1855 C   0  0  0  0  0  0
  -22.1660   -4.2149   21.0980 F   0  0  0  0  0  0
  -21.5627   -3.4538   25.7737 F   0  0  0  0  0  0
  -30.0121  -13.4208   20.4308 N   0  0  0  0  0  0
  -26.2983  -12.9352   20.3310 N   0  0  0  0  0  0
  -25.9324  -11.6507   20.5757 N   0  0  0  0  0  0
  -22.0487  -12.8229   22.0412 N   0  0  0  0  0  0
  -25.4267  -15.1894   20.4076 N   0  0  0  0  0  0
  -31.7841  -14.8026   20.1193 O   0  0  0  0  0  0
  -21.6637   -6.8879   21.4242 O   0  0  0  0  0  0
  -22.3535  -14.5535   20.6697 O   0  0  0  0  0  0
  -24.6261  -31.8601   23.2026 C   0  0  0  0  0  0
  -25.9109  -32.4783   23.8353 C   0  0  1  0  0  0
  -27.2239  -27.3194   20.1158 C   0  0  0  0  0  0
  -25.5925  -33.8583   24.2282 N   0  0  0  0  0  0
  -23.4192  -30.4843   21.5452 C   0  0  2  0  0  0
  -24.8651  -28.9391   20.1113 C   0  0  0  0  0  0
  -22.7471  -29.4631   22.4937 C   0  0  0  0  0  0
  -18.0286  -28.1388   22.8486 C   0  0  0  0  0  0
  -24.1487  -36.7295   23.2639 C   0  0  0  0  0  0
  -25.9604  -30.7917   21.3727 C   0  0  0  0  0  0
  -26.0346  -29.4192   20.7140 C   0  0  0  0  0  0
  -27.2172  -28.6217   20.7046 C   0  0  0  0  0  0
  -26.0293  -26.8916   19.4910 C   0  0  0  0  0  0
  -24.8645  -27.6809   19.4910 C   0  0  0  0  0  0
  -23.6336  -29.8195   20.1603 C   0  0  0  0  0  0
  -25.4113  -36.3088   24.0331 C   0  0  1  0  0  0
  -20.5886  -28.3695   23.1284 C   0  0  2  0  0  0
  -20.6777  -26.9420   22.5408 C   0  0  0  0  0  0
  -19.5754  -26.6390   21.5211 C   0  0  0  0  0  0
  -18.1934  -26.7931   22.1623 C   0  0  0  0  0  0
  -19.1538  -28.8857   23.2880 C   0  0  0  0  0  0
  -18.9463  -30.1458   23.8900 C   0  0  0  0  0  0
  -17.6463  -30.6592   24.0566 C   0  0  0  0  0  0
  -25.9049  -34.9457   23.5107 C   0  0  0  0  0  0
  -16.5355  -29.9092   23.6330 C   0  0  0  0  0  0
  -16.7274  -28.6508   23.0354 C   0  0  0  0  0  0
  -26.4492  -31.6591   25.0723 C   0  0  0  0  0  0
  -25.3726  -31.3730   26.1450 C   0  0  0  0  0  0
  -27.0338  -30.3018   24.6176 C   0  0  0  0  0  0
  -27.6049  -32.4326   25.7496 C   0  0  0  0  0  0
  -27.5580  -37.1806   24.8466 C   0  0  0  0  0  0
  -21.4186  -29.3048   22.3677 N   0  0  0  0  0  0
  -26.4293  -37.3782   23.9408 N   0  0  0  0  0  0
  -24.6875  -31.0617   22.0972 N   0  0  0  0  0  0
  -23.4195  -28.8173   23.3019 O   0  0  0  0  0  0
  -28.3450  -26.4748   20.1661 O   0  0  0  0  0  0
  -26.5617  -34.8923   22.4673 O   0  0  0  0  0  0
  -23.5425  -32.1398   23.7357 O   0  0  0  0  0  0
  -31.0832  -19.2733   20.1180 C   0  0  0  0  0  0
  -31.0547  -17.8500   20.2111 C   0  0  0  0  0  0
  -28.8082  -17.9908   21.0445 C   0  0  0  0  0  0
  -29.9881  -20.1093   20.4899 C   0  0  0  0  0  0
  -29.9127  -17.1594   20.6913 C   0  0  0  0  0  0
  -28.8358  -19.4200   20.9543 C   0  0  0  0  0  0
  -30.1688  -21.6482   20.5007 C   0  0  0  0  0  0
  -29.3409  -24.0537   20.4339 C   0  0  0  0  0  0
  -28.1371  -25.0112   20.0428 C   0  0  0  0  0  0
  -29.8038  -15.7006   20.8398 N   0  0  0  0  0  0
  -29.1469  -22.5514   20.3734 N   0  0  0  0  0  0
  -31.3229  -22.0750   20.5990 O   0  0  0  0  0  0
  -27.7420  -20.1203   21.3431 F   0  0  0  0  0  0
  -31.4801  -12.5230   19.1542 H   0  0  0  0  0  0
  -30.3756  -11.4025   19.8998 H   0  0  0  0  0  0
  -29.7766  -11.7565   17.4821 H   0  0  0  0  0  0
  -29.6487  -13.4774   17.7455 H   0  0  0  0  0  0
  -27.8725  -11.2900   18.8737 H   0  0  0  0  0  0
  -27.3773  -12.5678   17.7952 H   0  0  0  0  0  0
  -27.6697  -14.2503   19.5172 H   0  0  0  0  0  0
  -28.7094  -12.0571   21.3806 H   0  0  0  0  0  0
  -28.4403  -13.7125   21.8429 H   0  0  0  0  0  0
  -25.2763   -9.5679   22.4757 H   0  0  0  0  0  0
  -24.0000   -7.4631   22.7471 H   0  0  0  0  0  0
  -21.0840   -8.8778   19.8953 H   0  0  0  0  0  0
  -22.3701  -10.9674   19.6164 H   0  0  0  0  0  0
  -21.2011   -7.6147   23.9719 H   0  0  0  0  0  0
  -21.1479   -6.0520   25.9079 H   0  0  0  0  0  0
  -22.0600   -2.7609   23.2846 H   0  0  0  0  0  0
  -22.4096  -11.9894   22.4811 H   0  0  0  0  0  0
  -21.1104  -13.1259   22.2609 H   0  0  0  0  0  0
  -24.6534  -15.8391   20.5028 H   0  0  0  0  0  0
  -26.2640  -15.6243   20.0421 H   0  0  0  0  0  0
  -26.7176  -32.5454   23.1102 H   0  0  0  0  0  0
  -25.0072  -33.9724   25.0428 H   0  0  0  0  0  0
  -22.7130  -31.3049   21.4029 H   0  0  0  0  0  0
  -23.3750  -35.9628   23.3306 H   0  0  0  0  0  0
  -24.3575  -36.8909   22.2052 H   0  0  0  0  0  0
  -23.7240  -37.6500   23.6655 H   0  0  0  0  0  0
  -26.0918  -31.5561   20.6054 H   0  0  0  0  0  0
  -26.8407  -30.8398   22.0021 H   0  0  0  0  0  0
  -28.1148  -28.9868   21.1838 H   0  0  0  0  0  0
  -25.9664  -25.9310   19.0026 H   0  0  0  0  0  0
  -23.9681  -27.3077   19.0151 H   0  0  0  0  0  0
  -23.7536  -30.5963   19.4042 H   0  0  0  0  0  0
  -22.7531  -29.2500   19.8575 H   0  0  0  0  0  0
  -25.1294  -36.1944   25.0824 H   0  0  0  0  0  0
  -20.9978  -28.3271   24.1405 H   0  0  0  0  0  0
  -20.5682  -26.2308   23.3607 H   0  0  0  0  0  0
  -21.6647  -26.7455   22.1202 H   0  0  0  0  0  0
  -19.6917  -25.6299   21.1244 H   0  0  0  0  0  0
  -19.6690  -27.3196   20.6737 H   0  0  0  0  0  0
  -17.4203  -26.6677   21.4026 H   0  0  0  0  0  0
  -18.0339  -26.0073   22.9020 H   0  0  0  0  0  0
  -19.7939  -30.7272   24.2272 H   0  0  0  0  0  0
  -17.5021  -31.6270   24.5169 H   0  0  0  0  0  0
  -15.5357  -30.2999   23.7650 H   0  0  0  0  0  0
  -15.8672  -28.0826   22.7074 H   0  0  0  0  0  0
  -24.5901  -30.7077   25.7780 H   0  0  0  0  0  0
  -24.8916  -32.2897   26.4870 H   0  0  0  0  0  0
  -25.8052  -30.8912   27.0227 H   0  0  0  0  0  0
  -26.2917  -29.6767   24.1196 H   0  0  0  0  0  0
  -27.4036  -29.7273   25.4679 H   0  0  0  0  0  0
  -27.8783  -30.4307   23.9402 H   0  0  0  0  0  0
  -27.2656  -33.3620   26.2079 H   0  0  0  0  0  0
  -28.3859  -32.6895   25.0327 H   0  0  0  0  0  0
  -28.0719  -31.8448   26.5409 H   0  0  0  0  0  0
  -28.2605  -38.0097   24.7511 H   0  0  0  0  0  0
  -28.1071  -36.2630   24.6298 H   0  0  0  0  0  0
  -27.2297  -37.1461   25.8869 H   0  0  0  0  0  0
  -20.9364  -29.8768   21.6885 H   0  0  0  0  0  0
  -26.0177  -38.2859   24.1404 H   0  0  0  0  0  0
  -31.9967  -19.7364   19.7717 H   0  0  0  0  0  0
  -31.9398  -17.3027   19.9203 H   0  0  0  0  0  0
  -27.9028  -17.5328   21.4149 H   0  0  0  0  0  0
  -29.6511  -24.2990   21.4503 H   0  0  0  0  0  0
  -30.1875  -24.3155   19.7973 H   0  0  0  0  0  0
  -27.2797  -24.7307   20.6572 H   0  0  0  0  0  0
  -27.8679  -24.7911   19.0094 H   0  0  0  0  0  0
  -28.9039  -15.3833   21.1656 H   0  0  0  0  0  0
  -28.2048  -22.1897   20.3007 H   0  0  0  0  0  0
  1 25  1  0  0  0
  1 30  2  0  0  0
  1 80  1  0  0  0
  2  3  1  0  0  0
  2 25  1  0  0  0
  2 84  1  0  0  0
  2 85  1  0  0  0
  3  4  1  0  0  0
  3 86  1  0  0  0
  3 87  1  0  0  0
  4  5  1  0  0  0
  4 88  1  0  0  0
  4 89  1  0  0  0
  5  6  1  0  0  0
  5 26  1  0  0  0
  5 90  1  0  0  0
  6 25  1  0  0  0
  6 91  1  0  0  0
  6 92  1  0  0  0
  7  8  2  0  0  0
  7 26  1  0  0  0
  7 29  1  0  0  0
  8  9  1  0  0  0
  8 22  1  0  0  0
  9 10  1  0  0  0
  9 27  2  0  0  0
 10 11  2  0  0  0
 10 15  1  0  0  0
 11 12  1  0  0  0
 11 93  1  0  0  0
 12 13  2  0  0  0
 12 94  1  0  0  0
 13 14  1  0  0  0
 13 31  1  0  0  0
 14 15  2  0  0  0
 14 95  1  0  0  0
 15 96  1  0  0  0
 16 17  2  0  0  0
 16 21  1  0  0  0
 16 31  1  0  0  0
 17 18  1  0  0  0
 17 97  1  0  0  0
 18 19  2  0  0  0
 18 98  1  0  0  0
 19 20  1  0  0  0
 19 24  1  0  0  0
 20 21  2  0  0  0
 20 99  1  0  0  0
 21 23  1  0  0  0
 22 28  1  0  0  0
 22 32  2  0  0  0
 26 27  1  0  0  0
 28100  1  0  0  0
 28101  1  0  0  0
 29102  1  0  0  0
 29103  1  0  0  0
 33 34  1  0  0  0
 33 66  1  0  0  0
 33 70  2  0  0  0
 34 36  1  0  0  0
 34 59  1  0  0  0
 34104  1  0  0  0
 35 44  2  0  0  0
 35 45  1  0  0  0
 35 68  1  0  0  0
 36 56  1  0  0  0
 36105  1  0  0  0
 37 39  1  0  0  0
 37 47  1  0  0  0
 37 66  1  0  0  0
 37106  1  0  0  0
 38 43  2  0  0  0
 38 46  1  0  0  0
 38 47  1  0  0  0
 39 64  1  0  0  0
 39 67  2  0  0  0
 40 52  1  0  0  0
 40 53  2  0  0  0
 40 58  1  0  0  0
 41107  1  0  0  0
 41108  1  0  0  0
 41109  1  0  0  0
 41 48  1  0  0  0
 42 43  1  0  0  0
 42 66  1  0  0  0
 42110  1  0  0  0
 42111  1  0  0  0
 43 44  1  0  0  0
 44112  1  0  0  0
 45 46  2  0  0  0
 45113  1  0  0  0
 46114  1  0  0  0
 47115  1  0  0  0
 47116  1  0  0  0
 48 56  1  0  0  0
 48 65  1  0  0  0
 48117  1  0  0  0
 49 50  1  0  0  0
 49 53  1  0  0  0
 49 64  1  0  0  0
 49118  1  0  0  0
 50 51  1  0  0  0
 50119  1  0  0  0
 50120  1  0  0  0
 51 52  1  0  0  0
 51121  1  0  0  0
 51122  1  0  0  0
 52123  1  0  0  0
 52124  1  0  0  0
 53 54  1  0  0  0
 54 55  2  0  0  0
 54125  1  0  0  0
 55 57  1  0  0  0
 55126  1  0  0  0
 56 69  2  0  0  0
 57 58  2  0  0  0
 57127  1  0  0  0
 58128  1  0  0  0
 59 60  1  0  0  0
 59 61  1  0  0  0
 59 62  1  0  0  0
 60129  1  0  0  0
 60130  1  0  0  0
 60131  1  0  0  0
 61132  1  0  0  0
 61133  1  0  0  0
 61134  1  0  0  0
 62135  1  0  0  0
 62136  1  0  0  0
 62137  1  0  0  0
 63 65  1  0  0  0
 63138  1  0  0  0
 63139  1  0  0  0
 63140  1  0  0  0
 64141  1  0  0  0
 65142  1  0  0  0
 68 79  1  0  0  0
 71 72  2  0  0  0
 71 74  1  0  0  0
 71143  1  0  0  0
 72 75  1  0  0  0
 72144  1  0  0  0
 73 75  2  0  0  0
 73 76  1  0  0  0
 73145  1  0  0  0
 74 76  2  0  0  0
 74 77  1  0  0  0
 75 80  1  0  0  0
 76 83  1  0  0  0
 77 81  1  0  0  0
 77 82  2  0  0  0
 78 79  1  0  0  0
 78 81  1  0  0  0
 78146  1  0  0  0
 78147  1  0  0  0
 79148  1  0  0  0
 79149  1  0  0  0
 80150  1  0  0  0
 81151  1  0  0  0
M  ISO  4   1 100  68 101  79 101  80 100
M  END
> <chiral flag>
0

> <version>
0

> <s_m_source_file>
/data/baiqing/PycharmProjects/Reinvent-master-3.2/result/LINK_invent/BTK/process_docking_weight1_custom_product_contain_oxygen_bond_distance_aromatic_linkinvent_7_9_3/rearranged_h_0009.sdf

> <i_m_source_file_index>
31

> <r_mmod_Potential_Energy-OPLS-2005>
16.510835647583

> <r_mmod_Stretch_Energy-OPLS-2005>
80.9093017578125

> <r_mmod_Bend_Energy-OPLS-2005>
141.168273925781

> <r_mmod_Torsional_Energy-OPLS-2005>
217.246307373047

> <r_mmod_Improper_Torsional_Energy-OPLS-2005>
4.68743324279785

> <r_mmod_Van_der_Waal_Energy-OPLS-2005>
149.326095581055

> <r_mmod_Electrostatic_Energy-OPLS-2005>
-399.823760986328

> <r_mmod_Solvation_Energy-OPLS-2005>
-226.79606628418

> <b_mmod_Minimization_Converged-OPLS-2005>
0

> <r_mmod_RMS_Derivative-OPLS-2005>
0.423974633216858

$$$$
31
                    3D
 Structure written by MMmdl.
153162  0  0  1  0            999 V2000
  -30.3938  -15.3226   20.2826 C   0  0  0  0  0  0
  -30.4278  -12.8403   19.4793 C   0  0  0  0  0  0
  -29.5173  -12.5573   18.2539 C   0  0  0  0  0  0
  -28.0705  -12.2838   18.7033 C   0  0  0  0  0  0
  -27.6003  -13.2706   19.7982 C   0  0  2  0  0  0
  -28.6409  -13.4727   20.9191 C   0  0  0  0  0  0
  -25.2306  -13.8199   20.5668 C   0  0  0  0  0  0
  -24.1713  -13.0416   20.9273 C   0  0  0  0  0  0
  -24.6427  -11.6902   20.8798 C   0  0  0  0  0  0
  -23.9091  -10.4276   21.0443 C   0  0  0  0  0  0
  -24.3651   -9.4168   21.9211 C   0  0  0  0  0  0
  -23.6308   -8.2221   22.0777 C   0  0  0  0  0  0
  -22.4288   -8.0266   21.3574 C   0  0  0  0  0  0
  -21.9910   -9.0227   20.4675 C   0  0  0  0  0  0
  -22.7255  -10.2100   20.3054 C   0  0  0  0  0  0
  -21.6864   -6.0688   22.5251 C   0  0  0  0  0  0
  -21.4017   -6.5610   23.8182 C   0  0  0  0  0  0
  -21.3659   -5.6778   24.9160 C   0  0  0  0  0  0
  -21.6011   -4.3032   24.7233 C   0  0  0  0  0  0
  -21.8838   -3.8125   23.4372 C   0  0  0  0  0  0
  -21.9232   -4.6914   22.3419 C   0  0  0  0  0  0
  -22.7699  -13.5086   21.1946 C   0  0  0  0  0  0
  -22.1679   -4.2086   21.1010 F   0  0  0  0  0  0
  -21.5649   -3.4550   25.7780 F   0  0  0  0  0  0
  -29.8505  -13.9997   20.2627 N   0  0  0  0  0  0
  -26.2749  -12.9480   20.3094 N   0  0  0  0  0  0
  -25.9356  -11.6589   20.5736 N   0  0  0  0  0  0
  -22.0434  -12.8009   22.0480 N   0  0  0  0  0  0
  -25.3926  -15.1934   20.4080 N   0  0  0  0  0  0
  -31.6198  -15.3102   20.1114 O   0  0  0  0  0  0
  -21.6657   -6.8849   21.4235 O   0  0  0  0  0  0
  -22.3356  -14.5395   20.6789 O   0  0  0  0  0  0
  -24.6751  -31.8166   23.1617 C   0  0  0  0  0  0
  -25.9394  -32.4540   23.8164 C   0  0  1  0  0  0
  -27.1940  -26.8650   20.1643 C   0  0  0  0  0  0
  -25.6032  -33.8367   24.2077 N   0  0  0  0  0  0
  -23.4938  -30.4355   21.5061 C   0  0  2  0  0  0
  -24.9394  -28.8111   20.1058 C   0  0  0  0  0  0
  -22.7752  -29.4483   22.4672 C   0  0  0  0  0  0
  -18.0347  -28.1442   22.8611 C   0  0  0  0  0  0
  -24.1476  -36.7220   23.2655 C   0  0  0  0  0  0
  -26.0694  -30.6015   21.3977 C   0  0  0  0  0  0
  -26.1310  -29.1896   20.7401 C   0  0  0  0  0  0
  -27.2595  -28.2419   20.7310 C   0  0  0  0  0  0
  -25.9670  -26.6435   19.5014 C   0  0  0  0  0  0
  -24.8879  -27.5649   19.4630 C   0  0  0  0  0  0
  -23.7366  -29.7538   20.1325 C   0  0  0  0  0  0
  -25.4128  -36.2977   24.0293 C   0  0  1  0  0  0
  -20.5978  -28.3880   23.1257 C   0  0  2  0  0  0
  -20.6799  -26.9541   22.5500 C   0  0  0  0  0  0
  -19.5810  -26.6455   21.5322 C   0  0  0  0  0  0
  -18.2019  -26.7910   22.1919 C   0  0  0  0  0  0
  -19.1603  -28.9000   23.2925 C   0  0  0  0  0  0
  -18.9452  -30.1567   23.8958 C   0  0  0  0  0  0
  -17.6414  -30.6648   24.0582 C   0  0  0  0  0  0
  -25.9114  -34.9344   23.5034 C   0  0  0  0  0  0
  -16.5354  -29.9073   23.6400 C   0  0  0  0  0  0
  -16.7334  -28.6450   23.0522 C   0  0  0  0  0  0
  -26.4628  -31.6532   25.0749 C   0  0  0  0  0  0
  -25.3730  -31.3793   26.1358 C   0  0  0  0  0  0
  -27.0494  -30.2866   24.6576 C   0  0  0  0  0  0
  -27.6113  -32.4346   25.7576 C   0  0  0  0  0  0
  -27.5568  -37.1789   24.8476 C   0  0  0  0  0  0
  -21.4370  -29.3224   22.3577 N   0  0  0  0  0  0
  -26.4314  -37.3684   23.9402 N   0  0  0  0  0  0
  -24.7696  -30.9811   22.0740 N   0  0  0  0  0  0
  -23.4263  -28.7905   23.2811 O   0  0  0  0  0  0
  -28.1847  -25.7365   20.1199 O   0  0  0  0  0  0
  -26.5689  -34.8914   22.4605 O   0  0  0  0  0  0
  -23.5797  -32.1160   23.6705 O   0  0  0  0  0  0
  -28.0596  -22.3555   18.4680 C   0  0  0  0  0  0
  -28.2496  -21.1318   17.7557 C   0  0  0  0  0  0
  -28.8980  -21.1808   20.4153 C   0  0  0  0  0  0
  -29.1008  -19.8072   19.7050 C   0  0  0  0  0  0
  -28.3975  -22.5427   19.8305 C   0  0  0  0  0  0
  -28.7971  -19.9522   18.3405 C   0  0  0  0  0  0
  -30.1289  -18.0393   18.3473 C   0  0  0  0  0  0
  -29.9093  -18.2323   19.8849 C   0  0  2  0  0  0
  -28.0744  -18.2176   16.8397 C   0  0  0  0  0  0
  -27.9717  -24.1239   20.5258 C   0  0  0  0  0  0
  -29.1805  -18.8522   17.5669 N   0  0  0  0  0  0
  -29.6126  -16.6091   20.2680 N   0  0  0  0  0  0
  -31.4394  -13.0510   19.1275 H   0  0  0  0  0  0
  -30.5282  -11.9480   20.1015 H   0  0  0  0  0  0
  -29.8983  -11.7146   17.6736 H   0  0  0  0  0  0
  -29.5204  -13.4138   17.5754 H   0  0  0  0  0  0
  -28.0309  -11.2660   19.0913 H   0  0  0  0  0  0
  -27.3872  -12.3043   17.8488 H   0  0  0  0  0  0
  -27.5016  -14.2210   19.2794 H   0  0  0  0  0  0
  -28.8242  -12.5358   21.4439 H   0  0  0  0  0  0
  -28.2827  -14.1918   21.6553 H   0  0  0  0  0  0
  -25.2845   -9.5608   22.4714 H   0  0  0  0  0  0
  -24.0031   -7.4607   22.7470 H   0  0  0  0  0  0
  -21.0839   -8.8743   19.8981 H   0  0  0  0  0  0
  -22.3769  -10.9614   19.6105 H   0  0  0  0  0  0
  -21.1975   -7.6137   23.9634 H   0  0  0  0  0  0
  -21.1441   -6.0563   25.9056 H   0  0  0  0  0  0
  -22.0636   -2.7586   23.2921 H   0  0  0  0  0  0
  -22.4188  -11.9665   22.4781 H   0  0  0  0  0  0
  -21.1041  -13.0896   22.2737 H   0  0  0  0  0  0
  -24.6283  -15.8429   20.5498 H   0  0  0  0  0  0
  -26.2111  -15.6278   20.0003 H   0  0  0  0  0  0
  -26.7525  -32.5055   23.0933 H   0  0  0  0  0  0
  -25.0118  -33.9382   25.0184 H   0  0  0  0  0  0
  -22.8144  -31.2731   21.3363 H   0  0  0  0  0  0
  -23.3748  -35.9536   23.3303 H   0  0  0  0  0  0
  -24.3596  -36.8876   22.2089 H   0  0  0  0  0  0
  -23.7217  -37.6418   23.6694 H   0  0  0  0  0  0
  -26.2571  -31.3348   20.6147 H   0  0  0  0  0  0
  -26.9263  -30.6565   22.0554 H   0  0  0  0  0  0
  -28.1799  -28.5374   21.2114 H   0  0  0  0  0  0
  -25.8219  -25.6922   19.0059 H   0  0  0  0  0  0
  -23.9837  -27.2818   18.9443 H   0  0  0  0  0  0
  -23.9048  -30.5176   19.3731 H   0  0  0  0  0  0
  -22.8406  -29.2277   19.8065 H   0  0  0  0  0  0
  -25.1313  -36.1803   25.0781 H   0  0  0  0  0  0
  -21.0062  -28.3436   24.1344 H   0  0  0  0  0  0
  -20.5650  -26.2501   23.3772 H   0  0  0  0  0  0
  -21.6658  -26.7555   22.1269 H   0  0  0  0  0  0
  -19.7013  -25.6390   21.1322 H   0  0  0  0  0  0
  -19.6608  -27.3428   20.6955 H   0  0  0  0  0  0
  -17.4126  -26.6419   21.4551 H   0  0  0  0  0  0
  -18.0666  -26.0215   22.9527 H   0  0  0  0  0  0
  -19.7867  -30.7495   24.2319 H   0  0  0  0  0  0
  -17.4974  -31.6323   24.5160 H   0  0  0  0  0  0
  -15.5296  -30.2892   23.7744 H   0  0  0  0  0  0
  -15.8764  -28.0678   22.7293 H   0  0  0  0  0  0
  -24.5982  -30.7055   25.7689 H   0  0  0  0  0  0
  -24.8837  -32.2952   26.4671 H   0  0  0  0  0  0
  -25.7932  -30.9103   27.0244 H   0  0  0  0  0  0
  -26.3123  -29.6561   24.1562 H   0  0  0  0  0  0
  -27.3892  -29.7297   25.5337 H   0  0  0  0  0  0
  -27.9161  -30.4031   24.0048 H   0  0  0  0  0  0
  -27.2681  -33.3699   26.2019 H   0  0  0  0  0  0
  -28.3982  -32.6793   25.0430 H   0  0  0  0  0  0
  -28.0683  -31.8550   26.5615 H   0  0  0  0  0  0
  -28.2590  -38.0077   24.7472 H   0  0  0  0  0  0
  -28.1049  -36.2606   24.6329 H   0  0  0  0  0  0
  -27.2301  -37.1473   25.8886 H   0  0  0  0  0  0
  -20.9610  -29.9074   21.6841 H   0  0  0  0  0  0
  -26.0167  -38.2773   24.1315 H   0  0  0  0  0  0
  -27.6359  -23.1896   17.9230 H   0  0  0  0  0  0
  -28.0160  -21.1370   16.6989 H   0  0  0  0  0  0
  -29.1696  -21.2058   21.4621 H   0  0  0  0  0  0
  -30.0491  -16.9984   18.0208 H   0  0  0  0  0  0
  -31.1515  -18.3243   18.0762 H   0  0  0  0  0  0
  -30.8594  -18.4625   20.3738 H   0  0  0  0  0  0
  -27.1340  -18.3096   17.3855 H   0  0  0  0  0  0
  -28.2526  -17.1504   16.6865 H   0  0  0  0  0  0
  -27.9142  -18.6663   15.8581 H   0  0  0  0  0  0
  -28.3940  -24.0732   21.5326 H   0  0  0  0  0  0
  -26.8973  -24.0409   20.7071 H   0  0  0  0  0  0
  -28.6235  -16.4308   20.3402 H   0  0  0  0  0  0
  1 25  1  0  0  0
  1 30  2  0  0  0
  1 82  1  0  0  0
  2  3  1  0  0  0
  2 25  1  0  0  0
  2 83  1  0  0  0
  2 84  1  0  0  0
  3  4  1  0  0  0
  3 85  1  0  0  0
  3 86  1  0  0  0
  4  5  1  0  0  0
  4 87  1  0  0  0
  4 88  1  0  0  0
  5  6  1  0  0  0
  5 26  1  0  0  0
  5 89  1  0  0  0
  6 25  1  0  0  0
  6 90  1  0  0  0
  6 91  1  0  0  0
  7  8  2  0  0  0
  7 26  1  0  0  0
  7 29  1  0  0  0
  8  9  1  0  0  0
  8 22  1  0  0  0
  9 10  1  0  0  0
  9 27  2  0  0  0
 10 11  2  0  0  0
 10 15  1  0  0  0
 11 12  1  0  0  0
 11 92  1  0  0  0
 12 13  2  0  0  0
 12 93  1  0  0  0
 13 14  1  0  0  0
 13 31  1  0  0  0
 14 15  2  0  0  0
 14 94  1  0  0  0
 15 95  1  0  0  0
 16 17  2  0  0  0
 16 21  1  0  0  0
 16 31  1  0  0  0
 17 18  1  0  0  0
 17 96  1  0  0  0
 18 19  2  0  0  0
 18 97  1  0  0  0
 19 20  1  0  0  0
 19 24  1  0  0  0
 20 21  2  0  0  0
 20 98  1  0  0  0
 21 23  1  0  0  0
 22 28  1  0  0  0
 22 32  2  0  0  0
 26 27  1  0  0  0
 28 99  1  0  0  0
 28100  1  0  0  0
 29101  1  0  0  0
 29102  1  0  0  0
 33 34  1  0  0  0
 33 66  1  0  0  0
 33 70  2  0  0  0
 34 36  1  0  0  0
 34 59  1  0  0  0
 34103  1  0  0  0
 35 44  2  0  0  0
 35 45  1  0  0  0
 35 68  1  0  0  0
 36 56  1  0  0  0
 36104  1  0  0  0
 37 39  1  0  0  0
 37 47  1  0  0  0
 37 66  1  0  0  0
 37105  1  0  0  0
 38 43  2  0  0  0
 38 46  1  0  0  0
 38 47  1  0  0  0
 39 64  1  0  0  0
 39 67  2  0  0  0
 40 52  1  0  0  0
 40 53  2  0  0  0
 40 58  1  0  0  0
 41106  1  0  0  0
 41107  1  0  0  0
 41108  1  0  0  0
 41 48  1  0  0  0
 42 43  1  0  0  0
 42 66  1  0  0  0
 42109  1  0  0  0
 42110  1  0  0  0
 43 44  1  0  0  0
 44111  1  0  0  0
 45 46  2  0  0  0
 45112  1  0  0  0
 46113  1  0  0  0
 47114  1  0  0  0
 47115  1  0  0  0
 48 56  1  0  0  0
 48 65  1  0  0  0
 48116  1  0  0  0
 49 50  1  0  0  0
 49 53  1  0  0  0
 49 64  1  0  0  0
 49117  1  0  0  0
 50 51  1  0  0  0
 50118  1  0  0  0
 50119  1  0  0  0
 51 52  1  0  0  0
 51120  1  0  0  0
 51121  1  0  0  0
 52122  1  0  0  0
 52123  1  0  0  0
 53 54  1  0  0  0
 54 55  2  0  0  0
 54124  1  0  0  0
 55 57  1  0  0  0
 55125  1  0  0  0
 56 69  2  0  0  0
 57 58  2  0  0  0
 57126  1  0  0  0
 58127  1  0  0  0
 59 60  1  0  0  0
 59 61  1  0  0  0
 59 62  1  0  0  0
 60128  1  0  0  0
 60129  1  0  0  0
 60130  1  0  0  0
 61131  1  0  0  0
 61132  1  0  0  0
 61133  1  0  0  0
 62134  1  0  0  0
 62135  1  0  0  0
 62136  1  0  0  0
 63 65  1  0  0  0
 63137  1  0  0  0
 63138  1  0  0  0
 63139  1  0  0  0
 64140  1  0  0  0
 65141  1  0  0  0
 68 80  1  0  0  0
 71 72  2  0  0  0
 71 75  1  0  0  0
 71142  1  0  0  0
 72 76  1  0  0  0
 72143  1  0  0  0
 73 74  1  0  0  0
 73 75  2  0  0  0
 73144  1  0  0  0
 74 76  2  0  0  0
 74 78  1  0  0  0
 75 80  1  0  0  0
 76 81  1  0  0  0
 77 78  1  0  0  0
 77 81  1  0  0  0
 77145  1  0  0  0
 77146  1  0  0  0
 78 82  1  0  0  0
 78147  1  0  0  0
 79 81  1  0  0  0
 79148  1  0  0  0
 79149  1  0  0  0
 79150  1  0  0  0
 80151  1  0  0  0
 80152  1  0  0  0
 82153  1  0  0  0
M  ISO  4   1 100  68 101  80 101  82 100
M  END
> <chiral flag>
0

> <version>
0

> <s_m_source_file>
/data/baiqing/PycharmProjects/Reinvent-master-3.2/result/LINK_invent/BTK/process_docking_weight1_custom_product_contain_oxygen_bond_distance_aromatic_linkinvent_7_9_3/rearranged_h_0009.sdf

> <i_m_source_file_index>
32

> <r_mmod_Potential_Energy-OPLS-2005>
1513.76171875

> <r_mmod_Stretch_Energy-OPLS-2005>
668.076904296875

> <r_mmod_Bend_Energy-OPLS-2005>
548.554077148438

> <r_mmod_Torsional_Energy-OPLS-2005>
261.649566650391

> <r_mmod_Improper_Torsional_Energy-OPLS-2005>
14.1821956634521

> <r_mmod_Van_der_Waal_Energy-OPLS-2005>
120.808174133301

> <r_mmod_Electrostatic_Energy-OPLS-2005>
-397.542846679688

> <r_mmod_Solvation_Energy-OPLS-2005>
-237.691589355469

> <b_mmod_Minimization_Converged-OPLS-2005>
0

> <r_mmod_RMS_Derivative-OPLS-2005>
10.418571472168

$$$$
32
                    3D
 Structure written by MMmdl.
168177  0  0  1  0            999 V2000
  -30.7122  -14.4175   20.6435 C   0  0  0  0  0  0
  -30.4220  -12.2922   19.4210 C   0  0  0  0  0  0
  -29.4938  -12.5030   18.2062 C   0  0  0  0  0  0
  -28.0135  -12.3656   18.6151 C   0  0  0  0  0  0
  -27.6649  -13.1996   19.8776 C   0  0  2  0  0  0
  -28.7013  -12.9491   20.9964 C   0  0  0  0  0  0
  -25.2634  -13.8133   20.5722 C   0  0  0  0  0  0
  -24.1859  -13.0438   20.9137 C   0  0  0  0  0  0
  -24.6394  -11.6903   20.8706 C   0  0  0  0  0  0
  -23.9035  -10.4305   21.0392 C   0  0  0  0  0  0
  -24.3601   -9.4227   21.9159 C   0  0  0  0  0  0
  -23.6298   -8.2254   22.0734 C   0  0  0  0  0  0
  -22.4288   -8.0292   21.3508 C   0  0  0  0  0  0
  -21.9899   -9.0260   20.4620 C   0  0  0  0  0  0
  -22.7208  -10.2150   20.3040 C   0  0  0  0  0  0
  -21.6851   -6.0748   22.5262 C   0  0  0  0  0  0
  -21.4011   -6.5640   23.8207 C   0  0  0  0  0  0
  -21.3654   -5.6794   24.9163 C   0  0  0  0  0  0
  -21.6025   -4.3045   24.7219 C   0  0  0  0  0  0
  -21.8810   -3.8142   23.4333 C   0  0  0  0  0  0
  -21.9186   -4.6964   22.3400 C   0  0  0  0  0  0
  -22.7876  -13.5258   21.1804 C   0  0  0  0  0  0
  -22.1649   -4.2153   21.0976 F   0  0  0  0  0  0
  -21.5649   -3.4536   25.7720 F   0  0  0  0  0  0
  -30.0405  -13.2530   20.4618 N   0  0  0  0  0  0
  -26.3052  -12.9294   20.3376 N   0  0  0  0  0  0
  -25.9312  -11.6466   20.5754 N   0  0  0  0  0  0
  -22.0520  -12.8277   22.0380 N   0  0  0  0  0  0
  -25.4454  -15.1861   20.4269 N   0  0  0  0  0  0
  -31.7777  -14.6853   20.0811 O   0  0  0  0  0  0
  -21.6634   -6.8895   21.4241 O   0  0  0  0  0  0
  -22.3585  -14.5575   20.6656 O   0  0  0  0  0  0
  -24.6107  -31.8704   23.2109 C   0  0  0  0  0  0
  -25.9021  -32.4832   23.8381 C   0  0  1  0  0  0
  -27.2414  -27.4778   20.0939 C   0  0  0  0  0  0
  -25.5883  -33.8627   24.2302 N   0  0  0  0  0  0
  -23.3976  -30.4928   21.5508 C   0  0  2  0  0  0
  -24.8435  -28.9568   20.1210 C   0  0  0  0  0  0
  -22.7399  -29.4677   22.5019 C   0  0  0  0  0  0
  -18.0286  -28.1385   22.8424 C   0  0  0  0  0  0
  -24.1499  -36.7322   23.2624 C   0  0  0  0  0  0
  -25.9167  -30.8527   21.3519 C   0  0  0  0  0  0
  -25.9995  -29.4853   20.7082 C   0  0  0  0  0  0
  -27.2039  -28.7522   20.6919 C   0  0  0  0  0  0
  -26.0724  -26.9474   19.5109 C   0  0  0  0  0  0
  -24.8706  -27.6818   19.5235 C   0  0  0  0  0  0
  -23.6031  -29.8193   20.1672 C   0  0  0  0  0  0
  -25.4108  -36.3105   24.0321 C   0  0  1  0  0  0
  -20.5848  -28.3685   23.1340 C   0  0  2  0  0  0
  -20.6771  -26.9391   22.5538 C   0  0  0  0  0  0
  -19.5860  -26.6367   21.5231 C   0  0  0  0  0  0
  -18.1953  -26.7972   22.1467 C   0  0  0  0  0  0
  -19.1518  -28.8843   23.2896 C   0  0  0  0  0  0
  -18.9433  -30.1421   23.8961 C   0  0  0  0  0  0
  -17.6428  -30.6573   24.0565 C   0  0  0  0  0  0
  -25.9028  -34.9478   23.5102 C   0  0  0  0  0  0
  -16.5330  -29.9064   23.6273 C   0  0  0  0  0  0
  -16.7260  -28.6491   23.0277 C   0  0  0  0  0  0
  -26.4459  -31.6587   25.0684 C   0  0  0  0  0  0
  -25.3735  -31.3714   26.1456 C   0  0  0  0  0  0
  -27.0218  -30.3015   24.5980 C   0  0  0  0  0  0
  -27.6033  -32.4295   25.7458 C   0  0  0  0  0  0
  -27.5571  -37.1819   24.8453 C   0  0  0  0  0  0
  -21.4123  -29.3031   22.3731 N   0  0  0  0  0  0
  -26.4292  -37.3777   23.9383 N   0  0  0  0  0  0
  -24.6603  -31.0844   22.0995 N   0  0  0  0  0  0
  -23.4184  -28.8225   23.3067 O   0  0  0  0  0  0
  -28.4232  -26.7870   20.0446 O   0  0  0  0  0  0
  -26.5612  -34.8928   22.4679 O   0  0  0  0  0  0
  -23.5295  -32.1485   23.7519 O   0  0  0  0  0  0
  -28.3814  -18.1161   21.8828 C   0  0  0  0  0  0
  -29.6733  -17.5067   23.8601 C   0  0  0  0  0  0
  -27.6640  -18.8703   24.0912 C   0  0  0  0  0  0
  -29.4858  -17.4558   22.4657 C   0  0  0  0  0  0
  -27.4761  -18.8494   22.6871 C   0  0  0  0  0  0
  -28.7613  -18.2028   24.6732 C   0  0  0  0  0  0
  -27.0588  -23.1918   22.0433 C   0  0  0  0  0  0
  -26.5402  -22.7143   19.6986 C   0  0  0  0  0  0
  -27.6710  -21.7705   22.0585 C   0  0  0  0  0  0
  -25.8797  -21.4748   20.3636 C   0  0  0  0  0  0
  -30.4798  -16.6940   21.6064 C   0  0  0  0  0  0
  -26.3409  -19.6531   22.0394 C   0  0  0  0  0  0
  -28.2346  -24.3578   20.2515 C   0  0  0  0  0  0
  -28.5262  -25.7022   20.9583 C   0  0  0  0  0  0
  -26.9708  -23.7354   20.6765 N   0  0  0  0  0  0
  -30.0874  -15.3030   21.4292 N   0  0  0  0  0  0
  -26.8672  -20.8038   21.2574 N   0  3  0  0  0  0
  -28.9486  -18.2422   26.0134 F   0  0  0  0  0  0
  -31.4659  -12.3916   19.1165 H   0  0  0  0  0  0
  -30.3214  -11.2821   19.8228 H   0  0  0  0  0  0
  -29.7386  -11.7889   17.4207 H   0  0  0  0  0  0
  -29.6661  -13.4915   17.7771 H   0  0  0  0  0  0
  -27.8179  -11.3111   18.8114 H   0  0  0  0  0  0
  -27.3633  -12.6395   17.7823 H   0  0  0  0  0  0
  -27.7211  -14.2491   19.5904 H   0  0  0  0  0  0
  -28.6665  -11.9083   21.3213 H   0  0  0  0  0  0
  -28.4468  -13.5240   21.8876 H   0  0  0  0  0  0
  -25.2750   -9.5729   22.4720 H   0  0  0  0  0  0
  -23.9964   -7.4673   22.7496 H   0  0  0  0  0  0
  -21.0790   -8.8807   19.8985 H   0  0  0  0  0  0
  -22.3631  -10.9694   19.6169 H   0  0  0  0  0  0
  -21.2006   -7.6141   23.9712 H   0  0  0  0  0  0
  -21.1485   -6.0519   25.9069 H   0  0  0  0  0  0
  -22.0595   -2.7605   23.2840 H   0  0  0  0  0  0
  -22.4142  -11.9899   22.4664 H   0  0  0  0  0  0
  -21.1172  -13.1347   22.2654 H   0  0  0  0  0  0
  -24.6940  -15.8490   20.5802 H   0  0  0  0  0  0
  -26.3263  -15.6206   20.1805 H   0  0  0  0  0  0
  -26.7097  -32.5557   23.1148 H   0  0  0  0  0  0
  -25.0011  -33.9787   25.0438 H   0  0  0  0  0  0
  -22.6816  -31.3046   21.4117 H   0  0  0  0  0  0
  -23.3725  -35.9694   23.3334 H   0  0  0  0  0  0
  -24.3589  -36.8904   22.2024 H   0  0  0  0  0  0
  -23.7318  -37.6559   23.6632 H   0  0  0  0  0  0
  -26.0078  -31.6153   20.5760 H   0  0  0  0  0  0
  -26.8126  -30.9199   21.9563 H   0  0  0  0  0  0
  -28.1001  -29.1657   21.1329 H   0  0  0  0  0  0
  -26.0955  -25.9726   19.0453 H   0  0  0  0  0  0
  -23.9791  -27.2667   19.0724 H   0  0  0  0  0  0
  -23.7042  -30.5931   19.4044 H   0  0  0  0  0  0
  -22.7292  -29.2327   19.8761 H   0  0  0  0  0  0
  -25.1289  -36.1950   25.0811 H   0  0  0  0  0  0
  -20.9883  -28.3348   24.1496 H   0  0  0  0  0  0
  -20.5522  -26.2277   23.3728 H   0  0  0  0  0  0
  -21.6669  -26.7377   22.1438 H   0  0  0  0  0  0
  -19.7047  -25.6265   21.1321 H   0  0  0  0  0  0
  -19.6922  -27.3142   20.6739 H   0  0  0  0  0  0
  -17.4313  -26.6820   21.3762 H   0  0  0  0  0  0
  -18.0186  -26.0071   22.8769 H   0  0  0  0  0  0
  -19.7877  -30.7222   24.2401 H   0  0  0  0  0  0
  -17.4962  -31.6253   24.5175 H   0  0  0  0  0  0
  -15.5335  -30.2972   23.7546 H   0  0  0  0  0  0
  -15.8673  -28.0824   22.6924 H   0  0  0  0  0  0
  -24.5907  -30.7045   25.7842 H   0  0  0  0  0  0
  -24.8926  -32.2873   26.4886 H   0  0  0  0  0  0
  -25.8107  -30.8923   27.0224 H   0  0  0  0  0  0
  -26.2711  -29.6870   24.0989 H   0  0  0  0  0  0
  -27.3950  -29.7149   25.4385 H   0  0  0  0  0  0
  -27.8575  -30.4317   23.9101 H   0  0  0  0  0  0
  -27.2633  -33.3576   26.2066 H   0  0  0  0  0  0
  -28.3835  -32.6897   25.0294 H   0  0  0  0  0  0
  -28.0710  -31.8405   26.5359 H   0  0  0  0  0  0
  -28.2602  -38.0095   24.7445 H   0  0  0  0  0  0
  -28.1053  -36.2624   24.6344 H   0  0  0  0  0  0
  -27.2283  -37.1542   25.8856 H   0  0  0  0  0  0
  -20.9291  -29.8737   21.6937 H   0  0  0  0  0  0
  -26.0178  -38.2845   24.1394 H   0  0  0  0  0  0
  -28.2477  -18.0799   20.8079 H   0  0  0  0  0  0
  -30.5209  -17.0106   24.3088 H   0  0  0  0  0  0
  -26.9865  -19.4137   24.7350 H   0  0  0  0  0  0
  -27.6172  -23.8559   22.7051 H   0  0  0  0  0  0
  -26.0518  -23.1549   22.4653 H   0  0  0  0  0  0
  -25.8598  -23.1883   18.9882 H   0  0  0  0  0  0
  -27.3904  -22.3690   19.1075 H   0  0  0  0  0  0
  -27.7797  -21.4497   23.0943 H   0  0  0  0  0  0
  -28.6806  -21.7790   21.6503 H   0  0  0  0  0  0
  -25.5542  -20.7728   19.5926 H   0  0  0  0  0  0
  -24.9812  -21.7691   20.9111 H   0  0  0  0  0  0
  -30.5623  -17.1778   20.6330 H   0  0  0  0  0  0
  -31.4724  -16.7345   22.0531 H   0  0  0  0  0  0
  -25.6503  -20.0162   22.8029 H   0  0  0  0  0  0
  -25.7577  -18.9903   21.3991 H   0  0  0  0  0  0
  -29.0585  -23.6701   20.4448 H   0  0  0  0  0  0
  -28.2396  -24.5273   19.1723 H   0  0  0  0  0  0
  -29.5581  -25.6925   21.3160 H   0  0  0  0  0  0
  -27.9143  -25.8669   21.8468 H   0  0  0  0  0  0
  -29.2313  -14.9973   21.8689 H   0  0  0  0  0  0
  -27.5285  -20.3912   20.6183 H   0  0  0  0  0  0
  1 25  1  0  0  0
  1 30  2  0  0  0
  1 86  1  0  0  0
  2  3  1  0  0  0
  2 25  1  0  0  0
  2 89  1  0  0  0
  2 90  1  0  0  0
  3  4  1  0  0  0
  3 91  1  0  0  0
  3 92  1  0  0  0
  4  5  1  0  0  0
  4 93  1  0  0  0
  4 94  1  0  0  0
  5  6  1  0  0  0
  5 26  1  0  0  0
  5 95  1  0  0  0
  6 25  1  0  0  0
  6 96  1  0  0  0
  6 97  1  0  0  0
  7  8  2  0  0  0
  7 26  1  0  0  0
  7 29  1  0  0  0
  8  9  1  0  0  0
  8 22  1  0  0  0
  9 10  1  0  0  0
  9 27  2  0  0  0
 10 11  2  0  0  0
 10 15  1  0  0  0
 11 12  1  0  0  0
 11 98  1  0  0  0
 12 13  2  0  0  0
 12 99  1  0  0  0
 13 14  1  0  0  0
 13 31  1  0  0  0
 14 15  2  0  0  0
 14100  1  0  0  0
 15101  1  0  0  0
 16 17  2  0  0  0
 16 21  1  0  0  0
 16 31  1  0  0  0
 17 18  1  0  0  0
 17102  1  0  0  0
 18 19  2  0  0  0
 18103  1  0  0  0
 19 20  1  0  0  0
 19 24  1  0  0  0
 20 21  2  0  0  0
 20104  1  0  0  0
 21 23  1  0  0  0
 22 28  1  0  0  0
 22 32  2  0  0  0
 26 27  1  0  0  0
 28105  1  0  0  0
 28106  1  0  0  0
 29107  1  0  0  0
 29108  1  0  0  0
 33 34  1  0  0  0
 33 66  1  0  0  0
 33 70  2  0  0  0
 34 36  1  0  0  0
 34 59  1  0  0  0
 34109  1  0  0  0
 35 44  2  0  0  0
 35 45  1  0  0  0
 35 68  1  0  0  0
 36 56  1  0  0  0
 36110  1  0  0  0
 37 39  1  0  0  0
 37 47  1  0  0  0
 37 66  1  0  0  0
 37111  1  0  0  0
 38 43  2  0  0  0
 38 46  1  0  0  0
 38 47  1  0  0  0
 39 64  1  0  0  0
 39 67  2  0  0  0
 40 52  1  0  0  0
 40 53  2  0  0  0
 40 58  1  0  0  0
 41112  1  0  0  0
 41113  1  0  0  0
 41114  1  0  0  0
 41 48  1  0  0  0
 42 43  1  0  0  0
 42 66  1  0  0  0
 42115  1  0  0  0
 42116  1  0  0  0
 43 44  1  0  0  0
 44117  1  0  0  0
 45 46  2  0  0  0
 45118  1  0  0  0
 46119  1  0  0  0
 47120  1  0  0  0
 47121  1  0  0  0
 48 56  1  0  0  0
 48 65  1  0  0  0
 48122  1  0  0  0
 49 50  1  0  0  0
 49 53  1  0  0  0
 49 64  1  0  0  0
 49123  1  0  0  0
 50 51  1  0  0  0
 50124  1  0  0  0
 50125  1  0  0  0
 51 52  1  0  0  0
 51126  1  0  0  0
 51127  1  0  0  0
 52128  1  0  0  0
 52129  1  0  0  0
 53 54  1  0  0  0
 54 55  2  0  0  0
 54130  1  0  0  0
 55 57  1  0  0  0
 55131  1  0  0  0
 56 69  2  0  0  0
 57 58  2  0  0  0
 57132  1  0  0  0
 58133  1  0  0  0
 59 60  1  0  0  0
 59 61  1  0  0  0
 59 62  1  0  0  0
 60134  1  0  0  0
 60135  1  0  0  0
 60136  1  0  0  0
 61137  1  0  0  0
 61138  1  0  0  0
 61139  1  0  0  0
 62140  1  0  0  0
 62141  1  0  0  0
 62142  1  0  0  0
 63 65  1  0  0  0
 63143  1  0  0  0
 63144  1  0  0  0
 63145  1  0  0  0
 64146  1  0  0  0
 65147  1  0  0  0
 68 84  1  0  0  0
 71 74  2  0  0  0
 71 75  1  0  0  0
 71148  1  0  0  0
 72 74  1  0  0  0
 72 76  2  0  0  0
 72149  1  0  0  0
 73 75  2  0  0  0
 73 76  1  0  0  0
 73150  1  0  0  0
 74 81  1  0  0  0
 75 82  1  0  0  0
 76 88  1  0  0  0
 77 79  1  0  0  0
 77 85  1  0  0  0
 77151  1  0  0  0
 77152  1  0  0  0
 78 80  1  0  0  0
 78 85  1  0  0  0
 78153  1  0  0  0
 78154  1  0  0  0
 79 87  1  0  0  0
 79155  1  0  0  0
 79156  1  0  0  0
 80 87  1  0  0  0
 80157  1  0  0  0
 80158  1  0  0  0
 81 86  1  0  0  0
 81159  1  0  0  0
 81160  1  0  0  0
 82161  1  0  0  0
 82162  1  0  0  0
 82 87  1  0  0  0
 83 84  1  0  0  0
 83 85  1  0  0  0
 83163  1  0  0  0
 83164  1  0  0  0
 84165  1  0  0  0
 84166  1  0  0  0
 86167  1  0  0  0
 87168  1  0  0  0
M  CHG  1  87   1
M  ISO  4   1 100  68 101  84 101  86 100
M  END
> <chiral flag>
0

> <version>
0

> <s_m_source_file>
/data/baiqing/PycharmProjects/Reinvent-master-3.2/result/LINK_invent/BTK/process_docking_weight1_custom_product_contain_oxygen_bond_distance_aromatic_linkinvent_7_9_3/rearranged_h_0009.sdf

> <i_m_source_file_index>
33

> <r_mmod_Potential_Energy-OPLS-2005>
-155.975128173828

> <r_mmod_Stretch_Energy-OPLS-2005>
37.2173461914062

> <r_mmod_Bend_Energy-OPLS-2005>
94.4967880249023

> <r_mmod_Torsional_Energy-OPLS-2005>
261.855316162109

> <r_mmod_Improper_Torsional_Energy-OPLS-2005>
2.31257462501526

> <r_mmod_Van_der_Waal_Energy-OPLS-2005>
165.89338684082

> <r_mmod_Electrostatic_Energy-OPLS-2005>
-256.632751464844

> <r_mmod_Solvation_Energy-OPLS-2005>
-468.926086425781

> <b_mmod_Minimization_Converged-OPLS-2005>
0

> <r_mmod_RMS_Derivative-OPLS-2005>
5.21196460723877

$$$$
33
                    3D
 Structure written by MMmdl.
156165  0  0  1  0            999 V2000
  -30.5497  -14.7821   20.4519 C   0  0  0  0  0  0
  -30.4512  -12.4771   19.4671 C   0  0  0  0  0  0
  -29.5168  -12.5175   18.2348 C   0  0  0  0  0  0
  -28.0424  -12.3294   18.6487 C   0  0  0  0  0  0
  -27.6444  -13.2226   19.8529 C   0  0  2  0  0  0
  -28.6921  -13.1382   20.9851 C   0  0  0  0  0  0
  -25.2523  -13.8162   20.5686 C   0  0  0  0  0  0
  -24.1812  -13.0422   20.9211 C   0  0  0  0  0  0
  -24.6396  -11.6899   20.8750 C   0  0  0  0  0  0
  -23.9069  -10.4285   21.0413 C   0  0  0  0  0  0
  -24.3619   -9.4199   21.9189 C   0  0  0  0  0  0
  -23.6291   -8.2237   22.0756 C   0  0  0  0  0  0
  -22.4272   -8.0280   21.3548 C   0  0  0  0  0  0
  -21.9911   -9.0255   20.4650 C   0  0  0  0  0  0
  -22.7244  -10.2132   20.3060 C   0  0  0  0  0  0
  -21.6851   -6.0736   22.5281 C   0  0  0  0  0  0
  -21.4012   -6.5641   23.8214 C   0  0  0  0  0  0
  -21.3657   -5.6792   24.9175 C   0  0  0  0  0  0
  -21.6043   -4.3055   24.7225 C   0  0  0  0  0  0
  -21.8818   -3.8148   23.4346 C   0  0  0  0  0  0
  -21.9190   -4.6965   22.3402 C   0  0  0  0  0  0
  -22.7835  -13.5213   21.1867 C   0  0  0  0  0  0
  -22.1659   -4.2151   21.0978 F   0  0  0  0  0  0
  -21.5632   -3.4539   25.7738 F   0  0  0  0  0  0
  -29.9901  -13.5215   20.4096 N   0  0  0  0  0  0
  -26.2948  -12.9354   20.3280 N   0  0  0  0  0  0
  -25.9323  -11.6507   20.5748 N   0  0  0  0  0  0
  -22.0477  -12.8207   22.0424 N   0  0  0  0  0  0
  -25.4191  -15.1887   20.4079 N   0  0  0  0  0  0
  -31.7364  -14.9440   20.1486 O   0  0  0  0  0  0
  -21.6636   -6.8880   21.4243 O   0  0  0  0  0  0
  -22.3524  -14.5520   20.6712 O   0  0  0  0  0  0
  -24.6339  -31.8517   23.1948 C   0  0  0  0  0  0
  -25.9154  -32.4737   23.8303 C   0  0  1  0  0  0
  -27.2274  -27.2423   20.1355 C   0  0  0  0  0  0
  -25.5933  -33.8539   24.2223 N   0  0  0  0  0  0
  -23.4318  -30.4723   21.5387 C   0  0  2  0  0  0
  -24.8800  -28.9099   20.1135 C   0  0  0  0  0  0
  -22.7511  -29.4586   22.4901 C   0  0  0  0  0  0
  -18.0295  -28.1392   22.8489 C   0  0  0  0  0  0
  -24.1489  -36.7276   23.2641 C   0  0  0  0  0  0
  -25.9785  -30.7606   21.3753 C   0  0  0  0  0  0
  -26.0528  -29.3806   20.7177 C   0  0  0  0  0  0
  -27.2303  -28.5624   20.7080 C   0  0  0  0  0  0
  -26.0273  -26.8349   19.5159 C   0  0  0  0  0  0
  -24.8735  -27.6464   19.5006 C   0  0  0  0  0  0
  -23.6514  -29.8000   20.1573 C   0  0  0  0  0  0
  -25.4120  -36.3059   24.0318 C   0  0  1  0  0  0
  -20.5900  -28.3705   23.1269 C   0  0  2  0  0  0
  -20.6780  -26.9419   22.5412 C   0  0  0  0  0  0
  -19.5751  -26.6385   21.5219 C   0  0  0  0  0  0
  -18.1932  -26.7933   22.1630 C   0  0  0  0  0  0
  -19.1550  -28.8867   23.2870 C   0  0  0  0  0  0
  -18.9468  -30.1470   23.8883 C   0  0  0  0  0  0
  -17.6466  -30.6588   24.0569 C   0  0  0  0  0  0
  -25.9061  -34.9431   23.5076 C   0  0  0  0  0  0
  -16.5358  -29.9085   23.6338 C   0  0  0  0  0  0
  -16.7283  -28.6507   23.0353 C   0  0  0  0  0  0
  -26.4508  -31.6580   25.0714 C   0  0  0  0  0  0
  -25.3720  -31.3737   26.1428 C   0  0  0  0  0  0
  -27.0367  -30.2994   24.6228 C   0  0  0  0  0  0
  -27.6052  -32.4335   25.7491 C   0  0  0  0  0  0
  -27.5578  -37.1792   24.8462 C   0  0  0  0  0  0
  -21.4215  -29.3043   22.3648 N   0  0  0  0  0  0
  -26.4290  -37.3764   23.9408 N   0  0  0  0  0  0
  -24.7007  -31.0466   22.0929 N   0  0  0  0  0  0
  -23.4199  -28.8135   23.3019 O   0  0  0  0  0  0
  -28.3394  -26.3630   20.1640 O   0  0  0  0  0  0
  -26.5638  -34.8918   22.4649 O   0  0  0  0  0  0
  -23.5488  -32.1342   23.7240 O   0  0  0  0  0  0
  -28.3438  -19.3846   19.8152 C   0  0  0  0  0  0
  -28.5074  -17.9604   19.9085 C   0  0  0  0  0  0
  -30.6354  -18.2504   20.9277 C   0  0  0  0  0  0
  -29.2993  -20.3271   20.3006 C   0  0  0  0  0  0
  -29.6563  -17.3212   20.4627 C   0  0  0  0  0  0
  -30.4621  -19.6859   20.8597 C   0  0  0  0  0  0
  -28.1729  -23.9423   19.0682 C   0  0  0  0  0  0
  -29.3328  -24.1991   21.1774 C   0  0  0  0  0  0
  -28.0592  -22.3741   19.3373 C   0  0  0  0  0  0
  -29.2464  -22.6279   21.4245 C   0  0  0  0  0  0
  -28.1825  -24.8623   20.3399 C   0  0  0  0  0  0
  -29.1081  -21.7861   20.2106 N   0  0  0  0  0  0
  -29.6581  -15.8348   20.6374 N   0  0  0  0  0  0
  -31.4650  -20.4602   21.3431 F   0  0  0  0  0  0
  -31.4864  -12.6362   19.1599 H   0  0  0  0  0  0
  -30.4249  -11.4955   19.9430 H   0  0  0  0  0  0
  -29.8036  -11.7484   17.5166 H   0  0  0  0  0  0
  -29.6314  -13.4729   17.7202 H   0  0  0  0  0  0
  -27.9045  -11.2791   18.9076 H   0  0  0  0  0  0
  -27.3840  -12.5218   17.8008 H   0  0  0  0  0  0
  -27.6385  -14.2450   19.4756 H   0  0  0  0  0  0
  -28.7391  -12.1279   21.3941 H   0  0  0  0  0  0
  -28.4213  -13.7880   21.8191 H   0  0  0  0  0  0
  -25.2766   -9.5671   22.4760 H   0  0  0  0  0  0
  -24.0001   -7.4626   22.7474 H   0  0  0  0  0  0
  -21.0844   -8.8777   19.8950 H   0  0  0  0  0  0
  -22.3710  -10.9673   19.6169 H   0  0  0  0  0  0
  -21.2004   -7.6150   23.9720 H   0  0  0  0  0  0
  -21.1482   -6.0523   25.9079 H   0  0  0  0  0  0
  -22.0598   -2.7609   23.2850 H   0  0  0  0  0  0
  -22.4090  -11.9868   22.4810 H   0  0  0  0  0  0
  -21.1097  -13.1239   22.2630 H   0  0  0  0  0  0
  -24.6424  -15.8335   20.5071 H   0  0  0  0  0  0
  -26.2475  -15.6259   20.0291 H   0  0  0  0  0  0
  -26.7223  -32.5378   23.1045 H   0  0  0  0  0  0
  -25.0076  -33.9667   25.0366 H   0  0  0  0  0  0
  -22.7303  -31.2954   21.3883 H   0  0  0  0  0  0
  -23.3758  -35.9600   23.3296 H   0  0  0  0  0  0
  -24.3575  -36.8914   22.2056 H   0  0  0  0  0  0
  -23.7236  -37.6468   23.6683 H   0  0  0  0  0  0
  -26.1195  -31.5212   20.6059 H   0  0  0  0  0  0
  -26.8546  -30.8096   22.0105 H   0  0  0  0  0  0
  -28.1325  -28.9225   21.1828 H   0  0  0  0  0  0
  -25.9640  -25.8649   19.0479 H   0  0  0  0  0  0
  -23.9746  -27.2783   19.0249 H   0  0  0  0  0  0
  -23.7768  -30.5729   19.3980 H   0  0  0  0  0  0
  -22.7698  -29.2326   19.8542 H   0  0  0  0  0  0
  -25.1305  -36.1894   25.0809 H   0  0  0  0  0  0
  -20.9994  -28.3290   24.1390 H   0  0  0  0  0  0
  -20.5687  -26.2313   23.3617 H   0  0  0  0  0  0
  -21.6645  -26.7438   22.1205 H   0  0  0  0  0  0
  -19.6912  -25.6295   21.1250 H   0  0  0  0  0  0
  -19.6690  -27.3195   20.6750 H   0  0  0  0  0  0
  -17.4201  -26.6695   21.4029 H   0  0  0  0  0  0
  -18.0323  -26.0073   22.9026 H   0  0  0  0  0  0
  -19.7942  -30.7297   24.2236 H   0  0  0  0  0  0
  -17.5016  -31.6266   24.5178 H   0  0  0  0  0  0
  -15.5357  -30.2981   23.7665 H   0  0  0  0  0  0
  -15.8686  -28.0824   22.7065 H   0  0  0  0  0  0
  -24.5896  -30.7090   25.7748 H   0  0  0  0  0  0
  -24.8916  -32.2912   26.4837 H   0  0  0  0  0  0
  -25.8023  -30.8917   27.0217 H   0  0  0  0  0  0
  -26.2963  -29.6728   24.1243 H   0  0  0  0  0  0
  -27.4028  -29.7273   25.4764 H   0  0  0  0  0  0
  -27.8847  -30.4261   23.9494 H   0  0  0  0  0  0
  -27.2648  -33.3644   26.2038 H   0  0  0  0  0  0
  -28.3874  -32.6881   25.0328 H   0  0  0  0  0  0
  -28.0710  -31.8484   26.5431 H   0  0  0  0  0  0
  -28.2586  -38.0099   24.7521 H   0  0  0  0  0  0
  -28.1083  -36.2630   24.6278 H   0  0  0  0  0  0
  -27.2294  -37.1424   25.8863 H   0  0  0  0  0  0
  -20.9404  -29.8751   21.6838 H   0  0  0  0  0  0
  -26.0163  -38.2830   24.1427 H   0  0  0  0  0  0
  -27.4285  -19.7454   19.3710 H   0  0  0  0  0  0
  -27.7001  -17.3452   19.5384 H   0  0  0  0  0  0
  -31.5355  -17.8695   21.3860 H   0  0  0  0  0  0
  -27.3535  -24.2377   18.4141 H   0  0  0  0  0  0
  -29.0800  -24.1299   18.4922 H   0  0  0  0  0  0
  -30.2846  -24.4173   20.6914 H   0  0  0  0  0  0
  -29.3852  -24.6958   22.1468 H   0  0  0  0  0  0
  -28.0744  -21.8574   18.3767 H   0  0  0  0  0  0
  -27.0836  -22.1619   19.7780 H   0  0  0  0  0  0
  -28.3936  -22.4222   22.0735 H   0  0  0  0  0  0
  -30.1268  -22.3187   21.9875 H   0  0  0  0  0  0
  -27.2519  -24.6954   20.8844 H   0  0  0  0  0  0
  -28.7336  -15.4613   20.7865 H   0  0  0  0  0  0
  1 25  1  0  0  0
  1 30  2  0  0  0
  1 83  1  0  0  0
  2  3  1  0  0  0
  2 25  1  0  0  0
  2 85  1  0  0  0
  2 86  1  0  0  0
  3  4  1  0  0  0
  3 87  1  0  0  0
  3 88  1  0  0  0
  4  5  1  0  0  0
  4 89  1  0  0  0
  4 90  1  0  0  0
  5  6  1  0  0  0
  5 26  1  0  0  0
  5 91  1  0  0  0
  6 25  1  0  0  0
  6 92  1  0  0  0
  6 93  1  0  0  0
  7  8  2  0  0  0
  7 26  1  0  0  0
  7 29  1  0  0  0
  8  9  1  0  0  0
  8 22  1  0  0  0
  9 10  1  0  0  0
  9 27  2  0  0  0
 10 11  2  0  0  0
 10 15  1  0  0  0
 11 12  1  0  0  0
 11 94  1  0  0  0
 12 13  2  0  0  0
 12 95  1  0  0  0
 13 14  1  0  0  0
 13 31  1  0  0  0
 14 15  2  0  0  0
 14 96  1  0  0  0
 15 97  1  0  0  0
 16 17  2  0  0  0
 16 21  1  0  0  0
 16 31  1  0  0  0
 17 18  1  0  0  0
 17 98  1  0  0  0
 18 19  2  0  0  0
 18 99  1  0  0  0
 19 20  1  0  0  0
 19 24  1  0  0  0
 20 21  2  0  0  0
 20100  1  0  0  0
 21 23  1  0  0  0
 22 28  1  0  0  0
 22 32  2  0  0  0
 26 27  1  0  0  0
 28101  1  0  0  0
 28102  1  0  0  0
 29103  1  0  0  0
 29104  1  0  0  0
 33 34  1  0  0  0
 33 66  1  0  0  0
 33 70  2  0  0  0
 34 36  1  0  0  0
 34 59  1  0  0  0
 34105  1  0  0  0
 35 44  2  0  0  0
 35 45  1  0  0  0
 35 68  1  0  0  0
 36 56  1  0  0  0
 36106  1  0  0  0
 37 39  1  0  0  0
 37 47  1  0  0  0
 37 66  1  0  0  0
 37107  1  0  0  0
 38 43  2  0  0  0
 38 46  1  0  0  0
 38 47  1  0  0  0
 39 64  1  0  0  0
 39 67  2  0  0  0
 40 52  1  0  0  0
 40 53  2  0  0  0
 40 58  1  0  0  0
 41108  1  0  0  0
 41109  1  0  0  0
 41110  1  0  0  0
 41 48  1  0  0  0
 42 43  1  0  0  0
 42 66  1  0  0  0
 42111  1  0  0  0
 42112  1  0  0  0
 43 44  1  0  0  0
 44113  1  0  0  0
 45 46  2  0  0  0
 45114  1  0  0  0
 46115  1  0  0  0
 47116  1  0  0  0
 47117  1  0  0  0
 48 56  1  0  0  0
 48 65  1  0  0  0
 48118  1  0  0  0
 49 50  1  0  0  0
 49 53  1  0  0  0
 49 64  1  0  0  0
 49119  1  0  0  0
 50 51  1  0  0  0
 50120  1  0  0  0
 50121  1  0  0  0
 51 52  1  0  0  0
 51122  1  0  0  0
 51123  1  0  0  0
 52124  1  0  0  0
 52125  1  0  0  0
 53 54  1  0  0  0
 54 55  2  0  0  0
 54126  1  0  0  0
 55 57  1  0  0  0
 55127  1  0  0  0
 56 69  2  0  0  0
 57 58  2  0  0  0
 57128  1  0  0  0
 58129  1  0  0  0
 59 60  1  0  0  0
 59 61  1  0  0  0
 59 62  1  0  0  0
 60130  1  0  0  0
 60131  1  0  0  0
 60132  1  0  0  0
 61133  1  0  0  0
 61134  1  0  0  0
 61135  1  0  0  0
 62136  1  0  0  0
 62137  1  0  0  0
 62138  1  0  0  0
 63 65  1  0  0  0
 63139  1  0  0  0
 63140  1  0  0  0
 63141  1  0  0  0
 64142  1  0  0  0
 65143  1  0  0  0
 68 81  1  0  0  0
 71 72  2  0  0  0
 71 74  1  0  0  0
 71144  1  0  0  0
 72 75  1  0  0  0
 72145  1  0  0  0
 73 75  2  0  0  0
 73 76  1  0  0  0
 73146  1  0  0  0
 74 76  2  0  0  0
 74 82  1  0  0  0
 75 83  1  0  0  0
 76 84  1  0  0  0
 77 79  1  0  0  0
 77 81  1  0  0  0
 77147  1  0  0  0
 77148  1  0  0  0
 78 80  1  0  0  0
 78 81  1  0  0  0
 78149  1  0  0  0
 78150  1  0  0  0
 79 82  1  0  0  0
 79151  1  0  0  0
 79152  1  0  0  0
 80 82  1  0  0  0
 80153  1  0  0  0
 80154  1  0  0  0
 81155  1  0  0  0
 83156  1  0  0  0
M  ISO  4   1 100  68 101  81 101  83 100
M  END
> <chiral flag>
0

> <version>
0

> <s_m_source_file>
/data/baiqing/PycharmProjects/Reinvent-master-3.2/result/LINK_invent/BTK/process_docking_weight1_custom_product_contain_oxygen_bond_distance_aromatic_linkinvent_7_9_3/rearranged_h_0009.sdf

> <i_m_source_file_index>
34

> <r_mmod_Potential_Energy-OPLS-2005>
254.181579589844

> <r_mmod_Stretch_Energy-OPLS-2005>
125.977783203125

> <r_mmod_Bend_Energy-OPLS-2005>
190.887908935547

> <r_mmod_Torsional_Energy-OPLS-2005>
258.732482910156

> <r_mmod_Improper_Torsional_Energy-OPLS-2005>
9.17599487304688

> <r_mmod_Van_der_Waal_Energy-OPLS-2005>
136.813186645508

> <r_mmod_Electrostatic_Energy-OPLS-2005>
-338.643615722656

> <r_mmod_Solvation_Energy-OPLS-2005>
-226.951202392578

> <b_mmod_Minimization_Converged-OPLS-2005>
0

> <r_mmod_RMS_Derivative-OPLS-2005>
0.569487690925598

$$$$
34
                    3D
 Structure written by MMmdl.
144152  0  0  1  0            999 V2000
  -30.3155  -15.6089   20.3313 C   0  0  0  0  0  0
  -30.4232  -13.0620   19.5397 C   0  0  0  0  0  0
  -29.5488  -12.6491   18.3220 C   0  0  0  0  0  0
  -28.1203  -12.2986   18.7646 C   0  0  0  0  0  0
  -27.5956  -13.3059   19.8130 C   0  0  2  0  0  0
  -28.6118  -13.6314   20.9326 C   0  0  0  0  0  0
  -25.2323  -13.8284   20.5793 C   0  0  0  0  0  0
  -24.1713  -13.0432   20.9292 C   0  0  0  0  0  0
  -24.6415  -11.6944   20.8770 C   0  0  0  0  0  0
  -23.9120  -10.4291   21.0400 C   0  0  0  0  0  0
  -24.3653   -9.4205   21.9183 C   0  0  0  0  0  0
  -23.6314   -8.2246   22.0754 C   0  0  0  0  0  0
  -22.4295   -8.0290   21.3544 C   0  0  0  0  0  0
  -21.9942   -9.0267   20.4643 C   0  0  0  0  0  0
  -22.7286  -10.2137   20.3051 C   0  0  0  0  0  0
  -21.6859   -6.0743   22.5280 C   0  0  0  0  0  0
  -21.4019   -6.5644   23.8215 C   0  0  0  0  0  0
  -21.3660   -5.6794   24.9175 C   0  0  0  0  0  0
  -21.6042   -4.3057   24.7224 C   0  0  0  0  0  0
  -21.8819   -3.8152   23.4345 C   0  0  0  0  0  0
  -21.9195   -4.6969   22.3402 C   0  0  0  0  0  0
  -22.7725  -13.5163   21.1926 C   0  0  0  0  0  0
  -22.1663   -4.2156   21.0979 F   0  0  0  0  0  0
  -21.5626   -3.4539   25.7734 F   0  0  0  0  0  0
  -29.7891  -14.2464   20.2773 N   0  0  0  0  0  0
  -26.2768  -12.9611   20.3231 N   0  0  0  0  0  0
  -25.9360  -11.6684   20.5704 N   0  0  0  0  0  0
  -22.0386  -12.8142   22.0474 N   0  0  0  0  0  0
  -25.3911  -15.2026   20.4235 N   0  0  0  0  0  0
  -31.5492  -15.5433   20.1709 O   0  0  0  0  0  0
  -21.6649   -6.8892   21.4245 O   0  0  0  0  0  0
  -22.3402  -14.5463   20.6762 O   0  0  0  0  0  0
  -24.6823  -31.7997   23.1518 C   0  0  0  0  0  0
  -25.9408  -32.4463   23.8064 C   0  0  1  0  0  0
  -27.2266  -26.7015   20.2213 C   0  0  0  0  0  0
  -25.5989  -33.8291   24.1950 N   0  0  0  0  0  0
  -23.5081  -30.3993   21.5066 C   0  0  2  0  0  0
  -24.9636  -28.7348   20.1220 C   0  0  0  0  0  0
  -22.7754  -29.4307   22.4735 C   0  0  0  0  0  0
  -18.0331  -28.1416   22.8453 C   0  0  0  0  0  0
  -24.1501  -36.7149   23.2656 C   0  0  0  0  0  0
  -26.0866  -30.5308   21.4169 C   0  0  0  0  0  0
  -26.1494  -29.0934   20.7724 C   0  0  0  0  0  0
  -27.2627  -28.1032   20.7906 C   0  0  0  0  0  0
  -26.0097  -26.5504   19.5094 C   0  0  0  0  0  0
  -24.9315  -27.4886   19.4691 C   0  0  0  0  0  0
  -23.7603  -29.6911   20.1432 C   0  0  0  0  0  0
  -25.4153  -36.2891   24.0282 C   0  0  1  0  0  0
  -20.5964  -28.3772   23.1149 C   0  0  2  0  0  0
  -20.6796  -26.9433   22.5407 C   0  0  0  0  0  0
  -19.5774  -26.6367   21.5217 C   0  0  0  0  0  0
  -18.1956  -26.7944   22.1619 C   0  0  0  0  0  0
  -19.1596  -28.8920   23.2780 C   0  0  0  0  0  0
  -18.9502  -30.1504   23.8823 C   0  0  0  0  0  0
  -17.6492  -30.6599   24.0549 C   0  0  0  0  0  0
  -25.9126  -34.9281   23.4953 C   0  0  0  0  0  0
  -16.5382  -29.9079   23.6349 C   0  0  0  0  0  0
  -16.7311  -28.6502   23.0364 C   0  0  0  0  0  0
  -26.4594  -31.6499   25.0686 C   0  0  0  0  0  0
  -25.3664  -31.3809   26.1302 C   0  0  0  0  0  0
  -27.0525  -30.2838   24.6577 C   0  0  0  0  0  0
  -27.6046  -32.4359   25.7500 C   0  0  0  0  0  0
  -27.5560  -37.1743   24.8474 C   0  0  0  0  0  0
  -21.4403  -29.3018   22.3474 N   0  0  0  0  0  0
  -26.4284  -37.3645   23.9389 N   0  0  0  0  0  0
  -24.7826  -30.9435   22.0776 N   0  0  0  0  0  0
  -23.4196  -28.7921   23.3091 O   0  0  0  0  0  0
  -28.2507  -25.5376   20.2523 O   0  0  0  0  0  0
  -26.5769  -34.8858   22.4572 O   0  0  0  0  0  0
  -23.5845  -32.1079   23.6470 O   0  0  0  0  0  0
  -29.8541  -21.6555   19.6985 C   0  0  0  0  0  0
  -29.5177  -23.1402   19.6837 C   0  0  0  0  0  0
  -27.9868  -21.2310   20.8047 C   0  0  0  0  0  0
  -29.1580  -20.4662   20.2576 C   0  0  0  0  0  0
  -28.3711  -23.9175   20.2202 C   0  0  0  0  0  0
  -27.6345  -22.7397   20.7967 C   0  0  0  0  0  0
  -29.8638  -18.7251   20.2930 C   0  0  0  0  0  0
  -29.5703  -16.9782   20.3758 N   0  0  0  0  0  0
  -26.4865  -23.0541   21.4433 F   0  0  0  0  0  0
  -31.4192  -13.3178   19.1768 H   0  0  0  0  0  0
  -30.5770  -12.2156   20.2113 H   0  0  0  0  0  0
  -29.9985  -11.8066   17.7948 H   0  0  0  0  0  0
  -29.5151  -13.4752   17.6102 H   0  0  0  0  0  0
  -28.1433  -11.2996   19.2017 H   0  0  0  0  0  0
  -27.4507  -12.2454   17.9053 H   0  0  0  0  0  0
  -27.4611  -14.2296   19.2484 H   0  0  0  0  0  0
  -28.8661  -12.7477   21.5196 H   0  0  0  0  0  0
  -28.1830  -14.3521   21.6306 H   0  0  0  0  0  0
  -25.2790   -9.5679   22.4773 H   0  0  0  0  0  0
  -24.0013   -7.4636   22.7479 H   0  0  0  0  0  0
  -21.0871   -8.8800   19.8949 H   0  0  0  0  0  0
  -22.3748  -10.9683   19.6166 H   0  0  0  0  0  0
  -21.2014   -7.6153   23.9722 H   0  0  0  0  0  0
  -21.1480   -6.0522   25.9079 H   0  0  0  0  0  0
  -22.0596   -2.7615   23.2843 H   0  0  0  0  0  0
  -22.4024  -11.9820   22.4876 H   0  0  0  0  0  0
  -21.0991  -13.1141   22.2663 H   0  0  0  0  0  0
  -24.6176  -15.8488   20.5376 H   0  0  0  0  0  0
  -26.2284  -15.6464   20.0705 H   0  0  0  0  0  0
  -26.7488  -32.4932   23.0777 H   0  0  0  0  0  0
  -25.0043  -33.9338   25.0039 H   0  0  0  0  0  0
  -22.8337  -31.2362   21.3154 H   0  0  0  0  0  0
  -23.3773  -35.9470   23.3297 H   0  0  0  0  0  0
  -24.3559  -36.8831   22.2073 H   0  0  0  0  0  0
  -23.7260  -37.6324   23.6749 H   0  0  0  0  0  0
  -26.2881  -31.2536   20.6252 H   0  0  0  0  0  0
  -26.9388  -30.6002   22.0805 H   0  0  0  0  0  0
  -28.1615  -28.3869   21.3195 H   0  0  0  0  0  0
  -25.8583  -25.6102   18.9982 H   0  0  0  0  0  0
  -24.0366  -27.2067   18.9312 H   0  0  0  0  0  0
  -23.9334  -30.4482   19.3778 H   0  0  0  0  0  0
  -22.8654  -29.1546   19.8229 H   0  0  0  0  0  0
  -25.1372  -36.1662   25.0775 H   0  0  0  0  0  0
  -21.0038  -28.3393   24.1280 H   0  0  0  0  0  0
  -20.5650  -26.2396   23.3666 H   0  0  0  0  0  0
  -21.6659  -26.7375   22.1230 H   0  0  0  0  0  0
  -19.6934  -25.6261   21.1288 H   0  0  0  0  0  0
  -19.6719  -27.3144   20.6722 H   0  0  0  0  0  0
  -17.4224  -26.6682   21.4023 H   0  0  0  0  0  0
  -18.0347  -26.0108   22.9034 H   0  0  0  0  0  0
  -19.7977  -30.7338   24.2162 H   0  0  0  0  0  0
  -17.5041  -31.6273   24.5162 H   0  0  0  0  0  0
  -15.5377  -30.2953   23.7719 H   0  0  0  0  0  0
  -15.8713  -28.0796   22.7121 H   0  0  0  0  0  0
  -24.5876  -30.7133   25.7598 H   0  0  0  0  0  0
  -24.8824  -32.3027   26.4534 H   0  0  0  0  0  0
  -25.7845  -30.9097   27.0207 H   0  0  0  0  0  0
  -26.3240  -29.6456   24.1567 H   0  0  0  0  0  0
  -27.3953  -29.7277   25.5312 H   0  0  0  0  0  0
  -27.9222  -30.3969   24.0103 H   0  0  0  0  0  0
  -27.2591  -33.3730   26.1878 H   0  0  0  0  0  0
  -28.3959  -32.6803   25.0401 H   0  0  0  0  0  0
  -28.0608  -31.8622   26.5577 H   0  0  0  0  0  0
  -28.2582  -38.0028   24.7461 H   0  0  0  0  0  0
  -28.1049  -36.2546   24.6390 H   0  0  0  0  0  0
  -27.2259  -37.1486   25.8874 H   0  0  0  0  0  0
  -20.9713  -29.8657   21.6523 H   0  0  0  0  0  0
  -26.0116  -38.2704   24.1355 H   0  0  0  0  0  0
  -30.8027  -21.4233   19.2336 H   0  0  0  0  0  0
  -30.2725  -23.7547   19.2144 H   0  0  0  0  0  0
  -27.2685  -20.6194   21.3309 H   0  0  0  0  0  0
  -30.5878  -18.8324   21.1010 H   0  0  0  0  0  0
  -30.4868  -18.7598   19.3989 H   0  0  0  0  0  0
  -28.5800  -16.8025   20.4658 H   0  0  0  0  0  0
  1 25  1  0  0  0
  1 30  2  0  0  0
  1 78  1  0  0  0
  2  3  1  0  0  0
  2 25  1  0  0  0
  2 80  1  0  0  0
  2 81  1  0  0  0
  3  4  1  0  0  0
  3 82  1  0  0  0
  3 83  1  0  0  0
  4  5  1  0  0  0
  4 84  1  0  0  0
  4 85  1  0  0  0
  5  6  1  0  0  0
  5 26  1  0  0  0
  5 86  1  0  0  0
  6 25  1  0  0  0
  6 87  1  0  0  0
  6 88  1  0  0  0
  7  8  2  0  0  0
  7 26  1  0  0  0
  7 29  1  0  0  0
  8  9  1  0  0  0
  8 22  1  0  0  0
  9 10  1  0  0  0
  9 27  2  0  0  0
 10 11  2  0  0  0
 10 15  1  0  0  0
 11 12  1  0  0  0
 11 89  1  0  0  0
 12 13  2  0  0  0
 12 90  1  0  0  0
 13 14  1  0  0  0
 13 31  1  0  0  0
 14 15  2  0  0  0
 14 91  1  0  0  0
 15 92  1  0  0  0
 16 17  2  0  0  0
 16 21  1  0  0  0
 16 31  1  0  0  0
 17 18  1  0  0  0
 17 93  1  0  0  0
 18 19  2  0  0  0
 18 94  1  0  0  0
 19 20  1  0  0  0
 19 24  1  0  0  0
 20 21  2  0  0  0
 20 95  1  0  0  0
 21 23  1  0  0  0
 22 28  1  0  0  0
 22 32  2  0  0  0
 26 27  1  0  0  0
 28 96  1  0  0  0
 28 97  1  0  0  0
 29 98  1  0  0  0
 29 99  1  0  0  0
 33 34  1  0  0  0
 33 66  1  0  0  0
 33 70  2  0  0  0
 34 36  1  0  0  0
 34 59  1  0  0  0
 34100  1  0  0  0
 35 44  2  0  0  0
 35 45  1  0  0  0
 35 68  1  0  0  0
 36 56  1  0  0  0
 36101  1  0  0  0
 37 39  1  0  0  0
 37 47  1  0  0  0
 37 66  1  0  0  0
 37102  1  0  0  0
 38 43  2  0  0  0
 38 46  1  0  0  0
 38 47  1  0  0  0
 39 64  1  0  0  0
 39 67  2  0  0  0
 40 52  1  0  0  0
 40 53  2  0  0  0
 40 58  1  0  0  0
 41103  1  0  0  0
 41104  1  0  0  0
 41105  1  0  0  0
 41 48  1  0  0  0
 42 43  1  0  0  0
 42 66  1  0  0  0
 42106  1  0  0  0
 42107  1  0  0  0
 43 44  1  0  0  0
 44108  1  0  0  0
 45 46  2  0  0  0
 45109  1  0  0  0
 46110  1  0  0  0
 47111  1  0  0  0
 47112  1  0  0  0
 48 56  1  0  0  0
 48 65  1  0  0  0
 48113  1  0  0  0
 49 50  1  0  0  0
 49 53  1  0  0  0
 49 64  1  0  0  0
 49114  1  0  0  0
 50 51  1  0  0  0
 50115  1  0  0  0
 50116  1  0  0  0
 51 52  1  0  0  0
 51117  1  0  0  0
 51118  1  0  0  0
 52119  1  0  0  0
 52120  1  0  0  0
 53 54  1  0  0  0
 54 55  2  0  0  0
 54121  1  0  0  0
 55 57  1  0  0  0
 55122  1  0  0  0
 56 69  2  0  0  0
 57 58  2  0  0  0
 57123  1  0  0  0
 58124  1  0  0  0
 59 60  1  0  0  0
 59 61  1  0  0  0
 59 62  1  0  0  0
 60125  1  0  0  0
 60126  1  0  0  0
 60127  1  0  0  0
 61128  1  0  0  0
 61129  1  0  0  0
 61130  1  0  0  0
 62131  1  0  0  0
 62132  1  0  0  0
 62133  1  0  0  0
 63 65  1  0  0  0
 63134  1  0  0  0
 63135  1  0  0  0
 63136  1  0  0  0
 64137  1  0  0  0
 65138  1  0  0  0
 68 75  1  0  0  0
 71 72  2  0  0  0
 71 74  1  0  0  0
 71139  1  0  0  0
 72 75  1  0  0  0
 72140  1  0  0  0
 73 74  2  0  0  0
 73 76  1  0  0  0
 73141  1  0  0  0
 74 77  1  0  0  0
 75 76  2  0  0  0
 76 79  1  0  0  0
 77 78  1  0  0  0
 77142  1  0  0  0
 77143  1  0  0  0
 78144  1  0  0  0
M  ISO  4   1 100  68 101  75 101  78 100
M  END
> <chiral flag>
0

> <version>
0

> <s_m_source_file>
/data/baiqing/PycharmProjects/Reinvent-master-3.2/result/LINK_invent/BTK/process_docking_weight1_custom_product_contain_oxygen_bond_distance_aromatic_linkinvent_7_9_3/rearranged_h_0009.sdf

> <i_m_source_file_index>
35

> <r_mmod_Potential_Energy-OPLS-2005>
2217.65869140625

> <r_mmod_Stretch_Energy-OPLS-2005>
900.147277832031

> <r_mmod_Bend_Energy-OPLS-2005>
693.91064453125

> <r_mmod_Torsional_Energy-OPLS-2005>
205.795059204102

> <r_mmod_Improper_Torsional_Energy-OPLS-2005>
5.31798934936523

> <r_mmod_Van_der_Waal_Energy-OPLS-2005>
132.632888793945

> <r_mmod_Electrostatic_Energy-OPLS-2005>
-367.820404052734

> <r_mmod_Solvation_Energy-OPLS-2005>
-215.100738525391

> <b_mmod_Minimization_Converged-OPLS-2005>
0

> <r_mmod_RMS_Derivative-OPLS-2005>
0.520102441310883

$$$$
35
                    3D
 Structure written by MMmdl.
151159  0  0  1  0            999 V2000
  -30.5078  -14.9126   20.4291 C   0  0  0  0  0  0
  -30.4550  -12.5587   19.4895 C   0  0  0  0  0  0
  -29.5261  -12.5209   18.2514 C   0  0  0  0  0  0
  -28.0560  -12.3143   18.6676 C   0  0  0  0  0  0
  -27.6385  -13.2339   19.8443 C   0  0  2  0  0  0
  -28.6832  -13.2117   20.9817 C   0  0  0  0  0  0
  -25.2504  -13.8178   20.5680 C   0  0  0  0  0  0
  -24.1805  -13.0432   20.9232 C   0  0  0  0  0  0
  -24.6397  -11.6909   20.8754 C   0  0  0  0  0  0
  -23.9069  -10.4289   21.0410 C   0  0  0  0  0  0
  -24.3618   -9.4202   21.9185 C   0  0  0  0  0  0
  -23.6291   -8.2238   22.0752 C   0  0  0  0  0  0
  -22.4272   -8.0280   21.3545 C   0  0  0  0  0  0
  -21.9911   -9.0256   20.4649 C   0  0  0  0  0  0
  -22.7242  -10.2134   20.3059 C   0  0  0  0  0  0
  -21.6853   -6.0731   22.5275 C   0  0  0  0  0  0
  -21.4014   -6.5634   23.8207 C   0  0  0  0  0  0
  -21.3658   -5.6789   24.9171 C   0  0  0  0  0  0
  -21.6044   -4.3052   24.7224 C   0  0  0  0  0  0
  -21.8819   -3.8144   23.4345 C   0  0  0  0  0  0
  -21.9194   -4.6960   22.3400 C   0  0  0  0  0  0
  -22.7824  -13.5217   21.1882 C   0  0  0  0  0  0
  -22.1664   -4.2145   21.0978 F   0  0  0  0  0  0
  -21.5629   -3.4537   25.7739 F   0  0  0  0  0  0
  -29.9671  -13.6310   20.3983 N   0  0  0  0  0  0
  -26.2922  -12.9384   20.3237 N   0  0  0  0  0  0
  -25.9326  -11.6531   20.5734 N   0  0  0  0  0  0
  -22.0469  -12.8210   22.0440 N   0  0  0  0  0  0
  -25.4173  -15.1893   20.4013 N   0  0  0  0  0  0
  -31.6973  -15.0557   20.1216 O   0  0  0  0  0  0
  -21.6637   -6.8877   21.4239 O   0  0  0  0  0  0
  -22.3513  -14.5519   20.6718 O   0  0  0  0  0  0
  -24.6426  -31.8461   23.1891 C   0  0  0  0  0  0
  -25.9206  -32.4703   23.8274 C   0  0  1  0  0  0
  -27.2217  -27.1522   20.1441 C   0  0  0  0  0  0
  -25.5958  -33.8509   24.2198 N   0  0  0  0  0  0
  -23.4448  -30.4656   21.5351 C   0  0  2  0  0  0
  -24.8940  -28.8959   20.1101 C   0  0  0  0  0  0
  -22.7564  -29.4556   22.4872 C   0  0  0  0  0  0
  -18.0311  -28.1402   22.8470 C   0  0  0  0  0  0
  -24.1489  -36.7247   23.2641 C   0  0  0  0  0  0
  -26.0000  -30.7242   21.3855 C   0  0  0  0  0  0
  -26.0722  -29.3376   20.7257 C   0  0  0  0  0  0
  -27.2368  -28.4832   20.7235 C   0  0  0  0  0  0
  -26.0132  -26.8081   19.4961 C   0  0  0  0  0  0
  -24.8773  -27.6437   19.4800 C   0  0  0  0  0  0
  -23.6697  -29.7957   20.1540 C   0  0  0  0  0  0
  -25.4124  -36.3035   24.0316 C   0  0  1  0  0  0
  -20.5919  -28.3722   23.1237 C   0  0  2  0  0  0
  -20.6785  -26.9427   22.5405 C   0  0  0  0  0  0
  -19.5763  -26.6391   21.5205 C   0  0  0  0  0  0
  -18.1947  -26.7943   22.1623 C   0  0  0  0  0  0
  -19.1566  -28.8884   23.2842 C   0  0  0  0  0  0
  -18.9486  -30.1481   23.8864 C   0  0  0  0  0  0
  -17.6481  -30.6593   24.0566 C   0  0  0  0  0  0
  -25.9073  -34.9412   23.5066 C   0  0  0  0  0  0
  -16.5373  -29.9085   23.6341 C   0  0  0  0  0  0
  -16.7296  -28.6511   23.0349 C   0  0  0  0  0  0
  -26.4525  -31.6569   25.0715 C   0  0  0  0  0  0
  -25.3714  -31.3768   26.1421 C   0  0  0  0  0  0
  -27.0387  -30.2968   24.6287 C   0  0  0  0  0  0
  -27.6070  -32.4324   25.7487 C   0  0  0  0  0  0
  -27.5577  -37.1779   24.8468 C   0  0  0  0  0  0
  -21.4259  -29.3050   22.3615 N   0  0  0  0  0  0
  -26.4284  -37.3752   23.9413 N   0  0  0  0  0  0
  -24.7156  -31.0328   22.0916 N   0  0  0  0  0  0
  -23.4212  -28.8108   23.3024 O   0  0  0  0  0  0
  -28.2811  -26.1761   20.2093 O   0  0  0  0  0  0
  -26.5656  -34.8908   22.4641 O   0  0  0  0  0  0
  -23.5549  -32.1334   23.7117 O   0  0  0  0  0  0
  -30.4981  -18.5519   20.3612 C   0  0  0  0  0  0
  -30.1892  -19.9880   20.2936 C   0  0  0  0  0  0
  -28.2011  -18.0862   20.5838 C   0  0  0  0  0  0
  -27.8880  -19.4943   20.5011 C   0  0  0  0  0  0
  -29.5071  -17.5122   20.5126 C   0  0  0  0  0  0
  -28.8570  -20.5410   20.3564 C   0  0  0  0  0  0
  -26.4237  -19.8906   20.5787 C   0  0  0  0  0  0
  -27.9856  -24.6570   20.0673 C   0  0  0  0  0  0
  -28.9726  -23.3093   20.2984 C   0  0  0  0  0  0
  -29.6169  -15.9892   20.6425 N   0  0  0  0  0  0
  -28.3469  -21.9125   20.2640 O   0  0  0  0  0  0
  -31.4864  -12.7322   19.1783 H   0  0  0  0  0  0
  -30.4552  -11.5952   20.0011 H   0  0  0  0  0  0
  -29.8364  -11.7263   17.5718 H   0  0  0  0  0  0
  -29.6212  -13.4531   17.6926 H   0  0  0  0  0  0
  -27.9426  -11.2703   18.9628 H   0  0  0  0  0  0
  -27.3936  -12.4616   17.8140 H   0  0  0  0  0  0
  -27.6165  -14.2440   19.4354 H   0  0  0  0  0  0
  -28.7612  -12.2149   21.4182 H   0  0  0  0  0  0
  -28.3866  -13.8760   21.7951 H   0  0  0  0  0  0
  -25.2766   -9.5673   22.4757 H   0  0  0  0  0  0
  -24.0002   -7.4623   22.7465 H   0  0  0  0  0  0
  -21.0845   -8.8772   19.8950 H   0  0  0  0  0  0
  -22.3698  -10.9671   19.6166 H   0  0  0  0  0  0
  -21.2006   -7.6141   23.9709 H   0  0  0  0  0  0
  -21.1480   -6.0519   25.9073 H   0  0  0  0  0  0
  -22.0601   -2.7608   23.2846 H   0  0  0  0  0  0
  -22.4090  -11.9880   22.4841 H   0  0  0  0  0  0
  -21.1080  -13.1223   22.2634 H   0  0  0  0  0  0
  -24.6324  -15.8270   20.4786 H   0  0  0  0  0  0
  -26.2202  -15.6046   19.9488 H   0  0  0  0  0  0
  -26.7271  -32.5312   23.1001 H   0  0  0  0  0  0
  -25.0091  -33.9622   25.0337 H   0  0  0  0  0  0
  -22.7459  -31.2905   21.3823 H   0  0  0  0  0  0
  -23.3759  -35.9569   23.3295 H   0  0  0  0  0  0
  -24.3573  -36.8888   22.2058 H   0  0  0  0  0  0
  -23.7234  -37.6437   23.6678 H   0  0  0  0  0  0
  -26.1562  -31.4800   20.6147 H   0  0  0  0  0  0
  -26.8703  -30.7725   22.0285 H   0  0  0  0  0  0
  -28.1348  -28.8186   21.2235 H   0  0  0  0  0  0
  -25.9055  -25.8516   19.0090 H   0  0  0  0  0  0
  -23.9787  -27.2988   18.9876 H   0  0  0  0  0  0
  -23.8038  -30.5700   19.3977 H   0  0  0  0  0  0
  -22.7838  -29.2374   19.8451 H   0  0  0  0  0  0
  -25.1311  -36.1858   25.0807 H   0  0  0  0  0  0
  -21.0017  -28.3310   24.1357 H   0  0  0  0  0  0
  -20.5676  -26.2334   23.3623 H   0  0  0  0  0  0
  -21.6653  -26.7430   22.1211 H   0  0  0  0  0  0
  -19.6916  -25.6295   21.1252 H   0  0  0  0  0  0
  -19.6697  -27.3186   20.6721 H   0  0  0  0  0  0
  -17.4216  -26.6684   21.4031 H   0  0  0  0  0  0
  -18.0349  -26.0094   22.9030 H   0  0  0  0  0  0
  -19.7959  -30.7305   24.2218 H   0  0  0  0  0  0
  -17.5036  -31.6269   24.5176 H   0  0  0  0  0  0
  -15.5373  -30.2976   23.7684 H   0  0  0  0  0  0
  -15.8697  -28.0825   22.7073 H   0  0  0  0  0  0
  -24.5878  -30.7127   25.7751 H   0  0  0  0  0  0
  -24.8915  -32.2959   26.4802 H   0  0  0  0  0  0
  -25.8008  -30.8972   27.0227 H   0  0  0  0  0  0
  -26.3005  -29.6690   24.1287 H   0  0  0  0  0  0
  -27.3999  -29.7272   25.4858 H   0  0  0  0  0  0
  -27.8910  -30.4212   23.9605 H   0  0  0  0  0  0
  -27.2688  -33.3652   26.2011 H   0  0  0  0  0  0
  -28.3905  -32.6841   25.0327 H   0  0  0  0  0  0
  -28.0701  -31.8475   26.5446 H   0  0  0  0  0  0
  -28.2596  -38.0074   24.7517 H   0  0  0  0  0  0
  -28.1072  -36.2607   24.6291 H   0  0  0  0  0  0
  -27.2295  -37.1428   25.8870 H   0  0  0  0  0  0
  -20.9471  -29.8758   21.6788 H   0  0  0  0  0  0
  -26.0150  -38.2817   24.1421 H   0  0  0  0  0  0
  -31.5364  -18.2579   20.3035 H   0  0  0  0  0  0
  -31.0155  -20.6750   20.1771 H   0  0  0  0  0  0
  -27.3711  -17.4062   20.7091 H   0  0  0  0  0  0
  -25.7651  -19.0220   20.5604 H   0  0  0  0  0  0
  -26.1540  -20.5279   19.7361 H   0  0  0  0  0  0
  -26.2286  -20.4418   21.4986 H   0  0  0  0  0  0
  -27.1285  -24.4868   20.7197 H   0  0  0  0  0  0
  -27.6022  -24.5305   19.0556 H   0  0  0  0  0  0
  -29.4624  -23.4098   21.2670 H   0  0  0  0  0  0
  -29.7733  -23.3330   19.5591 H   0  0  0  0  0  0
  -28.7227  -15.5870   20.8772 H   0  0  0  0  0  0
  1 25  1  0  0  0
  1 30  2  0  0  0
  1 80  1  0  0  0
  2  3  1  0  0  0
  2 25  1  0  0  0
  2 82  1  0  0  0
  2 83  1  0  0  0
  3  4  1  0  0  0
  3 84  1  0  0  0
  3 85  1  0  0  0
  4  5  1  0  0  0
  4 86  1  0  0  0
  4 87  1  0  0  0
  5  6  1  0  0  0
  5 26  1  0  0  0
  5 88  1  0  0  0
  6 25  1  0  0  0
  6 89  1  0  0  0
  6 90  1  0  0  0
  7  8  2  0  0  0
  7 26  1  0  0  0
  7 29  1  0  0  0
  8  9  1  0  0  0
  8 22  1  0  0  0
  9 10  1  0  0  0
  9 27  2  0  0  0
 10 11  2  0  0  0
 10 15  1  0  0  0
 11 12  1  0  0  0
 11 91  1  0  0  0
 12 13  2  0  0  0
 12 92  1  0  0  0
 13 14  1  0  0  0
 13 31  1  0  0  0
 14 15  2  0  0  0
 14 93  1  0  0  0
 15 94  1  0  0  0
 16 17  2  0  0  0
 16 21  1  0  0  0
 16 31  1  0  0  0
 17 18  1  0  0  0
 17 95  1  0  0  0
 18 19  2  0  0  0
 18 96  1  0  0  0
 19 20  1  0  0  0
 19 24  1  0  0  0
 20 21  2  0  0  0
 20 97  1  0  0  0
 21 23  1  0  0  0
 22 28  1  0  0  0
 22 32  2  0  0  0
 26 27  1  0  0  0
 28 98  1  0  0  0
 28 99  1  0  0  0
 29100  1  0  0  0
 29101  1  0  0  0
 33 34  1  0  0  0
 33 66  1  0  0  0
 33 70  2  0  0  0
 34 36  1  0  0  0
 34 59  1  0  0  0
 34102  1  0  0  0
 35 44  2  0  0  0
 35 45  1  0  0  0
 35 68  1  0  0  0
 36 56  1  0  0  0
 36103  1  0  0  0
 37 39  1  0  0  0
 37 47  1  0  0  0
 37 66  1  0  0  0
 37104  1  0  0  0
 38 43  2  0  0  0
 38 46  1  0  0  0
 38 47  1  0  0  0
 39 64  1  0  0  0
 39 67  2  0  0  0
 40 52  1  0  0  0
 40 53  2  0  0  0
 40 58  1  0  0  0
 41105  1  0  0  0
 41106  1  0  0  0
 41107  1  0  0  0
 41 48  1  0  0  0
 42 43  1  0  0  0
 42 66  1  0  0  0
 42108  1  0  0  0
 42109  1  0  0  0
 43 44  1  0  0  0
 44110  1  0  0  0
 45 46  2  0  0  0
 45111  1  0  0  0
 46112  1  0  0  0
 47113  1  0  0  0
 47114  1  0  0  0
 48 56  1  0  0  0
 48 65  1  0  0  0
 48115  1  0  0  0
 49 50  1  0  0  0
 49 53  1  0  0  0
 49 64  1  0  0  0
 49116  1  0  0  0
 50 51  1  0  0  0
 50117  1  0  0  0
 50118  1  0  0  0
 51 52  1  0  0  0
 51119  1  0  0  0
 51120  1  0  0  0
 52121  1  0  0  0
 52122  1  0  0  0
 53 54  1  0  0  0
 54 55  2  0  0  0
 54123  1  0  0  0
 55 57  1  0  0  0
 55124  1  0  0  0
 56 69  2  0  0  0
 57 58  2  0  0  0
 57125  1  0  0  0
 58126  1  0  0  0
 59 60  1  0  0  0
 59 61  1  0  0  0
 59 62  1  0  0  0
 60127  1  0  0  0
 60128  1  0  0  0
 60129  1  0  0  0
 61130  1  0  0  0
 61131  1  0  0  0
 61132  1  0  0  0
 62133  1  0  0  0
 62134  1  0  0  0
 62135  1  0  0  0
 63 65  1  0  0  0
 63136  1  0  0  0
 63137  1  0  0  0
 63138  1  0  0  0
 64139  1  0  0  0
 65140  1  0  0  0
 68 78  1  0  0  0
 71 72  2  0  0  0
 71 75  1  0  0  0
 71141  1  0  0  0
 72 76  1  0  0  0
 72142  1  0  0  0
 73 74  1  0  0  0
 73 75  2  0  0  0
 73143  1  0  0  0
 74 76  2  0  0  0
 74 77  1  0  0  0
 75 80  1  0  0  0
 76 81  1  0  0  0
 77144  1  0  0  0
 77145  1  0  0  0
 77146  1  0  0  0
 78 79  1  0  0  0
 78147  1  0  0  0
 78148  1  0  0  0
 79 81  1  0  0  0
 79149  1  0  0  0
 79150  1  0  0  0
 80151  1  0  0  0
M  ISO  4   1 100  68 101  78 101  80 100
M  END
> <chiral flag>
0

> <version>
0

> <s_m_source_file>
/data/baiqing/PycharmProjects/Reinvent-master-3.2/result/LINK_invent/BTK/process_docking_weight1_custom_product_contain_oxygen_bond_distance_aromatic_linkinvent_7_9_3/rearranged_h_0009.sdf

> <i_m_source_file_index>
36

> <r_mmod_Potential_Energy-OPLS-2005>
449.871917724609

> <r_mmod_Stretch_Energy-OPLS-2005>
217.125106811523

> <r_mmod_Bend_Energy-OPLS-2005>
303.068023681641

> <r_mmod_Torsional_Energy-OPLS-2005>
211.717910766602

> <r_mmod_Improper_Torsional_Energy-OPLS-2005>
4.76985454559326

> <r_mmod_Van_der_Waal_Energy-OPLS-2005>
131.463577270508

> <r_mmod_Electrostatic_Energy-OPLS-2005>
-380.574035644531

> <r_mmod_Solvation_Energy-OPLS-2005>
-211.898544311523

> <b_mmod_Minimization_Converged-OPLS-2005>
0

> <r_mmod_RMS_Derivative-OPLS-2005>
1.00794219970703

$$$$
36
                    3D
 Structure written by MMmdl.
165175  0  0  1  0            999 V2000
  -30.4465  -15.2545   20.4358 C   0  0  0  0  0  0
  -30.4397  -12.8055   19.5397 C   0  0  0  0  0  0
  -29.5406  -12.5940   18.2905 C   0  0  0  0  0  0
  -28.0846  -12.3088   18.6963 C   0  0  0  0  0  0
  -27.6123  -13.2653   19.8148 C   0  0  2  0  0  0
  -28.6367  -13.3812   20.9569 C   0  0  0  0  0  0
  -25.2318  -13.8167   20.5542 C   0  0  0  0  0  0
  -24.1721  -13.0380   20.9202 C   0  0  0  0  0  0
  -24.6401  -11.6894   20.8747 C   0  0  0  0  0  0
  -23.9094  -10.4278   21.0418 C   0  0  0  0  0  0
  -24.3647   -9.4197   21.9197 C   0  0  0  0  0  0
  -23.6313   -8.2234   22.0763 C   0  0  0  0  0  0
  -22.4295   -8.0278   21.3538 C   0  0  0  0  0  0
  -21.9929   -9.0249   20.4632 C   0  0  0  0  0  0
  -22.7265  -10.2127   20.3049 C   0  0  0  0  0  0
  -21.6848   -6.0748   22.5285 C   0  0  0  0  0  0
  -21.4000   -6.5648   23.8216 C   0  0  0  0  0  0
  -21.3653   -5.6799   24.9180 C   0  0  0  0  0  0
  -21.6047   -4.3060   24.7230 C   0  0  0  0  0  0
  -21.8811   -3.8152   23.4351 C   0  0  0  0  0  0
  -21.9193   -4.6977   22.3413 C   0  0  0  0  0  0
  -22.7754  -13.5152   21.1905 C   0  0  0  0  0  0
  -22.1672   -4.2162   21.0991 F   0  0  0  0  0  0
  -21.5639   -3.4539   25.7744 F   0  0  0  0  0  0
  -29.8862  -13.9339   20.3840 N   0  0  0  0  0  0
  -26.2778  -12.9452   20.3058 N   0  0  0  0  0  0
  -25.9332  -11.6574   20.5671 N   0  0  0  0  0  0
  -22.0436  -12.8122   22.0472 N   0  0  0  0  0  0
  -25.3774  -15.1873   20.3735 N   0  0  0  0  0  0
  -31.6210  -15.2816   20.0315 O   0  0  0  0  0  0
  -21.6630   -6.8892   21.4248 O   0  0  0  0  0  0
  -22.3437  -14.5474   20.6794 O   0  0  0  0  0  0
  -24.6598  -31.8234   23.1743 C   0  0  0  0  0  0
  -25.9288  -32.4596   23.8189 C   0  0  1  0  0  0
  -27.2272  -26.9444   20.1814 C   0  0  0  0  0  0
  -25.5931  -33.8409   24.2113 N   0  0  0  0  0  0
  -23.4767  -30.4383   21.5186 C   0  0  2  0  0  0
  -24.9320  -28.8212   20.1156 C   0  0  0  0  0  0
  -22.7648  -29.4480   22.4776 C   0  0  0  0  0  0
  -18.0307  -28.1429   22.8482 C   0  0  0  0  0  0
  -24.1482  -36.7228   23.2652 C   0  0  0  0  0  0
  -26.0441  -30.6330   21.4063 C   0  0  0  0  0  0
  -26.1109  -29.2213   20.7558 C   0  0  0  0  0  0
  -27.2507  -28.3008   20.7685 C   0  0  0  0  0  0
  -26.0211  -26.6911   19.4927 C   0  0  0  0  0  0
  -24.9107  -27.5745   19.4666 C   0  0  0  0  0  0
  -23.7180  -29.7501   20.1459 C   0  0  0  0  0  0
  -25.4119  -36.2990   24.0317 C   0  0  1  0  0  0
  -20.5926  -28.3773   23.1170 C   0  0  2  0  0  0
  -20.6775  -26.9447   22.5377 C   0  0  0  0  0  0
  -19.5722  -26.6360   21.5219 C   0  0  0  0  0  0
  -18.1917  -26.7966   22.1620 C   0  0  0  0  0  0
  -19.1571  -28.8921   23.2817 C   0  0  0  0  0  0
  -18.9482  -30.1512   23.8851 C   0  0  0  0  0  0
  -17.6476  -30.6618   24.0559 C   0  0  0  0  0  0
  -25.9077  -34.9347   23.5044 C   0  0  0  0  0  0
  -16.5372  -29.9098   23.6369 C   0  0  0  0  0  0
  -16.7296  -28.6516   23.0407 C   0  0  0  0  0  0
  -26.4531  -31.6508   25.0702 C   0  0  0  0  0  0
  -25.3678  -31.3731   26.1379 C   0  0  0  0  0  0
  -27.0421  -30.2861   24.6455 C   0  0  0  0  0  0
  -27.6051  -32.4307   25.7460 C   0  0  0  0  0  0
  -27.5561  -37.1774   24.8468 C   0  0  0  0  0  0
  -21.4316  -29.3078   22.3518 N   0  0  0  0  0  0
  -26.4281  -37.3713   23.9384 N   0  0  0  0  0  0
  -24.7476  -30.9932   22.0853 N   0  0  0  0  0  0
  -23.4199  -28.8057   23.3029 O   0  0  0  0  0  0
  -28.2656  -25.8787   20.1828 O   0  0  0  0  0  0
  -26.5713  -34.8882   22.4656 O   0  0  0  0  0  0
  -23.5667  -32.1178   23.6842 O   0  0  0  0  0  0
  -31.8333  -18.5640   25.1424 C   0  0  0  0  0  0
  -30.4723  -18.3448   25.4186 C   0  0  0  0  0  0
  -32.3889  -18.0683   23.9492 C   0  0  0  0  0  0
  -29.6702  -17.6345   24.5043 C   0  0  0  0  0  0
  -31.5831  -17.3717   23.0282 C   0  0  0  0  0  0
  -30.0338  -20.4688   19.5351 C   0  0  0  0  0  0
  -30.2578  -18.9983   19.6523 C   0  0  0  0  0  0
  -28.3177  -20.3786   21.0462 C   0  0  0  0  0  0
  -30.2079  -17.1559   23.2852 C   0  0  0  0  0  0
  -29.0588  -21.3205   20.2253 C   0  0  0  0  0  0
  -29.5362  -18.0681   20.5096 C   0  0  0  0  0  0
  -28.5087  -18.8988   21.1721 C   0  0  0  0  0  0
  -27.8345  -16.7931   22.2924 C   0  0  0  0  0  0
  -29.3203  -16.3793   22.2896 C   0  0  2  0  0  0
  -26.2233  -18.6677   22.0288 C   0  0  0  0  0  0
  -29.0239  -23.0759   20.1558 C   0  0  0  0  0  0
  -29.7517  -16.4950   20.8832 N   0  0  0  0  0  0
  -27.6162  -18.2225   22.0420 N   0  0  0  0  0  0
  -27.8862  -24.2290   20.2827 N   0  0  0  0  0  0
  -31.4589  -13.0121   19.2118 H   0  0  0  0  0  0
  -30.5098  -11.8843   20.1215 H   0  0  0  0  0  0
  -29.9265  -11.7787   17.6767 H   0  0  0  0  0  0
  -29.5724  -13.4889   17.6663 H   0  0  0  0  0  0
  -28.0369  -11.2782   19.0505 H   0  0  0  0  0  0
  -27.4245  -12.3670   17.8294 H   0  0  0  0  0  0
  -27.5423  -14.2460   19.3430 H   0  0  0  0  0  0
  -28.8024  -12.4117   21.4304 H   0  0  0  0  0  0
  -28.2011  -14.0080   21.7261 H   0  0  0  0  0  0
  -25.2798   -9.5679   22.4766 H   0  0  0  0  0  0
  -24.0021   -7.4614   22.7474 H   0  0  0  0  0  0
  -21.0863   -8.8750   19.8931 H   0  0  0  0  0  0
  -22.3717  -10.9666   19.6154 H   0  0  0  0  0  0
  -21.1973   -7.6150   23.9713 H   0  0  0  0  0  0
  -21.1487   -6.0539   25.9082 H   0  0  0  0  0  0
  -22.0598   -2.7612   23.2848 H   0  0  0  0  0  0
  -22.4081  -11.9773   22.4818 H   0  0  0  0  0  0
  -21.1054  -13.1085   22.2724 H   0  0  0  0  0  0
  -24.5821  -15.8124   20.4429 H   0  0  0  0  0  0
  -26.1852  -15.6231   19.9510 H   0  0  0  0  0  0
  -26.7362  -32.5157   23.0910 H   0  0  0  0  0  0
  -24.9987  -33.9476   25.0207 H   0  0  0  0  0  0
  -22.7921  -31.2719   21.3466 H   0  0  0  0  0  0
  -23.3738  -35.9568   23.3295 H   0  0  0  0  0  0
  -24.3539  -36.8886   22.2069 H   0  0  0  0  0  0
  -23.7271  -37.6422   23.6710 H   0  0  0  0  0  0
  -26.2269  -31.3745   20.6259 H   0  0  0  0  0  0
  -26.9014  -30.6831   22.0654 H   0  0  0  0  0  0
  -28.1464  -28.6081   21.2877 H   0  0  0  0  0  0
  -25.9157  -25.7401   18.9910 H   0  0  0  0  0  0
  -24.0159  -27.2651   18.9451 H   0  0  0  0  0  0
  -23.8703  -30.5184   19.3874 H   0  0  0  0  0  0
  -22.8275  -29.2045   19.8290 H   0  0  0  0  0  0
  -25.1322  -36.1801   25.0815 H   0  0  0  0  0  0
  -21.0025  -28.3364   24.1291 H   0  0  0  0  0  0
  -20.5645  -26.2401   23.3629 H   0  0  0  0  0  0
  -21.6636  -26.7413   22.1164 H   0  0  0  0  0  0
  -19.6829  -25.6235   21.1293 H   0  0  0  0  0  0
  -19.6638  -27.3117   20.6710 H   0  0  0  0  0  0
  -17.4163  -26.6759   21.4043 H   0  0  0  0  0  0
  -18.0286  -26.0126   22.9026 H   0  0  0  0  0  0
  -19.7954  -30.7351   24.2204 H   0  0  0  0  0  0
  -17.5025  -31.6306   24.5134 H   0  0  0  0  0  0
  -15.5359  -30.2980   23.7713 H   0  0  0  0  0  0
  -15.8711  -28.0792   22.7190 H   0  0  0  0  0  0
  -24.5821  -30.7140   25.7670 H   0  0  0  0  0  0
  -24.8916  -32.2919   26.4764 H   0  0  0  0  0  0
  -25.7926  -30.8899   27.0187 H   0  0  0  0  0  0
  -26.3090  -29.6541   24.1432 H   0  0  0  0  0  0
  -27.3949  -29.7220   25.5100 H   0  0  0  0  0  0
  -27.9036  -30.4057   23.9887 H   0  0  0  0  0  0
  -27.2666  -33.3654   26.1934 H   0  0  0  0  0  0
  -28.3878  -32.6795   25.0283 H   0  0  0  0  0  0
  -28.0704  -31.8495   26.5430 H   0  0  0  0  0  0
  -28.2590  -38.0051   24.7423 H   0  0  0  0  0  0
  -28.1049  -36.2571   24.6404 H   0  0  0  0  0  0
  -27.2252  -37.1539   25.8866 H   0  0  0  0  0  0
  -20.9588  -29.8706   21.6573 H   0  0  0  0  0  0
  -26.0132  -38.2786   24.1331 H   0  0  0  0  0  0
  -32.4500  -19.1051   25.8466 H   0  0  0  0  0  0
  -30.0406  -18.7191   26.3355 H   0  0  0  0  0  0
  -33.4382  -18.2251   23.7388 H   0  0  0  0  0  0
  -28.6304  -17.4774   24.7495 H   0  0  0  0  0  0
  -32.0385  -17.0062   22.1186 H   0  0  0  0  0  0
  -30.7095  -20.9862   18.8669 H   0  0  0  0  0  0
  -31.0674  -18.5853   19.0676 H   0  0  0  0  0  0
  -27.5621  -20.8416   21.6632 H   0  0  0  0  0  0
  -27.3689  -16.5183   23.2397 H   0  0  0  0  0  0
  -27.3117  -16.2211   21.5318 H   0  0  0  0  0  0
  -29.4019  -15.3649   22.6734 H   0  0  0  0  0  0
  -25.5492  -17.8674   22.3396 H   0  0  0  0  0  0
  -25.9126  -18.9757   21.0283 H   0  0  0  0  0  0
  -26.0754  -19.5043   22.7113 H   0  0  0  0  0  0
  -29.5086  -23.2998   19.2047 H   0  0  0  0  0  0
  -29.7630  -23.3678   20.9022 H   0  0  0  0  0  0
  -27.4439  -24.1219   21.1908 H   0  0  0  0  0  0
  1 25  1  0  0  0
  1 30  2  0  0  0
  1 87  1  0  0  0
  2  3  1  0  0  0
  2 25  1  0  0  0
  2 90  1  0  0  0
  2 91  1  0  0  0
  3  4  1  0  0  0
  3 92  1  0  0  0
  3 93  1  0  0  0
  4  5  1  0  0  0
  4 94  1  0  0  0
  4 95  1  0  0  0
  5  6  1  0  0  0
  5 26  1  0  0  0
  5 96  1  0  0  0
  6 25  1  0  0  0
  6 97  1  0  0  0
  6 98  1  0  0  0
  7  8  2  0  0  0
  7 26  1  0  0  0
  7 29  1  0  0  0
  8  9  1  0  0  0
  8 22  1  0  0  0
  9 10  1  0  0  0
  9 27  2  0  0  0
 10 11  2  0  0  0
 10 15  1  0  0  0
 11 12  1  0  0  0
 11 99  1  0  0  0
 12 13  2  0  0  0
 12100  1  0  0  0
 13 14  1  0  0  0
 13 31  1  0  0  0
 14 15  2  0  0  0
 14101  1  0  0  0
 15102  1  0  0  0
 16 17  2  0  0  0
 16 21  1  0  0  0
 16 31  1  0  0  0
 17 18  1  0  0  0
 17103  1  0  0  0
 18 19  2  0  0  0
 18104  1  0  0  0
 19 20  1  0  0  0
 19 24  1  0  0  0
 20 21  2  0  0  0
 20105  1  0  0  0
 21 23  1  0  0  0
 22 28  1  0  0  0
 22 32  2  0  0  0
 26 27  1  0  0  0
 28106  1  0  0  0
 28107  1  0  0  0
 29108  1  0  0  0
 29109  1  0  0  0
 33 34  1  0  0  0
 33 66  1  0  0  0
 33 70  2  0  0  0
 34 36  1  0  0  0
 34 59  1  0  0  0
 34110  1  0  0  0
 35 44  2  0  0  0
 35 45  1  0  0  0
 35 68  1  0  0  0
 36 56  1  0  0  0
 36111  1  0  0  0
 37 39  1  0  0  0
 37 47  1  0  0  0
 37 66  1  0  0  0
 37112  1  0  0  0
 38 43  2  0  0  0
 38 46  1  0  0  0
 38 47  1  0  0  0
 39 64  1  0  0  0
 39 67  2  0  0  0
 40 52  1  0  0  0
 40 53  2  0  0  0
 40 58  1  0  0  0
 41113  1  0  0  0
 41114  1  0  0  0
 41115  1  0  0  0
 41 48  1  0  0  0
 42 43  1  0  0  0
 42 66  1  0  0  0
 42116  1  0  0  0
 42117  1  0  0  0
 43 44  1  0  0  0
 44118  1  0  0  0
 45 46  2  0  0  0
 45119  1  0  0  0
 46120  1  0  0  0
 47121  1  0  0  0
 47122  1  0  0  0
 48 56  1  0  0  0
 48 65  1  0  0  0
 48123  1  0  0  0
 49 50  1  0  0  0
 49 53  1  0  0  0
 49 64  1  0  0  0
 49124  1  0  0  0
 50 51  1  0  0  0
 50125  1  0  0  0
 50126  1  0  0  0
 51 52  1  0  0  0
 51127  1  0  0  0
 51128  1  0  0  0
 52129  1  0  0  0
 52130  1  0  0  0
 53 54  1  0  0  0
 54 55  2  0  0  0
 54131  1  0  0  0
 55 57  1  0  0  0
 55132  1  0  0  0
 56 69  2  0  0  0
 57 58  2  0  0  0
 57133  1  0  0  0
 58134  1  0  0  0
 59 60  1  0  0  0
 59 61  1  0  0  0
 59 62  1  0  0  0
 60135  1  0  0  0
 60136  1  0  0  0
 60137  1  0  0  0
 61138  1  0  0  0
 61139  1  0  0  0
 61140  1  0  0  0
 62141  1  0  0  0
 62142  1  0  0  0
 62143  1  0  0  0
 63 65  1  0  0  0
 63144  1  0  0  0
 63145  1  0  0  0
 63146  1  0  0  0
 64147  1  0  0  0
 65148  1  0  0  0
 68 89  1  0  0  0
 71 72  2  0  0  0
 71 73  1  0  0  0
 71149  1  0  0  0
 72 74  1  0  0  0
 72150  1  0  0  0
 73 75  2  0  0  0
 73151  1  0  0  0
 74 79  2  0  0  0
 74152  1  0  0  0
 75 79  1  0  0  0
 75153  1  0  0  0
 76 77  2  0  0  0
 76 80  1  0  0  0
 76154  1  0  0  0
 77 81  1  0  0  0
 77155  1  0  0  0
 78 80  2  0  0  0
 78 82  1  0  0  0
 78156  1  0  0  0
 79 84  1  0  0  0
 80 86  1  0  0  0
 81 82  2  0  0  0
 81 87  1  0  0  0
 82 88  1  0  0  0
 83 84  1  0  0  0
 83 88  1  0  0  0
 83157  1  0  0  0
 83158  1  0  0  0
 84 87  1  0  0  0
 84159  1  0  0  0
 85 88  1  0  0  0
 85160  1  0  0  0
 85161  1  0  0  0
 85162  1  0  0  0
 86 89  1  0  0  0
 86163  1  0  0  0
 86164  1  0  0  0
 89165  1  0  0  0
M  ISO  4   1 100  68 101  87 100  89 101
M  END
> <chiral flag>
0

> <version>
0

> <s_m_source_file>
/data/baiqing/PycharmProjects/Reinvent-master-3.2/result/LINK_invent/BTK/process_docking_weight1_custom_product_contain_oxygen_bond_distance_aromatic_linkinvent_7_9_3/rearranged_h_0009.sdf

> <i_m_source_file_index>
37

> <r_mmod_Potential_Energy-OPLS-2005>
1365.02966308594

> <r_mmod_Stretch_Energy-OPLS-2005>
526.563232421875

> <r_mmod_Bend_Energy-OPLS-2005>
469.131622314453

> <r_mmod_Torsional_Energy-OPLS-2005>
297.955200195312

> <r_mmod_Improper_Torsional_Energy-OPLS-2005>
6.71025466918945

> <r_mmod_Van_der_Waal_Energy-OPLS-2005>
172.324996948242

> <r_mmod_Electrostatic_Energy-OPLS-2005>
-317.969787597656

> <r_mmod_Solvation_Energy-OPLS-2005>
-214.508865356445

> <b_mmod_Minimization_Converged-OPLS-2005>
0

> <r_mmod_RMS_Derivative-OPLS-2005>
3.48641920089722

$$$$
37
                    3D
 Structure written by MMmdl.
150158  0  0  1  0            999 V2000
  -30.3905  -15.3359   20.3346 C   0  0  0  0  0  0
  -30.4395  -12.8511   19.5583 C   0  0  0  0  0  0
  -29.5469  -12.5853   18.3172 C   0  0  0  0  0  0
  -28.1010  -12.2851   18.7407 C   0  0  0  0  0  0
  -27.6102  -13.2753   19.8246 C   0  0  2  0  0  0
  -28.6293  -13.4959   20.9671 C   0  0  0  0  0  0
  -25.2386  -13.8248   20.5723 C   0  0  0  0  0  0
  -24.1733  -13.0453   20.9272 C   0  0  0  0  0  0
  -24.6363  -11.6957   20.8755 C   0  0  0  0  0  0
  -23.9061  -10.4306   21.0402 C   0  0  0  0  0  0
  -24.3602   -9.4221   21.9179 C   0  0  0  0  0  0
  -23.6287   -8.2245   22.0749 C   0  0  0  0  0  0
  -22.4274   -8.0276   21.3528 C   0  0  0  0  0  0
  -21.9903   -9.0261   20.4629 C   0  0  0  0  0  0
  -22.7227  -10.2142   20.3056 C   0  0  0  0  0  0
  -21.6859   -6.0736   22.5277 C   0  0  0  0  0  0
  -21.4021   -6.5625   23.8217 C   0  0  0  0  0  0
  -21.3656   -5.6765   24.9169 C   0  0  0  0  0  0
  -21.6038   -4.3033   24.7213 C   0  0  0  0  0  0
  -21.8817   -3.8143   23.4326 C   0  0  0  0  0  0
  -21.9190   -4.6966   22.3394 C   0  0  0  0  0  0
  -22.7752  -13.5226   21.1914 C   0  0  0  0  0  0
  -22.1657   -4.2157   21.0966 F   0  0  0  0  0  0
  -21.5627   -3.4506   25.7718 F   0  0  0  0  0  0
  -29.8633  -14.0062   20.3459 N   0  0  0  0  0  0
  -26.2789  -12.9513   20.3204 N   0  0  0  0  0  0
  -25.9300  -11.6615   20.5728 N   0  0  0  0  0  0
  -22.0371  -12.8240   22.0452 N   0  0  0  0  0  0
  -25.4031  -15.1970   20.4095 N   0  0  0  0  0  0
  -31.5996  -15.3549   20.0545 O   0  0  0  0  0  0
  -21.6621   -6.8885   21.4245 O   0  0  0  0  0  0
  -22.3439  -14.5503   20.6713 O   0  0  0  0  0  0
  -24.6673  -31.8205   23.1685 C   0  0  0  0  0  0
  -25.9318  -32.4584   23.8175 C   0  0  1  0  0  0
  -27.2141  -26.8966   20.1716 C   0  0  0  0  0  0
  -25.5974  -33.8398   24.2106 N   0  0  0  0  0  0
  -23.4812  -30.4329   21.5213 C   0  0  2  0  0  0
  -24.9334  -28.8144   20.1063 C   0  0  0  0  0  0
  -22.7681  -29.4467   22.4820 C   0  0  0  0  0  0
  -18.0344  -28.1328   22.8535 C   0  0  0  0  0  0
  -24.1502  -36.7197   23.2653 C   0  0  0  0  0  0
  -26.0538  -30.6133   21.4014 C   0  0  0  0  0  0
  -26.1186  -29.2010   20.7452 C   0  0  0  0  0  0
  -27.2513  -28.2636   20.7505 C   0  0  0  0  0  0
  -26.0020  -26.6714   19.4783 C   0  0  0  0  0  0
  -24.9048  -27.5752   19.4482 C   0  0  0  0  0  0
  -23.7184  -29.7439   20.1492 C   0  0  0  0  0  0
  -25.4130  -36.2973   24.0325 C   0  0  1  0  0  0
  -20.5971  -28.3725   23.1107 C   0  0  2  0  0  0
  -20.6897  -26.9482   22.5100 C   0  0  0  0  0  0
  -19.5640  -26.6333   21.5175 C   0  0  0  0  0  0
  -18.1957  -26.7784   22.1849 C   0  0  0  0  0  0
  -19.1606  -28.8852   23.2805 C   0  0  0  0  0  0
  -18.9506  -30.1451   23.8817 C   0  0  0  0  0  0
  -17.6489  -30.6530   24.0534 C   0  0  0  0  0  0
  -25.9095  -34.9345   23.5036 C   0  0  0  0  0  0
  -16.5375  -29.9020   23.6320 C   0  0  0  0  0  0
  -16.7309  -28.6427   23.0378 C   0  0  0  0  0  0
  -26.4548  -31.6523   25.0690 C   0  0  0  0  0  0
  -25.3694  -31.3747   26.1361 C   0  0  0  0  0  0
  -27.0426  -30.2899   24.6375 C   0  0  0  0  0  0
  -27.6050  -32.4320   25.7473 C   0  0  0  0  0  0
  -27.5573  -37.1759   24.8468 C   0  0  0  0  0  0
  -21.4349  -29.3093   22.3558 N   0  0  0  0  0  0
  -26.4276  -37.3708   23.9415 N   0  0  0  0  0  0
  -24.7559  -30.9830   22.0848 N   0  0  0  0  0  0
  -23.4227  -28.7989   23.3026 O   0  0  0  0  0  0
  -28.2145  -25.7829   20.2789 O   0  0  0  0  0  0
  -26.5697  -34.8849   22.4637 O   0  0  0  0  0  0
  -23.5752  -32.1206   23.6789 O   0  0  0  0  0  0
  -28.2569  -18.7193   19.2013 C   0  0  0  0  0  0
  -27.9034  -20.2939   19.3773 C   0  0  0  0  0  0
  -29.6237  -19.7443   20.8071 C   0  0  0  0  0  0
  -29.5460  -18.2265   19.9816 C   0  0  1  0  0  0
  -28.8274  -22.6200   20.6010 C   0  0  0  0  0  0
  -28.0920  -24.1500   19.9372 C   0  0  0  0  0  0
  -29.5911  -16.5944   20.4526 N   0  0  0  0  0  0
  -29.0215  -21.0359   20.0299 N   0  3  2  0  0  0
  -31.4555  -13.0679   19.2299 H   0  0  0  0  0  0
  -30.5237  -11.9611   20.1853 H   0  0  0  0  0  0
  -29.9525  -11.7609   17.7299 H   0  0  0  0  0  0
  -29.5584  -13.4622   17.6691 H   0  0  0  0  0  0
  -28.0769  -11.2699   19.1369 H   0  0  0  0  0  0
  -27.4349  -12.2948   17.8769 H   0  0  0  0  0  0
  -27.5108  -14.2273   19.3009 H   0  0  0  0  0  0
  -28.8053  -12.5830   21.5382 H   0  0  0  0  0  0
  -28.2426  -14.2357   21.6736 H   0  0  0  0  0  0
  -25.2731   -9.5696   22.4784 H   0  0  0  0  0  0
  -23.9993   -7.4624   22.7463 H   0  0  0  0  0  0
  -21.0836   -8.8757   19.8936 H   0  0  0  0  0  0
  -22.3664  -10.9680   19.6182 H   0  0  0  0  0  0
  -21.2028   -7.6130   23.9733 H   0  0  0  0  0  0
  -21.1481   -6.0477   25.9073 H   0  0  0  0  0  0
  -22.0614   -2.7612   23.2800 H   0  0  0  0  0  0
  -22.3944  -11.9905   22.4868 H   0  0  0  0  0  0
  -21.1004  -13.1340   22.2641 H   0  0  0  0  0  0
  -24.6222  -15.8399   20.4816 H   0  0  0  0  0  0
  -26.2244  -15.6217   20.0028 H   0  0  0  0  0  0
  -26.7377  -32.5090   23.0886 H   0  0  0  0  0  0
  -25.0096  -33.9468   25.0240 H   0  0  0  0  0  0
  -22.7990  -31.2686   21.3515 H   0  0  0  0  0  0
  -23.3773  -35.9529   23.3286 H   0  0  0  0  0  0
  -24.3600  -36.8849   22.2077 H   0  0  0  0  0  0
  -23.7226  -37.6367   23.6704 H   0  0  0  0  0  0
  -26.2334  -31.3476   20.6162 H   0  0  0  0  0  0
  -26.9179  -30.6800   22.0496 H   0  0  0  0  0  0
  -28.1524  -28.5570   21.2721 H   0  0  0  0  0  0
  -25.8588  -25.7242   18.9816 H   0  0  0  0  0  0
  -24.0060  -27.2849   18.9200 H   0  0  0  0  0  0
  -23.8603  -30.5100   19.3867 H   0  0  0  0  0  0
  -22.8245  -29.1937   19.8455 H   0  0  0  0  0  0
  -25.1329  -36.1811   25.0824 H   0  0  0  0  0  0
  -21.0078  -28.3212   24.1206 H   0  0  0  0  0  0
  -20.6258  -26.2236   23.3235 H   0  0  0  0  0  0
  -21.6633  -26.7782   22.0483 H   0  0  0  0  0  0
  -19.6750  -25.6234   21.1191 H   0  0  0  0  0  0
  -19.6265  -27.3139   20.6682 H   0  0  0  0  0  0
  -17.4028  -26.6234   21.4505 H   0  0  0  0  0  0
  -18.0624  -26.0045   22.9435 H   0  0  0  0  0  0
  -19.7964  -30.7323   24.2164 H   0  0  0  0  0  0
  -17.5017  -31.6219   24.5120 H   0  0  0  0  0  0
  -15.5376  -30.2926   23.7644 H   0  0  0  0  0  0
  -15.8717  -28.0704   22.7131 H   0  0  0  0  0  0
  -24.5887  -30.7080   25.7673 H   0  0  0  0  0  0
  -24.8842  -32.2924   26.4688 H   0  0  0  0  0  0
  -25.7939  -30.8975   27.0206 H   0  0  0  0  0  0
  -26.3079  -29.6587   24.1351 H   0  0  0  0  0  0
  -27.3954  -29.7240   25.5005 H   0  0  0  0  0  0
  -27.9034  -30.4081   23.9790 H   0  0  0  0  0  0
  -27.2641  -33.3675   26.1917 H   0  0  0  0  0  0
  -28.3910  -32.6799   25.0326 H   0  0  0  0  0  0
  -28.0671  -31.8530   26.5475 H   0  0  0  0  0  0
  -28.2586  -38.0061   24.7518 H   0  0  0  0  0  0
  -28.1080  -36.2585   24.6321 H   0  0  0  0  0  0
  -27.2283  -37.1427   25.8867 H   0  0  0  0  0  0
  -20.9626  -29.8815   21.6692 H   0  0  0  0  0  0
  -26.0140  -38.2781   24.1397 H   0  0  0  0  0  0
  -28.3735  -18.4982   18.1401 H   0  0  0  0  0  0
  -27.3858  -18.1405   19.5081 H   0  0  0  0  0  0
  -27.0176  -20.3995   20.0038 H   0  0  0  0  0  0
  -27.6535  -20.7494   18.4183 H   0  0  0  0  0  0
  -30.6537  -19.9497   21.0997 H   0  0  0  0  0  0
  -29.0811  -19.6595   21.7491 H   0  0  0  0  0  0
  -30.3595  -18.2759   19.2562 H   0  0  0  0  0  0
  -28.3853  -22.5047   21.5896 H   0  0  0  0  0  0
  -29.8592  -22.9044   20.8126 H   0  0  0  0  0  0
  -27.0199  -23.9528   19.9596 H   0  0  0  0  0  0
  -28.3337  -24.1190   18.8742 H   0  0  0  0  0  0
  -28.6796  -16.3366   20.8022 H   0  0  0  0  0  0
  -29.6810  -21.1623   19.2743 H   0  0  0  0  0  0
  1 25  1  0  0  0
  1 30  2  0  0  0
  1 77  1  0  0  0
  2  3  1  0  0  0
  2 25  1  0  0  0
  2 79  1  0  0  0
  2 80  1  0  0  0
  3  4  1  0  0  0
  3 81  1  0  0  0
  3 82  1  0  0  0
  4  5  1  0  0  0
  4 83  1  0  0  0
  4 84  1  0  0  0
  5  6  1  0  0  0
  5 26  1  0  0  0
  5 85  1  0  0  0
  6 25  1  0  0  0
  6 86  1  0  0  0
  6 87  1  0  0  0
  7  8  2  0  0  0
  7 26  1  0  0  0
  7 29  1  0  0  0
  8  9  1  0  0  0
  8 22  1  0  0  0
  9 10  1  0  0  0
  9 27  2  0  0  0
 10 11  2  0  0  0
 10 15  1  0  0  0
 11 12  1  0  0  0
 11 88  1  0  0  0
 12 13  2  0  0  0
 12 89  1  0  0  0
 13 14  1  0  0  0
 13 31  1  0  0  0
 14 15  2  0  0  0
 14 90  1  0  0  0
 15 91  1  0  0  0
 16 17  2  0  0  0
 16 21  1  0  0  0
 16 31  1  0  0  0
 17 18  1  0  0  0
 17 92  1  0  0  0
 18 19  2  0  0  0
 18 93  1  0  0  0
 19 20  1  0  0  0
 19 24  1  0  0  0
 20 21  2  0  0  0
 20 94  1  0  0  0
 21 23  1  0  0  0
 22 28  1  0  0  0
 22 32  2  0  0  0
 26 27  1  0  0  0
 28 95  1  0  0  0
 28 96  1  0  0  0
 29 97  1  0  0  0
 29 98  1  0  0  0
 33 34  1  0  0  0
 33 66  1  0  0  0
 33 70  2  0  0  0
 34 36  1  0  0  0
 34 59  1  0  0  0
 34 99  1  0  0  0
 35 44  2  0  0  0
 35 45  1  0  0  0
 35 68  1  0  0  0
 36 56  1  0  0  0
 36100  1  0  0  0
 37 39  1  0  0  0
 37 47  1  0  0  0
 37 66  1  0  0  0
 37101  1  0  0  0
 38 43  2  0  0  0
 38 46  1  0  0  0
 38 47  1  0  0  0
 39 64  1  0  0  0
 39 67  2  0  0  0
 40 52  1  0  0  0
 40 53  2  0  0  0
 40 58  1  0  0  0
 41102  1  0  0  0
 41103  1  0  0  0
 41104  1  0  0  0
 41 48  1  0  0  0
 42 43  1  0  0  0
 42 66  1  0  0  0
 42105  1  0  0  0
 42106  1  0  0  0
 43 44  1  0  0  0
 44107  1  0  0  0
 45 46  2  0  0  0
 45108  1  0  0  0
 46109  1  0  0  0
 47110  1  0  0  0
 47111  1  0  0  0
 48 56  1  0  0  0
 48 65  1  0  0  0
 48112  1  0  0  0
 49 50  1  0  0  0
 49 53  1  0  0  0
 49 64  1  0  0  0
 49113  1  0  0  0
 50 51  1  0  0  0
 50114  1  0  0  0
 50115  1  0  0  0
 51 52  1  0  0  0
 51116  1  0  0  0
 51117  1  0  0  0
 52118  1  0  0  0
 52119  1  0  0  0
 53 54  1  0  0  0
 54 55  2  0  0  0
 54120  1  0  0  0
 55 57  1  0  0  0
 55121  1  0  0  0
 56 69  2  0  0  0
 57 58  2  0  0  0
 57122  1  0  0  0
 58123  1  0  0  0
 59 60  1  0  0  0
 59 61  1  0  0  0
 59 62  1  0  0  0
 60124  1  0  0  0
 60125  1  0  0  0
 60126  1  0  0  0
 61127  1  0  0  0
 61128  1  0  0  0
 61129  1  0  0  0
 62130  1  0  0  0
 62131  1  0  0  0
 62132  1  0  0  0
 63 65  1  0  0  0
 63133  1  0  0  0
 63134  1  0  0  0
 63135  1  0  0  0
 64136  1  0  0  0
 65137  1  0  0  0
 68 76  1  0  0  0
 71 72  1  0  0  0
 71 74  1  0  0  0
 71138  1  0  0  0
 71139  1  0  0  0
 72 78  1  0  0  0
 72140  1  0  0  0
 72141  1  0  0  0
 73 74  1  0  0  0
 73 78  1  0  0  0
 73142  1  0  0  0
 73143  1  0  0  0
 74 77  1  0  0  0
 74144  1  0  0  0
 75 76  1  0  0  0
 75145  1  0  0  0
 75146  1  0  0  0
 75 78  1  0  0  0
 76147  1  0  0  0
 76148  1  0  0  0
 77149  1  0  0  0
 78150  1  0  0  0
M  CHG  1  78   1
M  ISO  4   1 100  68 101  76 101  77 100
M  END
> <chiral flag>
0

> <version>
0

> <s_m_source_file>
/data/baiqing/PycharmProjects/Reinvent-master-3.2/result/LINK_invent/BTK/process_docking_weight1_custom_product_contain_oxygen_bond_distance_aromatic_linkinvent_7_9_3/rearranged_h_0009.sdf

> <i_m_source_file_index>
38

> <r_mmod_Potential_Energy-OPLS-2005>
1360.91271972656

> <r_mmod_Stretch_Energy-OPLS-2005>
623.59765625

> <r_mmod_Bend_Energy-OPLS-2005>
521.831970214844

> <r_mmod_Torsional_Energy-OPLS-2005>
273.570373535156

> <r_mmod_Improper_Torsional_Energy-OPLS-2005>
4.57925128936768

> <r_mmod_Van_der_Waal_Energy-OPLS-2005>
105.543487548828

> <r_mmod_Electrostatic_Energy-OPLS-2005>
-234.801788330078

> <r_mmod_Solvation_Energy-OPLS-2005>
-462.451995849609

> <b_mmod_Minimization_Converged-OPLS-2005>
0

> <r_mmod_RMS_Derivative-OPLS-2005>
4.75067710876465

$$$$
38
                    3D
 Structure written by MMmdl.
150158  0  0  1  0            999 V2000
  -30.3905  -15.3359   20.3346 C   0  0  0  0  0  0
  -30.4395  -12.8511   19.5583 C   0  0  0  0  0  0
  -29.5469  -12.5853   18.3172 C   0  0  0  0  0  0
  -28.1010  -12.2851   18.7407 C   0  0  0  0  0  0
  -27.6102  -13.2753   19.8246 C   0  0  2  0  0  0
  -28.6293  -13.4959   20.9671 C   0  0  0  0  0  0
  -25.2386  -13.8248   20.5723 C   0  0  0  0  0  0
  -24.1733  -13.0453   20.9272 C   0  0  0  0  0  0
  -24.6363  -11.6957   20.8755 C   0  0  0  0  0  0
  -23.9061  -10.4306   21.0402 C   0  0  0  0  0  0
  -24.3602   -9.4221   21.9179 C   0  0  0  0  0  0
  -23.6287   -8.2245   22.0749 C   0  0  0  0  0  0
  -22.4274   -8.0276   21.3528 C   0  0  0  0  0  0
  -21.9903   -9.0261   20.4629 C   0  0  0  0  0  0
  -22.7227  -10.2142   20.3056 C   0  0  0  0  0  0
  -21.6859   -6.0736   22.5277 C   0  0  0  0  0  0
  -21.4021   -6.5625   23.8217 C   0  0  0  0  0  0
  -21.3656   -5.6765   24.9169 C   0  0  0  0  0  0
  -21.6038   -4.3033   24.7213 C   0  0  0  0  0  0
  -21.8817   -3.8143   23.4326 C   0  0  0  0  0  0
  -21.9190   -4.6966   22.3394 C   0  0  0  0  0  0
  -22.7752  -13.5226   21.1914 C   0  0  0  0  0  0
  -22.1657   -4.2157   21.0966 F   0  0  0  0  0  0
  -21.5627   -3.4506   25.7718 F   0  0  0  0  0  0
  -29.8633  -14.0062   20.3459 N   0  0  0  0  0  0
  -26.2789  -12.9513   20.3204 N   0  0  0  0  0  0
  -25.9300  -11.6615   20.5728 N   0  0  0  0  0  0
  -22.0371  -12.8240   22.0452 N   0  0  0  0  0  0
  -25.4031  -15.1970   20.4095 N   0  0  0  0  0  0
  -31.5996  -15.3549   20.0545 O   0  0  0  0  0  0
  -21.6621   -6.8885   21.4245 O   0  0  0  0  0  0
  -22.3439  -14.5503   20.6713 O   0  0  0  0  0  0
  -24.6673  -31.8205   23.1685 C   0  0  0  0  0  0
  -25.9318  -32.4584   23.8175 C   0  0  1  0  0  0
  -27.2141  -26.8966   20.1716 C   0  0  0  0  0  0
  -25.5974  -33.8398   24.2106 N   0  0  0  0  0  0
  -23.4812  -30.4329   21.5213 C   0  0  2  0  0  0
  -24.9334  -28.8144   20.1063 C   0  0  0  0  0  0
  -22.7681  -29.4467   22.4820 C   0  0  0  0  0  0
  -18.0344  -28.1328   22.8535 C   0  0  0  0  0  0
  -24.1502  -36.7197   23.2653 C   0  0  0  0  0  0
  -26.0538  -30.6133   21.4014 C   0  0  0  0  0  0
  -26.1186  -29.2010   20.7452 C   0  0  0  0  0  0
  -27.2513  -28.2636   20.7505 C   0  0  0  0  0  0
  -26.0020  -26.6714   19.4783 C   0  0  0  0  0  0
  -24.9048  -27.5752   19.4482 C   0  0  0  0  0  0
  -23.7184  -29.7439   20.1492 C   0  0  0  0  0  0
  -25.4130  -36.2973   24.0325 C   0  0  1  0  0  0
  -20.5971  -28.3725   23.1107 C   0  0  2  0  0  0
  -20.6897  -26.9482   22.5100 C   0  0  0  0  0  0
  -19.5640  -26.6333   21.5175 C   0  0  0  0  0  0
  -18.1957  -26.7784   22.1849 C   0  0  0  0  0  0
  -19.1606  -28.8852   23.2805 C   0  0  0  0  0  0
  -18.9506  -30.1451   23.8817 C   0  0  0  0  0  0
  -17.6489  -30.6530   24.0534 C   0  0  0  0  0  0
  -25.9095  -34.9345   23.5036 C   0  0  0  0  0  0
  -16.5375  -29.9020   23.6320 C   0  0  0  0  0  0
  -16.7309  -28.6427   23.0378 C   0  0  0  0  0  0
  -26.4548  -31.6523   25.0690 C   0  0  0  0  0  0
  -25.3694  -31.3747   26.1361 C   0  0  0  0  0  0
  -27.0426  -30.2899   24.6375 C   0  0  0  0  0  0
  -27.6050  -32.4320   25.7473 C   0  0  0  0  0  0
  -27.5573  -37.1759   24.8468 C   0  0  0  0  0  0
  -21.4349  -29.3093   22.3558 N   0  0  0  0  0  0
  -26.4276  -37.3708   23.9415 N   0  0  0  0  0  0
  -24.7559  -30.9830   22.0848 N   0  0  0  0  0  0
  -23.4227  -28.7989   23.3026 O   0  0  0  0  0  0
  -28.2145  -25.7829   20.2789 O   0  0  0  0  0  0
  -26.5697  -34.8849   22.4637 O   0  0  0  0  0  0
  -23.5752  -32.1206   23.6789 O   0  0  0  0  0  0
  -28.2569  -18.7193   19.2013 C   0  0  0  0  0  0
  -27.9034  -20.2939   19.3773 C   0  0  0  0  0  0
  -29.6237  -19.7443   20.8071 C   0  0  0  0  0  0
  -29.5460  -18.2265   19.9816 C   0  0  1  0  0  0
  -28.8274  -22.6200   20.6010 C   0  0  0  0  0  0
  -28.0920  -24.1500   19.9372 C   0  0  0  0  0  0
  -29.5911  -16.5944   20.4526 N   0  0  0  0  0  0
  -29.0215  -21.0359   20.0299 N   0  3  2  0  0  0
  -31.4555  -13.0679   19.2299 H   0  0  0  0  0  0
  -30.5237  -11.9611   20.1853 H   0  0  0  0  0  0
  -29.9525  -11.7609   17.7299 H   0  0  0  0  0  0
  -29.5584  -13.4622   17.6691 H   0  0  0  0  0  0
  -28.0769  -11.2699   19.1369 H   0  0  0  0  0  0
  -27.4349  -12.2948   17.8769 H   0  0  0  0  0  0
  -27.5108  -14.2273   19.3009 H   0  0  0  0  0  0
  -28.8053  -12.5830   21.5382 H   0  0  0  0  0  0
  -28.2426  -14.2357   21.6736 H   0  0  0  0  0  0
  -25.2731   -9.5696   22.4784 H   0  0  0  0  0  0
  -23.9993   -7.4624   22.7463 H   0  0  0  0  0  0
  -21.0836   -8.8757   19.8936 H   0  0  0  0  0  0
  -22.3664  -10.9680   19.6182 H   0  0  0  0  0  0
  -21.2028   -7.6130   23.9733 H   0  0  0  0  0  0
  -21.1481   -6.0477   25.9073 H   0  0  0  0  0  0
  -22.0614   -2.7612   23.2800 H   0  0  0  0  0  0
  -22.3944  -11.9905   22.4868 H   0  0  0  0  0  0
  -21.1004  -13.1340   22.2641 H   0  0  0  0  0  0
  -24.6222  -15.8399   20.4816 H   0  0  0  0  0  0
  -26.2244  -15.6217   20.0028 H   0  0  0  0  0  0
  -26.7377  -32.5090   23.0886 H   0  0  0  0  0  0
  -25.0096  -33.9468   25.0240 H   0  0  0  0  0  0
  -22.7990  -31.2686   21.3515 H   0  0  0  0  0  0
  -23.3773  -35.9529   23.3286 H   0  0  0  0  0  0
  -24.3600  -36.8849   22.2077 H   0  0  0  0  0  0
  -23.7226  -37.6367   23.6704 H   0  0  0  0  0  0
  -26.2334  -31.3476   20.6162 H   0  0  0  0  0  0
  -26.9179  -30.6800   22.0496 H   0  0  0  0  0  0
  -28.1524  -28.5570   21.2721 H   0  0  0  0  0  0
  -25.8588  -25.7242   18.9816 H   0  0  0  0  0  0
  -24.0060  -27.2849   18.9200 H   0  0  0  0  0  0
  -23.8603  -30.5100   19.3867 H   0  0  0  0  0  0
  -22.8245  -29.1937   19.8455 H   0  0  0  0  0  0
  -25.1329  -36.1811   25.0824 H   0  0  0  0  0  0
  -21.0078  -28.3212   24.1206 H   0  0  0  0  0  0
  -20.6258  -26.2236   23.3235 H   0  0  0  0  0  0
  -21.6633  -26.7782   22.0483 H   0  0  0  0  0  0
  -19.6750  -25.6234   21.1191 H   0  0  0  0  0  0
  -19.6265  -27.3139   20.6682 H   0  0  0  0  0  0
  -17.4028  -26.6234   21.4505 H   0  0  0  0  0  0
  -18.0624  -26.0045   22.9435 H   0  0  0  0  0  0
  -19.7964  -30.7323   24.2164 H   0  0  0  0  0  0
  -17.5017  -31.6219   24.5120 H   0  0  0  0  0  0
  -15.5376  -30.2926   23.7644 H   0  0  0  0  0  0
  -15.8717  -28.0704   22.7131 H   0  0  0  0  0  0
  -24.5887  -30.7080   25.7673 H   0  0  0  0  0  0
  -24.8842  -32.2924   26.4688 H   0  0  0  0  0  0
  -25.7939  -30.8975   27.0206 H   0  0  0  0  0  0
  -26.3079  -29.6587   24.1351 H   0  0  0  0  0  0
  -27.3954  -29.7240   25.5005 H   0  0  0  0  0  0
  -27.9034  -30.4081   23.9790 H   0  0  0  0  0  0
  -27.2641  -33.3675   26.1917 H   0  0  0  0  0  0
  -28.3910  -32.6799   25.0326 H   0  0  0  0  0  0
  -28.0671  -31.8530   26.5475 H   0  0  0  0  0  0
  -28.2586  -38.0061   24.7518 H   0  0  0  0  0  0
  -28.1080  -36.2585   24.6321 H   0  0  0  0  0  0
  -27.2283  -37.1427   25.8867 H   0  0  0  0  0  0
  -20.9626  -29.8815   21.6692 H   0  0  0  0  0  0
  -26.0140  -38.2781   24.1397 H   0  0  0  0  0  0
  -28.3735  -18.4982   18.1401 H   0  0  0  0  0  0
  -27.3858  -18.1405   19.5081 H   0  0  0  0  0  0
  -27.0176  -20.3995   20.0038 H   0  0  0  0  0  0
  -27.6535  -20.7494   18.4183 H   0  0  0  0  0  0
  -30.6537  -19.9497   21.0997 H   0  0  0  0  0  0
  -29.0811  -19.6595   21.7491 H   0  0  0  0  0  0
  -30.3595  -18.2759   19.2562 H   0  0  0  0  0  0
  -28.3853  -22.5047   21.5896 H   0  0  0  0  0  0
  -29.8592  -22.9044   20.8126 H   0  0  0  0  0  0
  -27.0199  -23.9528   19.9596 H   0  0  0  0  0  0
  -28.3337  -24.1190   18.8742 H   0  0  0  0  0  0
  -28.6796  -16.3366   20.8022 H   0  0  0  0  0  0
  -29.6810  -21.1623   19.2743 H   0  0  0  0  0  0
  1 25  1  0  0  0
  1 30  2  0  0  0
  1 77  1  0  0  0
  2  3  1  0  0  0
  2 25  1  0  0  0
  2 79  1  0  0  0
  2 80  1  0  0  0
  3  4  1  0  0  0
  3 81  1  0  0  0
  3 82  1  0  0  0
  4  5  1  0  0  0
  4 83  1  0  0  0
  4 84  1  0  0  0
  5  6  1  0  0  0
  5 26  1  0  0  0
  5 85  1  0  0  0
  6 25  1  0  0  0
  6 86  1  0  0  0
  6 87  1  0  0  0
  7  8  2  0  0  0
  7 26  1  0  0  0
  7 29  1  0  0  0
  8  9  1  0  0  0
  8 22  1  0  0  0
  9 10  1  0  0  0
  9 27  2  0  0  0
 10 11  2  0  0  0
 10 15  1  0  0  0
 11 12  1  0  0  0
 11 88  1  0  0  0
 12 13  2  0  0  0
 12 89  1  0  0  0
 13 14  1  0  0  0
 13 31  1  0  0  0
 14 15  2  0  0  0
 14 90  1  0  0  0
 15 91  1  0  0  0
 16 17  2  0  0  0
 16 21  1  0  0  0
 16 31  1  0  0  0
 17 18  1  0  0  0
 17 92  1  0  0  0
 18 19  2  0  0  0
 18 93  1  0  0  0
 19 20  1  0  0  0
 19 24  1  0  0  0
 20 21  2  0  0  0
 20 94  1  0  0  0
 21 23  1  0  0  0
 22 28  1  0  0  0
 22 32  2  0  0  0
 26 27  1  0  0  0
 28 95  1  0  0  0
 28 96  1  0  0  0
 29 97  1  0  0  0
 29 98  1  0  0  0
 33 34  1  0  0  0
 33 66  1  0  0  0
 33 70  2  0  0  0
 34 36  1  0  0  0
 34 59  1  0  0  0
 34 99  1  0  0  0
 35 44  2  0  0  0
 35 45  1  0  0  0
 35 68  1  0  0  0
 36 56  1  0  0  0
 36100  1  0  0  0
 37 39  1  0  0  0
 37 47  1  0  0  0
 37 66  1  0  0  0
 37101  1  0  0  0
 38 43  2  0  0  0
 38 46  1  0  0  0
 38 47  1  0  0  0
 39 64  1  0  0  0
 39 67  2  0  0  0
 40 52  1  0  0  0
 40 53  2  0  0  0
 40 58  1  0  0  0
 41102  1  0  0  0
 41103  1  0  0  0
 41104  1  0  0  0
 41 48  1  0  0  0
 42 43  1  0  0  0
 42 66  1  0  0  0
 42105  1  0  0  0
 42106  1  0  0  0
 43 44  1  0  0  0
 44107  1  0  0  0
 45 46  2  0  0  0
 45108  1  0  0  0
 46109  1  0  0  0
 47110  1  0  0  0
 47111  1  0  0  0
 48 56  1  0  0  0
 48 65  1  0  0  0
 48112  1  0  0  0
 49 50  1  0  0  0
 49 53  1  0  0  0
 49 64  1  0  0  0
 49113  1  0  0  0
 50 51  1  0  0  0
 50114  1  0  0  0
 50115  1  0  0  0
 51 52  1  0  0  0
 51116  1  0  0  0
 51117  1  0  0  0
 52118  1  0  0  0
 52119  1  0  0  0
 53 54  1  0  0  0
 54 55  2  0  0  0
 54120  1  0  0  0
 55 57  1  0  0  0
 55121  1  0  0  0
 56 69  2  0  0  0
 57 58  2  0  0  0
 57122  1  0  0  0
 58123  1  0  0  0
 59 60  1  0  0  0
 59 61  1  0  0  0
 59 62  1  0  0  0
 60124  1  0  0  0
 60125  1  0  0  0
 60126  1  0  0  0
 61127  1  0  0  0
 61128  1  0  0  0
 61129  1  0  0  0
 62130  1  0  0  0
 62131  1  0  0  0
 62132  1  0  0  0
 63 65  1  0  0  0
 63133  1  0  0  0
 63134  1  0  0  0
 63135  1  0  0  0
 64136  1  0  0  0
 65137  1  0  0  0
 68 76  1  0  0  0
 71 72  1  0  0  0
 71 74  1  0  0  0
 71138  1  0  0  0
 71139  1  0  0  0
 72 78  1  0  0  0
 72140  1  0  0  0
 72141  1  0  0  0
 73 74  1  0  0  0
 73 78  1  0  0  0
 73142  1  0  0  0
 73143  1  0  0  0
 74 77  1  0  0  0
 74144  1  0  0  0
 75 76  1  0  0  0
 75145  1  0  0  0
 75146  1  0  0  0
 75 78  1  0  0  0
 76147  1  0  0  0
 76148  1  0  0  0
 77149  1  0  0  0
 78150  1  0  0  0
M  CHG  1  78   1
M  ISO  4   1 100  68 101  76 101  77 100
M  END
> <chiral flag>
0

> <version>
0

> <s_m_source_file>
/data/baiqing/PycharmProjects/Reinvent-master-3.2/result/LINK_invent/BTK/process_docking_weight1_custom_product_contain_oxygen_bond_distance_aromatic_linkinvent_7_9_3/rearranged_h_0009.sdf

> <i_m_source_file_index>
39

> <r_mmod_Potential_Energy-OPLS-2005>
1360.91271972656

> <r_mmod_Stretch_Energy-OPLS-2005>
623.59765625

> <r_mmod_Bend_Energy-OPLS-2005>
521.831970214844

> <r_mmod_Torsional_Energy-OPLS-2005>
273.570373535156

> <r_mmod_Improper_Torsional_Energy-OPLS-2005>
4.57925128936768

> <r_mmod_Van_der_Waal_Energy-OPLS-2005>
105.543487548828

> <r_mmod_Electrostatic_Energy-OPLS-2005>
-234.801788330078

> <r_mmod_Solvation_Energy-OPLS-2005>
-462.451995849609

> <b_mmod_Minimization_Converged-OPLS-2005>
0

> <r_mmod_RMS_Derivative-OPLS-2005>
4.75067710876465

$$$$
39
                    3D
 Structure written by MMmdl.
156165  0  0  1  0            999 V2000
  -30.6852  -14.6237   20.4869 C   0  0  0  0  0  0
  -30.4153  -12.3835   19.4619 C   0  0  0  0  0  0
  -29.4992  -12.4931   18.2261 C   0  0  0  0  0  0
  -28.0237  -12.3396   18.6397 C   0  0  0  0  0  0
  -27.6451  -13.2288   19.8553 C   0  0  2  0  0  0
  -28.6897  -13.1335   20.9895 C   0  0  0  0  0  0
  -25.2518  -13.8202   20.5698 C   0  0  0  0  0  0
  -24.1805  -13.0448   20.9205 C   0  0  0  0  0  0
  -24.6392  -11.6925   20.8751 C   0  0  0  0  0  0
  -23.9070  -10.4298   21.0409 C   0  0  0  0  0  0
  -24.3621   -9.4211   21.9185 C   0  0  0  0  0  0
  -23.6296   -8.2246   22.0754 C   0  0  0  0  0  0
  -22.4278   -8.0283   21.3544 C   0  0  0  0  0  0
  -21.9914   -9.0257   20.4646 C   0  0  0  0  0  0
  -22.7244  -10.2137   20.3056 C   0  0  0  0  0  0
  -21.6854   -6.0737   22.5279 C   0  0  0  0  0  0
  -21.4015   -6.5641   23.8213 C   0  0  0  0  0  0
  -21.3660   -5.6793   24.9175 C   0  0  0  0  0  0
  -21.6044   -4.3056   24.7225 C   0  0  0  0  0  0
  -21.8819   -3.8148   23.4346 C   0  0  0  0  0  0
  -21.9193   -4.6965   22.3402 C   0  0  0  0  0  0
  -22.7824  -13.5226   21.1863 C   0  0  0  0  0  0
  -22.1661   -4.2150   21.0980 F   0  0  0  0  0  0
  -21.5628   -3.4540   25.7737 F   0  0  0  0  0  0
  -30.0018  -13.4398   20.4090 N   0  0  0  0  0  0
  -26.2951  -12.9409   20.3310 N   0  0  0  0  0  0
  -25.9323  -11.6551   20.5769 N   0  0  0  0  0  0
  -22.0473  -12.8214   22.0419 N   0  0  0  0  0  0
  -25.4208  -15.1925   20.4106 N   0  0  0  0  0  0
  -31.8684  -14.6852   20.1460 O   0  0  0  0  0  0
  -21.6642   -6.8880   21.4240 O   0  0  0  0  0  0
  -22.3506  -14.5531   20.6710 O   0  0  0  0  0  0
  -24.6248  -31.8613   23.2047 C   0  0  0  0  0  0
  -25.9104  -32.4785   23.8367 C   0  0  1  0  0  0
  -27.2138  -27.3264   20.1238 C   0  0  0  0  0  0
  -25.5926  -33.8586   24.2292 N   0  0  0  0  0  0
  -23.4177  -30.4862   21.5469 C   0  0  2  0  0  0
  -24.8637  -28.9455   20.1099 C   0  0  0  0  0  0
  -22.7468  -29.4631   22.4941 C   0  0  0  0  0  0
  -18.0285  -28.1383   22.8488 C   0  0  0  0  0  0
  -24.1490  -36.7297   23.2639 C   0  0  0  0  0  0
  -25.9584  -30.7945   21.3760 C   0  0  0  0  0  0
  -26.0319  -29.4229   20.7188 C   0  0  0  0  0  0
  -27.2131  -28.6242   20.7176 C   0  0  0  0  0  0
  -26.0331  -26.9118   19.4690 C   0  0  0  0  0  0
  -24.8656  -27.6950   19.4747 C   0  0  0  0  0  0
  -23.6318  -29.8244   20.1608 C   0  0  0  0  0  0
  -25.4114  -36.3089   24.0331 C   0  0  1  0  0  0
  -20.5884  -28.3686   23.1285 C   0  0  2  0  0  0
  -20.6775  -26.9411   22.5410 C   0  0  0  0  0  0
  -19.5750  -26.6385   21.5211 C   0  0  0  0  0  0
  -18.1930  -26.7926   22.1624 C   0  0  0  0  0  0
  -19.1537  -28.8851   23.2882 C   0  0  0  0  0  0
  -18.9461  -30.1454   23.8898 C   0  0  0  0  0  0
  -17.6462  -30.6586   24.0564 C   0  0  0  0  0  0
  -25.9050  -34.9456   23.5111 C   0  0  0  0  0  0
  -16.5352  -29.9086   23.6330 C   0  0  0  0  0  0
  -16.7272  -28.6502   23.0352 C   0  0  0  0  0  0
  -26.4493  -31.6588   25.0730 C   0  0  0  0  0  0
  -25.3731  -31.3721   26.1459 C   0  0  0  0  0  0
  -27.0335  -30.3013   24.6174 C   0  0  0  0  0  0
  -27.6055  -32.4320   25.7499 C   0  0  0  0  0  0
  -27.5579  -37.1805   24.8466 C   0  0  0  0  0  0
  -21.4183  -29.3043   22.3682 N   0  0  0  0  0  0
  -26.4294  -37.3780   23.9406 N   0  0  0  0  0  0
  -24.6856  -31.0635   22.0993 N   0  0  0  0  0  0
  -23.4198  -28.8167   23.3014 O   0  0  0  0  0  0
  -28.3134  -26.4602   20.1636 O   0  0  0  0  0  0
  -26.5616  -34.8920   22.4675 O   0  0  0  0  0  0
  -23.5415  -32.1410   23.7380 O   0  0  0  0  0  0
  -30.0063  -19.4166   19.5530 C   0  0  0  0  0  0
  -29.6031  -20.7839   19.6353 C   0  0  0  0  0  0
  -28.9190  -20.4180   21.9057 C   0  0  0  0  0  0
  -29.9079  -18.5188   20.6526 C   0  0  0  0  0  0
  -29.0755  -21.3405   20.8285 C   0  0  0  0  0  0
  -29.3268  -19.0527   21.8293 C   0  0  0  0  0  0
  -28.3385  -24.8469   22.0666 C   0  0  0  0  0  0
  -28.3569  -23.3139   22.2528 C   0  0  0  0  0  0
  -28.8326  -23.8373   19.9693 C   0  0  0  0  0  0
  -28.0477  -25.0607   20.5798 C   0  0  2  0  0  0
  -30.6559  -17.1362   20.6213 C   0  0  0  0  0  0
  -28.7366  -22.7363   20.9642 N   0  0  0  0  0  0
  -29.9997  -15.7857   20.7345 N   0  0  0  0  0  0
  -29.2136  -18.2683   22.9282 F   0  0  0  0  0  0
  -31.4611  -12.4700   19.1620 H   0  0  0  0  0  0
  -30.3210  -11.4010   19.9270 H   0  0  0  0  0  0
  -29.7624  -11.7309   17.4914 H   0  0  0  0  0  0
  -29.6485  -13.4567   17.7364 H   0  0  0  0  0  0
  -27.8615  -11.2895   18.8857 H   0  0  0  0  0  0
  -27.3693  -12.5568   17.7947 H   0  0  0  0  0  0
  -27.6516  -14.2566   19.4917 H   0  0  0  0  0  0
  -28.6960  -12.1352   21.4295 H   0  0  0  0  0  0
  -28.4460  -13.8233   21.7989 H   0  0  0  0  0  0
  -25.2765   -9.5688   22.4761 H   0  0  0  0  0  0
  -24.0005   -7.4637   22.7473 H   0  0  0  0  0  0
  -21.0847   -8.8777   19.8950 H   0  0  0  0  0  0
  -22.3702  -10.9676   19.6166 H   0  0  0  0  0  0
  -21.2008   -7.6149   23.9716 H   0  0  0  0  0  0
  -21.1482   -6.0524   25.9078 H   0  0  0  0  0  0
  -22.0598   -2.7610   23.2846 H   0  0  0  0  0  0
  -22.4094  -11.9876   22.4804 H   0  0  0  0  0  0
  -21.1088  -13.1232   22.2626 H   0  0  0  0  0  0
  -24.6533  -15.8462   20.5212 H   0  0  0  0  0  0
  -26.2694  -15.6329   20.0787 H   0  0  0  0  0  0
  -26.7170  -32.5460   23.1116 H   0  0  0  0  0  0
  -25.0074  -33.9734   25.0436 H   0  0  0  0  0  0
  -22.7109  -31.3066   21.4060 H   0  0  0  0  0  0
  -23.3749  -35.9633   23.3311 H   0  0  0  0  0  0
  -24.3579  -36.8908   22.2051 H   0  0  0  0  0  0
  -23.7247  -37.6504   23.6653 H   0  0  0  0  0  0
  -26.0892  -31.5583   20.6082 H   0  0  0  0  0  0
  -26.8394  -30.8424   22.0044 H   0  0  0  0  0  0
  -28.1082  -28.9815   21.2073 H   0  0  0  0  0  0
  -25.9975  -25.9636   18.9522 H   0  0  0  0  0  0
  -23.9745  -27.3291   18.9833 H   0  0  0  0  0  0
  -23.7500  -30.6027   19.4058 H   0  0  0  0  0  0
  -22.7518  -29.2539   19.8581 H   0  0  0  0  0  0
  -25.1293  -36.1947   25.0824 H   0  0  0  0  0  0
  -20.9975  -28.3261   24.1407 H   0  0  0  0  0  0
  -20.5680  -26.2295   23.3608 H   0  0  0  0  0  0
  -21.6643  -26.7446   22.1199 H   0  0  0  0  0  0
  -19.6914  -25.6297   21.1239 H   0  0  0  0  0  0
  -19.6687  -27.3199   20.6743 H   0  0  0  0  0  0
  -17.4199  -26.6674   21.4027 H   0  0  0  0  0  0
  -18.0331  -26.0067   22.9020 H   0  0  0  0  0  0
  -19.7938  -30.7267   24.2270 H   0  0  0  0  0  0
  -17.5018  -31.6267   24.5164 H   0  0  0  0  0  0
  -15.5353  -30.2989   23.7654 H   0  0  0  0  0  0
  -15.8672  -28.0823   22.7066 H   0  0  0  0  0  0
  -24.5907  -30.7067   25.7789 H   0  0  0  0  0  0
  -24.8918  -32.2884   26.4887 H   0  0  0  0  0  0
  -25.8060  -30.8898   27.0233 H   0  0  0  0  0  0
  -26.2907  -29.6766   24.1199 H   0  0  0  0  0  0
  -27.4038  -29.7265   25.4673 H   0  0  0  0  0  0
  -27.8775  -30.4302   23.9395 H   0  0  0  0  0  0
  -27.2667  -33.3619   26.2079 H   0  0  0  0  0  0
  -28.3864  -32.6884   25.0325 H   0  0  0  0  0  0
  -28.0725  -31.8444   26.5412 H   0  0  0  0  0  0
  -28.2602  -38.0096   24.7504 H   0  0  0  0  0  0
  -28.1069  -36.2627   24.6304 H   0  0  0  0  0  0
  -27.2294  -37.1470   25.8869 H   0  0  0  0  0  0
  -20.9358  -29.8772   21.6901 H   0  0  0  0  0  0
  -26.0179  -38.2858   24.1400 H   0  0  0  0  0  0
  -30.4631  -19.0754   18.6349 H   0  0  0  0  0  0
  -29.7457  -21.4152   18.7697 H   0  0  0  0  0  0
  -28.5098  -20.7518   22.8466 H   0  0  0  0  0  0
  -29.3197  -25.2576   22.3085 H   0  0  0  0  0  0
  -27.6089  -25.3363   22.7129 H   0  0  0  0  0  0
  -27.3634  -22.9545   22.5265 H   0  0  0  0  0  0
  -29.0478  -23.0285   23.0478 H   0  0  0  0  0  0
  -29.8826  -24.0931   19.8201 H   0  0  0  0  0  0
  -28.4190  -23.5452   19.0030 H   0  0  0  0  0  0
  -26.9948  -24.8115   20.4567 H   0  0  0  0  0  0
  -31.3965  -17.1841   21.4214 H   0  0  0  0  0  0
  -31.2459  -17.1331   19.7028 H   0  0  0  0  0  0
  -29.0187  -15.7380   20.9629 H   0  0  0  0  0  0
  1 25  1  0  0  0
  1 30  2  0  0  0
  1 83  1  0  0  0
  2  3  1  0  0  0
  2 25  1  0  0  0
  2 85  1  0  0  0
  2 86  1  0  0  0
  3  4  1  0  0  0
  3 87  1  0  0  0
  3 88  1  0  0  0
  4  5  1  0  0  0
  4 89  1  0  0  0
  4 90  1  0  0  0
  5  6  1  0  0  0
  5 26  1  0  0  0
  5 91  1  0  0  0
  6 25  1  0  0  0
  6 92  1  0  0  0
  6 93  1  0  0  0
  7  8  2  0  0  0
  7 26  1  0  0  0
  7 29  1  0  0  0
  8  9  1  0  0  0
  8 22  1  0  0  0
  9 10  1  0  0  0
  9 27  2  0  0  0
 10 11  2  0  0  0
 10 15  1  0  0  0
 11 12  1  0  0  0
 11 94  1  0  0  0
 12 13  2  0  0  0
 12 95  1  0  0  0
 13 14  1  0  0  0
 13 31  1  0  0  0
 14 15  2  0  0  0
 14 96  1  0  0  0
 15 97  1  0  0  0
 16 17  2  0  0  0
 16 21  1  0  0  0
 16 31  1  0  0  0
 17 18  1  0  0  0
 17 98  1  0  0  0
 18 19  2  0  0  0
 18 99  1  0  0  0
 19 20  1  0  0  0
 19 24  1  0  0  0
 20 21  2  0  0  0
 20100  1  0  0  0
 21 23  1  0  0  0
 22 28  1  0  0  0
 22 32  2  0  0  0
 26 27  1  0  0  0
 28101  1  0  0  0
 28102  1  0  0  0
 29103  1  0  0  0
 29104  1  0  0  0
 33 34  1  0  0  0
 33 66  1  0  0  0
 33 70  2  0  0  0
 34 36  1  0  0  0
 34 59  1  0  0  0
 34105  1  0  0  0
 35 44  2  0  0  0
 35 45  1  0  0  0
 35 68  1  0  0  0
 36 56  1  0  0  0
 36106  1  0  0  0
 37 39  1  0  0  0
 37 47  1  0  0  0
 37 66  1  0  0  0
 37107  1  0  0  0
 38 43  2  0  0  0
 38 46  1  0  0  0
 38 47  1  0  0  0
 39 64  1  0  0  0
 39 67  2  0  0  0
 40 52  1  0  0  0
 40 53  2  0  0  0
 40 58  1  0  0  0
 41108  1  0  0  0
 41109  1  0  0  0
 41110  1  0  0  0
 41 48  1  0  0  0
 42 43  1  0  0  0
 42 66  1  0  0  0
 42111  1  0  0  0
 42112  1  0  0  0
 43 44  1  0  0  0
 44113  1  0  0  0
 45 46  2  0  0  0
 45114  1  0  0  0
 46115  1  0  0  0
 47116  1  0  0  0
 47117  1  0  0  0
 48 56  1  0  0  0
 48 65  1  0  0  0
 48118  1  0  0  0
 49 50  1  0  0  0
 49 53  1  0  0  0
 49 64  1  0  0  0
 49119  1  0  0  0
 50 51  1  0  0  0
 50120  1  0  0  0
 50121  1  0  0  0
 51 52  1  0  0  0
 51122  1  0  0  0
 51123  1  0  0  0
 52124  1  0  0  0
 52125  1  0  0  0
 53 54  1  0  0  0
 54 55  2  0  0  0
 54126  1  0  0  0
 55 57  1  0  0  0
 55127  1  0  0  0
 56 69  2  0  0  0
 57 58  2  0  0  0
 57128  1  0  0  0
 58129  1  0  0  0
 59 60  1  0  0  0
 59 61  1  0  0  0
 59 62  1  0  0  0
 60130  1  0  0  0
 60131  1  0  0  0
 60132  1  0  0  0
 61133  1  0  0  0
 61134  1  0  0  0
 61135  1  0  0  0
 62136  1  0  0  0
 62137  1  0  0  0
 62138  1  0  0  0
 63 65  1  0  0  0
 63139  1  0  0  0
 63140  1  0  0  0
 63141  1  0  0  0
 64142  1  0  0  0
 65143  1  0  0  0
 68 80  1  0  0  0
 71 72  2  0  0  0
 71 74  1  0  0  0
 71144  1  0  0  0
 72 75  1  0  0  0
 72145  1  0  0  0
 73 75  2  0  0  0
 73 76  1  0  0  0
 73146  1  0  0  0
 74 76  2  0  0  0
 74 81  1  0  0  0
 75 82  1  0  0  0
 76 84  1  0  0  0
 77 78  1  0  0  0
 77 80  1  0  0  0
 77147  1  0  0  0
 77148  1  0  0  0
 78 82  1  0  0  0
 78149  1  0  0  0
 78150  1  0  0  0
 79 80  1  0  0  0
 79 82  1  0  0  0
 79151  1  0  0  0
 79152  1  0  0  0
 80153  1  0  0  0
 81 83  1  0  0  0
 81154  1  0  0  0
 81155  1  0  0  0
 83156  1  0  0  0
M  ISO  4   1 100  68 101  80 101  83 100
M  END
> <chiral flag>
0

> <version>
0

> <s_m_source_file>
/data/baiqing/PycharmProjects/Reinvent-master-3.2/result/LINK_invent/BTK/process_docking_weight1_custom_product_contain_oxygen_bond_distance_aromatic_linkinvent_7_9_3/rearranged_h_0009.sdf

> <i_m_source_file_index>
40

> <r_mmod_Potential_Energy-OPLS-2005>
123.302978515625

> <r_mmod_Stretch_Energy-OPLS-2005>
72.5938262939453

> <r_mmod_Bend_Energy-OPLS-2005>
190.306137084961

> <r_mmod_Torsional_Energy-OPLS-2005>
263.476104736328

> <r_mmod_Improper_Torsional_Energy-OPLS-2005>
6.42210721969604

> <r_mmod_Van_der_Waal_Energy-OPLS-2005>
146.87126159668

> <r_mmod_Electrostatic_Energy-OPLS-2005>
-387.486114501953

> <r_mmod_Solvation_Energy-OPLS-2005>
-218.601684570312

> <b_mmod_Minimization_Converged-OPLS-2005>
0

> <r_mmod_RMS_Derivative-OPLS-2005>
0.187377721071243

$$$$
40
                    3D
 Structure written by MMmdl.
155164  0  0  1  0            999 V2000
  -30.5037  -15.0856   20.4020 C   0  0  0  0  0  0
  -30.4393  -12.6859   19.5007 C   0  0  0  0  0  0
  -29.5234  -12.5427   18.2627 C   0  0  0  0  0  0
  -28.0640  -12.3019   18.6903 C   0  0  0  0  0  0
  -27.6188  -13.2584   19.8263 C   0  0  2  0  0  0
  -28.6609  -13.3591   20.9589 C   0  0  0  0  0  0
  -25.2423  -13.8224   20.5729 C   0  0  0  0  0  0
  -24.1756  -13.0434   20.9249 C   0  0  0  0  0  0
  -24.6390  -11.6925   20.8762 C   0  0  0  0  0  0
  -23.9079  -10.4291   21.0409 C   0  0  0  0  0  0
  -24.3627   -9.4205   21.9186 C   0  0  0  0  0  0
  -23.6298   -8.2241   22.0754 C   0  0  0  0  0  0
  -22.4280   -8.0280   21.3544 C   0  0  0  0  0  0
  -21.9921   -9.0254   20.4645 C   0  0  0  0  0  0
  -22.7253  -10.2132   20.3055 C   0  0  0  0  0  0
  -21.6856   -6.0735   22.5278 C   0  0  0  0  0  0
  -21.4015   -6.5639   23.8211 C   0  0  0  0  0  0
  -21.3660   -5.6793   24.9174 C   0  0  0  0  0  0
  -21.6044   -4.3055   24.7225 C   0  0  0  0  0  0
  -21.8820   -3.8146   23.4346 C   0  0  0  0  0  0
  -21.9193   -4.6963   22.3403 C   0  0  0  0  0  0
  -22.7776  -13.5197   21.1898 C   0  0  0  0  0  0
  -22.1662   -4.2148   21.0980 F   0  0  0  0  0  0
  -21.5628   -3.4539   25.7738 F   0  0  0  0  0  0
  -29.9124  -13.8117   20.3366 N   0  0  0  0  0  0
  -26.2843  -12.9471   20.3222 N   0  0  0  0  0  0
  -25.9322  -11.6592   20.5730 N   0  0  0  0  0  0
  -22.0430  -12.8179   22.0449 N   0  0  0  0  0  0
  -25.4063  -15.1957   20.4157 N   0  0  0  0  0  0
  -31.7255  -15.0992   20.2042 O   0  0  0  0  0  0
  -21.6643   -6.8878   21.4240 O   0  0  0  0  0  0
  -22.3456  -14.5500   20.6739 O   0  0  0  0  0  0
  -24.6519  -31.8358   23.1802 C   0  0  0  0  0  0
  -25.9254  -32.4651   23.8223 C   0  0  1  0  0  0
  -27.2151  -27.0426   20.1736 C   0  0  0  0  0  0
  -25.5968  -33.8458   24.2137 N   0  0  0  0  0  0
  -23.4599  -30.4518   21.5278 C   0  0  2  0  0  0
  -24.9100  -28.8572   20.1173 C   0  0  0  0  0  0
  -22.7607  -29.4507   22.4829 C   0  0  0  0  0  0
  -18.0314  -28.1403   22.8476 C   0  0  0  0  0  0
  -24.1491  -36.7235   23.2644 C   0  0  0  0  0  0
  -26.0221  -30.6798   21.3921 C   0  0  0  0  0  0
  -26.0917  -29.2795   20.7401 C   0  0  0  0  0  0
  -27.2451  -28.3925   20.7432 C   0  0  0  0  0  0
  -26.0070  -26.7449   19.5084 C   0  0  0  0  0  0
  -24.8858  -27.6061   19.4830 C   0  0  0  0  0  0
  -23.6926  -29.7731   20.1515 C   0  0  0  0  0  0
  -25.4127  -36.3002   24.0308 C   0  0  1  0  0  0
  -20.5931  -28.3737   23.1218 C   0  0  2  0  0  0
  -20.6796  -26.9431   22.5402 C   0  0  0  0  0  0
  -19.5768  -26.6382   21.5214 C   0  0  0  0  0  0
  -18.1950  -26.7940   22.1624 C   0  0  0  0  0  0
  -19.1572  -28.8890   23.2838 C   0  0  0  0  0  0
  -18.9484  -30.1484   23.8865 C   0  0  0  0  0  0
  -17.6478  -30.6596   24.0561 C   0  0  0  0  0  0
  -25.9086  -34.9383   23.5036 C   0  0  0  0  0  0
  -16.5370  -29.9086   23.6340 C   0  0  0  0  0  0
  -16.7297  -28.6507   23.0360 C   0  0  0  0  0  0
  -26.4541  -31.6552   25.0702 C   0  0  0  0  0  0
  -25.3698  -31.3773   26.1380 C   0  0  0  0  0  0
  -27.0423  -30.2937   24.6346 C   0  0  0  0  0  0
  -27.6051  -32.4338   25.7500 C   0  0  0  0  0  0
  -27.5572  -37.1777   24.8466 C   0  0  0  0  0  0
  -21.4290  -29.3051   22.3581 N   0  0  0  0  0  0
  -26.4282  -37.3727   23.9408 N   0  0  0  0  0  0
  -24.7319  -31.0131   22.0878 N   0  0  0  0  0  0
  -23.4211  -28.8066   23.3019 O   0  0  0  0  0  0
  -28.2609  -26.0200   20.1793 O   0  0  0  0  0  0
  -26.5678  -34.8899   22.4618 O   0  0  0  0  0  0
  -23.5617  -32.1273   23.6971 O   0  0  0  0  0  0
  -31.6616  -19.4047   21.6281 C   0  0  0  0  0  0
  -31.2805  -18.1093   21.2413 C   0  0  0  0  0  0
  -29.2643  -19.1236   20.3499 C   0  0  0  0  0  0
  -30.8839  -20.5712   21.4217 C   0  0  0  0  0  0
  -29.6498  -20.5605   20.6854 C   0  0  0  0  0  0
  -30.0489  -17.8447   20.6227 C   0  0  0  0  0  0
  -29.2468  -23.3335   20.4264 C   0  0  0  0  0  0
  -27.0547  -23.5351   19.7686 C   0  0  0  0  0  0
  -27.4527  -22.0293   20.0959 C   0  0  0  0  0  0
  -28.0526  -24.4603   20.4970 C   0  0  2  0  0  0
  -31.4464  -21.7965   22.1272 C   0  0  0  0  0  0
  -28.8872  -21.9416   20.4280 N   0  0  0  0  0  0
  -29.7298  -16.3179   20.4221 N   0  0  0  0  0  0
  -30.4044  -23.7393   20.2926 O   0  0  0  0  0  0
  -31.4650  -12.8673   19.1762 H   0  0  0  0  0  0
  -30.4689  -11.7576   20.0735 H   0  0  0  0  0  0
  -29.8684  -11.7269   17.6261 H   0  0  0  0  0  0
  -29.5830  -13.4494   17.6586 H   0  0  0  0  0  0
  -27.9897  -11.2688   19.0317 H   0  0  0  0  0  0
  -27.3955  -12.3880   17.8329 H   0  0  0  0  0  0
  -27.5569  -14.2429   19.3617 H   0  0  0  0  0  0
  -28.7878  -12.4043   21.4710 H   0  0  0  0  0  0
  -28.3363  -14.0778   21.7132 H   0  0  0  0  0  0
  -25.2769   -9.5682   22.4767 H   0  0  0  0  0  0
  -24.0006   -7.4631   22.7474 H   0  0  0  0  0  0
  -21.0854   -8.8774   19.8948 H   0  0  0  0  0  0
  -22.3711  -10.9671   19.6166 H   0  0  0  0  0  0
  -21.2009   -7.6148   23.9714 H   0  0  0  0  0  0
  -21.1482   -6.0523   25.9077 H   0  0  0  0  0  0
  -22.0597   -2.7609   23.2847 H   0  0  0  0  0  0
  -22.4061  -11.9847   22.4837 H   0  0  0  0  0  0
  -21.1040  -13.1185   22.2651 H   0  0  0  0  0  0
  -24.6347  -15.8440   20.5296 H   0  0  0  0  0  0
  -26.2448  -15.6397   20.0660 H   0  0  0  0  0  0
  -26.7320  -32.5228   23.0945 H   0  0  0  0  0  0
  -25.0094  -33.9554   25.0272 H   0  0  0  0  0  0
  -22.7672  -31.2802   21.3656 H   0  0  0  0  0  0
  -23.3759  -35.9561   23.3284 H   0  0  0  0  0  0
  -24.3573  -36.8893   22.2063 H   0  0  0  0  0  0
  -23.7241  -37.6419   23.6703 H   0  0  0  0  0  0
  -26.1868  -31.4250   20.6127 H   0  0  0  0  0  0
  -26.8890  -30.7358   22.0386 H   0  0  0  0  0  0
  -28.1481  -28.7182   21.2402 H   0  0  0  0  0  0
  -25.9080  -25.7990   19.0000 H   0  0  0  0  0  0
  -23.9886  -27.2805   18.9744 H   0  0  0  0  0  0
  -23.8405  -30.5435   19.3938 H   0  0  0  0  0  0
  -22.8044  -29.2222   19.8372 H   0  0  0  0  0  0
  -25.1319  -36.1813   25.0800 H   0  0  0  0  0  0
  -21.0028  -28.3333   24.1338 H   0  0  0  0  0  0
  -20.5689  -26.2350   23.3629 H   0  0  0  0  0  0
  -21.6661  -26.7428   22.1200 H   0  0  0  0  0  0
  -19.6923  -25.6284   21.1264 H   0  0  0  0  0  0
  -19.6705  -27.3177   20.6731 H   0  0  0  0  0  0
  -17.4220  -26.6692   21.4026 H   0  0  0  0  0  0
  -18.0347  -26.0088   22.9026 H   0  0  0  0  0  0
  -19.7957  -30.7317   24.2216 H   0  0  0  0  0  0
  -17.5027  -31.6272   24.5172 H   0  0  0  0  0  0
  -15.5368  -30.2978   23.7680 H   0  0  0  0  0  0
  -15.8699  -28.0815   22.7089 H   0  0  0  0  0  0
  -24.5892  -30.7103   25.7703 H   0  0  0  0  0  0
  -24.8872  -32.2967   26.4705 H   0  0  0  0  0  0
  -25.7959  -30.9015   27.0221 H   0  0  0  0  0  0
  -26.3065  -29.6637   24.1337 H   0  0  0  0  0  0
  -27.3990  -29.7262   25.4952 H   0  0  0  0  0  0
  -27.8989  -30.4153   23.9712 H   0  0  0  0  0  0
  -27.2631  -33.3671   26.1983 H   0  0  0  0  0  0
  -28.3917  -32.6844   25.0370 H   0  0  0  0  0  0
  -28.0658  -31.8524   26.5496 H   0  0  0  0  0  0
  -28.2577  -38.0085   24.7512 H   0  0  0  0  0  0
  -28.1078  -36.2612   24.6291 H   0  0  0  0  0  0
  -27.2290  -37.1421   25.8868 H   0  0  0  0  0  0
  -20.9516  -29.8752   21.6738 H   0  0  0  0  0  0
  -26.0135  -38.2787   24.1415 H   0  0  0  0  0  0
  -32.5997  -19.4894   22.1601 H   0  0  0  0  0  0
  -31.9480  -17.2989   21.4966 H   0  0  0  0  0  0
  -28.3090  -18.9975   19.8607 H   0  0  0  0  0  0
  -26.0252  -23.7351   20.0657 H   0  0  0  0  0  0
  -27.1209  -23.7069   18.6933 H   0  0  0  0  0  0
  -27.2127  -21.3718   19.2596 H   0  0  0  0  0  0
  -26.8867  -21.6729   20.9574 H   0  0  0  0  0  0
  -27.7575  -24.4615   21.5468 H   0  0  0  0  0  0
  -32.0721  -21.5098   22.9734 H   0  0  0  0  0  0
  -30.6643  -22.4244   22.5506 H   0  0  0  0  0  0
  -32.0812  -22.3752   21.4569 H   0  0  0  0  0  0
  -28.7430  -16.1290   20.3346 H   0  0  0  0  0  0
  1 25  1  0  0  0
  1 30  2  0  0  0
  1 83  1  0  0  0
  2  3  1  0  0  0
  2 25  1  0  0  0
  2 85  1  0  0  0
  2 86  1  0  0  0
  3  4  1  0  0  0
  3 87  1  0  0  0
  3 88  1  0  0  0
  4  5  1  0  0  0
  4 89  1  0  0  0
  4 90  1  0  0  0
  5  6  1  0  0  0
  5 26  1  0  0  0
  5 91  1  0  0  0
  6 25  1  0  0  0
  6 92  1  0  0  0
  6 93  1  0  0  0
  7  8  2  0  0  0
  7 26  1  0  0  0
  7 29  1  0  0  0
  8  9  1  0  0  0
  8 22  1  0  0  0
  9 10  1  0  0  0
  9 27  2  0  0  0
 10 11  2  0  0  0
 10 15  1  0  0  0
 11 12  1  0  0  0
 11 94  1  0  0  0
 12 13  2  0  0  0
 12 95  1  0  0  0
 13 14  1  0  0  0
 13 31  1  0  0  0
 14 15  2  0  0  0
 14 96  1  0  0  0
 15 97  1  0  0  0
 16 17  2  0  0  0
 16 21  1  0  0  0
 16 31  1  0  0  0
 17 18  1  0  0  0
 17 98  1  0  0  0
 18 19  2  0  0  0
 18 99  1  0  0  0
 19 20  1  0  0  0
 19 24  1  0  0  0
 20 21  2  0  0  0
 20100  1  0  0  0
 21 23  1  0  0  0
 22 28  1  0  0  0
 22 32  2  0  0  0
 26 27  1  0  0  0
 28101  1  0  0  0
 28102  1  0  0  0
 29103  1  0  0  0
 29104  1  0  0  0
 33 34  1  0  0  0
 33 66  1  0  0  0
 33 70  2  0  0  0
 34 36  1  0  0  0
 34 59  1  0  0  0
 34105  1  0  0  0
 35 44  2  0  0  0
 35 45  1  0  0  0
 35 68  1  0  0  0
 36 56  1  0  0  0
 36106  1  0  0  0
 37 39  1  0  0  0
 37 47  1  0  0  0
 37 66  1  0  0  0
 37107  1  0  0  0
 38 43  2  0  0  0
 38 46  1  0  0  0
 38 47  1  0  0  0
 39 64  1  0  0  0
 39 67  2  0  0  0
 40 52  1  0  0  0
 40 53  2  0  0  0
 40 58  1  0  0  0
 41108  1  0  0  0
 41109  1  0  0  0
 41110  1  0  0  0
 41 48  1  0  0  0
 42 43  1  0  0  0
 42 66  1  0  0  0
 42111  1  0  0  0
 42112  1  0  0  0
 43 44  1  0  0  0
 44113  1  0  0  0
 45 46  2  0  0  0
 45114  1  0  0  0
 46115  1  0  0  0
 47116  1  0  0  0
 47117  1  0  0  0
 48 56  1  0  0  0
 48 65  1  0  0  0
 48118  1  0  0  0
 49 50  1  0  0  0
 49 53  1  0  0  0
 49 64  1  0  0  0
 49119  1  0  0  0
 50 51  1  0  0  0
 50120  1  0  0  0
 50121  1  0  0  0
 51 52  1  0  0  0
 51122  1  0  0  0
 51123  1  0  0  0
 52124  1  0  0  0
 52125  1  0  0  0
 53 54  1  0  0  0
 54 55  2  0  0  0
 54126  1  0  0  0
 55 57  1  0  0  0
 55127  1  0  0  0
 56 69  2  0  0  0
 57 58  2  0  0  0
 57128  1  0  0  0
 58129  1  0  0  0
 59 60  1  0  0  0
 59 61  1  0  0  0
 59 62  1  0  0  0
 60130  1  0  0  0
 60131  1  0  0  0
 60132  1  0  0  0
 61133  1  0  0  0
 61134  1  0  0  0
 61135  1  0  0  0
 62136  1  0  0  0
 62137  1  0  0  0
 62138  1  0  0  0
 63 65  1  0  0  0
 63139  1  0  0  0
 63140  1  0  0  0
 63141  1  0  0  0
 64142  1  0  0  0
 65143  1  0  0  0
 68 80  1  0  0  0
 71 72  2  0  0  0
 71 74  1  0  0  0
 71144  1  0  0  0
 72 76  1  0  0  0
 72145  1  0  0  0
 73 75  1  0  0  0
 73 76  2  0  0  0
 73146  1  0  0  0
 74 75  2  0  0  0
 74 81  1  0  0  0
 75 82  1  0  0  0
 76 83  1  0  0  0
 77 80  1  0  0  0
 77 82  1  0  0  0
 77 84  2  0  0  0
 78 79  1  0  0  0
 78 80  1  0  0  0
 78147  1  0  0  0
 78148  1  0  0  0
 79 82  1  0  0  0
 79149  1  0  0  0
 79150  1  0  0  0
 80151  1  0  0  0
 81152  1  0  0  0
 81153  1  0  0  0
 81154  1  0  0  0
 83155  1  0  0  0
M  ISO  4   1 100  68 101  80 101  83 100
M  END
> <chiral flag>
0

> <version>
0

> <s_m_source_file>
/data/baiqing/PycharmProjects/Reinvent-master-3.2/result/LINK_invent/BTK/process_docking_weight1_custom_product_contain_oxygen_bond_distance_aromatic_linkinvent_7_9_3/rearranged_h_0009.sdf

> <i_m_source_file_index>
41

> <r_mmod_Potential_Energy-OPLS-2005>
884.333312988281

> <r_mmod_Stretch_Energy-OPLS-2005>
371.0029296875

> <r_mmod_Bend_Energy-OPLS-2005>
352.265197753906

> <r_mmod_Torsional_Energy-OPLS-2005>
276.897094726562

> <r_mmod_Improper_Torsional_Energy-OPLS-2005>
6.9473819732666

> <r_mmod_Van_der_Waal_Energy-OPLS-2005>
135.683975219727

> <r_mmod_Electrostatic_Energy-OPLS-2005>
-317.730133056641

> <r_mmod_Solvation_Energy-OPLS-2005>
-230.611434936523

> <b_mmod_Minimization_Converged-OPLS-2005>
0

> <r_mmod_RMS_Derivative-OPLS-2005>
0.419171363115311

$$$$
41
                    3D
 Structure written by MMmdl.
159166  0  0  1  0            999 V2000
  -30.5115  -14.9934   20.4191 C   0  0  0  0  0  0
  -30.4449  -12.6214   19.4945 C   0  0  0  0  0  0
  -29.5234  -12.5369   18.2550 C   0  0  0  0  0  0
  -28.0582  -12.3130   18.6755 C   0  0  0  0  0  0
  -27.6272  -13.2493   19.8340 C   0  0  2  0  0  0
  -28.6699  -13.2889   20.9703 C   0  0  0  0  0  0
  -25.2457  -13.8215   20.5708 C   0  0  0  0  0  0
  -24.1778  -13.0438   20.9235 C   0  0  0  0  0  0
  -24.6394  -11.6922   20.8753 C   0  0  0  0  0  0
  -23.9077  -10.4294   21.0408 C   0  0  0  0  0  0
  -24.3626   -9.4207   21.9183 C   0  0  0  0  0  0
  -23.6300   -8.2242   22.0751 C   0  0  0  0  0  0
  -22.4280   -8.0282   21.3544 C   0  0  0  0  0  0
  -21.9918   -9.0256   20.4646 C   0  0  0  0  0  0
  -22.7248  -10.2134   20.3057 C   0  0  0  0  0  0
  -21.6855   -6.0736   22.5280 C   0  0  0  0  0  0
  -21.4015   -6.5640   23.8213 C   0  0  0  0  0  0
  -21.3660   -5.6791   24.9175 C   0  0  0  0  0  0
  -21.6044   -4.3055   24.7225 C   0  0  0  0  0  0
  -21.8818   -3.8147   23.4346 C   0  0  0  0  0  0
  -21.9195   -4.6965   22.3402 C   0  0  0  0  0  0
  -22.7798  -13.5209   21.1892 C   0  0  0  0  0  0
  -22.1663   -4.2152   21.0979 F   0  0  0  0  0  0
  -21.5628   -3.4537   25.7736 F   0  0  0  0  0  0
  -29.9374  -13.7205   20.3668 N   0  0  0  0  0  0
  -26.2875  -12.9446   20.3221 N   0  0  0  0  0  0
  -25.9325  -11.6576   20.5723 N   0  0  0  0  0  0
  -22.0448  -12.8195   22.0445 N   0  0  0  0  0  0
  -25.4109  -15.1945   20.4119 N   0  0  0  0  0  0
  -31.7207  -15.0697   20.1740 O   0  0  0  0  0  0
  -21.6642   -6.8880   21.4241 O   0  0  0  0  0  0
  -22.3480  -14.5512   20.6734 O   0  0  0  0  0  0
  -24.6462  -31.8405   23.1845 C   0  0  0  0  0  0
  -25.9220  -32.4674   23.8248 C   0  0  1  0  0  0
  -27.2182  -27.1012   20.1662 C   0  0  0  0  0  0
  -25.5956  -33.8481   24.2164 N   0  0  0  0  0  0
  -23.4516  -30.4573   21.5309 C   0  0  2  0  0  0
  -24.9016  -28.8719   20.1160 C   0  0  0  0  0  0
  -22.7581  -29.4527   22.4853 C   0  0  0  0  0  0
  -18.0306  -28.1398   22.8474 C   0  0  0  0  0  0
  -24.1491  -36.7244   23.2643 C   0  0  0  0  0  0
  -26.0093  -30.7036   21.3874 C   0  0  0  0  0  0
  -26.0807  -29.3094   20.7334 C   0  0  0  0  0  0
  -27.2416  -28.4429   20.7345 C   0  0  0  0  0  0
  -26.0131  -26.7684   19.5133 C   0  0  0  0  0  0
  -24.8822  -27.6160   19.4888 C   0  0  0  0  0  0
  -23.6808  -29.7803   20.1531 C   0  0  0  0  0  0
  -25.4125  -36.3017   24.0311 C   0  0  1  0  0  0
  -20.5920  -28.3724   23.1232 C   0  0  2  0  0  0
  -20.6788  -26.9425   22.5406 C   0  0  0  0  0  0
  -19.5763  -26.6380   21.5213 C   0  0  0  0  0  0
  -18.1944  -26.7935   22.1623 C   0  0  0  0  0  0
  -19.1563  -28.8880   23.2843 C   0  0  0  0  0  0
  -18.9479  -30.1476   23.8867 C   0  0  0  0  0  0
  -17.6475  -30.6592   24.0558 C   0  0  0  0  0  0
  -25.9077  -34.9395   23.5048 C   0  0  0  0  0  0
  -16.5366  -29.9083   23.6339 C   0  0  0  0  0  0
  -16.7291  -28.6504   23.0356 C   0  0  0  0  0  0
  -26.4531  -31.6558   25.0706 C   0  0  0  0  0  0
  -25.3708  -31.3766   26.1399 C   0  0  0  0  0  0
  -27.0402  -30.2948   24.6313 C   0  0  0  0  0  0
  -27.6051  -32.4336   25.7497 C   0  0  0  0  0  0
  -27.5573  -37.1779   24.8464 C   0  0  0  0  0  0
  -21.4269  -29.3045   22.3602 N   0  0  0  0  0  0
  -26.4283  -37.3737   23.9407 N   0  0  0  0  0  0
  -24.7225  -31.0229   22.0892 N   0  0  0  0  0  0
  -23.4209  -28.8084   23.3024 O   0  0  0  0  0  0
  -28.2784  -26.1142   20.1758 O   0  0  0  0  0  0
  -26.5669  -34.8900   22.4631 O   0  0  0  0  0  0
  -23.5574  -32.1296   23.7045 O   0  0  0  0  0  0
  -29.0627  -18.7835   19.6740 C   0  0  0  0  0  0
  -29.9946  -19.9805   16.6744 C   0  0  0  0  0  0
  -28.3055  -21.7469   16.0649 C   0  0  0  0  0  0
  -29.8986  -17.7499   20.6473 C   0  0  0  0  0  0
  -28.8011  -23.2012   19.8767 C   0  0  0  0  0  0
  -28.8476  -21.5696   20.4749 C   0  0  0  0  0  0
  -28.1233  -20.6409   18.3395 C   0  0  0  0  0  0
  -28.0676  -24.5947   20.5342 C   0  0  0  0  0  0
  -29.0922  -21.1020   17.2160 C   0  0  0  0  0  0
  -29.7012  -16.1599   20.5645 N   0  0  0  0  0  0
  -28.8157  -20.2303   19.5933 N   0  0  0  0  0  0
  -28.5670  -18.0769   18.7890 O   0  0  0  0  0  0
  -31.4742  -12.7983   19.1787 H   0  0  0  0  0  0
  -30.4572  -11.6741   20.0360 H   0  0  0  0  0  0
  -29.8511  -11.7351   17.5919 H   0  0  0  0  0  0
  -29.6009  -13.4612   17.6801 H   0  0  0  0  0  0
  -27.9625  -11.2731   18.9902 H   0  0  0  0  0  0
  -27.3938  -12.4350   17.8192 H   0  0  0  0  0  0
  -27.5855  -14.2483   19.3990 H   0  0  0  0  0  0
  -28.7706  -12.3141   21.4495 H   0  0  0  0  0  0
  -28.3614  -13.9865   21.7507 H   0  0  0  0  0  0
  -25.2769   -9.5685   22.4760 H   0  0  0  0  0  0
  -24.0012   -7.4631   22.7467 H   0  0  0  0  0  0
  -21.0851   -8.8775   19.8951 H   0  0  0  0  0  0
  -22.3704  -10.9674   19.6169 H   0  0  0  0  0  0
  -21.2007   -7.6148   23.9718 H   0  0  0  0  0  0
  -21.1481   -6.0521   25.9078 H   0  0  0  0  0  0
  -22.0598   -2.7610   23.2843 H   0  0  0  0  0  0
  -22.4076  -11.9866   22.4842 H   0  0  0  0  0  0
  -21.1061  -13.1208   22.2646 H   0  0  0  0  0  0
  -24.6341  -15.8389   20.5126 H   0  0  0  0  0  0
  -26.2378  -15.6333   20.0282 H   0  0  0  0  0  0
  -26.7284  -32.5270   23.0972 H   0  0  0  0  0  0
  -25.0079  -33.9591   25.0296 H   0  0  0  0  0  0
  -22.7558  -31.2837   21.3721 H   0  0  0  0  0  0
  -23.3758  -35.9571   23.3289 H   0  0  0  0  0  0
  -24.3573  -36.8898   22.2061 H   0  0  0  0  0  0
  -23.7242  -37.6431   23.6696 H   0  0  0  0  0  0
  -26.1677  -31.4545   20.6122 H   0  0  0  0  0  0
  -26.8782  -30.7568   22.0317 H   0  0  0  0  0  0
  -28.1440  -28.7780   21.2261 H   0  0  0  0  0  0
  -25.9307  -25.8086   19.0236 H   0  0  0  0  0  0
  -23.9838  -27.2772   18.9912 H   0  0  0  0  0  0
  -23.8221  -30.5514   19.3949 H   0  0  0  0  0  0
  -22.7945  -29.2246   19.8419 H   0  0  0  0  0  0
  -25.1317  -36.1836   25.0803 H   0  0  0  0  0  0
  -21.0008  -28.3313   24.1355 H   0  0  0  0  0  0
  -20.5677  -26.2339   23.3628 H   0  0  0  0  0  0
  -21.6655  -26.7426   22.1209 H   0  0  0  0  0  0
  -19.6924  -25.6284   21.1262 H   0  0  0  0  0  0
  -19.6699  -27.3175   20.6730 H   0  0  0  0  0  0
  -17.4215  -26.6678   21.4025 H   0  0  0  0  0  0
  -18.0341  -26.0084   22.9027 H   0  0  0  0  0  0
  -19.7955  -30.7302   24.2220 H   0  0  0  0  0  0
  -17.5028  -31.6269   24.5167 H   0  0  0  0  0  0
  -15.5364  -30.2975   23.7680 H   0  0  0  0  0  0
  -15.8692  -28.0815   22.7083 H   0  0  0  0  0  0
  -24.5880  -30.7122   25.7721 H   0  0  0  0  0  0
  -24.8907  -32.2958   26.4765 H   0  0  0  0  0  0
  -25.7983  -30.8973   27.0215 H   0  0  0  0  0  0
  -26.3028  -29.6661   24.1308 H   0  0  0  0  0  0
  -27.3988  -29.7260   25.4902 H   0  0  0  0  0  0
  -27.8946  -30.4173   23.9654 H   0  0  0  0  0  0
  -27.2632  -33.3656   26.2010 H   0  0  0  0  0  0
  -28.3896  -32.6868   25.0353 H   0  0  0  0  0  0
  -28.0680  -31.8507   26.5469 H   0  0  0  0  0  0
  -28.2582  -38.0084   24.7511 H   0  0  0  0  0  0
  -28.1079  -36.2613   24.6290 H   0  0  0  0  0  0
  -27.2292  -37.1426   25.8868 H   0  0  0  0  0  0
  -20.9487  -29.8748   21.6768 H   0  0  0  0  0  0
  -26.0143  -38.2802   24.1414 H   0  0  0  0  0  0
  -30.6172  -20.3375   15.8532 H   0  0  0  0  0  0
  -29.4066  -19.1410   16.3015 H   0  0  0  0  0  0
  -30.6714  -19.6031   17.4408 H   0  0  0  0  0  0
  -28.9728  -22.1072   15.2811 H   0  0  0  0  0  0
  -27.7251  -22.6020   16.4131 H   0  0  0  0  0  0
  -27.6121  -21.0389   15.6095 H   0  0  0  0  0  0
  -29.6942  -18.0510   21.6745 H   0  0  0  0  0  0
  -30.9571  -17.9560   20.4875 H   0  0  0  0  0  0
  -28.4297  -23.2071   18.8569 H   0  0  0  0  0  0
  -29.8501  -23.4684   19.7494 H   0  0  0  0  0  0
  -27.9901  -21.4700   21.1410 H   0  0  0  0  0  0
  -29.7100  -21.4852   21.1364 H   0  0  0  0  0  0
  -27.4556  -19.8818   17.9308 H   0  0  0  0  0  0
  -27.3882  -21.4134   18.5594 H   0  0  0  0  0  0
  -28.2971  -24.5578   21.5993 H   0  0  0  0  0  0
  -26.9947  -24.4069   20.5003 H   0  0  0  0  0  0
  -29.7573  -21.8663   17.6184 H   0  0  0  0  0  0
  -28.7262  -15.9161   20.6447 H   0  0  0  0  0  0
  1 25  1  0  0  0
  1 30  2  0  0  0
  1 80  1  0  0  0
  2  3  1  0  0  0
  2 25  1  0  0  0
  2 83  1  0  0  0
  2 84  1  0  0  0
  3  4  1  0  0  0
  3 85  1  0  0  0
  3 86  1  0  0  0
  4  5  1  0  0  0
  4 87  1  0  0  0
  4 88  1  0  0  0
  5  6  1  0  0  0
  5 26  1  0  0  0
  5 89  1  0  0  0
  6 25  1  0  0  0
  6 90  1  0  0  0
  6 91  1  0  0  0
  7  8  2  0  0  0
  7 26  1  0  0  0
  7 29  1  0  0  0
  8  9  1  0  0  0
  8 22  1  0  0  0
  9 10  1  0  0  0
  9 27  2  0  0  0
 10 11  2  0  0  0
 10 15  1  0  0  0
 11 12  1  0  0  0
 11 92  1  0  0  0
 12 13  2  0  0  0
 12 93  1  0  0  0
 13 14  1  0  0  0
 13 31  1  0  0  0
 14 15  2  0  0  0
 14 94  1  0  0  0
 15 95  1  0  0  0
 16 17  2  0  0  0
 16 21  1  0  0  0
 16 31  1  0  0  0
 17 18  1  0  0  0
 17 96  1  0  0  0
 18 19  2  0  0  0
 18 97  1  0  0  0
 19 20  1  0  0  0
 19 24  1  0  0  0
 20 21  2  0  0  0
 20 98  1  0  0  0
 21 23  1  0  0  0
 22 28  1  0  0  0
 22 32  2  0  0  0
 26 27  1  0  0  0
 28 99  1  0  0  0
 28100  1  0  0  0
 29101  1  0  0  0
 29102  1  0  0  0
 33 34  1  0  0  0
 33 66  1  0  0  0
 33 70  2  0  0  0
 34 36  1  0  0  0
 34 59  1  0  0  0
 34103  1  0  0  0
 35 44  2  0  0  0
 35 45  1  0  0  0
 35 68  1  0  0  0
 36 56  1  0  0  0
 36104  1  0  0  0
 37 39  1  0  0  0
 37 47  1  0  0  0
 37 66  1  0  0  0
 37105  1  0  0  0
 38 43  2  0  0  0
 38 46  1  0  0  0
 38 47  1  0  0  0
 39 64  1  0  0  0
 39 67  2  0  0  0
 40 52  1  0  0  0
 40 53  2  0  0  0
 40 58  1  0  0  0
 41106  1  0  0  0
 41107  1  0  0  0
 41108  1  0  0  0
 41 48  1  0  0  0
 42 43  1  0  0  0
 42 66  1  0  0  0
 42109  1  0  0  0
 42110  1  0  0  0
 43 44  1  0  0  0
 44111  1  0  0  0
 45 46  2  0  0  0
 45112  1  0  0  0
 46113  1  0  0  0
 47114  1  0  0  0
 47115  1  0  0  0
 48 56  1  0  0  0
 48 65  1  0  0  0
 48116  1  0  0  0
 49 50  1  0  0  0
 49 53  1  0  0  0
 49 64  1  0  0  0
 49117  1  0  0  0
 50 51  1  0  0  0
 50118  1  0  0  0
 50119  1  0  0  0
 51 52  1  0  0  0
 51120  1  0  0  0
 51121  1  0  0  0
 52122  1  0  0  0
 52123  1  0  0  0
 53 54  1  0  0  0
 54 55  2  0  0  0
 54124  1  0  0  0
 55 57  1  0  0  0
 55125  1  0  0  0
 56 69  2  0  0  0
 57 58  2  0  0  0
 57126  1  0  0  0
 58127  1  0  0  0
 59 60  1  0  0  0
 59 61  1  0  0  0
 59 62  1  0  0  0
 60128  1  0  0  0
 60129  1  0  0  0
 60130  1  0  0  0
 61131  1  0  0  0
 61132  1  0  0  0
 61133  1  0  0  0
 62134  1  0  0  0
 62135  1  0  0  0
 62136  1  0  0  0
 63 65  1  0  0  0
 63137  1  0  0  0
 63138  1  0  0  0
 63139  1  0  0  0
 64140  1  0  0  0
 65141  1  0  0  0
 68 78  1  0  0  0
 71 74  1  0  0  0
 71 81  1  0  0  0
 71 82  2  0  0  0
 72142  1  0  0  0
 72143  1  0  0  0
 72144  1  0  0  0
 72 79  1  0  0  0
 73 79  1  0  0  0
 73145  1  0  0  0
 73146  1  0  0  0
 73147  1  0  0  0
 74 80  1  0  0  0
 74148  1  0  0  0
 74149  1  0  0  0
 75 76  1  0  0  0
 75 78  1  0  0  0
 75150  1  0  0  0
 75151  1  0  0  0
 76 81  1  0  0  0
 76152  1  0  0  0
 76153  1  0  0  0
 77 79  1  0  0  0
 77 81  1  0  0  0
 77154  1  0  0  0
 77155  1  0  0  0
 78156  1  0  0  0
 78157  1  0  0  0
 79158  1  0  0  0
 80159  1  0  0  0
M  ISO  4   1 100  68 101  78 101  80 100
M  END
> <chiral flag>
0

> <version>
0

> <s_m_source_file>
/data/baiqing/PycharmProjects/Reinvent-master-3.2/result/LINK_invent/BTK/process_docking_weight1_custom_product_contain_oxygen_bond_distance_aromatic_linkinvent_7_9_3/rearranged_h_0009.sdf

> <i_m_source_file_index>
42

> <r_mmod_Potential_Energy-OPLS-2005>
663.731384277344

> <r_mmod_Stretch_Energy-OPLS-2005>
334.421569824219

> <r_mmod_Bend_Energy-OPLS-2005>
361.848846435547

> <r_mmod_Torsional_Energy-OPLS-2005>
267.127593994141

> <r_mmod_Improper_Torsional_Energy-OPLS-2005>
4.26462173461914

> <r_mmod_Van_der_Waal_Energy-OPLS-2005>
131.181045532227

> <r_mmod_Electrostatic_Energy-OPLS-2005>
-430.902221679688

> <r_mmod_Solvation_Energy-OPLS-2005>
-226.601867675781

> <b_mmod_Minimization_Converged-OPLS-2005>
0

> <r_mmod_RMS_Derivative-OPLS-2005>
0.377424210309982

$$$$
42
                    3D
 Structure written by MMmdl.
154163  0  0  1  0            999 V2000
  -30.4363  -15.3610   20.4060 C   0  0  0  0  0  0
  -30.4266  -12.8910   19.5296 C   0  0  0  0  0  0
  -29.5309  -12.5982   18.2988 C   0  0  0  0  0  0
  -28.0914  -12.2930   18.7395 C   0  0  0  0  0  0
  -27.5992  -13.2874   19.8178 C   0  0  2  0  0  0
  -28.6282  -13.5192   20.9472 C   0  0  0  0  0  0
  -25.2304  -13.8255   20.5753 C   0  0  0  0  0  0
  -24.1681  -13.0408   20.9285 C   0  0  0  0  0  0
  -24.6382  -11.6921   20.8788 C   0  0  0  0  0  0
  -23.9083  -10.4278   21.0436 C   0  0  0  0  0  0
  -24.3623   -9.4192   21.9216 C   0  0  0  0  0  0
  -23.6286   -8.2224   22.0777 C   0  0  0  0  0  0
  -22.4272   -8.0273   21.3561 C   0  0  0  0  0  0
  -21.9920   -9.0254   20.4662 C   0  0  0  0  0  0
  -22.7251  -10.2130   20.3084 C   0  0  0  0  0  0
  -21.6840   -6.0725   22.5299 C   0  0  0  0  0  0
  -21.3988   -6.5627   23.8228 C   0  0  0  0  0  0
  -21.3657   -5.6783   24.9200 C   0  0  0  0  0  0
  -21.6045   -4.3051   24.7256 C   0  0  0  0  0  0
  -21.8805   -3.8134   23.4378 C   0  0  0  0  0  0
  -21.9171   -4.6945   22.3429 C   0  0  0  0  0  0
  -22.7712  -13.5184   21.1953 C   0  0  0  0  0  0
  -22.1633   -4.2131   21.1013 F   0  0  0  0  0  0
  -21.5646   -3.4544   25.7767 F   0  0  0  0  0  0
  -29.8469  -14.0540   20.3141 N   0  0  0  0  0  0
  -26.2748  -12.9554   20.3216 N   0  0  0  0  0  0
  -25.9316  -11.6646   20.5719 N   0  0  0  0  0  0
  -22.0340  -12.8164   22.0493 N   0  0  0  0  0  0
  -25.3845  -15.1976   20.4174 N   0  0  0  0  0  0
  -31.6608  -15.3015   20.2080 O   0  0  0  0  0  0
  -21.6633   -6.8863   21.4258 O   0  0  0  0  0  0
  -22.3418  -14.5518   20.6831 O   0  0  0  0  0  0
  -24.6647  -31.8232   23.1676 C   0  0  0  0  0  0
  -25.9322  -32.4579   23.8150 C   0  0  1  0  0  0
  -27.2181  -26.9042   20.2016 C   0  0  0  0  0  0
  -25.5987  -33.8387   24.2072 N   0  0  0  0  0  0
  -23.4793  -30.4345   21.5185 C   0  0  2  0  0  0
  -24.9320  -28.8140   20.1169 C   0  0  0  0  0  0
  -22.7654  -29.4440   22.4765 C   0  0  0  0  0  0
  -18.0318  -28.1431   22.8465 C   0  0  0  0  0  0
  -24.1477  -36.7183   23.2649 C   0  0  0  0  0  0
  -26.0493  -30.6253   21.3957 C   0  0  0  0  0  0
  -26.1191  -29.2107   20.7451 C   0  0  0  0  0  0
  -27.2573  -28.2792   20.7582 C   0  0  0  0  0  0
  -25.9987  -26.6640   19.5283 C   0  0  0  0  0  0
  -24.8978  -27.5596   19.4881 C   0  0  0  0  0  0
  -23.7193  -29.7458   20.1463 C   0  0  0  0  0  0
  -25.4108  -36.2946   24.0307 C   0  0  1  0  0  0
  -20.5952  -28.3773   23.1202 C   0  0  2  0  0  0
  -20.6816  -26.9453   22.5426 C   0  0  0  0  0  0
  -19.5800  -26.6393   21.5237 C   0  0  0  0  0  0
  -18.1962  -26.7963   22.1617 C   0  0  0  0  0  0
  -19.1586  -28.8916   23.2812 C   0  0  0  0  0  0
  -18.9499  -30.1501   23.8859 C   0  0  0  0  0  0
  -17.6508  -30.6624   24.0563 C   0  0  0  0  0  0
  -25.9103  -34.9336   23.5013 C   0  0  0  0  0  0
  -16.5391  -29.9106   23.6367 C   0  0  0  0  0  0
  -16.7301  -28.6529   23.0379 C   0  0  0  0  0  0
  -26.4572  -31.6518   25.0683 C   0  0  0  0  0  0
  -25.3673  -31.3781   26.1331 C   0  0  0  0  0  0
  -27.0466  -30.2874   24.6418 C   0  0  0  0  0  0
  -27.6071  -32.4333   25.7477 C   0  0  0  0  0  0
  -27.5538  -37.1721   24.8461 C   0  0  0  0  0  0
  -21.4329  -29.3044   22.3522 N   0  0  0  0  0  0
  -26.4244  -37.3682   23.9434 N   0  0  0  0  0  0
  -24.7534  -30.9863   22.0824 N   0  0  0  0  0  0
  -23.4185  -28.8008   23.3013 O   0  0  0  0  0  0
  -28.2297  -25.7982   20.2647 O   0  0  0  0  0  0
  -26.5702  -34.8886   22.4602 O   0  0  0  0  0  0
  -23.5720  -32.1228   23.6760 O   0  0  0  0  0  0
  -27.7147  -19.2895   22.0676 C   0  0  0  0  0  0
  -28.3100  -17.0205   20.7062 C   0  0  0  0  0  0
  -30.1945  -18.2784   20.5495 C   0  0  0  0  0  0
  -28.0979  -20.8031   21.9629 C   0  0  0  0  0  0
  -27.9483  -18.6022   20.6903 C   0  0  2  0  0  0
  -29.0513  -19.4972   20.0945 C   0  0  1  0  0  0
  -29.0095  -22.6438   20.2533 C   0  0  0  0  0  0
  -27.9814  -24.1497   20.3333 C   0  0  0  0  0  0
  -29.7531  -16.7096   20.5055 N   0  0  0  0  0  0
  -28.6393  -21.0397   20.6095 N   0  3  2  0  0  0
  -31.4401  -13.0973   19.1826 H   0  0  0  0  0  0
  -30.5139  -12.0049   20.1602 H   0  0  0  0  0  0
  -29.9366  -11.7644   17.7227 H   0  0  0  0  0  0
  -29.5354  -13.4610   17.6308 H   0  0  0  0  0  0
  -28.0829  -11.2842   19.1539 H   0  0  0  0  0  0
  -27.4203  -12.2766   17.8802 H   0  0  0  0  0  0
  -27.4907  -14.2369   19.2925 H   0  0  0  0  0  0
  -28.8215  -12.6082   21.5127 H   0  0  0  0  0  0
  -28.2417  -14.2499   21.6575 H   0  0  0  0  0  0
  -25.2757   -9.5656   22.4808 H   0  0  0  0  0  0
  -23.9971   -7.4622   22.7520 H   0  0  0  0  0  0
  -21.0837   -8.8795   19.8980 H   0  0  0  0  0  0
  -22.3721  -10.9680   19.6206 H   0  0  0  0  0  0
  -21.1951   -7.6125   23.9741 H   0  0  0  0  0  0
  -21.1496   -6.0513   25.9109 H   0  0  0  0  0  0
  -22.0573   -2.7591   23.2905 H   0  0  0  0  0  0
  -22.3923  -11.9778   22.4795 H   0  0  0  0  0  0
  -21.1022  -13.1282   22.2826 H   0  0  0  0  0  0
  -24.5991  -15.8310   20.5070 H   0  0  0  0  0  0
  -26.2188  -15.6440   20.0652 H   0  0  0  0  0  0
  -26.7372  -32.5120   23.0850 H   0  0  0  0  0  0
  -25.0107  -33.9498   25.0209 H   0  0  0  0  0  0
  -22.7936  -31.2665   21.3420 H   0  0  0  0  0  0
  -23.3768  -35.9485   23.3281 H   0  0  0  0  0  0
  -24.3544  -36.8862   22.2067 H   0  0  0  0  0  0
  -23.7238  -37.6353   23.6739 H   0  0  0  0  0  0
  -26.2243  -31.3608   20.6093 H   0  0  0  0  0  0
  -26.9114  -30.6851   22.0467 H   0  0  0  0  0  0
  -28.1587  -28.5849   21.2725 H   0  0  0  0  0  0
  -25.8544  -25.7105   19.0433 H   0  0  0  0  0  0
  -23.9953  -27.2460   18.9826 H   0  0  0  0  0  0
  -23.8732  -30.5158   19.3886 H   0  0  0  0  0  0
  -22.8275  -29.2017   19.8281 H   0  0  0  0  0  0
  -25.1294  -36.1713   25.0791 H   0  0  0  0  0  0
  -21.0043  -28.3397   24.1332 H   0  0  0  0  0  0
  -20.5778  -26.2361   23.3649 H   0  0  0  0  0  0
  -21.6662  -26.7493   22.1174 H   0  0  0  0  0  0
  -19.6987  -25.6295   21.1285 H   0  0  0  0  0  0
  -19.6763  -27.3187   20.6758 H   0  0  0  0  0  0
  -17.4243  -26.6739   21.3997 H   0  0  0  0  0  0
  -18.0325  -26.0110   22.9018 H   0  0  0  0  0  0
  -19.7981  -30.7314   24.2218 H   0  0  0  0  0  0
  -17.5066  -31.6312   24.5163 H   0  0  0  0  0  0
  -15.5396  -30.3004   23.7742 H   0  0  0  0  0  0
  -15.8689  -28.0842   22.7144 H   0  0  0  0  0  0
  -24.5953  -30.7020   25.7655 H   0  0  0  0  0  0
  -24.8768  -32.2969   26.4530 H   0  0  0  0  0  0
  -25.7895  -30.9140   27.0250 H   0  0  0  0  0  0
  -26.3135  -29.6521   24.1449 H   0  0  0  0  0  0
  -27.4006  -29.7265   25.5074 H   0  0  0  0  0  0
  -27.9043  -30.4041   23.9799 H   0  0  0  0  0  0
  -27.2678  -33.3726   26.1840 H   0  0  0  0  0  0
  -28.3965  -32.6736   25.0347 H   0  0  0  0  0  0
  -28.0604  -31.8588   26.5556 H   0  0  0  0  0  0
  -28.2516  -38.0047   24.7508 H   0  0  0  0  0  0
  -28.1072  -36.2579   24.6273 H   0  0  0  0  0  0
  -27.2257  -37.1308   25.8860 H   0  0  0  0  0  0
  -20.9599  -29.8701   21.6603 H   0  0  0  0  0  0
  -26.0081  -38.2723   24.1509 H   0  0  0  0  0  0
  -26.6813  -19.1761   22.4025 H   0  0  0  0  0  0
  -28.3302  -18.8251   22.8391 H   0  0  0  0  0  0
  -27.7631  -16.5244   19.9078 H   0  0  0  0  0  0
  -27.9702  -16.5720   21.6408 H   0  0  0  0  0  0
  -30.4926  -18.4758   21.5809 H   0  0  0  0  0  0
  -31.1143  -18.4061   19.9799 H   0  0  0  0  0  0
  -28.8456  -21.0675   22.7127 H   0  0  0  0  0  0
  -27.2315  -21.4440   22.1358 H   0  0  0  0  0  0
  -27.0392  -18.7452   20.1010 H   0  0  0  0  0  0
  -28.9822  -19.4884   19.0065 H   0  0  0  0  0  0
  -29.8792  -22.8573   20.8764 H   0  0  0  0  0  0
  -29.4126  -22.6290   19.2421 H   0  0  0  0  0  0
  -27.4269  -24.0410   21.2661 H   0  0  0  0  0  0
  -27.2242  -23.9772   19.5702 H   0  0  0  0  0  0
  -27.7754  -21.0570   20.0891 H   0  0  0  0  0  0
  1 25  1  0  0  0
  1 30  2  0  0  0
  1 79  1  0  0  0
  2  3  1  0  0  0
  2 25  1  0  0  0
  2 81  1  0  0  0
  2 82  1  0  0  0
  3  4  1  0  0  0
  3 83  1  0  0  0
  3 84  1  0  0  0
  4  5  1  0  0  0
  4 85  1  0  0  0
  4 86  1  0  0  0
  5  6  1  0  0  0
  5 26  1  0  0  0
  5 87  1  0  0  0
  6 25  1  0  0  0
  6 88  1  0  0  0
  6 89  1  0  0  0
  7  8  2  0  0  0
  7 26  1  0  0  0
  7 29  1  0  0  0
  8  9  1  0  0  0
  8 22  1  0  0  0
  9 10  1  0  0  0
  9 27  2  0  0  0
 10 11  2  0  0  0
 10 15  1  0  0  0
 11 12  1  0  0  0
 11 90  1  0  0  0
 12 13  2  0  0  0
 12 91  1  0  0  0
 13 14  1  0  0  0
 13 31  1  0  0  0
 14 15  2  0  0  0
 14 92  1  0  0  0
 15 93  1  0  0  0
 16 17  2  0  0  0
 16 21  1  0  0  0
 16 31  1  0  0  0
 17 18  1  0  0  0
 17 94  1  0  0  0
 18 19  2  0  0  0
 18 95  1  0  0  0
 19 20  1  0  0  0
 19 24  1  0  0  0
 20 21  2  0  0  0
 20 96  1  0  0  0
 21 23  1  0  0  0
 22 28  1  0  0  0
 22 32  2  0  0  0
 26 27  1  0  0  0
 28 97  1  0  0  0
 28 98  1  0  0  0
 29 99  1  0  0  0
 29100  1  0  0  0
 33 34  1  0  0  0
 33 66  1  0  0  0
 33 70  2  0  0  0
 34 36  1  0  0  0
 34 59  1  0  0  0
 34101  1  0  0  0
 35 44  2  0  0  0
 35 45  1  0  0  0
 35 68  1  0  0  0
 36 56  1  0  0  0
 36102  1  0  0  0
 37 39  1  0  0  0
 37 47  1  0  0  0
 37 66  1  0  0  0
 37103  1  0  0  0
 38 43  2  0  0  0
 38 46  1  0  0  0
 38 47  1  0  0  0
 39 64  1  0  0  0
 39 67  2  0  0  0
 40 52  1  0  0  0
 40 53  2  0  0  0
 40 58  1  0  0  0
 41104  1  0  0  0
 41105  1  0  0  0
 41106  1  0  0  0
 41 48  1  0  0  0
 42 43  1  0  0  0
 42 66  1  0  0  0
 42107  1  0  0  0
 42108  1  0  0  0
 43 44  1  0  0  0
 44109  1  0  0  0
 45 46  2  0  0  0
 45110  1  0  0  0
 46111  1  0  0  0
 47112  1  0  0  0
 47113  1  0  0  0
 48 56  1  0  0  0
 48 65  1  0  0  0
 48114  1  0  0  0
 49 50  1  0  0  0
 49 53  1  0  0  0
 49 64  1  0  0  0
 49115  1  0  0  0
 50 51  1  0  0  0
 50116  1  0  0  0
 50117  1  0  0  0
 51 52  1  0  0  0
 51118  1  0  0  0
 51119  1  0  0  0
 52120  1  0  0  0
 52121  1  0  0  0
 53 54  1  0  0  0
 54 55  2  0  0  0
 54122  1  0  0  0
 55 57  1  0  0  0
 55123  1  0  0  0
 56 69  2  0  0  0
 57 58  2  0  0  0
 57124  1  0  0  0
 58125  1  0  0  0
 59 60  1  0  0  0
 59 61  1  0  0  0
 59 62  1  0  0  0
 60126  1  0  0  0
 60127  1  0  0  0
 60128  1  0  0  0
 61129  1  0  0  0
 61130  1  0  0  0
 61131  1  0  0  0
 62132  1  0  0  0
 62133  1  0  0  0
 62134  1  0  0  0
 63 65  1  0  0  0
 63135  1  0  0  0
 63136  1  0  0  0
 63137  1  0  0  0
 64138  1  0  0  0
 65139  1  0  0  0
 68 78  1  0  0  0
 71 74  1  0  0  0
 71140  1  0  0  0
 71141  1  0  0  0
 71 75  1  0  0  0
 72 75  1  0  0  0
 72 79  1  0  0  0
 72142  1  0  0  0
 72143  1  0  0  0
 73 79  1  0  0  0
 73144  1  0  0  0
 73145  1  0  0  0
 73 76  1  0  0  0
 74 80  1  0  0  0
 74146  1  0  0  0
 74147  1  0  0  0
 75 76  1  0  0  0
 75148  1  0  0  0
 76 80  1  0  0  0
 76149  1  0  0  0
 77 78  1  0  0  0
 77150  1  0  0  0
 77151  1  0  0  0
 77 80  1  0  0  0
 78152  1  0  0  0
 78153  1  0  0  0
 80154  1  0  0  0
M  CHG  1  80   1
M  ISO  4   1 100  68 101  78 101  79 100
M  END
> <chiral flag>
0

> <version>
0

> <s_m_source_file>
/data/baiqing/PycharmProjects/Reinvent-master-3.2/result/LINK_invent/BTK/process_docking_weight1_custom_product_contain_oxygen_bond_distance_aromatic_linkinvent_7_9_3/rearranged_h_0009.sdf

> <i_m_source_file_index>
43

> <r_mmod_Potential_Energy-OPLS-2005>
1635.30444335938

> <r_mmod_Stretch_Energy-OPLS-2005>
620.6953125

> <r_mmod_Bend_Energy-OPLS-2005>
603.842468261719

> <r_mmod_Torsional_Energy-OPLS-2005>
397.742004394531

> <r_mmod_Improper_Torsional_Energy-OPLS-2005>
4.2782621383667

> <r_mmod_Van_der_Waal_Energy-OPLS-2005>
99.6937637329102

> <r_mmod_Electrostatic_Energy-OPLS-2005>
-175.998092651367

> <r_mmod_Solvation_Energy-OPLS-2005>
-443.888031005859

> <b_mmod_Minimization_Converged-OPLS-2005>
0

> <r_mmod_RMS_Derivative-OPLS-2005>
4.19655799865723

$$$$
43
                    3D
 Structure written by MMmdl.
159167  0  0  1  0            999 V2000
  -31.7397  -14.5747   20.1229 C   0  0  0  0  0  0
  -30.4686  -12.3615   20.0777 C   0  0  0  0  0  0
  -29.1284  -11.7826   18.9701 C   0  0  0  0  0  0
  -27.5972  -12.5784   18.4296 C   0  0  0  0  0  0
  -27.0011  -14.2199   19.1552 C   0  0  2  0  0  0
  -29.7030  -15.2137   20.9468 C   0  0  0  0  0  0
  -24.8525  -14.0539   20.4619 C   0  0  0  0  0  0
  -23.9913  -13.1234   20.9298 C   0  0  0  0  0  0
  -24.5869  -11.8337   20.8173 C   0  0  0  0  0  0
  -23.9434  -10.4922   21.0078 C   0  0  0  0  0  0
  -24.3969   -9.4873   21.8938 C   0  0  0  0  0  0
  -23.6642   -8.2775   22.0726 C   0  0  0  0  0  0
  -22.4639   -8.0528   21.3520 C   0  0  0  0  0  0
  -22.0220   -9.0465   20.4627 C   0  0  0  0  0  0
  -22.7562  -10.2370   20.2878 C   0  0  0  0  0  0
  -21.7078   -6.0848   22.5289 C   0  0  0  0  0  0
  -21.4194   -6.5721   23.8208 C   0  0  0  0  0  0
  -21.3718   -5.6853   24.9149 C   0  0  0  0  0  0
  -21.6032   -4.3110   24.7198 C   0  0  0  0  0  0
  -21.8799   -3.8199   23.4308 C   0  0  0  0  0  0
  -21.9280   -4.7049   22.3377 C   0  0  0  0  0  0
  -22.5986  -13.4822   21.2622 C   0  0  0  0  0  0
  -22.1693   -4.2202   21.0956 F   0  0  0  0  0  0
  -21.5583   -3.4563   25.7696 F   0  0  0  0  0  0
  -30.7690  -13.9131   20.7539 N   0  0  0  0  0  0
  -25.8823  -13.4029   19.9216 N   0  0  0  0  0  0
  -25.8202  -12.0332   20.3202 N   0  0  0  0  0  0
  -21.9652  -12.7401   22.1457 N   0  0  0  0  0  0
  -24.8271  -15.4229   20.3597 N   0  0  0  0  0  0
  -32.8606  -14.1832   20.2042 O   0  0  0  0  0  0
  -21.7020   -6.9063   21.4246 O   0  0  0  0  0  0
  -22.0911  -14.4889   20.7667 O   0  0  0  0  0  0
  -24.6834  -31.7994   23.1595 C   0  0  0  0  0  0
  -25.9412  -32.4452   23.8091 C   0  0  1  0  0  0
  -27.0090  -26.6191   20.2744 C   0  0  0  0  0  0
  -25.6015  -33.8283   24.1959 N   0  0  0  0  0  0
  -23.4982  -30.4184   21.5157 C   0  0  2  0  0  0
  -24.9145  -28.7628   20.1146 C   0  0  0  0  0  0
  -22.7727  -29.4330   22.4714 C   0  0  0  0  0  0
  -18.0316  -28.1412   22.8457 C   0  0  0  0  0  0
  -24.1484  -36.7119   23.2666 C   0  0  0  0  0  0
  -26.0776  -30.5105   21.4272 C   0  0  0  0  0  0
  -26.1064  -29.0701   20.7830 C   0  0  0  0  0  0
  -27.1640  -28.0228   20.8259 C   0  0  0  0  0  0
  -25.8338  -26.5506   19.5074 C   0  0  0  0  0  0
  -24.8223  -27.5387   19.4496 C   0  0  0  0  0  0
  -23.7446  -29.7482   20.1399 C   0  0  0  0  0  0
  -25.4141  -36.2903   24.0300 C   0  0  1  0  0  0
  -20.5974  -28.3763   23.1157 C   0  0  2  0  0  0
  -20.6795  -26.9425   22.5409 C   0  0  0  0  0  0
  -19.5758  -26.6375   21.5216 C   0  0  0  0  0  0
  -18.1941  -26.7945   22.1630 C   0  0  0  0  0  0
  -19.1594  -28.8898   23.2794 C   0  0  0  0  0  0
  -18.9512  -30.1497   23.8821 C   0  0  0  0  0  0
  -17.6505  -30.6606   24.0543 C   0  0  0  0  0  0
  -25.9127  -34.9280   23.4965 C   0  0  0  0  0  0
  -16.5386  -29.9091   23.6348 C   0  0  0  0  0  0
  -16.7307  -28.6511   23.0366 C   0  0  0  0  0  0
  -26.4595  -31.6538   25.0752 C   0  0  0  0  0  0
  -25.3669  -31.3833   26.1394 C   0  0  0  0  0  0
  -27.0573  -30.2894   24.6690 C   0  0  0  0  0  0
  -27.6047  -32.4428   25.7557 C   0  0  0  0  0  0
  -27.5565  -37.1721   24.8475 C   0  0  0  0  0  0
  -21.4407  -29.3006   22.3474 N   0  0  0  0  0  0
  -26.4260  -37.3677   23.9431 N   0  0  0  0  0  0
  -24.7793  -30.9494   22.0833 N   0  0  0  0  0  0
  -23.4188  -28.7895   23.3008 O   0  0  0  0  0  0
  -27.8151  -25.3095   20.3278 O   0  0  0  0  0  0
  -26.5763  -34.8841   22.4583 O   0  0  0  0  0  0
  -23.5856  -32.1042   23.6597 O   0  0  0  0  0  0
  -28.2532  -13.6410   20.8041 C   0  0  0  0  0  0
  -29.1849  -14.2250   19.0406 C   0  0  0  0  0  0
  -27.4269  -15.1866   21.3018 C   0  0  0  0  0  0
  -28.3510  -16.6815   19.2271 C   0  0  0  0  0  0
  -29.1587  -15.6232   18.5728 C   0  0  0  0  0  0
  -27.5825  -16.6934   20.5110 C   0  0  0  0  0  0
  -27.6569  -20.3222   22.3602 C   0  0  0  0  0  0
  -30.5990  -15.9460   18.1655 C   0  0  0  0  0  0
  -27.0290  -18.4892   20.6180 C   0  0  0  0  0  0
  -27.4717  -21.7488   20.1778 C   0  0  0  0  0  0
  -27.4186  -23.6206   20.7427 C   0  0  0  0  0  0
  -31.5482  -15.6793   19.3024 N   0  0  0  0  0  0
  -27.6596  -20.1309   20.8941 N   0  3  1  0  0  0
  -31.3989  -12.0545   19.5913 H   0  0  0  0  0  0
  -30.4323  -11.7009   20.9399 H   0  0  0  0  0  0
  -28.8252  -10.8063   19.3518 H   0  0  0  0  0  0
  -29.6289  -11.5099   18.0375 H   0  0  0  0  0  0
  -26.8302  -11.8488   18.1699 H   0  0  0  0  0  0
  -27.8434  -12.8565   17.4076 H   0  0  0  0  0  0
  -26.5726  -14.8935   18.4092 H   0  0  0  0  0  0
  -29.6314  -15.1821   22.0477 H   0  0  0  0  0  0
  -30.0470  -16.2544   20.9331 H   0  0  0  0  0  0
  -25.3001   -9.6460   22.4631 H   0  0  0  0  0  0
  -24.0378   -7.5318   22.7594 H   0  0  0  0  0  0
  -21.1153   -8.8956   19.8970 H   0  0  0  0  0  0
  -22.3821  -10.9792   19.5984 H   0  0  0  0  0  0
  -21.2273   -7.6233   23.9667 H   0  0  0  0  0  0
  -21.1526   -6.0607   25.9022 H   0  0  0  0  0  0
  -22.0492   -2.7649   23.2810 H   0  0  0  0  0  0
  -22.3982  -11.9327   22.5634 H   0  0  0  0  0  0
  -21.0281  -12.9926   22.4324 H   0  0  0  0  0  0
  -24.0892  -15.9927   20.7520 H   0  0  0  0  0  0
  -25.6681  -15.9416   20.1208 H   0  0  0  0  0  0
  -26.7476  -32.4837   23.0763 H   0  0  0  0  0  0
  -25.0113  -33.9309   25.0086 H   0  0  0  0  0  0
  -22.8237  -31.2591   21.3440 H   0  0  0  0  0  0
  -23.3793  -35.9413   23.3294 H   0  0  0  0  0  0
  -24.3542  -36.8797   22.2092 H   0  0  0  0  0  0
  -23.7169  -37.6248   23.6747 H   0  0  0  0  0  0
  -26.2943  -31.2279   20.6342 H   0  0  0  0  0  0
  -26.9223  -30.5593   22.0977 H   0  0  0  0  0  0
  -28.0605  -28.2454   21.3891 H   0  0  0  0  0  0
  -25.6347  -25.6309   18.9724 H   0  0  0  0  0  0
  -23.9156  -27.3185   18.9028 H   0  0  0  0  0  0
  -23.9525  -30.5091   19.3887 H   0  0  0  0  0  0
  -22.8312  -29.2543   19.8018 H   0  0  0  0  0  0
  -25.1334  -36.1690   25.0793 H   0  0  0  0  0  0
  -21.0028  -28.3393   24.1300 H   0  0  0  0  0  0
  -20.5670  -26.2362   23.3658 H   0  0  0  0  0  0
  -21.6655  -26.7396   22.1197 H   0  0  0  0  0  0
  -19.6905  -25.6259   21.1280 H   0  0  0  0  0  0
  -19.6706  -27.3157   20.6715 H   0  0  0  0  0  0
  -17.4213  -26.6679   21.4040 H   0  0  0  0  0  0
  -18.0349  -26.0106   22.9041 H   0  0  0  0  0  0
  -19.7988  -30.7338   24.2165 H   0  0  0  0  0  0
  -17.5052  -31.6285   24.5161 H   0  0  0  0  0  0
  -15.5381  -30.2958   23.7718 H   0  0  0  0  0  0
  -15.8719  -28.0801   22.7123 H   0  0  0  0  0  0
  -24.5838  -30.7210   25.7666 H   0  0  0  0  0  0
  -24.8903  -32.3070   26.4699 H   0  0  0  0  0  0
  -25.7863  -30.9020   27.0253 H   0  0  0  0  0  0
  -26.3295  -29.6446   24.1760 H   0  0  0  0  0  0
  -27.4061  -29.7425   25.5459 H   0  0  0  0  0  0
  -27.9243  -30.4020   24.0185 H   0  0  0  0  0  0
  -27.2561  -33.3759   26.1992 H   0  0  0  0  0  0
  -28.3926  -32.6976   25.0453 H   0  0  0  0  0  0
  -28.0690  -31.8701   26.5596 H   0  0  0  0  0  0
  -28.2545  -38.0054   24.7560 H   0  0  0  0  0  0
  -28.1093  -36.2573   24.6267 H   0  0  0  0  0  0
  -27.2280  -37.1312   25.8875 H   0  0  0  0  0  0
  -20.9680  -29.8722   21.6601 H   0  0  0  0  0  0
  -26.0085  -38.2715   24.1484 H   0  0  0  0  0  0
  -28.2149  -12.6905   21.3096 H   0  0  0  0  0  0
  -29.8689  -13.7352   18.3598 H   0  0  0  0  0  0
  -26.8550  -15.1416   22.2184 H   0  0  0  0  0  0
  -28.5226  -17.6498   18.7844 H   0  0  0  0  0  0
  -28.2393  -21.1882   22.6807 H   0  0  0  0  0  0
  -28.0577  -19.4389   22.8709 H   0  0  0  0  0  0
  -26.6326  -20.4805   22.6921 H   0  0  0  0  0  0
  -30.8994  -15.3660   17.2868 H   0  0  0  0  0  0
  -30.6716  -16.9968   17.8794 H   0  0  0  0  0  0
  -26.1130  -18.4313   21.2204 H   0  0  0  0  0  0
  -26.6201  -18.6230   19.6072 H   0  0  0  0  0  0
  -28.3045  -21.7420   19.4715 H   0  0  0  0  0  0
  -26.6179  -21.6403   19.5134 H   0  0  0  0  0  0
  -26.4046  -23.7477   21.1307 H   0  0  0  0  0  0
  -28.0076  -23.5451   21.6534 H   0  0  0  0  0  0
  -31.9172  -16.5218   19.7392 H   0  0  0  0  0  0
  -28.6348  -19.9568   20.6804 H   0  0  0  0  0  0
  1 25  1  0  0  0
  1 30  2  0  0  0
  1 82  1  0  0  0
  2  3  1  0  0  0
  2 25  1  0  0  0
  2 84  1  0  0  0
  2 85  1  0  0  0
  3  4  1  0  0  0
  3 86  1  0  0  0
  3 87  1  0  0  0
  4  5  1  0  0  0
  4 88  1  0  0  0
  4 89  1  0  0  0
  5  6  1  0  0  0
  5 26  1  0  0  0
  5 90  1  0  0  0
  6 25  1  0  0  0
  6 91  1  0  0  0
  6 92  1  0  0  0
  7  8  2  0  0  0
  7 26  1  0  0  0
  7 29  1  0  0  0
  8  9  1  0  0  0
  8 22  1  0  0  0
  9 10  1  0  0  0
  9 27  2  0  0  0
 10 11  2  0  0  0
 10 15  1  0  0  0
 11 12  1  0  0  0
 11 93  1  0  0  0
 12 13  2  0  0  0
 12 94  1  0  0  0
 13 14  1  0  0  0
 13 31  1  0  0  0
 14 15  2  0  0  0
 14 95  1  0  0  0
 15 96  1  0  0  0
 16 17  2  0  0  0
 16 21  1  0  0  0
 16 31  1  0  0  0
 17 18  1  0  0  0
 17 97  1  0  0  0
 18 19  2  0  0  0
 18 98  1  0  0  0
 19 20  1  0  0  0
 19 24  1  0  0  0
 20 21  2  0  0  0
 20 99  1  0  0  0
 21 23  1  0  0  0
 22 28  1  0  0  0
 22 32  2  0  0  0
 26 27  1  0  0  0
 28100  1  0  0  0
 28101  1  0  0  0
 29102  1  0  0  0
 29103  1  0  0  0
 33 34  1  0  0  0
 33 66  1  0  0  0
 33 70  2  0  0  0
 34 36  1  0  0  0
 34 59  1  0  0  0
 34104  1  0  0  0
 35 44  2  0  0  0
 35 45  1  0  0  0
 35 68  1  0  0  0
 36 56  1  0  0  0
 36105  1  0  0  0
 37 39  1  0  0  0
 37 47  1  0  0  0
 37 66  1  0  0  0
 37106  1  0  0  0
 38 43  2  0  0  0
 38 46  1  0  0  0
 38 47  1  0  0  0
 39 64  1  0  0  0
 39 67  2  0  0  0
 40 52  1  0  0  0
 40 53  2  0  0  0
 40 58  1  0  0  0
 41107  1  0  0  0
 41108  1  0  0  0
 41109  1  0  0  0
 41 48  1  0  0  0
 42 43  1  0  0  0
 42 66  1  0  0  0
 42110  1  0  0  0
 42111  1  0  0  0
 43 44  1  0  0  0
 44112  1  0  0  0
 45 46  2  0  0  0
 45113  1  0  0  0
 46114  1  0  0  0
 47115  1  0  0  0
 47116  1  0  0  0
 48 56  1  0  0  0
 48 65  1  0  0  0
 48117  1  0  0  0
 49 50  1  0  0  0
 49 53  1  0  0  0
 49 64  1  0  0  0
 49118  1  0  0  0
 50 51  1  0  0  0
 50119  1  0  0  0
 50120  1  0  0  0
 51 52  1  0  0  0
 51121  1  0  0  0
 51122  1  0  0  0
 52123  1  0  0  0
 52124  1  0  0  0
 53 54  1  0  0  0
 54 55  2  0  0  0
 54125  1  0  0  0
 55 57  1  0  0  0
 55126  1  0  0  0
 56 69  2  0  0  0
 57 58  2  0  0  0
 57127  1  0  0  0
 58128  1  0  0  0
 59 60  1  0  0  0
 59 61  1  0  0  0
 59 62  1  0  0  0
 60129  1  0  0  0
 60130  1  0  0  0
 60131  1  0  0  0
 61132  1  0  0  0
 61133  1  0  0  0
 61134  1  0  0  0
 62135  1  0  0  0
 62136  1  0  0  0
 62137  1  0  0  0
 63 65  1  0  0  0
 63138  1  0  0  0
 63139  1  0  0  0
 63140  1  0  0  0
 64141  1  0  0  0
 65142  1  0  0  0
 68 81  1  0  0  0
 71 72  2  0  0  0
 71 73  1  0  0  0
 71143  1  0  0  0
 72 75  1  0  0  0
 72144  1  0  0  0
 73 76  2  0  0  0
 73145  1  0  0  0
 74 75  2  0  0  0
 74 76  1  0  0  0
 74146  1  0  0  0
 75 78  1  0  0  0
 76 79  1  0  0  0
 77147  1  0  0  0
 77148  1  0  0  0
 77149  1  0  0  0
 77 83  1  0  0  0
 78 82  1  0  0  0
 78150  1  0  0  0
 78151  1  0  0  0
 79 83  1  0  0  0
 79152  1  0  0  0
 79153  1  0  0  0
 80 81  1  0  0  0
 80 83  1  0  0  0
 80154  1  0  0  0
 80155  1  0  0  0
 81156  1  0  0  0
 81157  1  0  0  0
 82158  1  0  0  0
 83159  1  0  0  0
M  CHG  1  83   1
M  ISO  4   1 100  68 101  81 101  82 100
M  END
> <chiral flag>
0

> <version>
0

> <s_m_source_file>
/data/baiqing/PycharmProjects/Reinvent-master-3.2/result/LINK_invent/BTK/process_docking_weight1_custom_product_contain_oxygen_bond_distance_aromatic_linkinvent_7_9_3/rearranged_h_0009.sdf

> <i_m_source_file_index>
44

> <r_mmod_Potential_Energy-OPLS-2005>
12603.0791015625

> <r_mmod_Stretch_Energy-OPLS-2005>
6963.05029296875

> <r_mmod_Bend_Energy-OPLS-2005>
1045.85107421875

> <r_mmod_Torsional_Energy-OPLS-2005>
474.691345214844

> <r_mmod_Improper_Torsional_Energy-OPLS-2005>
22.9211311340332

> <r_mmod_Van_der_Waal_Energy-OPLS-2005>
2796.94262695312

> <r_mmod_Electrostatic_Energy-OPLS-2005>
-265.597015380859

> <r_mmod_Solvation_Energy-OPLS-2005>
-480.432250976562

> <b_mmod_Minimization_Converged-OPLS-2005>
0

> <r_mmod_RMS_Derivative-OPLS-2005>
23.1523742675781

$$$$
44
                    3D
 Structure written by MMmdl.
153161  0  0  1  0            999 V2000
  -30.4655  -15.1565   20.3862 C   0  0  0  0  0  0
  -30.4598  -12.7193   19.5263 C   0  0  0  0  0  0
  -29.5426  -12.5323   18.2898 C   0  0  0  0  0  0
  -28.0937  -12.2604   18.7384 C   0  0  0  0  0  0
  -27.6334  -13.2466   19.8410 C   0  0  2  0  0  0
  -28.6751  -13.3652   20.9766 C   0  0  0  0  0  0
  -25.2483  -13.8187   20.5725 C   0  0  0  0  0  0
  -24.1808  -13.0446   20.9238 C   0  0  0  0  0  0
  -24.6372  -11.6889   20.8754 C   0  0  0  0  0  0
  -23.9031  -10.4276   21.0395 C   0  0  0  0  0  0
  -24.3578   -9.4197   21.9187 C   0  0  0  0  0  0
  -23.6255   -8.2236   22.0764 C   0  0  0  0  0  0
  -22.4249   -8.0256   21.3546 C   0  0  0  0  0  0
  -21.9862   -9.0229   20.4660 C   0  0  0  0  0  0
  -22.7178  -10.2111   20.3067 C   0  0  0  0  0  0
  -21.6855   -6.0693   22.5262 C   0  0  0  0  0  0
  -21.4008   -6.5607   23.8190 C   0  0  0  0  0  0
  -21.3661   -5.6776   24.9161 C   0  0  0  0  0  0
  -21.6054   -4.3037   24.7228 C   0  0  0  0  0  0
  -21.8826   -3.8108   23.4352 C   0  0  0  0  0  0
  -21.9193   -4.6916   22.3399 C   0  0  0  0  0  0
  -22.7811  -13.5193   21.1908 C   0  0  0  0  0  0
  -22.1673   -4.2088   21.0987 F   0  0  0  0  0  0
  -21.5638   -3.4543   25.7754 F   0  0  0  0  0  0
  -29.9193  -13.8517   20.3540 N   0  0  0  0  0  0
  -26.2926  -12.9416   20.3289 N   0  0  0  0  0  0
  -25.9336  -11.6538   20.5797 N   0  0  0  0  0  0
  -22.0491  -12.8192   22.0436 N   0  0  0  0  0  0
  -25.4199  -15.1929   20.4096 N   0  0  0  0  0  0
  -31.6785  -15.2153   20.1524 O   0  0  0  0  0  0
  -21.6644   -6.8834   21.4217 O   0  0  0  0  0  0
  -22.3493  -14.5510   20.6730 O   0  0  0  0  0  0
  -24.6594  -31.8186   23.1876 C   0  0  0  0  0  0
  -25.9366  -32.4375   23.8334 C   0  0  1  0  0  0
  -27.2202  -27.0136   20.1584 C   0  0  0  0  0  0
  -25.6086  -33.8204   24.2248 N   0  0  0  0  0  0
  -23.4613  -30.4367   21.5302 C   0  0  2  0  0  0
  -24.9138  -28.8456   20.1073 C   0  0  0  0  0  0
  -22.7661  -29.4407   22.4915 C   0  0  0  0  0  0
  -18.0272  -28.1277   22.8497 C   0  0  0  0  0  0
  -24.1486  -36.6912   23.2688 C   0  0  0  0  0  0
  -26.0377  -30.6477   21.4135 C   0  0  0  0  0  0
  -26.0977  -29.2662   20.7240 C   0  0  0  0  0  0
  -27.2508  -28.3760   20.7128 C   0  0  0  0  0  0
  -26.0008  -26.7131   19.5168 C   0  0  0  0  0  0
  -24.8872  -27.5891   19.4796 C   0  0  0  0  0  0
  -23.6904  -29.7514   20.1554 C   0  0  0  0  0  0
  -25.4111  -36.2742   24.0398 C   0  0  1  0  0  0
  -20.5897  -28.3591   23.1195 C   0  0  2  0  0  0
  -20.6657  -26.9275   22.5385 C   0  0  0  0  0  0
  -19.5663  -26.6330   21.5132 C   0  0  0  0  0  0
  -18.1862  -26.7826   22.1596 C   0  0  0  0  0  0
  -19.1547  -28.8798   23.2794 C   0  0  0  0  0  0
  -18.9468  -30.1394   23.8804 C   0  0  0  0  0  0
  -17.6465  -30.6514   24.0476 C   0  0  0  0  0  0
  -25.9142  -34.9146   23.5141 C   0  0  0  0  0  0
  -16.5349  -29.8952   23.6346 C   0  0  0  0  0  0
  -16.7261  -28.6331   23.0459 C   0  0  0  0  0  0
  -26.4740  -31.6226   25.0798 C   0  0  0  0  0  0
  -25.4139  -31.3222   26.1639 C   0  0  0  0  0  0
  -27.0670  -30.2568   24.6587 C   0  0  0  0  0  0
  -27.6263  -32.4078   25.7497 C   0  0  0  0  0  0
  -27.5528  -37.1557   24.8581 C   0  0  0  0  0  0
  -21.4370  -29.2859   22.3597 N   0  0  0  0  0  0
  -26.4221  -37.3519   23.9543 N   0  0  0  0  0  0
  -24.7366  -30.9996   22.0900 N   0  0  0  0  0  0
  -23.4256  -28.8094   23.3204 O   0  0  0  0  0  0
  -28.2592  -25.9789   20.2812 O   0  0  0  0  0  0
  -26.5746  -34.8695   22.4727 O   0  0  0  0  0  0
  -23.5721  -32.1150   23.7074 O   0  0  0  0  0  0
  -30.5788  -19.1530   20.7461 C   0  0  0  0  0  0
  -28.5510  -18.8251   19.4944 C   0  0  0  0  0  0
  -30.0731  -20.6905   21.1105 C   0  0  0  0  0  0
  -28.0828  -20.3952   19.7843 C   0  0  0  0  0  0
  -29.4676  -17.9986   20.5421 C   0  0  1  0  0  0
  -28.6304  -22.9597   20.7053 C   0  0  0  0  0  0
  -28.2536  -24.4245   19.8374 C   0  0  0  0  0  0
  -29.6189  -16.3463   20.4896 N   0  0  0  0  0  0
  -29.1157  -21.4731   20.1745 N   0  3  1  0  0  0
  -31.4875  -12.8964   19.2091 H   0  0  0  0  0  0
  -30.4974  -11.7961   20.1096 H   0  0  0  0  0  0
  -29.9017  -11.7094   17.6721 H   0  0  0  0  0  0
  -29.5709  -13.4237   17.6657 H   0  0  0  0  0  0
  -28.0693  -11.2473   19.1437 H   0  0  0  0  0  0
  -27.4109  -12.2708   17.8911 H   0  0  0  0  0  0
  -27.5699  -14.2184   19.3532 H   0  0  0  0  0  0
  -28.8244  -12.4084   21.4789 H   0  0  0  0  0  0
  -28.3416  -14.0633   21.7440 H   0  0  0  0  0  0
  -25.2728   -9.5698   22.4755 H   0  0  0  0  0  0
  -23.9982   -7.4638   22.7496 H   0  0  0  0  0  0
  -21.0790   -8.8712   19.8971 H   0  0  0  0  0  0
  -22.3610  -10.9642   19.6175 H   0  0  0  0  0  0
  -21.1995   -7.6123   23.9656 H   0  0  0  0  0  0
  -21.1488   -6.0533   25.9063 H   0  0  0  0  0  0
  -22.0605   -2.7566   23.2883 H   0  0  0  0  0  0
  -22.4118  -11.9827   22.4800 H   0  0  0  0  0  0
  -21.1131  -13.1225   22.2722 H   0  0  0  0  0  0
  -24.6458  -15.8446   20.5127 H   0  0  0  0  0  0
  -26.2390  -15.6103   19.9898 H   0  0  0  0  0  0
  -26.7457  -32.4856   23.1053 H   0  0  0  0  0  0
  -25.0105  -33.9251   25.0309 H   0  0  0  0  0  0
  -22.7628  -31.2593   21.3650 H   0  0  0  0  0  0
  -23.3788  -35.9190   23.3358 H   0  0  0  0  0  0
  -24.3614  -36.8494   22.2103 H   0  0  0  0  0  0
  -23.7163  -37.6099   23.6686 H   0  0  0  0  0  0
  -26.2937  -31.4218   20.6896 H   0  0  0  0  0  0
  -26.8675  -30.6231   22.1084 H   0  0  0  0  0  0
  -28.1587  -28.7175   21.1923 H   0  0  0  0  0  0
  -25.8456  -25.7394   19.0829 H   0  0  0  0  0  0
  -23.9808  -27.2440   18.9999 H   0  0  0  0  0  0
  -23.8094  -30.5132   19.3876 H   0  0  0  0  0  0
  -22.8112  -29.1759   19.8617 H   0  0  0  0  0  0
  -25.1240  -36.1513   25.0878 H   0  0  0  0  0  0
  -20.9911  -28.3083   24.1337 H   0  0  0  0  0  0
  -20.5320  -26.2205   23.3600 H   0  0  0  0  0  0
  -21.6525  -26.7100   22.1309 H   0  0  0  0  0  0
  -19.6772  -25.6272   21.1057 H   0  0  0  0  0  0
  -19.6527  -27.3218   20.6736 H   0  0  0  0  0  0
  -17.4097  -26.6598   21.4024 H   0  0  0  0  0  0
  -18.0279  -25.9904   22.8955 H   0  0  0  0  0  0
  -19.7963  -30.7199   24.2119 H   0  0  0  0  0  0
  -17.5018  -31.6204   24.5049 H   0  0  0  0  0  0
  -15.5331  -30.2815   23.7724 H   0  0  0  0  0  0
  -15.8647  -28.0556   22.7359 H   0  0  0  0  0  0
  -24.6484  -30.6273   25.8175 H   0  0  0  0  0  0
  -24.9157  -32.2201   26.5290 H   0  0  0  0  0  0
  -25.8805  -30.8464   27.0301 H   0  0  0  0  0  0
  -26.3336  -29.6107   24.1743 H   0  0  0  0  0  0
  -27.4286  -29.7014   25.5282 H   0  0  0  0  0  0
  -27.9291  -30.3641   23.9988 H   0  0  0  0  0  0
  -27.2891  -33.3470   26.1916 H   0  0  0  0  0  0
  -28.4112  -32.6484   25.0293 H   0  0  0  0  0  0
  -28.0928  -31.8316   26.5526 H   0  0  0  0  0  0
  -28.2574  -37.9832   24.7589 H   0  0  0  0  0  0
  -28.1005  -36.2353   24.6432 H   0  0  0  0  0  0
  -27.2298  -37.1218   25.9016 H   0  0  0  0  0  0
  -20.9745  -29.8366   21.6513 H   0  0  0  0  0  0
  -26.0023  -38.2552   24.1616 H   0  0  0  0  0  0
  -31.2437  -18.8533   21.5632 H   0  0  0  0  0  0
  -31.2302  -19.2036   19.8672 H   0  0  0  0  0  0
  -29.0413  -18.8025   18.5180 H   0  0  0  0  0  0
  -27.6210  -18.2689   19.3481 H   0  0  0  0  0  0
  -29.5924  -20.6348   22.0942 H   0  0  0  0  0  0
  -30.9505  -21.3228   21.2819 H   0  0  0  0  0  0
  -27.3009  -20.3704   20.5495 H   0  0  0  0  0  0
  -27.5760  -20.7513   18.8800 H   0  0  0  0  0  0
  -28.8907  -18.0577   21.4720 H   0  0  0  0  0  0
  -27.7784  -22.7841   21.3772 H   0  0  0  0  0  0
  -29.4405  -23.2646   21.3755 H   0  0  0  0  0  0
  -28.9587  -24.4374   19.0089 H   0  0  0  0  0  0
  -27.2979  -24.2201   19.3558 H   0  0  0  0  0  0
  -28.6947  -15.9669   20.6357 H   0  0  0  0  0  0
  -29.6635  -21.6445   19.3379 H   0  0  0  0  0  0
  1 25  1  0  0  0
  1 30  2  0  0  0
  1 78  1  0  0  0
  2  3  1  0  0  0
  2 25  1  0  0  0
  2 80  1  0  0  0
  2 81  1  0  0  0
  3  4  1  0  0  0
  3 82  1  0  0  0
  3 83  1  0  0  0
  4  5  1  0  0  0
  4 84  1  0  0  0
  4 85  1  0  0  0
  5  6  1  0  0  0
  5 26  1  0  0  0
  5 86  1  0  0  0
  6 25  1  0  0  0
  6 87  1  0  0  0
  6 88  1  0  0  0
  7  8  2  0  0  0
  7 26  1  0  0  0
  7 29  1  0  0  0
  8  9  1  0  0  0
  8 22  1  0  0  0
  9 10  1  0  0  0
  9 27  2  0  0  0
 10 11  2  0  0  0
 10 15  1  0  0  0
 11 12  1  0  0  0
 11 89  1  0  0  0
 12 13  2  0  0  0
 12 90  1  0  0  0
 13 14  1  0  0  0
 13 31  1  0  0  0
 14 15  2  0  0  0
 14 91  1  0  0  0
 15 92  1  0  0  0
 16 17  2  0  0  0
 16 21  1  0  0  0
 16 31  1  0  0  0
 17 18  1  0  0  0
 17 93  1  0  0  0
 18 19  2  0  0  0
 18 94  1  0  0  0
 19 20  1  0  0  0
 19 24  1  0  0  0
 20 21  2  0  0  0
 20 95  1  0  0  0
 21 23  1  0  0  0
 22 28  1  0  0  0
 22 32  2  0  0  0
 26 27  1  0  0  0
 28 96  1  0  0  0
 28 97  1  0  0  0
 29 98  1  0  0  0
 29 99  1  0  0  0
 33 34  1  0  0  0
 33 66  1  0  0  0
 33 70  2  0  0  0
 34 36  1  0  0  0
 34 59  1  0  0  0
 34100  1  0  0  0
 35 44  2  0  0  0
 35 45  1  0  0  0
 35 68  1  0  0  0
 36 56  1  0  0  0
 36101  1  0  0  0
 37 39  1  0  0  0
 37 47  1  0  0  0
 37 66  1  0  0  0
 37102  1  0  0  0
 38 43  2  0  0  0
 38 46  1  0  0  0
 38 47  1  0  0  0
 39 64  1  0  0  0
 39 67  2  0  0  0
 40 52  1  0  0  0
 40 53  2  0  0  0
 40 58  1  0  0  0
 41103  1  0  0  0
 41104  1  0  0  0
 41105  1  0  0  0
 41 48  1  0  0  0
 42 43  1  0  0  0
 42 66  1  0  0  0
 42106  1  0  0  0
 42107  1  0  0  0
 43 44  1  0  0  0
 44108  1  0  0  0
 45 46  2  0  0  0
 45109  1  0  0  0
 46110  1  0  0  0
 47111  1  0  0  0
 47112  1  0  0  0
 48 56  1  0  0  0
 48 65  1  0  0  0
 48113  1  0  0  0
 49 50  1  0  0  0
 49 53  1  0  0  0
 49 64  1  0  0  0
 49114  1  0  0  0
 50 51  1  0  0  0
 50115  1  0  0  0
 50116  1  0  0  0
 51 52  1  0  0  0
 51117  1  0  0  0
 51118  1  0  0  0
 52119  1  0  0  0
 52120  1  0  0  0
 53 54  1  0  0  0
 54 55  2  0  0  0
 54121  1  0  0  0
 55 57  1  0  0  0
 55122  1  0  0  0
 56 69  2  0  0  0
 57 58  2  0  0  0
 57123  1  0  0  0
 58124  1  0  0  0
 59 60  1  0  0  0
 59 61  1  0  0  0
 59 62  1  0  0  0
 60125  1  0  0  0
 60126  1  0  0  0
 60127  1  0  0  0
 61128  1  0  0  0
 61129  1  0  0  0
 61130  1  0  0  0
 62131  1  0  0  0
 62132  1  0  0  0
 62133  1  0  0  0
 63 65  1  0  0  0
 63134  1  0  0  0
 63135  1  0  0  0
 63136  1  0  0  0
 64137  1  0  0  0
 65138  1  0  0  0
 68 77  1  0  0  0
 71 73  1  0  0  0
 71 75  1  0  0  0
 71139  1  0  0  0
 71140  1  0  0  0
 72 74  1  0  0  0
 72 75  1  0  0  0
 72141  1  0  0  0
 72142  1  0  0  0
 73 79  1  0  0  0
 73143  1  0  0  0
 73144  1  0  0  0
 74 79  1  0  0  0
 74145  1  0  0  0
 74146  1  0  0  0
 75 78  1  0  0  0
 75147  1  0  0  0
 76 77  1  0  0  0
 76148  1  0  0  0
 76149  1  0  0  0
 76 79  1  0  0  0
 77150  1  0  0  0
 77151  1  0  0  0
 78152  1  0  0  0
 79153  1  0  0  0
M  CHG  1  79   1
M  ISO  4   1 100  68 101  77 101  78 100
M  END
> <chiral flag>
0

> <version>
0

> <s_m_source_file>
/data/baiqing/PycharmProjects/Reinvent-master-3.2/result/LINK_invent/BTK/process_docking_weight1_custom_product_contain_oxygen_bond_distance_aromatic_linkinvent_7_9_3/rearranged_h_0009.sdf

> <i_m_source_file_index>
45

> <r_mmod_Potential_Energy-OPLS-2005>
907.49267578125

> <r_mmod_Stretch_Energy-OPLS-2005>
422.123931884766

> <r_mmod_Bend_Energy-OPLS-2005>
452.849731445312

> <r_mmod_Torsional_Energy-OPLS-2005>
236.023727416992

> <r_mmod_Improper_Torsional_Energy-OPLS-2005>
4.44967126846313

> <r_mmod_Van_der_Waal_Energy-OPLS-2005>
109.575119018555

> <r_mmod_Electrostatic_Energy-OPLS-2005>
-210.960876464844

> <r_mmod_Solvation_Energy-OPLS-2005>
-454.601898193359

> <b_mmod_Minimization_Converged-OPLS-2005>
0

> <r_mmod_RMS_Derivative-OPLS-2005>
8.72944927215576

$$$$
45
                    3D
 Structure written by MMmdl.
157166  0  0  1  0            999 V2000
  -30.5717  -14.6777   20.5056 C   0  0  0  0  0  0
  -30.4638  -12.4191   19.4507 C   0  0  0  0  0  0
  -29.5211  -12.4995   18.2252 C   0  0  0  0  0  0
  -28.0439  -12.3298   18.6406 C   0  0  0  0  0  0
  -27.6643  -13.2036   19.8672 C   0  0  2  0  0  0
  -28.7079  -13.0347   20.9949 C   0  0  0  0  0  0
  -25.2635  -13.8118   20.5652 C   0  0  0  0  0  0
  -24.1893  -13.0401   20.9171 C   0  0  0  0  0  0
  -24.6440  -11.6871   20.8737 C   0  0  0  0  0  0
  -23.9087  -10.4269   21.0400 C   0  0  0  0  0  0
  -24.3633   -9.4185   21.9184 C   0  0  0  0  0  0
  -23.6295   -8.2228   22.0760 C   0  0  0  0  0  0
  -22.4282   -8.0275   21.3546 C   0  0  0  0  0  0
  -21.9920   -9.0251   20.4653 C   0  0  0  0  0  0
  -22.7255  -10.2122   20.3053 C   0  0  0  0  0  0
  -21.6852   -6.0742   22.5284 C   0  0  0  0  0  0
  -21.3994   -6.5642   23.8212 C   0  0  0  0  0  0
  -21.3650   -5.6794   24.9172 C   0  0  0  0  0  0
  -21.6038   -4.3055   24.7222 C   0  0  0  0  0  0
  -21.8832   -3.8155   23.4339 C   0  0  0  0  0  0
  -21.9194   -4.6973   22.3396 C   0  0  0  0  0  0
  -22.7931  -13.5217   21.1838 C   0  0  0  0  0  0
  -22.1679   -4.2167   21.0976 F   0  0  0  0  0  0
  -21.5622   -3.4531   25.7721 F   0  0  0  0  0  0
  -30.0158  -13.4213   20.4425 N   0  0  0  0  0  0
  -26.3069  -12.9279   20.3328 N   0  0  0  0  0  0
  -25.9370  -11.6449   20.5749 N   0  0  0  0  0  0
  -22.0569  -12.8203   22.0382 N   0  0  0  0  0  0
  -25.4323  -15.1829   20.4009 N   0  0  0  0  0  0
  -31.7087  -14.8936   20.0726 O   0  0  0  0  0  0
  -21.6634   -6.8887   21.4250 O   0  0  0  0  0  0
  -22.3611  -14.5538   20.6691 O   0  0  0  0  0  0
  -24.6202  -31.8540   23.1877 C   0  0  0  0  0  0
  -25.9020  -32.4740   23.8249 C   0  0  1  0  0  0
  -27.2466  -27.3247   20.1013 C   0  0  0  0  0  0
  -25.5785  -33.8531   24.2159 N   0  0  0  0  0  0
  -23.4190  -30.4716   21.5272 C   0  0  2  0  0  0
  -24.8699  -28.9128   20.0996 C   0  0  0  0  0  0
  -22.7447  -29.4609   22.4849 C   0  0  0  0  0  0
  -18.0299  -28.1435   22.8547 C   0  0  0  0  0  0
  -24.1438  -36.7236   23.2671 C   0  0  0  0  0  0
  -25.9538  -30.7861   21.3554 C   0  0  0  0  0  0
  -26.0296  -29.4100   20.7045 C   0  0  0  0  0  0
  -27.2117  -28.6221   20.6994 C   0  0  0  0  0  0
  -26.0685  -26.8697   19.4721 C   0  0  0  0  0  0
  -24.8915  -27.6543   19.4708 C   0  0  0  0  0  0
  -23.6341  -29.7883   20.1475 C   0  0  0  0  0  0
  -25.4086  -36.3039   24.0336 C   0  0  1  0  0  0
  -20.5903  -28.3688   23.1269 C   0  0  2  0  0  0
  -20.6748  -26.9395   22.5427 C   0  0  0  0  0  0
  -19.5707  -26.6400   21.5239 C   0  0  0  0  0  0
  -18.1898  -26.7997   22.1658 C   0  0  0  0  0  0
  -19.1574  -28.8882   23.2923 C   0  0  0  0  0  0
  -18.9519  -30.1517   23.8900 C   0  0  0  0  0  0
  -17.6523  -30.6654   24.0601 C   0  0  0  0  0  0
  -25.9032  -34.9431   23.5068 C   0  0  0  0  0  0
  -16.5391  -29.9170   23.6388 C   0  0  0  0  0  0
  -16.7302  -28.6584   23.0401 C   0  0  0  0  0  0
  -26.4429  -31.6595   25.0639 C   0  0  0  0  0  0
  -25.3644  -31.3790   26.1342 C   0  0  0  0  0  0
  -27.0277  -30.3039   24.6098 C   0  0  0  0  0  0
  -27.5955  -32.4354   25.7414 C   0  0  0  0  0  0
  -27.5550  -37.1761   24.8501 C   0  0  0  0  0  0
  -21.4161  -29.3011   22.3593 N   0  0  0  0  0  0
  -26.4259  -37.3746   23.9441 N   0  0  0  0  0  0
  -24.6833  -31.0582   22.0807 N   0  0  0  0  0  0
  -23.4173  -28.8182   23.2949 O   0  0  0  0  0  0
  -28.4152  -26.5651   20.2139 O   0  0  0  0  0  0
  -26.5682  -34.8933   22.4688 O   0  0  0  0  0  0
  -23.5357  -32.1272   23.7247 O   0  0  0  0  0  0
  -29.5796  -19.2045   19.3946 C   0  0  0  0  0  0
  -29.9681  -17.8352   19.6066 C   0  0  0  0  0  0
  -28.5561  -19.2474   21.5617 C   0  0  0  0  0  0
  -28.8308  -19.9517   20.3573 C   0  0  0  0  0  0
  -29.6107  -17.1184   20.7837 C   0  0  0  0  0  0
  -28.9092  -17.8780   21.7610 C   0  0  0  0  0  0
  -29.8439  -24.6818   20.6981 C   0  0  0  0  0  0
  -29.6765  -23.1469   20.9086 C   0  0  0  0  0  0
  -27.8200  -23.8986   19.7043 C   0  0  0  0  0  0
  -28.7275  -25.1877   19.7493 C   0  0  2  0  0  0
  -28.0716  -21.3213   20.0609 C   0  0  0  0  0  0
  -29.7581  -15.6664   21.0013 N   0  0  0  0  0  0
  -28.7312  -22.6874   19.8774 N   0  3  2  0  0  0
  -28.3880  -17.1072   23.2184 Cl  0  0  0  0  0  0
  -31.4980  -12.5860   19.1427 H   0  0  0  0  0  0
  -30.4482  -11.4182   19.8877 H   0  0  0  0  0  0
  -29.7944  -11.7298   17.5018 H   0  0  0  0  0  0
  -29.6558  -13.4558   17.7164 H   0  0  0  0  0  0
  -27.8962  -11.2775   18.8831 H   0  0  0  0  0  0
  -27.3850  -12.5412   17.7983 H   0  0  0  0  0  0
  -27.6921  -14.2417   19.5359 H   0  0  0  0  0  0
  -28.7402  -11.9953   21.3267 H   0  0  0  0  0  0
  -28.4454  -13.6136   21.8817 H   0  0  0  0  0  0
  -25.2784   -9.5647   22.4755 H   0  0  0  0  0  0
  -24.0008   -7.4609   22.7470 H   0  0  0  0  0  0
  -21.0855   -8.8762   19.8951 H   0  0  0  0  0  0
  -22.3724  -10.9660   19.6157 H   0  0  0  0  0  0
  -21.1977   -7.6143   23.9721 H   0  0  0  0  0  0
  -21.1463   -6.0516   25.9079 H   0  0  0  0  0  0
  -22.0624   -2.7620   23.2825 H   0  0  0  0  0  0
  -22.4173  -11.9835   22.4712 H   0  0  0  0  0  0
  -21.1200  -13.1244   22.2620 H   0  0  0  0  0  0
  -24.6549  -15.8261   20.4989 H   0  0  0  0  0  0
  -26.2627  -15.6184   20.0219 H   0  0  0  0  0  0
  -26.7078  -32.5438   23.0990 H   0  0  0  0  0  0
  -24.9744  -33.9635   25.0180 H   0  0  0  0  0  0
  -22.7207  -31.2974   21.3747 H   0  0  0  0  0  0
  -23.3703  -35.9569   23.3354 H   0  0  0  0  0  0
  -24.3538  -36.8825   22.2087 H   0  0  0  0  0  0
  -23.7176  -37.6433   23.6689 H   0  0  0  0  0  0
  -26.0809  -31.5439   20.5811 H   0  0  0  0  0  0
  -26.8363  -30.8420   21.9799 H   0  0  0  0  0  0
  -28.1014  -29.0015   21.1853 H   0  0  0  0  0  0
  -26.0491  -25.9041   18.9910 H   0  0  0  0  0  0
  -24.0023  -27.2804   18.9798 H   0  0  0  0  0  0
  -23.7355  -30.5481   19.3715 H   0  0  0  0  0  0
  -22.7620  -29.1974   19.8629 H   0  0  0  0  0  0
  -25.1282  -36.1842   25.0832 H   0  0  0  0  0  0
  -21.0097  -28.3280   24.1342 H   0  0  0  0  0  0
  -20.5586  -26.2311   23.3654 H   0  0  0  0  0  0
  -21.6617  -26.7364   22.1237 H   0  0  0  0  0  0
  -19.6807  -25.6304   21.1258 H   0  0  0  0  0  0
  -19.6629  -27.3231   20.6798 H   0  0  0  0  0  0
  -17.4158  -26.6789   21.4075 H   0  0  0  0  0  0
  -18.0286  -26.0176   22.9086 H   0  0  0  0  0  0
  -19.8000  -30.7380   24.2178 H   0  0  0  0  0  0
  -17.5093  -31.6333   24.5207 H   0  0  0  0  0  0
  -15.5408  -30.3084   23.7736 H   0  0  0  0  0  0
  -15.8696  -28.0933   22.7077 H   0  0  0  0  0  0
  -24.5789  -30.7176   25.7657 H   0  0  0  0  0  0
  -24.8864  -32.2985   26.4729 H   0  0  0  0  0  0
  -25.7900  -30.8969   27.0138 H   0  0  0  0  0  0
  -26.2837  -29.6760   24.1184 H   0  0  0  0  0  0
  -27.4058  -29.7333   25.4581 H   0  0  0  0  0  0
  -27.8646  -30.4354   23.9245 H   0  0  0  0  0  0
  -27.2538  -33.3677   26.1934 H   0  0  0  0  0  0
  -28.3781  -32.6876   25.0240 H   0  0  0  0  0  0
  -28.0581  -31.8515   26.5366 H   0  0  0  0  0  0
  -28.2600  -38.0035   24.7529 H   0  0  0  0  0  0
  -28.0989  -36.2555   24.6323 H   0  0  0  0  0  0
  -27.2289  -37.1436   25.8918 H   0  0  0  0  0  0
  -20.9314  -29.8671   21.6764 H   0  0  0  0  0  0
  -26.0099  -38.2788   24.1503 H   0  0  0  0  0  0
  -29.8031  -19.6500   18.4364 H   0  0  0  0  0  0
  -30.4792  -17.3115   18.8106 H   0  0  0  0  0  0
  -27.9686  -19.7306   22.3289 H   0  0  0  0  0  0
  -30.8250  -24.9263   20.2893 H   0  0  0  0  0  0
  -29.7806  -25.1824   21.6660 H   0  0  0  0  0  0
  -29.2391  -22.9643   21.8923 H   0  0  0  0  0  0
  -30.6225  -22.6087   20.8646 H   0  0  0  0  0  0
  -27.2645  -23.8355   18.7684 H   0  0  0  0  0  0
  -27.0905  -23.9397   20.5139 H   0  0  0  0  0  0
  -29.1571  -25.3042   18.7533 H   0  0  0  0  0  0
  -27.3149  -21.4443   20.8360 H   0  0  0  0  0  0
  -27.5024  -21.1447   19.1477 H   0  0  0  0  0  0
  -29.0101  -15.2861   21.5605 H   0  0  0  0  0  0
  -29.2739  -22.6024   19.0296 H   0  0  0  0  0  0
  1 25  1  0  0  0
  1 30  2  0  0  0
  1 82  1  0  0  0
  2  3  1  0  0  0
  2 25  1  0  0  0
  2 85  1  0  0  0
  2 86  1  0  0  0
  3  4  1  0  0  0
  3 87  1  0  0  0
  3 88  1  0  0  0
  4  5  1  0  0  0
  4 89  1  0  0  0
  4 90  1  0  0  0
  5  6  1  0  0  0
  5 26  1  0  0  0
  5 91  1  0  0  0
  6 25  1  0  0  0
  6 92  1  0  0  0
  6 93  1  0  0  0
  7  8  2  0  0  0
  7 26  1  0  0  0
  7 29  1  0  0  0
  8  9  1  0  0  0
  8 22  1  0  0  0
  9 10  1  0  0  0
  9 27  2  0  0  0
 10 11  2  0  0  0
 10 15  1  0  0  0
 11 12  1  0  0  0
 11 94  1  0  0  0
 12 13  2  0  0  0
 12 95  1  0  0  0
 13 14  1  0  0  0
 13 31  1  0  0  0
 14 15  2  0  0  0
 14 96  1  0  0  0
 15 97  1  0  0  0
 16 17  2  0  0  0
 16 21  1  0  0  0
 16 31  1  0  0  0
 17 18  1  0  0  0
 17 98  1  0  0  0
 18 19  2  0  0  0
 18 99  1  0  0  0
 19 20  1  0  0  0
 19 24  1  0  0  0
 20 21  2  0  0  0
 20100  1  0  0  0
 21 23  1  0  0  0
 22 28  1  0  0  0
 22 32  2  0  0  0
 26 27  1  0  0  0
 28101  1  0  0  0
 28102  1  0  0  0
 29103  1  0  0  0
 29104  1  0  0  0
 33 34  1  0  0  0
 33 66  1  0  0  0
 33 70  2  0  0  0
 34 36  1  0  0  0
 34 59  1  0  0  0
 34105  1  0  0  0
 35 44  2  0  0  0
 35 45  1  0  0  0
 35 68  1  0  0  0
 36 56  1  0  0  0
 36106  1  0  0  0
 37 39  1  0  0  0
 37 47  1  0  0  0
 37 66  1  0  0  0
 37107  1  0  0  0
 38 43  2  0  0  0
 38 46  1  0  0  0
 38 47  1  0  0  0
 39 64  1  0  0  0
 39 67  2  0  0  0
 40 52  1  0  0  0
 40 53  2  0  0  0
 40 58  1  0  0  0
 41108  1  0  0  0
 41109  1  0  0  0
 41110  1  0  0  0
 41 48  1  0  0  0
 42 43  1  0  0  0
 42 66  1  0  0  0
 42111  1  0  0  0
 42112  1  0  0  0
 43 44  1  0  0  0
 44113  1  0  0  0
 45 46  2  0  0  0
 45114  1  0  0  0
 46115  1  0  0  0
 47116  1  0  0  0
 47117  1  0  0  0
 48 56  1  0  0  0
 48 65  1  0  0  0
 48118  1  0  0  0
 49 50  1  0  0  0
 49 53  1  0  0  0
 49 64  1  0  0  0
 49119  1  0  0  0
 50 51  1  0  0  0
 50120  1  0  0  0
 50121  1  0  0  0
 51 52  1  0  0  0
 51122  1  0  0  0
 51123  1  0  0  0
 52124  1  0  0  0
 52125  1  0  0  0
 53 54  1  0  0  0
 54 55  2  0  0  0
 54126  1  0  0  0
 55 57  1  0  0  0
 55127  1  0  0  0
 56 69  2  0  0  0
 57 58  2  0  0  0
 57128  1  0  0  0
 58129  1  0  0  0
 59 60  1  0  0  0
 59 61  1  0  0  0
 59 62  1  0  0  0
 60130  1  0  0  0
 60131  1  0  0  0
 60132  1  0  0  0
 61133  1  0  0  0
 61134  1  0  0  0
 61135  1  0  0  0
 62136  1  0  0  0
 62137  1  0  0  0
 62138  1  0  0  0
 63 65  1  0  0  0
 63139  1  0  0  0
 63140  1  0  0  0
 63141  1  0  0  0
 64142  1  0  0  0
 65143  1  0  0  0
 68 80  1  0  0  0
 71 72  2  0  0  0
 71 74  1  0  0  0
 71144  1  0  0  0
 72 75  1  0  0  0
 72145  1  0  0  0
 73 74  2  0  0  0
 73 76  1  0  0  0
 73146  1  0  0  0
 74 81  1  0  0  0
 75 76  2  0  0  0
 75 82  1  0  0  0
 76 84  1  0  0  0
 77 78  1  0  0  0
 77 80  1  0  0  0
 77147  1  0  0  0
 77148  1  0  0  0
 78 83  1  0  0  0
 78149  1  0  0  0
 78150  1  0  0  0
 79 80  1  0  0  0
 79 83  1  0  0  0
 79151  1  0  0  0
 79152  1  0  0  0
 80153  1  0  0  0
 81154  1  0  0  0
 81155  1  0  0  0
 81 83  1  0  0  0
 82156  1  0  0  0
 83157  1  0  0  0
M  CHG  1  83   1
M  ISO  4   1 100  68 101  80 101  82 100
M  END
> <chiral flag>
0

> <version>
0

> <s_m_source_file>
/data/baiqing/PycharmProjects/Reinvent-master-3.2/result/LINK_invent/BTK/process_docking_weight1_custom_product_contain_oxygen_bond_distance_aromatic_linkinvent_7_9_3/rearranged_h_0009.sdf

> <i_m_source_file_index>
46

> <r_mmod_Potential_Energy-OPLS-2005>
49.3782806396484

> <r_mmod_Stretch_Energy-OPLS-2005>
88.4920196533203

> <r_mmod_Bend_Energy-OPLS-2005>
242.618255615234

> <r_mmod_Torsional_Energy-OPLS-2005>
276.242767333984

> <r_mmod_Improper_Torsional_Energy-OPLS-2005>
5.82685518264771

> <r_mmod_Van_der_Waal_Energy-OPLS-2005>
126.6318359375

> <r_mmod_Electrostatic_Energy-OPLS-2005>
-295.095397949219

> <r_mmod_Solvation_Energy-OPLS-2005>
-450.461120605469

> <b_mmod_Minimization_Converged-OPLS-2005>
0

> <r_mmod_RMS_Derivative-OPLS-2005>
4.24396753311157

$$$$
46
                    3D
 Structure written by MMmdl.
156165  0  0  1  0            999 V2000
  -30.3146  -15.6109   20.3332 C   0  0  0  0  0  0
  -30.4222  -13.0630   19.5408 C   0  0  0  0  0  0
  -29.5505  -12.6533   18.3223 C   0  0  0  0  0  0
  -28.1233  -12.2948   18.7643 C   0  0  0  0  0  0
  -27.5953  -13.3051   19.8097 C   0  0  2  0  0  0
  -28.6082  -13.6365   20.9296 C   0  0  0  0  0  0
  -25.2331  -13.8278   20.5767 C   0  0  0  0  0  0
  -24.1710  -13.0440   20.9266 C   0  0  0  0  0  0
  -24.6403  -11.6942   20.8753 C   0  0  0  0  0  0
  -23.9099  -10.4290   21.0386 C   0  0  0  0  0  0
  -24.3645   -9.4207   21.9170 C   0  0  0  0  0  0
  -23.6306   -8.2246   22.0762 C   0  0  0  0  0  0
  -22.4287   -8.0284   21.3545 C   0  0  0  0  0  0
  -21.9919   -9.0259   20.4651 C   0  0  0  0  0  0
  -22.7266  -10.2127   20.3041 C   0  0  0  0  0  0
  -21.6852   -6.0737   22.5271 C   0  0  0  0  0  0
  -21.4023   -6.5636   23.8210 C   0  0  0  0  0  0
  -21.3665   -5.6787   24.9167 C   0  0  0  0  0  0
  -21.6056   -4.3047   24.7218 C   0  0  0  0  0  0
  -21.8821   -3.8141   23.4334 C   0  0  0  0  0  0
  -21.9194   -4.6961   22.3394 C   0  0  0  0  0  0
  -22.7722  -13.5191   21.1894 C   0  0  0  0  0  0
  -22.1658   -4.2144   21.0968 F   0  0  0  0  0  0
  -21.5629   -3.4530   25.7729 F   0  0  0  0  0  0
  -29.7870  -14.2494   20.2745 N   0  0  0  0  0  0
  -26.2767  -12.9606   20.3200 N   0  0  0  0  0  0
  -25.9349  -11.6685   20.5692 N   0  0  0  0  0  0
  -22.0372  -12.8184   22.0446 N   0  0  0  0  0  0
  -25.3940  -15.2015   20.4203 N   0  0  0  0  0  0
  -31.5492  -15.5449   20.1745 O   0  0  0  0  0  0
  -21.6649   -6.8879   21.4232 O   0  0  0  0  0  0
  -22.3396  -14.5495   20.6731 O   0  0  0  0  0  0
  -24.6828  -31.8010   23.1502 C   0  0  0  0  0  0
  -25.9404  -32.4472   23.8064 C   0  0  1  0  0  0
  -27.2290  -26.7034   20.2279 C   0  0  0  0  0  0
  -25.5984  -33.8297   24.1956 N   0  0  0  0  0  0
  -23.5096  -30.3983   21.5044 C   0  0  2  0  0  0
  -24.9642  -28.7324   20.1227 C   0  0  0  0  0  0
  -22.7769  -29.4317   22.4730 C   0  0  0  0  0  0
  -18.0343  -28.1405   22.8457 C   0  0  0  0  0  0
  -24.1501  -36.7167   23.2650 C   0  0  0  0  0  0
  -26.0871  -30.5313   21.4142 C   0  0  0  0  0  0
  -26.1505  -29.0939   20.7728 C   0  0  0  0  0  0
  -27.2633  -28.1050   20.7940 C   0  0  0  0  0  0
  -26.0126  -26.5469   19.5162 C   0  0  0  0  0  0
  -24.9336  -27.4849   19.4735 C   0  0  0  0  0  0
  -23.7618  -29.6880   20.1425 C   0  0  0  0  0  0
  -25.4152  -36.2907   24.0280 C   0  0  1  0  0  0
  -20.5974  -28.3770   23.1143 C   0  0  2  0  0  0
  -20.6807  -26.9429   22.5404 C   0  0  0  0  0  0
  -19.5788  -26.6361   21.5214 C   0  0  0  0  0  0
  -18.1972  -26.7934   22.1618 C   0  0  0  0  0  0
  -19.1602  -28.8912   23.2783 C   0  0  0  0  0  0
  -18.9510  -30.1497   23.8828 C   0  0  0  0  0  0
  -17.6496  -30.6590   24.0541 C   0  0  0  0  0  0
  -25.9123  -34.9291   23.4957 C   0  0  0  0  0  0
  -16.5390  -29.9068   23.6340 C   0  0  0  0  0  0
  -16.7321  -28.6489   23.0361 C   0  0  0  0  0  0
  -26.4579  -31.6504   25.0682 C   0  0  0  0  0  0
  -25.3638  -31.3821   26.1296 C   0  0  0  0  0  0
  -27.0506  -30.2845   24.6568 C   0  0  0  0  0  0
  -27.6049  -32.4345   25.7497 C   0  0  0  0  0  0
  -27.5575  -37.1749   24.8465 C   0  0  0  0  0  0
  -21.4411  -29.3023   22.3472 N   0  0  0  0  0  0
  -26.4292  -37.3660   23.9390 N   0  0  0  0  0  0
  -24.7832  -30.9449   22.0752 N   0  0  0  0  0  0
  -23.4213  -28.7919   23.3074 O   0  0  0  0  0  0
  -28.2534  -25.5407   20.2781 O   0  0  0  0  0  0
  -26.5768  -34.8866   22.4577 O   0  0  0  0  0  0
  -23.5843  -32.1080   23.6451 O   0  0  0  0  0  0
  -28.0079  -21.2377   20.8579 C   0  0  0  0  0  0
  -27.6736  -22.7467   20.8372 C   0  0  0  0  0  0
  -29.8365  -21.6521   19.6862 C   0  0  0  0  0  0
  -29.1549  -20.4684   20.2744 C   0  0  0  0  0  0
  -29.5265  -23.1470   19.6606 C   0  0  0  0  0  0
  -28.3788  -23.9227   20.2247 C   0  0  0  0  0  0
  -32.0423  -25.7518   19.1092 C   0  0  0  0  0  0
  -31.5255  -25.5144   17.6880 C   0  0  0  0  0  0
  -31.4358  -24.6166   19.9472 C   0  0  0  0  0  0
  -30.2295  -24.7445   17.9209 C   0  0  0  0  0  0
  -29.8644  -18.7293   20.3276 C   0  0  0  0  0  0
  -30.5531  -23.8835   19.0470 N   0  0  0  0  0  0
  -29.5701  -16.9797   20.3792 N   0  0  0  0  0  0
  -31.4191  -13.3174   19.1783 H   0  0  0  0  0  0
  -30.5705  -12.2176   20.2147 H   0  0  0  0  0  0
  -30.0070  -11.8206   17.7847 H   0  0  0  0  0  0
  -29.5096  -13.4869   17.6194 H   0  0  0  0  0  0
  -28.1520  -11.2975   19.2063 H   0  0  0  0  0  0
  -27.4558  -12.2338   17.9049 H   0  0  0  0  0  0
  -27.4621  -14.2278   19.2428 H   0  0  0  0  0  0
  -28.8596  -12.7582   21.5270 H   0  0  0  0  0  0
  -28.1768  -14.3647   21.6176 H   0  0  0  0  0  0
  -25.2779   -9.5699   22.4755 H   0  0  0  0  0  0
  -24.0002   -7.4656   22.7508 H   0  0  0  0  0  0
  -21.0836   -8.8799   19.8971 H   0  0  0  0  0  0
  -22.3717  -10.9676   19.6158 H   0  0  0  0  0  0
  -21.2019   -7.6142   23.9702 H   0  0  0  0  0  0
  -21.1489   -6.0515   25.9069 H   0  0  0  0  0  0
  -22.0593   -2.7601   23.2833 H   0  0  0  0  0  0
  -22.3970  -11.9861   22.4879 H   0  0  0  0  0  0
  -21.0992  -13.1228   22.2643 H   0  0  0  0  0  0
  -24.6250  -15.8536   20.5310 H   0  0  0  0  0  0
  -26.2364  -15.6393   20.0722 H   0  0  0  0  0  0
  -26.7495  -32.4954   23.0791 H   0  0  0  0  0  0
  -25.0030  -33.9344   25.0038 H   0  0  0  0  0  0
  -22.8357  -31.2346   21.3107 H   0  0  0  0  0  0
  -23.3770  -35.9490   23.3271 H   0  0  0  0  0  0
  -24.3573  -36.8868   22.2076 H   0  0  0  0  0  0
  -23.7267  -37.6340   23.6747 H   0  0  0  0  0  0
  -26.2872  -31.2502   20.6188 H   0  0  0  0  0  0
  -26.9420  -30.6043   22.0748 H   0  0  0  0  0  0
  -28.1616  -28.3892   21.3230 H   0  0  0  0  0  0
  -25.8575  -25.6042   19.0107 H   0  0  0  0  0  0
  -24.0384  -27.1951   18.9408 H   0  0  0  0  0  0
  -23.9380  -30.4422   19.3755 H   0  0  0  0  0  0
  -22.8668  -29.1521   19.8218 H   0  0  0  0  0  0
  -25.1365  -36.1678   25.0774 H   0  0  0  0  0  0
  -21.0067  -28.3388   24.1262 H   0  0  0  0  0  0
  -20.5667  -26.2397   23.3664 H   0  0  0  0  0  0
  -21.6673  -26.7370   22.1227 H   0  0  0  0  0  0
  -19.6945  -25.6254   21.1292 H   0  0  0  0  0  0
  -19.6723  -27.3128   20.6705 H   0  0  0  0  0  0
  -17.4245  -26.6678   21.4015 H   0  0  0  0  0  0
  -18.0353  -26.0094   22.9029 H   0  0  0  0  0  0
  -19.7985  -30.7334   24.2167 H   0  0  0  0  0  0
  -17.5042  -31.6261   24.5158 H   0  0  0  0  0  0
  -15.5382  -30.2936   23.7700 H   0  0  0  0  0  0
  -15.8732  -28.0778   22.7103 H   0  0  0  0  0  0
  -24.5846  -30.7148   25.7595 H   0  0  0  0  0  0
  -24.8792  -32.3035   26.4530 H   0  0  0  0  0  0
  -25.7806  -30.9116   27.0208 H   0  0  0  0  0  0
  -26.3209  -29.6463   24.1574 H   0  0  0  0  0  0
  -27.3951  -29.7294   25.5306 H   0  0  0  0  0  0
  -27.9188  -30.3978   24.0071 H   0  0  0  0  0  0
  -27.2610  -33.3711   26.1897 H   0  0  0  0  0  0
  -28.3952  -32.6802   25.0388 H   0  0  0  0  0  0
  -28.0612  -31.8588   26.5562 H   0  0  0  0  0  0
  -28.2572  -38.0061   24.7496 H   0  0  0  0  0  0
  -28.1092  -36.2586   24.6309 H   0  0  0  0  0  0
  -27.2284  -37.1410   25.8866 H   0  0  0  0  0  0
  -20.9718  -29.8691   21.6550 H   0  0  0  0  0  0
  -26.0116  -38.2717   24.1361 H   0  0  0  0  0  0
  -27.3149  -20.6335   21.4278 H   0  0  0  0  0  0
  -26.7866  -23.0113   21.3954 H   0  0  0  0  0  0
  -30.7704  -21.3935   19.2061 H   0  0  0  0  0  0
  -31.6865  -26.7152   19.4781 H   0  0  0  0  0  0
  -33.1325  -25.7622   19.1560 H   0  0  0  0  0  0
  -32.2323  -24.8890   17.1388 H   0  0  0  0  0  0
  -31.3820  -26.4362   17.1225 H   0  0  0  0  0  0
  -30.9039  -25.0146   20.8147 H   0  0  0  0  0  0
  -32.2151  -23.9494   20.3197 H   0  0  0  0  0  0
  -29.9314  -24.1716   17.0405 H   0  0  0  0  0  0
  -29.4229  -25.4386   18.1620 H   0  0  0  0  0  0
  -30.5361  -18.8311   21.1804 H   0  0  0  0  0  0
  -30.5435  -18.7746   19.4752 H   0  0  0  0  0  0
  -28.5795  -16.8015   20.4603 H   0  0  0  0  0  0
  1 25  1  0  0  0
  1 30  2  0  0  0
  1 83  1  0  0  0
  2  3  1  0  0  0
  2 25  1  0  0  0
  2 84  1  0  0  0
  2 85  1  0  0  0
  3  4  1  0  0  0
  3 86  1  0  0  0
  3 87  1  0  0  0
  4  5  1  0  0  0
  4 88  1  0  0  0
  4 89  1  0  0  0
  5  6  1  0  0  0
  5 26  1  0  0  0
  5 90  1  0  0  0
  6 25  1  0  0  0
  6 91  1  0  0  0
  6 92  1  0  0  0
  7  8  2  0  0  0
  7 26  1  0  0  0
  7 29  1  0  0  0
  8  9  1  0  0  0
  8 22  1  0  0  0
  9 10  1  0  0  0
  9 27  2  0  0  0
 10 11  2  0  0  0
 10 15  1  0  0  0
 11 12  1  0  0  0
 11 93  1  0  0  0
 12 13  2  0  0  0
 12 94  1  0  0  0
 13 14  1  0  0  0
 13 31  1  0  0  0
 14 15  2  0  0  0
 14 95  1  0  0  0
 15 96  1  0  0  0
 16 17  2  0  0  0
 16 21  1  0  0  0
 16 31  1  0  0  0
 17 18  1  0  0  0
 17 97  1  0  0  0
 18 19  2  0  0  0
 18 98  1  0  0  0
 19 20  1  0  0  0
 19 24  1  0  0  0
 20 21  2  0  0  0
 20 99  1  0  0  0
 21 23  1  0  0  0
 22 28  1  0  0  0
 22 32  2  0  0  0
 26 27  1  0  0  0
 28100  1  0  0  0
 28101  1  0  0  0
 29102  1  0  0  0
 29103  1  0  0  0
 33 34  1  0  0  0
 33 66  1  0  0  0
 33 70  2  0  0  0
 34 36  1  0  0  0
 34 59  1  0  0  0
 34104  1  0  0  0
 35 44  2  0  0  0
 35 45  1  0  0  0
 35 68  1  0  0  0
 36 56  1  0  0  0
 36105  1  0  0  0
 37 39  1  0  0  0
 37 47  1  0  0  0
 37 66  1  0  0  0
 37106  1  0  0  0
 38 43  2  0  0  0
 38 46  1  0  0  0
 38 47  1  0  0  0
 39 64  1  0  0  0
 39 67  2  0  0  0
 40 52  1  0  0  0
 40 53  2  0  0  0
 40 58  1  0  0  0
 41107  1  0  0  0
 41108  1  0  0  0
 41109  1  0  0  0
 41 48  1  0  0  0
 42 43  1  0  0  0
 42 66  1  0  0  0
 42110  1  0  0  0
 42111  1  0  0  0
 43 44  1  0  0  0
 44112  1  0  0  0
 45 46  2  0  0  0
 45113  1  0  0  0
 46114  1  0  0  0
 47115  1  0  0  0
 47116  1  0  0  0
 48 56  1  0  0  0
 48 65  1  0  0  0
 48117  1  0  0  0
 49 50  1  0  0  0
 49 53  1  0  0  0
 49 64  1  0  0  0
 49118  1  0  0  0
 50 51  1  0  0  0
 50119  1  0  0  0
 50120  1  0  0  0
 51 52  1  0  0  0
 51121  1  0  0  0
 51122  1  0  0  0
 52123  1  0  0  0
 52124  1  0  0  0
 53 54  1  0  0  0
 54 55  2  0  0  0
 54125  1  0  0  0
 55 57  1  0  0  0
 55126  1  0  0  0
 56 69  2  0  0  0
 57 58  2  0  0  0
 57127  1  0  0  0
 58128  1  0  0  0
 59 60  1  0  0  0
 59 61  1  0  0  0
 59 62  1  0  0  0
 60129  1  0  0  0
 60130  1  0  0  0
 60131  1  0  0  0
 61132  1  0  0  0
 61133  1  0  0  0
 61134  1  0  0  0
 62135  1  0  0  0
 62136  1  0  0  0
 62137  1  0  0  0
 63 65  1  0  0  0
 63138  1  0  0  0
 63139  1  0  0  0
 63140  1  0  0  0
 64141  1  0  0  0
 65142  1  0  0  0
 68 76  1  0  0  0
 71 72  2  0  0  0
 71 74  1  0  0  0
 71143  1  0  0  0
 72 76  1  0  0  0
 72144  1  0  0  0
 73 74  2  0  0  0
 73 75  1  0  0  0
 73145  1  0  0  0
 74 81  1  0  0  0
 75 76  2  0  0  0
 75 82  1  0  0  0
 77 78  1  0  0  0
 77 79  1  0  0  0
 77146  1  0  0  0
 77147  1  0  0  0
 78 80  1  0  0  0
 78148  1  0  0  0
 78149  1  0  0  0
 79 82  1  0  0  0
 79150  1  0  0  0
 79151  1  0  0  0
 80 82  1  0  0  0
 80152  1  0  0  0
 80153  1  0  0  0
 81 83  1  0  0  0
 81154  1  0  0  0
 81155  1  0  0  0
 83156  1  0  0  0
M  ISO  4   1 100  68 101  76 101  83 100
M  END
> <chiral flag>
0

> <version>
0

> <s_m_source_file>
/data/baiqing/PycharmProjects/Reinvent-master-3.2/result/LINK_invent/BTK/process_docking_weight1_custom_product_contain_oxygen_bond_distance_aromatic_linkinvent_7_9_3/rearranged_h_0009.sdf

> <i_m_source_file_index>
47

> <r_mmod_Potential_Energy-OPLS-2005>
2312.58447265625

> <r_mmod_Stretch_Energy-OPLS-2005>
901.079467773438

> <r_mmod_Bend_Energy-OPLS-2005>
724.257934570312

> <r_mmod_Torsional_Energy-OPLS-2005>
290.619689941406

> <r_mmod_Improper_Torsional_Energy-OPLS-2005>
10.451735496521

> <r_mmod_Van_der_Waal_Energy-OPLS-2005>
129.586547851562

> <r_mmod_Electrostatic_Energy-OPLS-2005>
-377.027618408203

> <r_mmod_Solvation_Energy-OPLS-2005>
-232.901168823242

> <b_mmod_Minimization_Converged-OPLS-2005>
0

> <r_mmod_RMS_Derivative-OPLS-2005>
2.61514258384705

$$$$
47
                    3D
 Structure written by MMmdl.
156165  0  0  1  0            999 V2000
  -30.5497  -14.7821   20.4519 C   0  0  0  0  0  0
  -30.4512  -12.4771   19.4671 C   0  0  0  0  0  0
  -29.5168  -12.5175   18.2348 C   0  0  0  0  0  0
  -28.0424  -12.3294   18.6487 C   0  0  0  0  0  0
  -27.6444  -13.2226   19.8529 C   0  0  2  0  0  0
  -28.6921  -13.1382   20.9851 C   0  0  0  0  0  0
  -25.2523  -13.8162   20.5686 C   0  0  0  0  0  0
  -24.1812  -13.0422   20.9211 C   0  0  0  0  0  0
  -24.6396  -11.6899   20.8750 C   0  0  0  0  0  0
  -23.9069  -10.4285   21.0413 C   0  0  0  0  0  0
  -24.3619   -9.4199   21.9189 C   0  0  0  0  0  0
  -23.6291   -8.2237   22.0756 C   0  0  0  0  0  0
  -22.4272   -8.0280   21.3548 C   0  0  0  0  0  0
  -21.9911   -9.0255   20.4650 C   0  0  0  0  0  0
  -22.7244  -10.2132   20.3060 C   0  0  0  0  0  0
  -21.6851   -6.0736   22.5281 C   0  0  0  0  0  0
  -21.4012   -6.5641   23.8214 C   0  0  0  0  0  0
  -21.3657   -5.6792   24.9175 C   0  0  0  0  0  0
  -21.6043   -4.3055   24.7225 C   0  0  0  0  0  0
  -21.8818   -3.8148   23.4346 C   0  0  0  0  0  0
  -21.9190   -4.6965   22.3402 C   0  0  0  0  0  0
  -22.7835  -13.5213   21.1867 C   0  0  0  0  0  0
  -22.1659   -4.2151   21.0978 F   0  0  0  0  0  0
  -21.5632   -3.4539   25.7738 F   0  0  0  0  0  0
  -29.9901  -13.5215   20.4096 N   0  0  0  0  0  0
  -26.2948  -12.9354   20.3280 N   0  0  0  0  0  0
  -25.9323  -11.6507   20.5748 N   0  0  0  0  0  0
  -22.0477  -12.8207   22.0424 N   0  0  0  0  0  0
  -25.4191  -15.1887   20.4079 N   0  0  0  0  0  0
  -31.7364  -14.9440   20.1486 O   0  0  0  0  0  0
  -21.6636   -6.8880   21.4243 O   0  0  0  0  0  0
  -22.3524  -14.5520   20.6712 O   0  0  0  0  0  0
  -24.6339  -31.8517   23.1948 C   0  0  0  0  0  0
  -25.9154  -32.4737   23.8303 C   0  0  1  0  0  0
  -27.2274  -27.2423   20.1355 C   0  0  0  0  0  0
  -25.5933  -33.8539   24.2223 N   0  0  0  0  0  0
  -23.4318  -30.4723   21.5387 C   0  0  2  0  0  0
  -24.8800  -28.9099   20.1135 C   0  0  0  0  0  0
  -22.7511  -29.4586   22.4901 C   0  0  0  0  0  0
  -18.0295  -28.1392   22.8489 C   0  0  0  0  0  0
  -24.1489  -36.7276   23.2641 C   0  0  0  0  0  0
  -25.9785  -30.7606   21.3753 C   0  0  0  0  0  0
  -26.0528  -29.3806   20.7177 C   0  0  0  0  0  0
  -27.2303  -28.5624   20.7080 C   0  0  0  0  0  0
  -26.0273  -26.8349   19.5159 C   0  0  0  0  0  0
  -24.8735  -27.6464   19.5006 C   0  0  0  0  0  0
  -23.6514  -29.8000   20.1573 C   0  0  0  0  0  0
  -25.4120  -36.3059   24.0318 C   0  0  1  0  0  0
  -20.5900  -28.3705   23.1269 C   0  0  2  0  0  0
  -20.6780  -26.9419   22.5412 C   0  0  0  0  0  0
  -19.5751  -26.6385   21.5219 C   0  0  0  0  0  0
  -18.1932  -26.7933   22.1630 C   0  0  0  0  0  0
  -19.1550  -28.8867   23.2870 C   0  0  0  0  0  0
  -18.9468  -30.1470   23.8883 C   0  0  0  0  0  0
  -17.6466  -30.6588   24.0569 C   0  0  0  0  0  0
  -25.9061  -34.9431   23.5076 C   0  0  0  0  0  0
  -16.5358  -29.9085   23.6338 C   0  0  0  0  0  0
  -16.7283  -28.6507   23.0353 C   0  0  0  0  0  0
  -26.4508  -31.6580   25.0714 C   0  0  0  0  0  0
  -25.3720  -31.3737   26.1428 C   0  0  0  0  0  0
  -27.0367  -30.2994   24.6228 C   0  0  0  0  0  0
  -27.6052  -32.4335   25.7491 C   0  0  0  0  0  0
  -27.5578  -37.1792   24.8462 C   0  0  0  0  0  0
  -21.4215  -29.3043   22.3648 N   0  0  0  0  0  0
  -26.4290  -37.3764   23.9408 N   0  0  0  0  0  0
  -24.7007  -31.0466   22.0929 N   0  0  0  0  0  0
  -23.4199  -28.8135   23.3019 O   0  0  0  0  0  0
  -28.3394  -26.3630   20.1640 O   0  0  0  0  0  0
  -26.5638  -34.8918   22.4649 O   0  0  0  0  0  0
  -23.5488  -32.1342   23.7240 O   0  0  0  0  0  0
  -28.3438  -19.3846   19.8152 C   0  0  0  0  0  0
  -28.5074  -17.9604   19.9085 C   0  0  0  0  0  0
  -30.6354  -18.2504   20.9277 C   0  0  0  0  0  0
  -29.2993  -20.3271   20.3006 C   0  0  0  0  0  0
  -29.6563  -17.3212   20.4627 C   0  0  0  0  0  0
  -30.4621  -19.6859   20.8597 C   0  0  0  0  0  0
  -28.1729  -23.9423   19.0682 C   0  0  0  0  0  0
  -29.3328  -24.1991   21.1774 C   0  0  0  0  0  0
  -28.0592  -22.3741   19.3373 C   0  0  0  0  0  0
  -29.2464  -22.6279   21.4245 C   0  0  0  0  0  0
  -28.1825  -24.8623   20.3399 C   0  0  0  0  0  0
  -29.1081  -21.7861   20.2106 N   0  0  0  0  0  0
  -29.6581  -15.8348   20.6374 N   0  0  0  0  0  0
  -31.4650  -20.4602   21.3431 F   0  0  0  0  0  0
  -31.4864  -12.6362   19.1599 H   0  0  0  0  0  0
  -30.4249  -11.4955   19.9430 H   0  0  0  0  0  0
  -29.8036  -11.7484   17.5166 H   0  0  0  0  0  0
  -29.6314  -13.4729   17.7202 H   0  0  0  0  0  0
  -27.9045  -11.2791   18.9076 H   0  0  0  0  0  0
  -27.3840  -12.5218   17.8008 H   0  0  0  0  0  0
  -27.6385  -14.2450   19.4756 H   0  0  0  0  0  0
  -28.7391  -12.1279   21.3941 H   0  0  0  0  0  0
  -28.4213  -13.7880   21.8191 H   0  0  0  0  0  0
  -25.2766   -9.5671   22.4760 H   0  0  0  0  0  0
  -24.0001   -7.4626   22.7474 H   0  0  0  0  0  0
  -21.0844   -8.8777   19.8950 H   0  0  0  0  0  0
  -22.3710  -10.9673   19.6169 H   0  0  0  0  0  0
  -21.2004   -7.6150   23.9720 H   0  0  0  0  0  0
  -21.1482   -6.0523   25.9079 H   0  0  0  0  0  0
  -22.0598   -2.7609   23.2850 H   0  0  0  0  0  0
  -22.4090  -11.9868   22.4810 H   0  0  0  0  0  0
  -21.1097  -13.1239   22.2630 H   0  0  0  0  0  0
  -24.6424  -15.8335   20.5071 H   0  0  0  0  0  0
  -26.2475  -15.6259   20.0291 H   0  0  0  0  0  0
  -26.7223  -32.5378   23.1045 H   0  0  0  0  0  0
  -25.0076  -33.9667   25.0366 H   0  0  0  0  0  0
  -22.7303  -31.2954   21.3883 H   0  0  0  0  0  0
  -23.3758  -35.9600   23.3296 H   0  0  0  0  0  0
  -24.3575  -36.8914   22.2056 H   0  0  0  0  0  0
  -23.7236  -37.6468   23.6683 H   0  0  0  0  0  0
  -26.1195  -31.5212   20.6059 H   0  0  0  0  0  0
  -26.8546  -30.8096   22.0105 H   0  0  0  0  0  0
  -28.1325  -28.9225   21.1828 H   0  0  0  0  0  0
  -25.9640  -25.8649   19.0479 H   0  0  0  0  0  0
  -23.9746  -27.2783   19.0249 H   0  0  0  0  0  0
  -23.7768  -30.5729   19.3980 H   0  0  0  0  0  0
  -22.7698  -29.2326   19.8542 H   0  0  0  0  0  0
  -25.1305  -36.1894   25.0809 H   0  0  0  0  0  0
  -20.9994  -28.3290   24.1390 H   0  0  0  0  0  0
  -20.5687  -26.2313   23.3617 H   0  0  0  0  0  0
  -21.6645  -26.7438   22.1205 H   0  0  0  0  0  0
  -19.6912  -25.6295   21.1250 H   0  0  0  0  0  0
  -19.6690  -27.3195   20.6750 H   0  0  0  0  0  0
  -17.4201  -26.6695   21.4029 H   0  0  0  0  0  0
  -18.0323  -26.0073   22.9026 H   0  0  0  0  0  0
  -19.7942  -30.7297   24.2236 H   0  0  0  0  0  0
  -17.5016  -31.6266   24.5178 H   0  0  0  0  0  0
  -15.5357  -30.2981   23.7665 H   0  0  0  0  0  0
  -15.8686  -28.0824   22.7065 H   0  0  0  0  0  0
  -24.5896  -30.7090   25.7748 H   0  0  0  0  0  0
  -24.8916  -32.2912   26.4837 H   0  0  0  0  0  0
  -25.8023  -30.8917   27.0217 H   0  0  0  0  0  0
  -26.2963  -29.6728   24.1243 H   0  0  0  0  0  0
  -27.4028  -29.7273   25.4764 H   0  0  0  0  0  0
  -27.8847  -30.4261   23.9494 H   0  0  0  0  0  0
  -27.2648  -33.3644   26.2038 H   0  0  0  0  0  0
  -28.3874  -32.6881   25.0328 H   0  0  0  0  0  0
  -28.0710  -31.8484   26.5431 H   0  0  0  0  0  0
  -28.2586  -38.0099   24.7521 H   0  0  0  0  0  0
  -28.1083  -36.2630   24.6278 H   0  0  0  0  0  0
  -27.2294  -37.1424   25.8863 H   0  0  0  0  0  0
  -20.9404  -29.8751   21.6838 H   0  0  0  0  0  0
  -26.0163  -38.2830   24.1427 H   0  0  0  0  0  0
  -27.4285  -19.7454   19.3710 H   0  0  0  0  0  0
  -27.7001  -17.3452   19.5384 H   0  0  0  0  0  0
  -31.5355  -17.8695   21.3860 H   0  0  0  0  0  0
  -27.3535  -24.2377   18.4141 H   0  0  0  0  0  0
  -29.0800  -24.1299   18.4922 H   0  0  0  0  0  0
  -30.2846  -24.4173   20.6914 H   0  0  0  0  0  0
  -29.3852  -24.6958   22.1468 H   0  0  0  0  0  0
  -28.0744  -21.8574   18.3767 H   0  0  0  0  0  0
  -27.0836  -22.1619   19.7780 H   0  0  0  0  0  0
  -28.3936  -22.4222   22.0735 H   0  0  0  0  0  0
  -30.1268  -22.3187   21.9875 H   0  0  0  0  0  0
  -27.2519  -24.6954   20.8844 H   0  0  0  0  0  0
  -28.7336  -15.4613   20.7865 H   0  0  0  0  0  0
  1 25  1  0  0  0
  1 30  2  0  0  0
  1 83  1  0  0  0
  2  3  1  0  0  0
  2 25  1  0  0  0
  2 85  1  0  0  0
  2 86  1  0  0  0
  3  4  1  0  0  0
  3 87  1  0  0  0
  3 88  1  0  0  0
  4  5  1  0  0  0
  4 89  1  0  0  0
  4 90  1  0  0  0
  5  6  1  0  0  0
  5 26  1  0  0  0
  5 91  1  0  0  0
  6 25  1  0  0  0
  6 92  1  0  0  0
  6 93  1  0  0  0
  7  8  2  0  0  0
  7 26  1  0  0  0
  7 29  1  0  0  0
  8  9  1  0  0  0
  8 22  1  0  0  0
  9 10  1  0  0  0
  9 27  2  0  0  0
 10 11  2  0  0  0
 10 15  1  0  0  0
 11 12  1  0  0  0
 11 94  1  0  0  0
 12 13  2  0  0  0
 12 95  1  0  0  0
 13 14  1  0  0  0
 13 31  1  0  0  0
 14 15  2  0  0  0
 14 96  1  0  0  0
 15 97  1  0  0  0
 16 17  2  0  0  0
 16 21  1  0  0  0
 16 31  1  0  0  0
 17 18  1  0  0  0
 17 98  1  0  0  0
 18 19  2  0  0  0
 18 99  1  0  0  0
 19 20  1  0  0  0
 19 24  1  0  0  0
 20 21  2  0  0  0
 20100  1  0  0  0
 21 23  1  0  0  0
 22 28  1  0  0  0
 22 32  2  0  0  0
 26 27  1  0  0  0
 28101  1  0  0  0
 28102  1  0  0  0
 29103  1  0  0  0
 29104  1  0  0  0
 33 34  1  0  0  0
 33 66  1  0  0  0
 33 70  2  0  0  0
 34 36  1  0  0  0
 34 59  1  0  0  0
 34105  1  0  0  0
 35 44  2  0  0  0
 35 45  1  0  0  0
 35 68  1  0  0  0
 36 56  1  0  0  0
 36106  1  0  0  0
 37 39  1  0  0  0
 37 47  1  0  0  0
 37 66  1  0  0  0
 37107  1  0  0  0
 38 43  2  0  0  0
 38 46  1  0  0  0
 38 47  1  0  0  0
 39 64  1  0  0  0
 39 67  2  0  0  0
 40 52  1  0  0  0
 40 53  2  0  0  0
 40 58  1  0  0  0
 41108  1  0  0  0
 41109  1  0  0  0
 41110  1  0  0  0
 41 48  1  0  0  0
 42 43  1  0  0  0
 42 66  1  0  0  0
 42111  1  0  0  0
 42112  1  0  0  0
 43 44  1  0  0  0
 44113  1  0  0  0
 45 46  2  0  0  0
 45114  1  0  0  0
 46115  1  0  0  0
 47116  1  0  0  0
 47117  1  0  0  0
 48 56  1  0  0  0
 48 65  1  0  0  0
 48118  1  0  0  0
 49 50  1  0  0  0
 49 53  1  0  0  0
 49 64  1  0  0  0
 49119  1  0  0  0
 50 51  1  0  0  0
 50120  1  0  0  0
 50121  1  0  0  0
 51 52  1  0  0  0
 51122  1  0  0  0
 51123  1  0  0  0
 52124  1  0  0  0
 52125  1  0  0  0
 53 54  1  0  0  0
 54 55  2  0  0  0
 54126  1  0  0  0
 55 57  1  0  0  0
 55127  1  0  0  0
 56 69  2  0  0  0
 57 58  2  0  0  0
 57128  1  0  0  0
 58129  1  0  0  0
 59 60  1  0  0  0
 59 61  1  0  0  0
 59 62  1  0  0  0
 60130  1  0  0  0
 60131  1  0  0  0
 60132  1  0  0  0
 61133  1  0  0  0
 61134  1  0  0  0
 61135  1  0  0  0
 62136  1  0  0  0
 62137  1  0  0  0
 62138  1  0  0  0
 63 65  1  0  0  0
 63139  1  0  0  0
 63140  1  0  0  0
 63141  1  0  0  0
 64142  1  0  0  0
 65143  1  0  0  0
 68 81  1  0  0  0
 71 72  2  0  0  0
 71 74  1  0  0  0
 71144  1  0  0  0
 72 75  1  0  0  0
 72145  1  0  0  0
 73 75  2  0  0  0
 73 76  1  0  0  0
 73146  1  0  0  0
 74 76  2  0  0  0
 74 82  1  0  0  0
 75 83  1  0  0  0
 76 84  1  0  0  0
 77 79  1  0  0  0
 77 81  1  0  0  0
 77147  1  0  0  0
 77148  1  0  0  0
 78 80  1  0  0  0
 78 81  1  0  0  0
 78149  1  0  0  0
 78150  1  0  0  0
 79 82  1  0  0  0
 79151  1  0  0  0
 79152  1  0  0  0
 80 82  1  0  0  0
 80153  1  0  0  0
 80154  1  0  0  0
 81155  1  0  0  0
 83156  1  0  0  0
M  ISO  4   1 100  68 101  81 101  83 100
M  END
> <chiral flag>
0

> <version>
0

> <s_m_source_file>
/data/baiqing/PycharmProjects/Reinvent-master-3.2/result/LINK_invent/BTK/process_docking_weight1_custom_product_contain_oxygen_bond_distance_aromatic_linkinvent_7_9_3/rearranged_h_0009.sdf

> <i_m_source_file_index>
48

> <r_mmod_Potential_Energy-OPLS-2005>
254.181579589844

> <r_mmod_Stretch_Energy-OPLS-2005>
125.977783203125

> <r_mmod_Bend_Energy-OPLS-2005>
190.887908935547

> <r_mmod_Torsional_Energy-OPLS-2005>
258.732482910156

> <r_mmod_Improper_Torsional_Energy-OPLS-2005>
9.17599487304688

> <r_mmod_Van_der_Waal_Energy-OPLS-2005>
136.813186645508

> <r_mmod_Electrostatic_Energy-OPLS-2005>
-338.643615722656

> <r_mmod_Solvation_Energy-OPLS-2005>
-226.951202392578

> <b_mmod_Minimization_Converged-OPLS-2005>
0

> <r_mmod_RMS_Derivative-OPLS-2005>
0.569487690925598

$$$$
48
                    3D
 Structure written by MMmdl.
156164  0  0  1  0            999 V2000
  -30.5109  -15.0283   20.4031 C   0  0  0  0  0  0
  -30.4463  -12.6447   19.5099 C   0  0  0  0  0  0
  -29.5417  -12.5527   18.2600 C   0  0  0  0  0  0
  -28.0727  -12.3225   18.6683 C   0  0  0  0  0  0
  -27.6253  -13.2589   19.8205 C   0  0  2  0  0  0
  -28.6605  -13.3178   20.9637 C   0  0  0  0  0  0
  -25.2447  -13.8206   20.5616 C   0  0  0  0  0  0
  -24.1775  -13.0434   20.9199 C   0  0  0  0  0  0
  -24.6424  -11.6939   20.8725 C   0  0  0  0  0  0
  -23.9105  -10.4304   21.0377 C   0  0  0  0  0  0
  -24.3647   -9.4223   21.9149 C   0  0  0  0  0  0
  -23.6316   -8.2250   22.0724 C   0  0  0  0  0  0
  -22.4289   -8.0278   21.3521 C   0  0  0  0  0  0
  -21.9941   -9.0257   20.4629 C   0  0  0  0  0  0
  -22.7274  -10.2139   20.3038 C   0  0  0  0  0  0
  -21.6874   -6.0721   22.5271 C   0  0  0  0  0  0
  -21.4042   -6.5626   23.8205 C   0  0  0  0  0  0
  -21.3668   -5.6762   24.9155 C   0  0  0  0  0  0
  -21.6042   -4.3026   24.7199 C   0  0  0  0  0  0
  -21.8829   -3.8127   23.4318 C   0  0  0  0  0  0
  -21.9206   -4.6951   22.3378 C   0  0  0  0  0  0
  -22.7793  -13.5196   21.1853 C   0  0  0  0  0  0
  -22.1650   -4.2139   21.0951 F   0  0  0  0  0  0
  -21.5637   -3.4502   25.7706 F   0  0  0  0  0  0
  -29.9308  -13.7552   20.3681 N   0  0  0  0  0  0
  -26.2881  -12.9468   20.3106 N   0  0  0  0  0  0
  -25.9360  -11.6600   20.5656 N   0  0  0  0  0  0
  -22.0426  -12.8228   22.0421 N   0  0  0  0  0  0
  -25.4117  -15.1933   20.4029 N   0  0  0  0  0  0
  -31.7202  -15.0843   20.1581 O   0  0  0  0  0  0
  -21.6644   -6.8873   21.4237 O   0  0  0  0  0  0
  -22.3474  -14.5479   20.6651 O   0  0  0  0  0  0
  -24.6501  -31.8369   23.1842 C   0  0  0  0  0  0
  -25.9237  -32.4664   23.8265 C   0  0  1  0  0  0
  -27.2157  -27.0751   20.1468 C   0  0  0  0  0  0
  -25.5951  -33.8470   24.2161 N   0  0  0  0  0  0
  -23.4584  -30.4549   21.5325 C   0  0  2  0  0  0
  -24.9048  -28.8687   20.1126 C   0  0  0  0  0  0
  -22.7588  -29.4531   22.4864 C   0  0  0  0  0  0
  -18.0282  -28.1405   22.8446 C   0  0  0  0  0  0
  -24.1498  -36.7263   23.2655 C   0  0  0  0  0  0
  -26.0176  -30.6873   21.3949 C   0  0  0  0  0  0
  -26.0867  -29.2914   20.7396 C   0  0  0  0  0  0
  -27.2413  -28.4123   20.7344 C   0  0  0  0  0  0
  -26.0092  -26.7699   19.4784 C   0  0  0  0  0  0
  -24.8858  -27.6269   19.4630 C   0  0  0  0  0  0
  -23.6877  -29.7827   20.1531 C   0  0  0  0  0  0
  -25.4131  -36.3028   24.0314 C   0  0  1  0  0  0
  -20.5904  -28.3739   23.1218 C   0  0  2  0  0  0
  -20.6785  -26.9442   22.5403 C   0  0  0  0  0  0
  -19.5769  -26.6381   21.5213 C   0  0  0  0  0  0
  -18.1936  -26.7932   22.1600 C   0  0  0  0  0  0
  -19.1536  -28.8876   23.2821 C   0  0  0  0  0  0
  -18.9463  -30.1470   23.8873 C   0  0  0  0  0  0
  -17.6466  -30.6599   24.0560 C   0  0  0  0  0  0
  -25.9072  -34.9388   23.5042 C   0  0  0  0  0  0
  -16.5356  -29.9106   23.6346 C   0  0  0  0  0  0
  -16.7265  -28.6517   23.0359 C   0  0  0  0  0  0
  -26.4520  -31.6565   25.0740 C   0  0  0  0  0  0
  -25.3680  -31.3767   26.1420 C   0  0  0  0  0  0
  -27.0400  -30.2962   24.6345 C   0  0  0  0  0  0
  -27.6044  -32.4326   25.7528 C   0  0  0  0  0  0
  -27.5580  -37.1793   24.8442 C   0  0  0  0  0  0
  -21.4264  -29.3056   22.3591 N   0  0  0  0  0  0
  -26.4285  -37.3752   23.9392 N   0  0  0  0  0  0
  -24.7305  -31.0150   22.0940 N   0  0  0  0  0  0
  -23.4185  -28.8065   23.3028 O   0  0  0  0  0  0
  -28.2694  -26.0718   20.1588 O   0  0  0  0  0  0
  -26.5674  -34.8894   22.4639 O   0  0  0  0  0  0
  -23.5588  -32.1264   23.7009 O   0  0  0  0  0  0
  -30.4026  -20.0978   21.8314 C   0  0  0  0  0  0
  -30.0877  -18.5346   21.8049 C   0  0  0  0  0  0
  -28.9420  -18.8467   19.6439 C   0  0  0  0  0  0
  -29.2761  -21.2305   21.7049 C   0  0  0  0  0  0
  -29.2264  -20.4746   19.3554 C   0  0  0  0  0  0
  -29.9752  -17.8180   20.4122 C   0  0  2  0  0  0
  -28.9998  -23.1750   19.9034 C   0  0  0  0  0  0
  -28.0221  -24.5139   20.3516 C   0  0  0  0  0  0
  -29.7195  -16.2276   20.5037 N   0  0  0  0  0  0
  -28.7974  -21.6220   20.3258 N   0  3  2  0  0  0
  -31.4792  -12.8232   19.2093 H   0  0  0  0  0  0
  -30.4532  -11.6989   20.0553 H   0  0  0  0  0  0
  -29.8880  -11.7560   17.5998 H   0  0  0  0  0  0
  -29.6176  -13.4783   17.6876 H   0  0  0  0  0  0
  -27.9803  -11.2831   18.9841 H   0  0  0  0  0  0
  -27.4200  -12.4388   17.8036 H   0  0  0  0  0  0
  -27.5788  -14.2557   19.3812 H   0  0  0  0  0  0
  -28.7595  -12.3465   21.4501 H   0  0  0  0  0  0
  -28.3401  -14.0222   21.7318 H   0  0  0  0  0  0
  -25.2807   -9.5681   22.4710 H   0  0  0  0  0  0
  -24.0026   -7.4656   22.7450 H   0  0  0  0  0  0
  -21.0857   -8.8793   19.8954 H   0  0  0  0  0  0
  -22.3738  -10.9660   19.6130 H   0  0  0  0  0  0
  -21.2043   -7.6138   23.9702 H   0  0  0  0  0  0
  -21.1481   -6.0477   25.9048 H   0  0  0  0  0  0
  -22.0616   -2.7588   23.2803 H   0  0  0  0  0  0
  -22.4039  -11.9963   22.4953 H   0  0  0  0  0  0
  -21.1017  -13.1235   22.2500 H   0  0  0  0  0  0
  -24.6418  -15.8465   20.4953 H   0  0  0  0  0  0
  -26.2480  -15.6248   20.0356 H   0  0  0  0  0  0
  -26.7307  -32.5242   23.0991 H   0  0  0  0  0  0
  -25.0065  -33.9561   25.0284 H   0  0  0  0  0  0
  -22.7674  -31.2872   21.3748 H   0  0  0  0  0  0
  -23.3764  -35.9590   23.3257 H   0  0  0  0  0  0
  -24.3604  -36.8951   22.2082 H   0  0  0  0  0  0
  -23.7225  -37.6436   23.6715 H   0  0  0  0  0  0
  -26.1777  -31.4313   20.6150 H   0  0  0  0  0  0
  -26.8867  -30.7437   22.0390 H   0  0  0  0  0  0
  -28.1438  -28.7284   21.2386 H   0  0  0  0  0  0
  -25.9091  -25.8332   18.9502 H   0  0  0  0  0  0
  -23.9921  -27.3125   18.9400 H   0  0  0  0  0  0
  -23.8381  -30.5564   19.3994 H   0  0  0  0  0  0
  -22.7973  -29.2346   19.8387 H   0  0  0  0  0  0
  -25.1334  -36.1881   25.0810 H   0  0  0  0  0  0
  -20.9957  -28.3340   24.1359 H   0  0  0  0  0  0
  -20.5680  -26.2362   23.3627 H   0  0  0  0  0  0
  -21.6656  -26.7466   22.1214 H   0  0  0  0  0  0
  -19.6964  -25.6282   21.1272 H   0  0  0  0  0  0
  -19.6740  -27.3151   20.6712 H   0  0  0  0  0  0
  -17.4229  -26.6629   21.3995 H   0  0  0  0  0  0
  -18.0368  -26.0093   22.9003 H   0  0  0  0  0  0
  -19.7952  -30.7257   24.2251 H   0  0  0  0  0  0
  -17.5041  -31.6286   24.5158 H   0  0  0  0  0  0
  -15.5356  -30.3014   23.7688 H   0  0  0  0  0  0
  -15.8652  -28.0832   22.7125 H   0  0  0  0  0  0
  -24.5814  -30.7188   25.7710 H   0  0  0  0  0  0
  -24.8932  -32.2956   26.4860 H   0  0  0  0  0  0
  -25.7929  -30.8892   27.0200 H   0  0  0  0  0  0
  -26.3031  -29.6668   24.1333 H   0  0  0  0  0  0
  -27.3986  -29.7289   25.4946 H   0  0  0  0  0  0
  -27.8949  -30.4201   23.9694 H   0  0  0  0  0  0
  -27.2622  -33.3597   26.2127 H   0  0  0  0  0  0
  -28.3847  -32.6920   25.0368 H   0  0  0  0  0  0
  -28.0721  -31.8449   26.5428 H   0  0  0  0  0  0
  -28.2566  -38.0126   24.7542 H   0  0  0  0  0  0
  -28.1101  -36.2648   24.6203 H   0  0  0  0  0  0
  -27.2288  -37.1375   25.8843 H   0  0  0  0  0  0
  -20.9493  -29.8785   21.6773 H   0  0  0  0  0  0
  -26.0147  -38.2813   24.1429 H   0  0  0  0  0  0
  -31.2395  -20.3243   21.1688 H   0  0  0  0  0  0
  -30.8267  -20.2582   22.8248 H   0  0  0  0  0  0
  -29.1908  -18.3456   22.3958 H   0  0  0  0  0  0
  -30.8988  -18.0364   22.3427 H   0  0  0  0  0  0
  -28.8240  -18.4165   18.6484 H   0  0  0  0  0  0
  -27.9508  -18.7482   20.0868 H   0  0  0  0  0  0
  -29.6693  -22.1337   22.1760 H   0  0  0  0  0  0
  -28.4099  -20.9581   22.3112 H   0  0  0  0  0  0
  -28.7160  -20.6998   18.4179 H   0  0  0  0  0  0
  -30.2814  -20.6081   19.1107 H   0  0  0  0  0  0
  -30.9346  -17.9126   19.8999 H   0  0  0  0  0  0
  -30.0367  -23.4262   20.1305 H   0  0  0  0  0  0
  -28.9727  -23.1741   18.8131 H   0  0  0  0  0  0
  -27.8752  -24.4163   21.4290 H   0  0  0  0  0  0
  -27.0434  -24.2869   19.9331 H   0  0  0  0  0  0
  -28.7498  -16.0041   20.6672 H   0  0  0  0  0  0
  -27.7924  -21.5238   20.3743 H   0  0  0  0  0  0
  1 25  1  0  0  0
  1 30  2  0  0  0
  1 79  1  0  0  0
  2  3  1  0  0  0
  2 25  1  0  0  0
  2 81  1  0  0  0
  2 82  1  0  0  0
  3  4  1  0  0  0
  3 83  1  0  0  0
  3 84  1  0  0  0
  4  5  1  0  0  0
  4 85  1  0  0  0
  4 86  1  0  0  0
  5  6  1  0  0  0
  5 26  1  0  0  0
  5 87  1  0  0  0
  6 25  1  0  0  0
  6 88  1  0  0  0
  6 89  1  0  0  0
  7  8  2  0  0  0
  7 26  1  0  0  0
  7 29  1  0  0  0
  8  9  1  0  0  0
  8 22  1  0  0  0
  9 10  1  0  0  0
  9 27  2  0  0  0
 10 11  2  0  0  0
 10 15  1  0  0  0
 11 12  1  0  0  0
 11 90  1  0  0  0
 12 13  2  0  0  0
 12 91  1  0  0  0
 13 14  1  0  0  0
 13 31  1  0  0  0
 14 15  2  0  0  0
 14 92  1  0  0  0
 15 93  1  0  0  0
 16 17  2  0  0  0
 16 21  1  0  0  0
 16 31  1  0  0  0
 17 18  1  0  0  0
 17 94  1  0  0  0
 18 19  2  0  0  0
 18 95  1  0  0  0
 19 20  1  0  0  0
 19 24  1  0  0  0
 20 21  2  0  0  0
 20 96  1  0  0  0
 21 23  1  0  0  0
 22 28  1  0  0  0
 22 32  2  0  0  0
 26 27  1  0  0  0
 28 97  1  0  0  0
 28 98  1  0  0  0
 29 99  1  0  0  0
 29100  1  0  0  0
 33 34  1  0  0  0
 33 66  1  0  0  0
 33 70  2  0  0  0
 34 36  1  0  0  0
 34 59  1  0  0  0
 34101  1  0  0  0
 35 44  2  0  0  0
 35 45  1  0  0  0
 35 68  1  0  0  0
 36 56  1  0  0  0
 36102  1  0  0  0
 37 39  1  0  0  0
 37 47  1  0  0  0
 37 66  1  0  0  0
 37103  1  0  0  0
 38 43  2  0  0  0
 38 46  1  0  0  0
 38 47  1  0  0  0
 39 64  1  0  0  0
 39 67  2  0  0  0
 40 52  1  0  0  0
 40 53  2  0  0  0
 40 58  1  0  0  0
 41104  1  0  0  0
 41105  1  0  0  0
 41106  1  0  0  0
 41 48  1  0  0  0
 42 43  1  0  0  0
 42 66  1  0  0  0
 42107  1  0  0  0
 42108  1  0  0  0
 43 44  1  0  0  0
 44109  1  0  0  0
 45 46  2  0  0  0
 45110  1  0  0  0
 46111  1  0  0  0
 47112  1  0  0  0
 47113  1  0  0  0
 48 56  1  0  0  0
 48 65  1  0  0  0
 48114  1  0  0  0
 49 50  1  0  0  0
 49 53  1  0  0  0
 49 64  1  0  0  0
 49115  1  0  0  0
 50 51  1  0  0  0
 50116  1  0  0  0
 50117  1  0  0  0
 51 52  1  0  0  0
 51118  1  0  0  0
 51119  1  0  0  0
 52120  1  0  0  0
 52121  1  0  0  0
 53 54  1  0  0  0
 54 55  2  0  0  0
 54122  1  0  0  0
 55 57  1  0  0  0
 55123  1  0  0  0
 56 69  2  0  0  0
 57 58  2  0  0  0
 57124  1  0  0  0
 58125  1  0  0  0
 59 60  1  0  0  0
 59 61  1  0  0  0
 59 62  1  0  0  0
 60126  1  0  0  0
 60127  1  0  0  0
 60128  1  0  0  0
 61129  1  0  0  0
 61130  1  0  0  0
 61131  1  0  0  0
 62132  1  0  0  0
 62133  1  0  0  0
 62134  1  0  0  0
 63 65  1  0  0  0
 63135  1  0  0  0
 63136  1  0  0  0
 63137  1  0  0  0
 64138  1  0  0  0
 65139  1  0  0  0
 68 78  1  0  0  0
 71 72  1  0  0  0
 71 74  1  0  0  0
 71140  1  0  0  0
 71141  1  0  0  0
 72 76  1  0  0  0
 72142  1  0  0  0
 72143  1  0  0  0
 73 75  1  0  0  0
 73 76  1  0  0  0
 73144  1  0  0  0
 73145  1  0  0  0
 74 80  1  0  0  0
 74146  1  0  0  0
 74147  1  0  0  0
 75 80  1  0  0  0
 75148  1  0  0  0
 75149  1  0  0  0
 76 79  1  0  0  0
 76150  1  0  0  0
 77 78  1  0  0  0
 77151  1  0  0  0
 77152  1  0  0  0
 77 80  1  0  0  0
 78153  1  0  0  0
 78154  1  0  0  0
 79155  1  0  0  0
 80156  1  0  0  0
M  CHG  1  80   1
M  ISO  4   1 100  68 101  78 101  79 100
M  END
> <chiral flag>
0

> <version>
0

> <s_m_source_file>
/data/baiqing/PycharmProjects/Reinvent-master-3.2/result/LINK_invent/BTK/process_docking_weight1_custom_product_contain_oxygen_bond_distance_aromatic_linkinvent_7_9_3/rearranged_h_0009.sdf

> <i_m_source_file_index>
49

> <r_mmod_Potential_Energy-OPLS-2005>
606.353271484375

> <r_mmod_Stretch_Energy-OPLS-2005>
318.877746582031

> <r_mmod_Bend_Energy-OPLS-2005>
319.100036621094

> <r_mmod_Torsional_Energy-OPLS-2005>
258.927124023438

> <r_mmod_Improper_Torsional_Energy-OPLS-2005>
4.43023681640625

> <r_mmod_Van_der_Waal_Energy-OPLS-2005>
118.60432434082

> <r_mmod_Electrostatic_Energy-OPLS-2005>
-216.019348144531

> <r_mmod_Solvation_Energy-OPLS-2005>
-446.753814697266

> <b_mmod_Minimization_Converged-OPLS-2005>
0

> <r_mmod_RMS_Derivative-OPLS-2005>
4.47777366638184

$$$$
49
                    3D
 Structure written by MMmdl.
159168  0  0  1  0            999 V2000
  -30.5855  -14.8243   20.3502 C   0  0  0  0  0  0
  -30.4432  -12.4776   19.4704 C   0  0  0  0  0  0
  -29.5055  -12.3852   18.2426 C   0  0  0  0  0  0
  -28.0281  -12.2769   18.6661 C   0  0  0  0  0  0
  -27.6326  -13.2263   19.8301 C   0  0  2  0  0  0
  -28.6888  -13.2363   20.9529 C   0  0  0  0  0  0
  -25.2515  -13.8198   20.5729 C   0  0  0  0  0  0
  -24.1794  -13.0450   20.9225 C   0  0  0  0  0  0
  -24.6376  -11.6924   20.8784 C   0  0  0  0  0  0
  -23.9057  -10.4298   21.0427 C   0  0  0  0  0  0
  -24.3612   -9.4208   21.9196 C   0  0  0  0  0  0
  -23.6290   -8.2241   22.0757 C   0  0  0  0  0  0
  -22.4274   -8.0280   21.3545 C   0  0  0  0  0  0
  -21.9910   -9.0256   20.4649 C   0  0  0  0  0  0
  -22.7236  -10.2138   20.3067 C   0  0  0  0  0  0
  -21.6853   -6.0735   22.5277 C   0  0  0  0  0  0
  -21.4014   -6.5640   23.8211 C   0  0  0  0  0  0
  -21.3658   -5.6793   24.9173 C   0  0  0  0  0  0
  -21.6043   -4.3056   24.7225 C   0  0  0  0  0  0
  -21.8818   -3.8146   23.4347 C   0  0  0  0  0  0
  -21.9192   -4.6962   22.3403 C   0  0  0  0  0  0
  -22.7816  -13.5234   21.1870 C   0  0  0  0  0  0
  -22.1661   -4.2147   21.0980 F   0  0  0  0  0  0
  -21.5628   -3.4540   25.7739 F   0  0  0  0  0  0
  -29.9678  -13.5875   20.3271 N   0  0  0  0  0  0
  -26.2919  -12.9386   20.3290 N   0  0  0  0  0  0
  -25.9307  -11.6544   20.5824 N   0  0  0  0  0  0
  -22.0460  -12.8222   22.0423 N   0  0  0  0  0  0
  -25.4247  -15.1919   20.4164 N   0  0  0  0  0  0
  -31.8193  -14.8679   20.3033 O   0  0  0  0  0  0
  -21.6640   -6.8876   21.4238 O   0  0  0  0  0  0
  -22.3502  -14.5537   20.6712 O   0  0  0  0  0  0
  -24.6326  -31.8531   23.1953 C   0  0  0  0  0  0
  -25.9144  -32.4741   23.8309 C   0  0  1  0  0  0
  -27.2218  -27.2448   20.1424 C   0  0  0  0  0  0
  -25.5932  -33.8543   24.2234 N   0  0  0  0  0  0
  -23.4301  -30.4738   21.5392 C   0  0  2  0  0  0
  -24.8776  -28.9125   20.1143 C   0  0  0  0  0  0
  -22.7507  -29.4591   22.4907 C   0  0  0  0  0  0
  -18.0292  -28.1389   22.8481 C   0  0  0  0  0  0
  -24.1490  -36.7279   23.2642 C   0  0  0  0  0  0
  -25.9762  -30.7633   21.3746 C   0  0  0  0  0  0
  -26.0500  -29.3827   20.7196 C   0  0  0  0  0  0
  -27.2266  -28.5645   20.7137 C   0  0  0  0  0  0
  -26.0248  -26.8394   19.5161 C   0  0  0  0  0  0
  -24.8710  -27.6499   19.4998 C   0  0  0  0  0  0
  -23.6494  -29.8027   20.1574 C   0  0  0  0  0  0
  -25.4119  -36.3060   24.0322 C   0  0  1  0  0  0
  -20.5896  -28.3700   23.1266 C   0  0  2  0  0  0
  -20.6780  -26.9415   22.5408 C   0  0  0  0  0  0
  -19.5756  -26.6383   21.5211 C   0  0  0  0  0  0
  -18.1936  -26.7929   22.1622 C   0  0  0  0  0  0
  -19.1546  -28.8861   23.2866 C   0  0  0  0  0  0
  -18.9468  -30.1461   23.8886 C   0  0  0  0  0  0
  -17.6468  -30.6589   24.0561 C   0  0  0  0  0  0
  -25.9060  -34.9432   23.5083 C   0  0  0  0  0  0
  -16.5358  -29.9086   23.6333 C   0  0  0  0  0  0
  -16.7278  -28.6505   23.0351 C   0  0  0  0  0  0
  -26.4504  -31.6576   25.0710 C   0  0  0  0  0  0
  -25.3720  -31.3733   26.1427 C   0  0  0  0  0  0
  -27.0356  -30.2991   24.6208 C   0  0  0  0  0  0
  -27.6049  -32.4324   25.7490 C   0  0  0  0  0  0
  -27.5576  -37.1797   24.8466 C   0  0  0  0  0  0
  -21.4213  -29.3043   22.3652 N   0  0  0  0  0  0
  -26.4291  -37.3762   23.9404 N   0  0  0  0  0  0
  -24.6989  -31.0487   22.0929 N   0  0  0  0  0  0
  -23.4199  -28.8138   23.3019 O   0  0  0  0  0  0
  -28.3306  -26.3642   20.1684 O   0  0  0  0  0  0
  -26.5639  -34.8913   22.4657 O   0  0  0  0  0  0
  -23.5474  -32.1355   23.7245 O   0  0  0  0  0  0
  -28.3681  -19.4393   19.4676 C   0  0  0  0  0  0
  -30.0510  -19.5836   21.1317 C   0  0  0  0  0  0
  -28.5882  -18.0273   19.3848 C   0  0  0  0  0  0
  -30.2930  -18.1561   21.0324 C   0  0  0  0  0  0
  -29.1036  -20.3041   20.3242 C   0  0  0  0  0  0
  -29.5899  -17.3126   20.1167 C   0  0  0  0  0  0
  -27.7549  -23.8998   19.2908 C   0  0  0  0  0  0
  -29.4162  -24.1945   21.1067 C   0  0  0  0  0  0
  -28.5412  -22.5218   19.1101 C   0  0  0  0  0  0
  -29.2802  -22.6452   21.4578 C   0  0  0  0  0  0
  -28.1708  -24.8820   20.4495 C   0  0  0  0  0  0
  -29.9032  -15.7430   18.2711 C   0  0  0  0  0  0
  -28.8735  -21.7560   20.3416 N   0  0  0  0  0  0
  -29.8774  -15.8800   19.7437 N   0  0  0  0  0  0
  -31.4730  -12.6300   19.1424 H   0  0  0  0  0  0
  -30.4388  -11.5417   20.0313 H   0  0  0  0  0  0
  -29.7739  -11.5104   17.6484 H   0  0  0  0  0  0
  -29.6355  -13.2248   17.5682 H   0  0  0  0  0  0
  -27.8698  -11.2428   18.9735 H   0  0  0  0  0  0
  -27.3746  -12.4362   17.8075 H   0  0  0  0  0  0
  -27.5993  -14.2277   19.4037 H   0  0  0  0  0  0
  -28.7485  -12.2673   21.4504 H   0  0  0  0  0  0
  -28.4271  -13.9704   21.7171 H   0  0  0  0  0  0
  -25.2754   -9.5684   22.4777 H   0  0  0  0  0  0
  -23.9999   -7.4630   22.7475 H   0  0  0  0  0  0
  -21.0843   -8.8774   19.8953 H   0  0  0  0  0  0
  -22.3691  -10.9681   19.6182 H   0  0  0  0  0  0
  -21.2008   -7.6148   23.9713 H   0  0  0  0  0  0
  -21.1481   -6.0525   25.9076 H   0  0  0  0  0  0
  -22.0598   -2.7608   23.2849 H   0  0  0  0  0  0
  -22.4080  -11.9885   22.4811 H   0  0  0  0  0  0
  -21.1076  -13.1245   22.2629 H   0  0  0  0  0  0
  -24.6664  -15.8532   20.5430 H   0  0  0  0  0  0
  -26.2921  -15.6313   20.1356 H   0  0  0  0  0  0
  -26.7210  -32.5387   23.1050 H   0  0  0  0  0  0
  -25.0064  -33.9673   25.0369 H   0  0  0  0  0  0
  -22.7274  -31.2961   21.3901 H   0  0  0  0  0  0
  -23.3750  -35.9616   23.3307 H   0  0  0  0  0  0
  -24.3576  -36.8902   22.2056 H   0  0  0  0  0  0
  -23.7251  -37.6481   23.6670 H   0  0  0  0  0  0
  -26.1147  -31.5223   20.6033 H   0  0  0  0  0  0
  -26.8534  -30.8144   22.0079 H   0  0  0  0  0  0
  -28.1279  -28.9236   21.1904 H   0  0  0  0  0  0
  -25.9642  -25.8741   19.0386 H   0  0  0  0  0  0
  -23.9734  -27.2841   19.0204 H   0  0  0  0  0  0
  -23.7762  -30.5763   19.3992 H   0  0  0  0  0  0
  -22.7673  -29.2368   19.8530 H   0  0  0  0  0  0
  -25.1304  -36.1903   25.0815 H   0  0  0  0  0  0
  -20.9986  -28.3282   24.1388 H   0  0  0  0  0  0
  -20.5679  -26.2310   23.3615 H   0  0  0  0  0  0
  -21.6648  -26.7438   22.1204 H   0  0  0  0  0  0
  -19.6920  -25.6292   21.1246 H   0  0  0  0  0  0
  -19.6697  -27.3190   20.6738 H   0  0  0  0  0  0
  -17.4205  -26.6671   21.4026 H   0  0  0  0  0  0
  -18.0337  -26.0074   22.9023 H   0  0  0  0  0  0
  -19.7946  -30.7277   24.2251 H   0  0  0  0  0  0
  -17.5025  -31.6268   24.5165 H   0  0  0  0  0  0
  -15.5358  -30.2986   23.7665 H   0  0  0  0  0  0
  -15.8677  -28.0823   22.7070 H   0  0  0  0  0  0
  -24.5903  -30.7071   25.7757 H   0  0  0  0  0  0
  -24.8901  -32.2904   26.4825 H   0  0  0  0  0  0
  -25.8032  -30.8932   27.0221 H   0  0  0  0  0  0
  -26.2945  -29.6729   24.1225 H   0  0  0  0  0  0
  -27.4025  -29.7262   25.4735 H   0  0  0  0  0  0
  -27.8825  -30.4258   23.9461 H   0  0  0  0  0  0
  -27.2650  -33.3632   26.2043 H   0  0  0  0  0  0
  -28.3875  -32.6871   25.0331 H   0  0  0  0  0  0
  -28.0700  -31.8465   26.5429 H   0  0  0  0  0  0
  -28.2597  -38.0089   24.7499 H   0  0  0  0  0  0
  -28.1066  -36.2617   24.6312 H   0  0  0  0  0  0
  -27.2290  -37.1469   25.8869 H   0  0  0  0  0  0
  -20.9404  -29.8759   21.6848 H   0  0  0  0  0  0
  -26.0166  -38.2836   24.1399 H   0  0  0  0  0  0
  -27.5952  -19.8497   18.8355 H   0  0  0  0  0  0
  -30.6601  -20.1344   21.8326 H   0  0  0  0  0  0
  -27.9767  -17.4880   18.6759 H   0  0  0  0  0  0
  -31.0785  -17.7275   21.6382 H   0  0  0  0  0  0
  -26.6973  -23.6653   19.4174 H   0  0  0  0  0  0
  -27.8116  -24.4381   18.3444 H   0  0  0  0  0  0
  -30.2754  -24.3304   20.4486 H   0  0  0  0  0  0
  -29.6682  -24.7343   22.0201 H   0  0  0  0  0  0
  -29.4870  -22.7340   18.6087 H   0  0  0  0  0  0
  -27.9832  -21.9025   18.4092 H   0  0  0  0  0  0
  -28.5489  -22.5278   22.2589 H   0  0  0  0  0  0
  -30.2310  -22.3035   21.8667 H   0  0  0  0  0  0
  -27.3819  -24.8209   21.2012 H   0  0  0  0  0  0
  -28.9432  -15.3873   17.8980 H   0  0  0  0  0  0
  -30.6870  -15.0775   17.9036 H   0  0  0  0  0  0
  -30.1182  -16.6887   17.7717 H   0  0  0  0  0  0
  1 25  1  0  0  0
  1 30  2  0  0  0
  1 84  1  0  0  0
  2  3  1  0  0  0
  2 25  1  0  0  0
  2 85  1  0  0  0
  2 86  1  0  0  0
  3  4  1  0  0  0
  3 87  1  0  0  0
  3 88  1  0  0  0
  4  5  1  0  0  0
  4 89  1  0  0  0
  4 90  1  0  0  0
  5  6  1  0  0  0
  5 26  1  0  0  0
  5 91  1  0  0  0
  6 25  1  0  0  0
  6 92  1  0  0  0
  6 93  1  0  0  0
  7  8  2  0  0  0
  7 26  1  0  0  0
  7 29  1  0  0  0
  8  9  1  0  0  0
  8 22  1  0  0  0
  9 10  1  0  0  0
  9 27  2  0  0  0
 10 11  2  0  0  0
 10 15  1  0  0  0
 11 12  1  0  0  0
 11 94  1  0  0  0
 12 13  2  0  0  0
 12 95  1  0  0  0
 13 14  1  0  0  0
 13 31  1  0  0  0
 14 15  2  0  0  0
 14 96  1  0  0  0
 15 97  1  0  0  0
 16 17  2  0  0  0
 16 21  1  0  0  0
 16 31  1  0  0  0
 17 18  1  0  0  0
 17 98  1  0  0  0
 18 19  2  0  0  0
 18 99  1  0  0  0
 19 20  1  0  0  0
 19 24  1  0  0  0
 20 21  2  0  0  0
 20100  1  0  0  0
 21 23  1  0  0  0
 22 28  1  0  0  0
 22 32  2  0  0  0
 26 27  1  0  0  0
 28101  1  0  0  0
 28102  1  0  0  0
 29103  1  0  0  0
 29104  1  0  0  0
 33 34  1  0  0  0
 33 66  1  0  0  0
 33 70  2  0  0  0
 34 36  1  0  0  0
 34 59  1  0  0  0
 34105  1  0  0  0
 35 44  2  0  0  0
 35 45  1  0  0  0
 35 68  1  0  0  0
 36 56  1  0  0  0
 36106  1  0  0  0
 37 39  1  0  0  0
 37 47  1  0  0  0
 37 66  1  0  0  0
 37107  1  0  0  0
 38 43  2  0  0  0
 38 46  1  0  0  0
 38 47  1  0  0  0
 39 64  1  0  0  0
 39 67  2  0  0  0
 40 52  1  0  0  0
 40 53  2  0  0  0
 40 58  1  0  0  0
 41108  1  0  0  0
 41109  1  0  0  0
 41110  1  0  0  0
 41 48  1  0  0  0
 42 43  1  0  0  0
 42 66  1  0  0  0
 42111  1  0  0  0
 42112  1  0  0  0
 43 44  1  0  0  0
 44113  1  0  0  0
 45 46  2  0  0  0
 45114  1  0  0  0
 46115  1  0  0  0
 47116  1  0  0  0
 47117  1  0  0  0
 48 56  1  0  0  0
 48 65  1  0  0  0
 48118  1  0  0  0
 49 50  1  0  0  0
 49 53  1  0  0  0
 49 64  1  0  0  0
 49119  1  0  0  0
 50 51  1  0  0  0
 50120  1  0  0  0
 50121  1  0  0  0
 51 52  1  0  0  0
 51122  1  0  0  0
 51123  1  0  0  0
 52124  1  0  0  0
 52125  1  0  0  0
 53 54  1  0  0  0
 54 55  2  0  0  0
 54126  1  0  0  0
 55 57  1  0  0  0
 55127  1  0  0  0
 56 69  2  0  0  0
 57 58  2  0  0  0
 57128  1  0  0  0
 58129  1  0  0  0
 59 60  1  0  0  0
 59 61  1  0  0  0
 59 62  1  0  0  0
 60130  1  0  0  0
 60131  1  0  0  0
 60132  1  0  0  0
 61133  1  0  0  0
 61134  1  0  0  0
 61135  1  0  0  0
 62136  1  0  0  0
 62137  1  0  0  0
 62138  1  0  0  0
 63 65  1  0  0  0
 63139  1  0  0  0
 63140  1  0  0  0
 63141  1  0  0  0
 64142  1  0  0  0
 65143  1  0  0  0
 68 81  1  0  0  0
 71 73  2  0  0  0
 71 75  1  0  0  0
 71144  1  0  0  0
 72 74  1  0  0  0
 72 75  2  0  0  0
 72145  1  0  0  0
 73 76  1  0  0  0
 73146  1  0  0  0
 74 76  2  0  0  0
 74147  1  0  0  0
 75 83  1  0  0  0
 76 84  1  0  0  0
 77 79  1  0  0  0
 77 81  1  0  0  0
 77148  1  0  0  0
 77149  1  0  0  0
 78 80  1  0  0  0
 78 81  1  0  0  0
 78150  1  0  0  0
 78151  1  0  0  0
 79 83  1  0  0  0
 79152  1  0  0  0
 79153  1  0  0  0
 80 83  1  0  0  0
 80154  1  0  0  0
 80155  1  0  0  0
 81156  1  0  0  0
 82 84  1  0  0  0
 82157  1  0  0  0
 82158  1  0  0  0
 82159  1  0  0  0
M  ISO  4   1 100  68 101  81 101  84 100
M  END
> <chiral flag>
0

> <version>
0

> <s_m_source_file>
/data/baiqing/PycharmProjects/Reinvent-master-3.2/result/LINK_invent/BTK/process_docking_weight1_custom_product_contain_oxygen_bond_distance_aromatic_linkinvent_7_9_3/rearranged_h_0009.sdf

> <i_m_source_file_index>
50

> <r_mmod_Potential_Energy-OPLS-2005>
482.609191894531

> <r_mmod_Stretch_Energy-OPLS-2005>
133.758743286133

> <r_mmod_Bend_Energy-OPLS-2005>
218.490509033203

> <r_mmod_Torsional_Energy-OPLS-2005>
365.763488769531

> <r_mmod_Improper_Torsional_Energy-OPLS-2005>
29.1143531799316

> <r_mmod_Van_der_Waal_Energy-OPLS-2005>
153.723739624023

> <r_mmod_Electrostatic_Energy-OPLS-2005>
-329.633941650391

> <r_mmod_Solvation_Energy-OPLS-2005>
-210.331283569336

> <b_mmod_Minimization_Converged-OPLS-2005>
0

> <r_mmod_RMS_Derivative-OPLS-2005>
0.23919565975666

$$$$
50
                    3D
 Structure written by MMmdl.
167176  0  0  1  0            999 V2000
  -30.6074  -14.6639   20.5077 C   0  0  0  0  0  0
  -30.4444  -12.4101   19.4573 C   0  0  0  0  0  0
  -29.5142  -12.5233   18.2274 C   0  0  0  0  0  0
  -28.0355  -12.3557   18.6346 C   0  0  0  0  0  0
  -27.6546  -13.2203   19.8660 C   0  0  2  0  0  0
  -28.6994  -13.0700   20.9958 C   0  0  0  0  0  0
  -25.2558  -13.8174   20.5691 C   0  0  0  0  0  0
  -24.1821  -13.0438   20.9185 C   0  0  0  0  0  0
  -24.6392  -11.6907   20.8724 C   0  0  0  0  0  0
  -23.9056  -10.4295   21.0401 C   0  0  0  0  0  0
  -24.3611   -9.4209   21.9180 C   0  0  0  0  0  0
  -23.6293   -8.2243   22.0749 C   0  0  0  0  0  0
  -22.4272   -8.0281   21.3546 C   0  0  0  0  0  0
  -21.9905   -9.0249   20.4648 C   0  0  0  0  0  0
  -22.7228  -10.2133   20.3053 C   0  0  0  0  0  0
  -21.6848   -6.0737   22.5283 C   0  0  0  0  0  0
  -21.4012   -6.5640   23.8217 C   0  0  0  0  0  0
  -21.3653   -5.6788   24.9177 C   0  0  0  0  0  0
  -21.6044   -4.3051   24.7226 C   0  0  0  0  0  0
  -21.8812   -3.8150   23.4344 C   0  0  0  0  0  0
  -21.9188   -4.6966   22.3402 C   0  0  0  0  0  0
  -22.7841  -13.5235   21.1846 C   0  0  0  0  0  0
  -22.1659   -4.2152   21.0977 F   0  0  0  0  0  0
  -21.5630   -3.4533   25.7738 F   0  0  0  0  0  0
  -30.0140  -13.4270   20.4389 N   0  0  0  0  0  0
  -26.2994  -12.9363   20.3325 N   0  0  0  0  0  0
  -25.9326  -11.6514   20.5740 N   0  0  0  0  0  0
  -22.0467  -12.8242   22.0399 N   0  0  0  0  0  0
  -25.4281  -15.1898   20.4129 N   0  0  0  0  0  0
  -31.7582  -14.8431   20.0951 O   0  0  0  0  0  0
  -21.6637   -6.8881   21.4246 O   0  0  0  0  0  0
  -22.3531  -14.5533   20.6678 O   0  0  0  0  0  0
  -24.6284  -31.8594   23.2000 C   0  0  0  0  0  0
  -25.9124  -32.4778   23.8340 C   0  0  1  0  0  0
  -27.2272  -27.3037   20.1279 C   0  0  0  0  0  0
  -25.5934  -33.8577   24.2271 N   0  0  0  0  0  0
  -23.4229  -30.4821   21.5437 C   0  0  2  0  0  0
  -24.8690  -28.9328   20.1144 C   0  0  0  0  0  0
  -22.7490  -29.4625   22.4930 C   0  0  0  0  0  0
  -18.0296  -28.1393   22.8474 C   0  0  0  0  0  0
  -24.1494  -36.7285   23.2637 C   0  0  0  0  0  0
  -25.9655  -30.7854   21.3734 C   0  0  0  0  0  0
  -26.0395  -29.4117   20.7161 C   0  0  0  0  0  0
  -27.2221  -28.6110   20.7088 C   0  0  0  0  0  0
  -26.0306  -26.8796   19.5052 C   0  0  0  0  0  0
  -24.8677  -27.6724   19.4987 C   0  0  0  0  0  0
  -23.6385  -29.8150   20.1605 C   0  0  0  0  0  0
  -25.4119  -36.3082   24.0328 C   0  0  1  0  0  0
  -20.5894  -28.3702   23.1269 C   0  0  2  0  0  0
  -20.6794  -26.9424   22.5408 C   0  0  0  0  0  0
  -19.5772  -26.6385   21.5212 C   0  0  0  0  0  0
  -18.1947  -26.7932   22.1617 C   0  0  0  0  0  0
  -19.1547  -28.8864   23.2862 C   0  0  0  0  0  0
  -18.9468  -30.1463   23.8880 C   0  0  0  0  0  0
  -17.6468  -30.6589   24.0560 C   0  0  0  0  0  0
  -25.9059  -34.9453   23.5102 C   0  0  0  0  0  0
  -16.5359  -29.9083   23.6334 C   0  0  0  0  0  0
  -16.7284  -28.6507   23.0341 C   0  0  0  0  0  0
  -26.4499  -31.6589   25.0717 C   0  0  0  0  0  0
  -25.3721  -31.3723   26.1436 C   0  0  0  0  0  0
  -27.0356  -30.3019   24.6177 C   0  0  0  0  0  0
  -27.6067  -32.4314   25.7487 C   0  0  0  0  0  0
  -27.5583  -37.1792   24.8457 C   0  0  0  0  0  0
  -21.4203  -29.3044   22.3656 N   0  0  0  0  0  0
  -26.4292  -37.3779   23.9410 N   0  0  0  0  0  0
  -24.6910  -31.0595   22.0956 N   0  0  0  0  0  0
  -23.4205  -28.8177   23.3027 O   0  0  0  0  0  0
  -28.3451  -26.4496   20.1734 O   0  0  0  0  0  0
  -26.5622  -34.8923   22.4664 O   0  0  0  0  0  0
  -23.5445  -32.1394   23.7322 O   0  0  0  0  0  0
  -30.2916  -18.1078   21.5737 C   0  0  0  0  0  0
  -30.0769  -19.5132   21.3859 C   0  0  0  0  0  0
  -29.1027  -17.6489   19.5420 C   0  0  0  0  0  0
  -28.8745  -19.0495   19.3555 C   0  0  0  0  0  0
  -29.8126  -17.1319   20.6551 C   0  0  0  0  0  0
  -29.3570  -20.0318   20.2707 C   0  0  0  0  0  0
  -28.7432  -21.7850   15.3302 C   0  0  0  0  0  0
  -29.7658  -20.6627   15.1530 C   0  0  0  0  0  0
  -27.8198  -21.2386   16.4150 C   0  0  0  0  0  0
  -29.8454  -19.9742   16.5259 C   0  0  0  0  0  0
  -28.0156  -19.4994   18.1786 C   0  0  0  0  0  0
  -29.3613  -24.0070   20.4424 C   0  0  0  0  0  0
  -28.1135  -24.9786   20.2401 C   0  0  0  0  0  0
  -29.2000  -22.4895   20.9550 C   0  0  0  0  0  0
  -29.8131  -15.6937   20.9472 N   0  0  0  0  0  0
  -28.7071  -20.4880   17.3239 N   0  3  0  0  0  0
  -29.1126  -21.4009   19.9755 O   0  0  0  0  0  0
  -31.4863  -12.5411   19.1610 H   0  0  0  0  0  0
  -30.3840  -11.4124   19.8952 H   0  0  0  0  0  0
  -29.7855  -11.7774   17.4788 H   0  0  0  0  0  0
  -29.6543  -13.4960   17.7516 H   0  0  0  0  0  0
  -27.8706  -11.3018   18.8606 H   0  0  0  0  0  0
  -27.3829  -12.5906   17.7928 H   0  0  0  0  0  0
  -27.6739  -14.2576   19.5305 H   0  0  0  0  0  0
  -28.7147  -12.0431   21.3653 H   0  0  0  0  0  0
  -28.4396  -13.6890   21.8565 H   0  0  0  0  0  0
  -25.2761   -9.5686   22.4754 H   0  0  0  0  0  0
  -24.0001   -7.4629   22.7461 H   0  0  0  0  0  0
  -21.0839   -8.8767   19.8959 H   0  0  0  0  0  0
  -22.3687  -10.9665   19.6160 H   0  0  0  0  0  0
  -21.2012   -7.6151   23.9723 H   0  0  0  0  0  0
  -21.1480   -6.0520   25.9077 H   0  0  0  0  0  0
  -22.0600   -2.7614   23.2839 H   0  0  0  0  0  0
  -22.4066  -11.9923   22.4846 H   0  0  0  0  0  0
  -21.1081  -13.1290   22.2573 H   0  0  0  0  0  0
  -24.6654  -15.8475   20.5319 H   0  0  0  0  0  0
  -26.2849  -15.6294   20.1028 H   0  0  0  0  0  0
  -26.7191  -32.5444   23.1087 H   0  0  0  0  0  0
  -25.0093  -33.9722   25.0423 H   0  0  0  0  0  0
  -22.7175  -31.3027   21.3989 H   0  0  0  0  0  0
  -23.3772  -35.9601   23.3286 H   0  0  0  0  0  0
  -24.3590  -36.8923   22.2054 H   0  0  0  0  0  0
  -23.7235  -37.6477   23.6668 H   0  0  0  0  0  0
  -26.1003  -31.5469   20.6040 H   0  0  0  0  0  0
  -26.8452  -30.8332   22.0037 H   0  0  0  0  0  0
  -28.1203  -28.9761   21.1867 H   0  0  0  0  0  0
  -25.9641  -25.9188   19.0197 H   0  0  0  0  0  0
  -23.9707  -27.2977   19.0249 H   0  0  0  0  0  0
  -23.7600  -30.5900   19.4032 H   0  0  0  0  0  0
  -22.7587  -29.2446   19.8586 H   0  0  0  0  0  0
  -25.1299  -36.1931   25.0820 H   0  0  0  0  0  0
  -20.9982  -28.3293   24.1389 H   0  0  0  0  0  0
  -20.5720  -26.2310   23.3612 H   0  0  0  0  0  0
  -21.6661  -26.7475   22.1189 H   0  0  0  0  0  0
  -19.6942  -25.6292   21.1247 H   0  0  0  0  0  0
  -19.6718  -27.3190   20.6738 H   0  0  0  0  0  0
  -17.4224  -26.6674   21.4011 H   0  0  0  0  0  0
  -18.0347  -26.0078   22.9021 H   0  0  0  0  0  0
  -19.7945  -30.7279   24.2243 H   0  0  0  0  0  0
  -17.5029  -31.6268   24.5163 H   0  0  0  0  0  0
  -15.5364  -30.2983   23.7671 H   0  0  0  0  0  0
  -15.8680  -28.0835   22.7047 H   0  0  0  0  0  0
  -24.5891  -30.7088   25.7743 H   0  0  0  0  0  0
  -24.8914  -32.2890   26.4866 H   0  0  0  0  0  0
  -25.8030  -30.8882   27.0210 H   0  0  0  0  0  0
  -26.2936  -29.6755   24.1210 H   0  0  0  0  0  0
  -27.4077  -29.7290   25.4681 H   0  0  0  0  0  0
  -27.8792  -30.4325   23.9394 H   0  0  0  0  0  0
  -27.2698  -33.3621   26.2066 H   0  0  0  0  0  0
  -28.3876  -32.6862   25.0307 H   0  0  0  0  0  0
  -28.0737  -31.8430   26.5398 H   0  0  0  0  0  0
  -28.2582  -38.0108   24.7538 H   0  0  0  0  0  0
  -28.1098  -36.2641   24.6244 H   0  0  0  0  0  0
  -27.2298  -37.1391   25.8858 H   0  0  0  0  0  0
  -20.9392  -29.8742   21.6837 H   0  0  0  0  0  0
  -26.0174  -38.2849   24.1431 H   0  0  0  0  0  0
  -30.8092  -17.7815   22.4652 H   0  0  0  0  0  0
  -30.4753  -20.1856   22.1306 H   0  0  0  0  0  0
  -28.6705  -16.9505   18.8389 H   0  0  0  0  0  0
  -28.2137  -22.0302   14.4091 H   0  0  0  0  0  0
  -29.2346  -22.6916   15.6876 H   0  0  0  0  0  0
  -30.7340  -21.0326   14.8146 H   0  0  0  0  0  0
  -29.4058  -19.9503   14.4090 H   0  0  0  0  0  0
  -27.0880  -20.5623   15.9688 H   0  0  0  0  0  0
  -27.2727  -22.0244   16.9370 H   0  0  0  0  0  0
  -30.7782  -20.2113   17.0391 H   0  0  0  0  0  0
  -29.8065  -18.8904   16.4079 H   0  0  0  0  0  0
  -27.1148  -19.9572   18.5899 H   0  0  0  0  0  0
  -27.6825  -18.6503   17.5796 H   0  0  0  0  0  0
  -29.9785  -24.4992   21.1952 H   0  0  0  0  0  0
  -29.9779  -24.0129   19.5431 H   0  0  0  0  0  0
  -27.4120  -24.7958   21.0557 H   0  0  0  0  0  0
  -27.6206  -24.6464   19.3272 H   0  0  0  0  0  0
  -28.3438  -22.4231   21.6269 H   0  0  0  0  0  0
  -30.0718  -22.2879   21.5769 H   0  0  0  0  0  0
  -28.9390  -15.3560   21.3222 H   0  0  0  0  0  0
  -29.0906  -21.1662   17.9686 H   0  0  0  0  0  0
  1 25  1  0  0  0
  1 30  2  0  0  0
  1 85  1  0  0  0
  2  3  1  0  0  0
  2 25  1  0  0  0
  2 88  1  0  0  0
  2 89  1  0  0  0
  3  4  1  0  0  0
  3 90  1  0  0  0
  3 91  1  0  0  0
  4  5  1  0  0  0
  4 92  1  0  0  0
  4 93  1  0  0  0
  5  6  1  0  0  0
  5 26  1  0  0  0
  5 94  1  0  0  0
  6 25  1  0  0  0
  6 95  1  0  0  0
  6 96  1  0  0  0
  7  8  2  0  0  0
  7 26  1  0  0  0
  7 29  1  0  0  0
  8  9  1  0  0  0
  8 22  1  0  0  0
  9 10  1  0  0  0
  9 27  2  0  0  0
 10 11  2  0  0  0
 10 15  1  0  0  0
 11 12  1  0  0  0
 11 97  1  0  0  0
 12 13  2  0  0  0
 12 98  1  0  0  0
 13 14  1  0  0  0
 13 31  1  0  0  0
 14 15  2  0  0  0
 14 99  1  0  0  0
 15100  1  0  0  0
 16 17  2  0  0  0
 16 21  1  0  0  0
 16 31  1  0  0  0
 17 18  1  0  0  0
 17101  1  0  0  0
 18 19  2  0  0  0
 18102  1  0  0  0
 19 20  1  0  0  0
 19 24  1  0  0  0
 20 21  2  0  0  0
 20103  1  0  0  0
 21 23  1  0  0  0
 22 28  1  0  0  0
 22 32  2  0  0  0
 26 27  1  0  0  0
 28104  1  0  0  0
 28105  1  0  0  0
 29106  1  0  0  0
 29107  1  0  0  0
 33 34  1  0  0  0
 33 66  1  0  0  0
 33 70  2  0  0  0
 34 36  1  0  0  0
 34 59  1  0  0  0
 34108  1  0  0  0
 35 44  2  0  0  0
 35 45  1  0  0  0
 35 68  1  0  0  0
 36 56  1  0  0  0
 36109  1  0  0  0
 37 39  1  0  0  0
 37 47  1  0  0  0
 37 66  1  0  0  0
 37110  1  0  0  0
 38 43  2  0  0  0
 38 46  1  0  0  0
 38 47  1  0  0  0
 39 64  1  0  0  0
 39 67  2  0  0  0
 40 52  1  0  0  0
 40 53  2  0  0  0
 40 58  1  0  0  0
 41111  1  0  0  0
 41112  1  0  0  0
 41113  1  0  0  0
 41 48  1  0  0  0
 42 43  1  0  0  0
 42 66  1  0  0  0
 42114  1  0  0  0
 42115  1  0  0  0
 43 44  1  0  0  0
 44116  1  0  0  0
 45 46  2  0  0  0
 45117  1  0  0  0
 46118  1  0  0  0
 47119  1  0  0  0
 47120  1  0  0  0
 48 56  1  0  0  0
 48 65  1  0  0  0
 48121  1  0  0  0
 49 50  1  0  0  0
 49 53  1  0  0  0
 49 64  1  0  0  0
 49122  1  0  0  0
 50 51  1  0  0  0
 50123  1  0  0  0
 50124  1  0  0  0
 51 52  1  0  0  0
 51125  1  0  0  0
 51126  1  0  0  0
 52127  1  0  0  0
 52128  1  0  0  0
 53 54  1  0  0  0
 54 55  2  0  0  0
 54129  1  0  0  0
 55 57  1  0  0  0
 55130  1  0  0  0
 56 69  2  0  0  0
 57 58  2  0  0  0
 57131  1  0  0  0
 58132  1  0  0  0
 59 60  1  0  0  0
 59 61  1  0  0  0
 59 62  1  0  0  0
 60133  1  0  0  0
 60134  1  0  0  0
 60135  1  0  0  0
 61136  1  0  0  0
 61137  1  0  0  0
 61138  1  0  0  0
 62139  1  0  0  0
 62140  1  0  0  0
 62141  1  0  0  0
 63 65  1  0  0  0
 63142  1  0  0  0
 63143  1  0  0  0
 63144  1  0  0  0
 64145  1  0  0  0
 65146  1  0  0  0
 68 83  1  0  0  0
 71 72  2  0  0  0
 71 75  1  0  0  0
 71147  1  0  0  0
 72 76  1  0  0  0
 72148  1  0  0  0
 73 74  1  0  0  0
 73 75  2  0  0  0
 73149  1  0  0  0
 74 76  2  0  0  0
 74 81  1  0  0  0
 75 85  1  0  0  0
 76 87  1  0  0  0
 77 78  1  0  0  0
 77 79  1  0  0  0
 77150  1  0  0  0
 77151  1  0  0  0
 78 80  1  0  0  0
 78152  1  0  0  0
 78153  1  0  0  0
 79 86  1  0  0  0
 79154  1  0  0  0
 79155  1  0  0  0
 80 86  1  0  0  0
 80156  1  0  0  0
 80157  1  0  0  0
 81158  1  0  0  0
 81159  1  0  0  0
 81 86  1  0  0  0
 82 83  1  0  0  0
 82 84  1  0  0  0
 82160  1  0  0  0
 82161  1  0  0  0
 83162  1  0  0  0
 83163  1  0  0  0
 84 87  1  0  0  0
 84164  1  0  0  0
 84165  1  0  0  0
 85166  1  0  0  0
 86167  1  0  0  0
M  CHG  1  86   1
M  ISO  4   1 100  68 101  83 101  85 100
M  END
> <chiral flag>
0

> <version>
0

> <s_m_source_file>
/data/baiqing/PycharmProjects/Reinvent-master-3.2/result/LINK_invent/BTK/process_docking_weight1_custom_product_contain_oxygen_bond_distance_aromatic_linkinvent_7_9_3/rearranged_h_0009.sdf

> <i_m_source_file_index>
51

> <r_mmod_Potential_Energy-OPLS-2005>
29.6984901428223

> <r_mmod_Stretch_Energy-OPLS-2005>
88.7328186035156

> <r_mmod_Bend_Energy-OPLS-2005>
180.882934570312

> <r_mmod_Torsional_Energy-OPLS-2005>
314.981262207031

> <r_mmod_Improper_Torsional_Energy-OPLS-2005>
5.37475299835205

> <r_mmod_Van_der_Waal_Energy-OPLS-2005>
135.09504699707

> <r_mmod_Electrostatic_Energy-OPLS-2005>
-316.360015869141

> <r_mmod_Solvation_Energy-OPLS-2005>
-434.289855957031

> <b_mmod_Minimization_Converged-OPLS-2005>
0

> <r_mmod_RMS_Derivative-OPLS-2005>
1.79357171058655

$$$$
51
                    3D
 Structure written by MMmdl.
165174  0  0  1  0            999 V2000
  -30.7127  -14.4041   20.6266 C   0  0  0  0  0  0
  -30.4221  -12.2853   19.3973 C   0  0  0  0  0  0
  -29.4892  -12.5320   18.1936 C   0  0  0  0  0  0
  -28.0084  -12.3965   18.6042 C   0  0  0  0  0  0
  -27.6662  -13.2009   19.8867 C   0  0  2  0  0  0
  -28.7061  -12.9187   20.9939 C   0  0  0  0  0  0
  -25.2592  -13.8148   20.5697 C   0  0  0  0  0  0
  -24.1820  -13.0438   20.9149 C   0  0  0  0  0  0
  -24.6377  -11.6906   20.8707 C   0  0  0  0  0  0
  -23.9060  -10.4298   21.0398 C   0  0  0  0  0  0
  -24.3623   -9.4213   21.9171 C   0  0  0  0  0  0
  -23.6292   -8.2249   22.0759 C   0  0  0  0  0  0
  -22.4262   -8.0292   21.3561 C   0  0  0  0  0  0
  -21.9900   -9.0271   20.4664 C   0  0  0  0  0  0
  -22.7240  -10.2136   20.3047 C   0  0  0  0  0  0
  -21.6842   -6.0738   22.5298 C   0  0  0  0  0  0
  -21.4028   -6.5648   23.8229 C   0  0  0  0  0  0
  -21.3652   -5.6795   24.9182 C   0  0  0  0  0  0
  -21.6032   -4.3059   24.7232 C   0  0  0  0  0  0
  -21.8819   -3.8159   23.4350 C   0  0  0  0  0  0
  -21.9197   -4.6974   22.3412 C   0  0  0  0  0  0
  -22.7845  -13.5251   21.1819 C   0  0  0  0  0  0
  -22.1659   -4.2166   21.0981 F   0  0  0  0  0  0
  -21.5612   -3.4541   25.7742 F   0  0  0  0  0  0
  -30.0438  -13.2334   20.4555 N   0  0  0  0  0  0
  -26.3035  -12.9317   20.3409 N   0  0  0  0  0  0
  -25.9295  -11.6472   20.5730 N   0  0  0  0  0  0
  -22.0497  -12.8245   22.0386 N   0  0  0  0  0  0
  -25.4340  -15.1868   20.4202 N   0  0  0  0  0  0
  -31.8013  -14.6405   20.0939 O   0  0  0  0  0  0
  -21.6633   -6.8885   21.4260 O   0  0  0  0  0  0
  -22.3531  -14.5570   20.6699 O   0  0  0  0  0  0
  -24.6146  -31.8672   23.2133 C   0  0  0  0  0  0
  -25.9036  -32.4828   23.8414 C   0  0  1  0  0  0
  -27.2460  -27.4471   20.0766 C   0  0  0  0  0  0
  -25.5884  -33.8623   24.2338 N   0  0  0  0  0  0
  -23.4013  -30.4934   21.5523 C   0  0  2  0  0  0
  -24.8475  -28.9602   20.1155 C   0  0  0  0  0  0
  -22.7401  -29.4658   22.4985 C   0  0  0  0  0  0
  -18.0264  -28.1363   22.8495 C   0  0  0  0  0  0
  -24.1465  -36.7314   23.2646 C   0  0  0  0  0  0
  -25.9313  -30.8341   21.3664 C   0  0  0  0  0  0
  -26.0070  -29.4683   20.7147 C   0  0  0  0  0  0
  -27.2010  -28.7143   20.7009 C   0  0  0  0  0  0
  -26.0599  -26.9500   19.4794 C   0  0  0  0  0  0
  -24.8685  -27.6980   19.5012 C   0  0  0  0  0  0
  -23.6109  -29.8275   20.1662 C   0  0  0  0  0  0
  -25.4087  -36.3111   24.0347 C   0  0  1  0  0  0
  -20.5863  -28.3657   23.1316 C   0  0  2  0  0  0
  -20.6745  -26.9388   22.5423 C   0  0  0  0  0  0
  -19.5731  -26.6375   21.5202 C   0  0  0  0  0  0
  -18.1910  -26.7907   22.1622 C   0  0  0  0  0  0
  -19.1518  -28.8821   23.2904 C   0  0  0  0  0  0
  -18.9450  -30.1425   23.8927 C   0  0  0  0  0  0
  -17.6459  -30.6576   24.0561 C   0  0  0  0  0  0
  -25.9021  -34.9485   23.5136 C   0  0  0  0  0  0
  -16.5345  -29.9086   23.6314 C   0  0  0  0  0  0
  -16.7258  -28.6493   23.0344 C   0  0  0  0  0  0
  -26.4475  -31.6615   25.0748 C   0  0  0  0  0  0
  -25.3768  -31.3715   26.1523 C   0  0  0  0  0  0
  -27.0310  -30.3064   24.6119 C   0  0  0  0  0  0
  -27.6047  -32.4346   25.7497 C   0  0  0  0  0  0
  -27.5563  -37.1815   24.8469 C   0  0  0  0  0  0
  -21.4124  -29.3029   22.3722 N   0  0  0  0  0  0
  -26.4271  -37.3801   23.9416 N   0  0  0  0  0  0
  -24.6672  -31.0788   22.1028 N   0  0  0  0  0  0
  -23.4184  -28.8180   23.3003 O   0  0  0  0  0  0
  -28.4428  -26.7524   20.0816 O   0  0  0  0  0  0
  -26.5583  -34.8929   22.4703 O   0  0  0  0  0  0
  -23.5335  -32.1413   23.7546 O   0  0  0  0  0  0
  -31.6254  -18.7402   21.4995 C   0  0  0  0  0  0
  -31.5235  -17.3371   21.3960 C   0  0  0  0  0  0
  -29.2244  -18.9078   21.7478 C   0  0  0  0  0  0
  -30.4802  -19.5677   21.6615 C   0  0  0  0  0  0
  -30.2592  -16.7116   21.4482 C   0  0  0  0  0  0
  -29.1176  -17.5078   21.6389 C   0  0  0  0  0  0
  -31.9854  -23.0963   22.0392 C   0  0  0  0  0  0
  -31.9477  -21.5697   21.8255 C   0  0  0  0  0  0
  -29.4500  -21.8658   21.4841 C   0  0  0  0  0  0
  -31.6636  -23.9416   20.7854 C   0  0  0  0  0  0
  -29.6047  -22.7093   20.2025 C   0  0  0  0  0  0
  -29.9904  -25.0022   19.3241 C   0  0  0  0  0  0
  -28.5633  -25.5948   19.2495 C   0  0  0  0  0  0
  -30.6021  -20.9855   21.7422 N   0  0  0  0  0  0
  -30.0526  -15.3091   21.3640 N   0  0  0  0  0  0
  -30.2149  -24.0451   20.4532 N   0  3  2  0  0  0
  -27.8994  -16.9166   21.7091 F   0  0  0  0  0  0
  -31.4674  -12.3888   19.0993 H   0  0  0  0  0  0
  -30.3197  -11.2609   19.7565 H   0  0  0  0  0  0
  -29.7183  -11.8348   17.3863 H   0  0  0  0  0  0
  -29.6710  -13.5298   17.7909 H   0  0  0  0  0  0
  -27.7934  -11.3384   18.7556 H   0  0  0  0  0  0
  -27.3685  -12.7206   17.7833 H   0  0  0  0  0  0
  -27.7263  -14.2589   19.6301 H   0  0  0  0  0  0
  -28.6710  -11.8668   21.2775 H   0  0  0  0  0  0
  -28.4640  -13.4600   21.9093 H   0  0  0  0  0  0
  -25.2777   -9.5666   22.4729 H   0  0  0  0  0  0
  -24.0027   -7.4615   22.7436 H   0  0  0  0  0  0
  -21.0841   -8.8787   19.8941 H   0  0  0  0  0  0
  -22.3729  -10.9674   19.6138 H   0  0  0  0  0  0
  -21.2042   -7.6164   23.9743 H   0  0  0  0  0  0
  -21.1452   -6.0518   25.9082 H   0  0  0  0  0  0
  -22.0600   -2.7630   23.2840 H   0  0  0  0  0  0
  -22.4131  -11.9924   22.4785 H   0  0  0  0  0  0
  -21.1111  -13.1244   22.2609 H   0  0  0  0  0  0
  -24.6825  -15.8466   20.5824 H   0  0  0  0  0  0
  -26.3232  -15.6396   20.2479 H   0  0  0  0  0  0
  -26.7124  -32.5534   23.1186 H   0  0  0  0  0  0
  -25.0015  -33.9778   25.0468 H   0  0  0  0  0  0
  -22.6896  -31.3108   21.4137 H   0  0  0  0  0  0
  -23.3712  -35.9664   23.3346 H   0  0  0  0  0  0
  -24.3546  -36.8888   22.2051 H   0  0  0  0  0  0
  -23.7241  -37.6543   23.6630 H   0  0  0  0  0  0
  -26.0440  -31.6011   20.5980 H   0  0  0  0  0  0
  -26.8198  -30.8871   21.9851 H   0  0  0  0  0  0
  -28.0972  -29.1097   21.1602 H   0  0  0  0  0  0
  -26.0234  -25.9903   18.9878 H   0  0  0  0  0  0
  -23.9756  -27.2978   19.0391 H   0  0  0  0  0  0
  -23.7238  -30.6035   19.4070 H   0  0  0  0  0  0
  -22.7341  -29.2500   19.8668 H   0  0  0  0  0  0
  -25.1264  -36.1975   25.0842 H   0  0  0  0  0  0
  -20.9961  -28.3213   24.1433 H   0  0  0  0  0  0
  -20.5598  -26.2269   23.3608 H   0  0  0  0  0  0
  -21.6621  -26.7393   22.1248 H   0  0  0  0  0  0
  -19.6883  -25.6284   21.1225 H   0  0  0  0  0  0
  -19.6658  -27.3193   20.6733 H   0  0  0  0  0  0
  -17.4168  -26.6659   21.4026 H   0  0  0  0  0  0
  -18.0315  -26.0038   22.9016 H   0  0  0  0  0  0
  -19.7928  -30.7221   24.2326 H   0  0  0  0  0  0
  -17.5018  -31.6269   24.5142 H   0  0  0  0  0  0
  -15.5351  -30.3007   23.7611 H   0  0  0  0  0  0
  -15.8654  -28.0827   22.7052 H   0  0  0  0  0  0
  -24.5904  -30.7092   25.7883 H   0  0  0  0  0  0
  -24.9007  -32.2876   26.5035 H   0  0  0  0  0  0
  -25.8161  -30.8846   27.0244 H   0  0  0  0  0  0
  -26.2854  -29.6827   24.1178 H   0  0  0  0  0  0
  -27.4091  -29.7298   25.4569 H   0  0  0  0  0  0
  -27.8681  -30.4390   23.9262 H   0  0  0  0  0  0
  -27.2647  -33.3620   26.2115 H   0  0  0  0  0  0
  -28.3822  -32.6960   25.0310 H   0  0  0  0  0  0
  -28.0757  -31.8465   26.5379 H   0  0  0  0  0  0
  -28.2617  -38.0078   24.7477 H   0  0  0  0  0  0
  -28.1012  -36.2610   24.6320 H   0  0  0  0  0  0
  -27.2284  -37.1520   25.8877 H   0  0  0  0  0  0
  -20.9262  -29.8790   21.6994 H   0  0  0  0  0  0
  -26.0154  -38.2881   24.1407 H   0  0  0  0  0  0
  -32.6192  -19.1578   21.4511 H   0  0  0  0  0  0
  -32.4275  -16.7579   21.2777 H   0  0  0  0  0  0
  -28.2994  -19.4307   21.9188 H   0  0  0  0  0  0
  -33.0116  -23.3402   22.3173 H   0  0  0  0  0  0
  -31.3882  -23.3996   22.8994 H   0  0  0  0  0  0
  -32.4642  -21.1074   22.6700 H   0  0  0  0  0  0
  -32.5253  -21.3140   20.9348 H   0  0  0  0  0  0
  -28.5271  -21.3098   21.3648 H   0  0  0  0  0  0
  -29.2686  -22.5040   22.3488 H   0  0  0  0  0  0
  -32.2173  -23.5616   19.9260 H   0  0  0  0  0  0
  -32.0435  -24.9471   20.9676 H   0  0  0  0  0  0
  -28.6024  -22.8470   19.8018 H   0  0  0  0  0  0
  -30.1491  -22.1654   19.4297 H   0  0  0  0  0  0
  -30.6956  -25.8320   19.3723 H   0  0  0  0  0  0
  -30.2132  -24.4857   18.3887 H   0  0  0  0  0  0
  -27.8131  -24.8491   19.5047 H   0  0  0  0  0  0
  -28.3743  -25.8997   18.2194 H   0  0  0  0  0  0
  -29.1454  -15.0014   21.6830 H   0  0  0  0  0  0
  -29.7602  -24.4461   21.2609 H   0  0  0  0  0  0
  1 25  1  0  0  0
  1 30  2  0  0  0
  1 85  1  0  0  0
  2  3  1  0  0  0
  2 25  1  0  0  0
  2 88  1  0  0  0
  2 89  1  0  0  0
  3  4  1  0  0  0
  3 90  1  0  0  0
  3 91  1  0  0  0
  4  5  1  0  0  0
  4 92  1  0  0  0
  4 93  1  0  0  0
  5  6  1  0  0  0
  5 26  1  0  0  0
  5 94  1  0  0  0
  6 25  1  0  0  0
  6 95  1  0  0  0
  6 96  1  0  0  0
  7  8  2  0  0  0
  7 26  1  0  0  0
  7 29  1  0  0  0
  8  9  1  0  0  0
  8 22  1  0  0  0
  9 10  1  0  0  0
  9 27  2  0  0  0
 10 11  2  0  0  0
 10 15  1  0  0  0
 11 12  1  0  0  0
 11 97  1  0  0  0
 12 13  2  0  0  0
 12 98  1  0  0  0
 13 14  1  0  0  0
 13 31  1  0  0  0
 14 15  2  0  0  0
 14 99  1  0  0  0
 15100  1  0  0  0
 16 17  2  0  0  0
 16 21  1  0  0  0
 16 31  1  0  0  0
 17 18  1  0  0  0
 17101  1  0  0  0
 18 19  2  0  0  0
 18102  1  0  0  0
 19 20  1  0  0  0
 19 24  1  0  0  0
 20 21  2  0  0  0
 20103  1  0  0  0
 21 23  1  0  0  0
 22 28  1  0  0  0
 22 32  2  0  0  0
 26 27  1  0  0  0
 28104  1  0  0  0
 28105  1  0  0  0
 29106  1  0  0  0
 29107  1  0  0  0
 33 34  1  0  0  0
 33 66  1  0  0  0
 33 70  2  0  0  0
 34 36  1  0  0  0
 34 59  1  0  0  0
 34108  1  0  0  0
 35 44  2  0  0  0
 35 45  1  0  0  0
 35 68  1  0  0  0
 36 56  1  0  0  0
 36109  1  0  0  0
 37 39  1  0  0  0
 37 47  1  0  0  0
 37 66  1  0  0  0
 37110  1  0  0  0
 38 43  2  0  0  0
 38 46  1  0  0  0
 38 47  1  0  0  0
 39 64  1  0  0  0
 39 67  2  0  0  0
 40 52  1  0  0  0
 40 53  2  0  0  0
 40 58  1  0  0  0
 41111  1  0  0  0
 41112  1  0  0  0
 41113  1  0  0  0
 41 48  1  0  0  0
 42 43  1  0  0  0
 42 66  1  0  0  0
 42114  1  0  0  0
 42115  1  0  0  0
 43 44  1  0  0  0
 44116  1  0  0  0
 45 46  2  0  0  0
 45117  1  0  0  0
 46118  1  0  0  0
 47119  1  0  0  0
 47120  1  0  0  0
 48 56  1  0  0  0
 48 65  1  0  0  0
 48121  1  0  0  0
 49 50  1  0  0  0
 49 53  1  0  0  0
 49 64  1  0  0  0
 49122  1  0  0  0
 50 51  1  0  0  0
 50123  1  0  0  0
 50124  1  0  0  0
 51 52  1  0  0  0
 51125  1  0  0  0
 51126  1  0  0  0
 52127  1  0  0  0
 52128  1  0  0  0
 53 54  1  0  0  0
 54 55  2  0  0  0
 54129  1  0  0  0
 55 57  1  0  0  0
 55130  1  0  0  0
 56 69  2  0  0  0
 57 58  2  0  0  0
 57131  1  0  0  0
 58132  1  0  0  0
 59 60  1  0  0  0
 59 61  1  0  0  0
 59 62  1  0  0  0
 60133  1  0  0  0
 60134  1  0  0  0
 60135  1  0  0  0
 61136  1  0  0  0
 61137  1  0  0  0
 61138  1  0  0  0
 62139  1  0  0  0
 62140  1  0  0  0
 62141  1  0  0  0
 63 65  1  0  0  0
 63142  1  0  0  0
 63143  1  0  0  0
 63144  1  0  0  0
 64145  1  0  0  0
 65146  1  0  0  0
 68 83  1  0  0  0
 71 72  2  0  0  0
 71 74  1  0  0  0
 71147  1  0  0  0
 72 75  1  0  0  0
 72148  1  0  0  0
 73 74  2  0  0  0
 73 76  1  0  0  0
 73149  1  0  0  0
 74 84  1  0  0  0
 75 76  2  0  0  0
 75 85  1  0  0  0
 76 87  1  0  0  0
 77 78  1  0  0  0
 77 80  1  0  0  0
 77150  1  0  0  0
 77151  1  0  0  0
 78 84  1  0  0  0
 78152  1  0  0  0
 78153  1  0  0  0
 79 81  1  0  0  0
 79 84  1  0  0  0
 79154  1  0  0  0
 79155  1  0  0  0
 80 86  1  0  0  0
 80156  1  0  0  0
 80157  1  0  0  0
 81 86  1  0  0  0
 81158  1  0  0  0
 81159  1  0  0  0
 82 83  1  0  0  0
 82160  1  0  0  0
 82161  1  0  0  0
 82 86  1  0  0  0
 83162  1  0  0  0
 83163  1  0  0  0
 85164  1  0  0  0
 86165  1  0  0  0
M  CHG  1  86   1
M  ISO  4   1 100  68 101  83 101  85 100
M  END
> <chiral flag>
0

> <version>
0

> <s_m_source_file>
/data/baiqing/PycharmProjects/Reinvent-master-3.2/result/LINK_invent/BTK/process_docking_weight1_custom_product_contain_oxygen_bond_distance_aromatic_linkinvent_7_9_3/rearranged_h_0009.sdf

> <i_m_source_file_index>
52

> <r_mmod_Potential_Energy-OPLS-2005>
-106.769104003906

> <r_mmod_Stretch_Energy-OPLS-2005>
40.7608833312988

> <r_mmod_Bend_Energy-OPLS-2005>
125.151634216309

> <r_mmod_Torsional_Energy-OPLS-2005>
261.125823974609

> <r_mmod_Improper_Torsional_Energy-OPLS-2005>
3.60960721969604

> <r_mmod_Van_der_Waal_Energy-OPLS-2005>
180.60481262207

> <r_mmod_Electrostatic_Energy-OPLS-2005>
-303.611938476562

> <r_mmod_Solvation_Energy-OPLS-2005>
-423.215362548828

> <b_mmod_Minimization_Converged-OPLS-2005>
0

> <r_mmod_RMS_Derivative-OPLS-2005>
2.92417168617249

$$$$
52
                    3D
 Structure written by MMmdl.
168178  0  0  1  0            999 V2000
  -30.6888  -14.4122   20.7636 C   0  0  0  0  0  0
  -30.4419  -12.3444   19.3867 C   0  0  0  0  0  0
  -29.4790  -12.5007   18.1859 C   0  0  0  0  0  0
  -27.9996  -12.3396   18.5955 C   0  0  0  0  0  0
  -27.6598  -13.1502   19.8674 C   0  0  2  0  0  0
  -28.6996  -12.8703   20.9779 C   0  0  0  0  0  0
  -25.2650  -13.7978   20.5574 C   0  0  0  0  0  0
  -24.1867  -13.0398   20.9206 C   0  0  0  0  0  0
  -24.6282  -11.6818   20.8683 C   0  0  0  0  0  0
  -23.8947  -10.4261   21.0338 C   0  0  0  0  0  0
  -24.3543   -9.4190   21.9140 C   0  0  0  0  0  0
  -23.6304   -8.2183   22.0669 C   0  0  0  0  0  0
  -22.4301   -8.0220   21.3468 C   0  0  0  0  0  0
  -21.9872   -9.0170   20.4606 C   0  0  0  0  0  0
  -22.7105  -10.2102   20.3016 C   0  0  0  0  0  0
  -21.6845   -6.0713   22.5220 C   0  0  0  0  0  0
  -21.3999   -6.5583   23.8160 C   0  0  0  0  0  0
  -21.3657   -5.6719   24.9115 C   0  0  0  0  0  0
  -21.6093   -4.2993   24.7140 C   0  0  0  0  0  0
  -21.8868   -3.8108   23.4250 C   0  0  0  0  0  0
  -21.9182   -4.6936   22.3324 C   0  0  0  0  0  0
  -22.7906  -13.5257   21.1908 C   0  0  0  0  0  0
  -22.1617   -4.2110   21.0895 F   0  0  0  0  0  0
  -21.5697   -3.4515   25.7691 F   0  0  0  0  0  0
  -30.0231  -13.2603   20.4622 N   0  0  0  0  0  0
  -26.2990  -12.9038   20.3302 N   0  0  0  0  0  0
  -25.9149  -11.6259   20.5661 N   0  0  0  0  0  0
  -22.0486  -12.8304   22.0485 N   0  0  0  0  0  0
  -25.4525  -15.1661   20.3703 N   0  0  0  0  0  0
  -31.7748  -14.6997   20.2350 O   0  0  0  0  0  0
  -21.6589   -6.8880   21.4203 O   0  0  0  0  0  0
  -22.3672  -14.5553   20.6666 O   0  0  0  0  0  0
  -24.6126  -31.8701   23.2141 C   0  0  0  0  0  0
  -25.9032  -32.4813   23.8420 C   0  0  1  0  0  0
  -27.2318  -27.4500   20.1222 C   0  0  0  0  0  0
  -25.5879  -33.8628   24.2357 N   0  0  0  0  0  0
  -23.4018  -30.4917   21.5510 C   0  0  2  0  0  0
  -24.8504  -28.9681   20.1060 C   0  0  0  0  0  0
  -22.7407  -29.4683   22.5010 C   0  0  0  0  0  0
  -18.0253  -28.1437   22.8528 C   0  0  0  0  0  0
  -24.1467  -36.7285   23.2638 C   0  0  0  0  0  0
  -25.9286  -30.8441   21.3668 C   0  0  0  0  0  0
  -26.0062  -29.4826   20.7096 C   0  0  0  0  0  0
  -27.1994  -28.7293   20.7190 C   0  0  0  0  0  0
  -26.0751  -26.9639   19.4748 C   0  0  0  0  0  0
  -24.8809  -27.7099   19.4812 C   0  0  0  0  0  0
  -23.6069  -29.8267   20.1622 C   0  0  0  0  0  0
  -25.4091  -36.3106   24.0345 C   0  0  1  0  0  0
  -20.5841  -28.3720   23.1364 C   0  0  2  0  0  0
  -20.6769  -26.9453   22.5469 C   0  0  0  0  0  0
  -19.5727  -26.6439   21.5287 C   0  0  0  0  0  0
  -18.1895  -26.7989   22.1672 C   0  0  0  0  0  0
  -19.1503  -28.8894   23.2938 C   0  0  0  0  0  0
  -18.9426  -30.1493   23.8953 C   0  0  0  0  0  0
  -17.6430  -30.6646   24.0585 C   0  0  0  0  0  0
  -25.9028  -34.9471   23.5152 C   0  0  0  0  0  0
  -16.5319  -29.9156   23.6336 C   0  0  0  0  0  0
  -16.7239  -28.6562   23.0383 C   0  0  0  0  0  0
  -26.4482  -31.6599   25.0740 C   0  0  0  0  0  0
  -25.3743  -31.3689   26.1465 C   0  0  0  0  0  0
  -27.0330  -30.3031   24.6155 C   0  0  0  0  0  0
  -27.6067  -32.4329   25.7460 C   0  0  0  0  0  0
  -27.5576  -37.1789   24.8468 C   0  0  0  0  0  0
  -21.4134  -29.3040   22.3736 N   0  0  0  0  0  0
  -26.4286  -37.3793   23.9425 N   0  0  0  0  0  0
  -24.6646  -31.0827   22.1017 N   0  0  0  0  0  0
  -23.4182  -28.8259   23.3064 O   0  0  0  0  0  0
  -28.3475  -26.6546   20.2257 O   0  0  0  0  0  0
  -26.5610  -34.8942   22.4725 O   0  0  0  0  0  0
  -23.5318  -32.1459   23.7550 O   0  0  0  0  0  0
  -28.2819  -19.6781   23.5621 C   0  0  0  0  0  0
  -28.0774  -21.0705   23.5455 C   0  0  0  0  0  0
  -30.6226  -20.0195   23.0117 C   0  0  0  0  0  0
  -29.5407  -19.1372   23.2391 C   0  0  0  0  0  0
  -29.1064  -21.9591   23.1489 C   0  0  0  0  0  0
  -30.4103  -21.4190   22.9529 C   0  0  0  0  0  0
  -27.4673  -24.5339   21.1415 C   0  0  0  0  0  0
  -29.7205  -25.3709   21.8452 C   0  0  0  0  0  0
  -27.4223  -23.6070   22.3674 C   0  0  0  0  0  0
  -29.6672  -24.4548   23.0963 C   0  0  0  0  0  0
  -29.2243  -17.4855   21.6148 C   0  0  0  0  0  0
  -30.7520  -16.9688   23.4842 C   0  0  0  0  0  0
  -28.9228  -15.9996   21.4400 C   0  0  0  0  0  0
  -30.7070  -15.4585   23.0591 C   0  0  0  0  0  0
  -28.3064  -25.8055   21.3957 C   0  0  0  0  0  0
  -29.6141  -17.7518   22.9930 N   0  0  0  0  0  0
  -28.7688  -23.3114   22.8734 N   0  0  0  0  0  0
  -30.1173  -15.1902   21.7263 N   0  0  0  0  0  0
  -31.4586  -22.2093   22.6062 F   0  0  0  0  0  0
  -31.4651  -12.5352   19.0537 H   0  0  0  0  0  0
  -30.4443  -11.3211   19.7695 H   0  0  0  0  0  0
  -29.7397  -11.7746   17.4129 H   0  0  0  0  0  0
  -29.6219  -13.4871   17.7435 H   0  0  0  0  0  0
  -27.7966  -11.2806   18.7634 H   0  0  0  0  0  0
  -27.3437  -12.6479   17.7766 H   0  0  0  0  0  0
  -27.7122  -14.1852   19.5506 H   0  0  0  0  0  0
  -28.6963  -11.8024   21.2044 H   0  0  0  0  0  0
  -28.4326  -13.3448   21.9214 H   0  0  0  0  0  0
  -25.2655   -9.5667   22.4783 H   0  0  0  0  0  0
  -24.0018   -7.4489   22.7258 H   0  0  0  0  0  0
  -21.0884   -8.8537   19.8842 H   0  0  0  0  0  0
  -22.3479  -10.9602   19.6110 H   0  0  0  0  0  0
  -21.1965   -7.6077   23.9701 H   0  0  0  0  0  0
  -21.1489   -6.0383   25.9037 H   0  0  0  0  0  0
  -22.0706   -2.7596   23.2640 H   0  0  0  0  0  0
  -22.4038  -11.9904   22.4800 H   0  0  0  0  0  0
  -21.1080  -13.1295   22.2626 H   0  0  0  0  0  0
  -24.7036  -15.8420   20.4729 H   0  0  0  0  0  0
  -26.2616  -15.5304   19.8804 H   0  0  0  0  0  0
  -26.7123  -32.5540   23.1214 H   0  0  0  0  0  0
  -24.9952  -33.9776   25.0448 H   0  0  0  0  0  0
  -22.6912  -31.3086   21.4150 H   0  0  0  0  0  0
  -23.3746  -35.9596   23.3304 H   0  0  0  0  0  0
  -24.3570  -36.8891   22.2048 H   0  0  0  0  0  0
  -23.7213  -37.6489   23.6661 H   0  0  0  0  0  0
  -26.0455  -31.6161   20.6056 H   0  0  0  0  0  0
  -26.8135  -30.8894   21.9891 H   0  0  0  0  0  0
  -28.0821  -29.1085   21.2128 H   0  0  0  0  0  0
  -26.0853  -25.9910   19.0074 H   0  0  0  0  0  0
  -23.9914  -27.3078   19.0159 H   0  0  0  0  0  0
  -23.7113  -30.6049   19.4036 H   0  0  0  0  0  0
  -22.7367  -29.2341   19.8715 H   0  0  0  0  0  0
  -25.1293  -36.1953   25.0844 H   0  0  0  0  0  0
  -20.9935  -28.3292   24.1489 H   0  0  0  0  0  0
  -20.5742  -26.2323   23.3645 H   0  0  0  0  0  0
  -21.6628  -26.7561   22.1187 H   0  0  0  0  0  0
  -19.6873  -25.6366   21.1273 H   0  0  0  0  0  0
  -19.6674  -27.3289   20.6840 H   0  0  0  0  0  0
  -17.4187  -26.6798   21.4038 H   0  0  0  0  0  0
  -18.0220  -26.0143   22.9058 H   0  0  0  0  0  0
  -19.7890  -30.7301   24.2380 H   0  0  0  0  0  0
  -17.4978  -31.6315   24.5189 H   0  0  0  0  0  0
  -15.5329  -30.3077   23.7653 H   0  0  0  0  0  0
  -15.8628  -28.0888   22.7136 H   0  0  0  0  0  0
  -24.5903  -30.7084   25.7759 H   0  0  0  0  0  0
  -24.8951  -32.2832   26.4956 H   0  0  0  0  0  0
  -25.8052  -30.8786   27.0193 H   0  0  0  0  0  0
  -26.2898  -29.6737   24.1240 H   0  0  0  0  0  0
  -27.4105  -29.7331   25.4659 H   0  0  0  0  0  0
  -27.8727  -30.4329   23.9323 H   0  0  0  0  0  0
  -27.2699  -33.3612   26.2078 H   0  0  0  0  0  0
  -28.3797  -32.6915   25.0220 H   0  0  0  0  0  0
  -28.0819  -31.8437   26.5309 H   0  0  0  0  0  0
  -28.2596  -38.0091   24.7548 H   0  0  0  0  0  0
  -28.1085  -36.2634   24.6259 H   0  0  0  0  0  0
  -27.2304  -37.1355   25.8876 H   0  0  0  0  0  0
  -20.9319  -29.8618   21.6801 H   0  0  0  0  0  0
  -26.0155  -38.2853   24.1504 H   0  0  0  0  0  0
  -27.4383  -19.0262   23.7574 H   0  0  0  0  0  0
  -27.0873  -21.4383   23.7789 H   0  0  0  0  0  0
  -31.6065  -19.6412   22.7794 H   0  0  0  0  0  0
  -26.4387  -24.7801   20.8841 H   0  0  0  0  0  0
  -27.8779  -23.9984   20.2850 H   0  0  0  0  0  0
  -30.2119  -24.8362   21.0281 H   0  0  0  0  0  0
  -30.3301  -26.2506   22.0574 H   0  0  0  0  0  0
  -26.8989  -22.7039   22.0459 H   0  0  0  0  0  0
  -26.8251  -24.0519   23.1662 H   0  0  0  0  0  0
  -29.2917  -25.0322   23.9458 H   0  0  0  0  0  0
  -30.6689  -24.1462   23.3938 H   0  0  0  0  0  0
  -28.3282  -18.0565   21.3546 H   0  0  0  0  0  0
  -30.0182  -17.7977   20.9258 H   0  0  0  0  0  0
  -31.6823  -17.4226   23.1490 H   0  0  0  0  0  0
  -30.7566  -17.0368   24.5789 H   0  0  0  0  0  0
  -28.5942  -15.8666   20.4151 H   0  0  0  0  0  0
  -28.0999  -15.6923   22.0878 H   0  0  0  0  0  0
  -30.0812  -14.9038   23.7672 H   0  0  0  0  0  0
  -31.7040  -15.0214   23.1459 H   0  0  0  0  0  0
  -27.8600  -26.3597   22.2268 H   0  0  0  0  0  0
  1 25  1  0  0  0
  1 30  2  0  0  0
  1 88  1  0  0  0
  2  3  1  0  0  0
  2 25  1  0  0  0
  2 90  1  0  0  0
  2 91  1  0  0  0
  3  4  1  0  0  0
  3 92  1  0  0  0
  3 93  1  0  0  0
  4  5  1  0  0  0
  4 94  1  0  0  0
  4 95  1  0  0  0
  5  6  1  0  0  0
  5 26  1  0  0  0
  5 96  1  0  0  0
  6 25  1  0  0  0
  6 97  1  0  0  0
  6 98  1  0  0  0
  7  8  2  0  0  0
  7 26  1  0  0  0
  7 29  1  0  0  0
  8  9  1  0  0  0
  8 22  1  0  0  0
  9 10  1  0  0  0
  9 27  2  0  0  0
 10 11  2  0  0  0
 10 15  1  0  0  0
 11 12  1  0  0  0
 11 99  1  0  0  0
 12 13  2  0  0  0
 12100  1  0  0  0
 13 14  1  0  0  0
 13 31  1  0  0  0
 14 15  2  0  0  0
 14101  1  0  0  0
 15102  1  0  0  0
 16 17  2  0  0  0
 16 21  1  0  0  0
 16 31  1  0  0  0
 17 18  1  0  0  0
 17103  1  0  0  0
 18 19  2  0  0  0
 18104  1  0  0  0
 19 20  1  0  0  0
 19 24  1  0  0  0
 20 21  2  0  0  0
 20105  1  0  0  0
 21 23  1  0  0  0
 22 28  1  0  0  0
 22 32  2  0  0  0
 26 27  1  0  0  0
 28106  1  0  0  0
 28107  1  0  0  0
 29108  1  0  0  0
 29109  1  0  0  0
 33 34  1  0  0  0
 33 66  1  0  0  0
 33 70  2  0  0  0
 34 36  1  0  0  0
 34 59  1  0  0  0
 34110  1  0  0  0
 35 44  2  0  0  0
 35 45  1  0  0  0
 35 68  1  0  0  0
 36 56  1  0  0  0
 36111  1  0  0  0
 37 39  1  0  0  0
 37 47  1  0  0  0
 37 66  1  0  0  0
 37112  1  0  0  0
 38 43  2  0  0  0
 38 46  1  0  0  0
 38 47  1  0  0  0
 39 64  1  0  0  0
 39 67  2  0  0  0
 40 52  1  0  0  0
 40 53  2  0  0  0
 40 58  1  0  0  0
 41113  1  0  0  0
 41114  1  0  0  0
 41115  1  0  0  0
 41 48  1  0  0  0
 42 43  1  0  0  0
 42 66  1  0  0  0
 42116  1  0  0  0
 42117  1  0  0  0
 43 44  1  0  0  0
 44118  1  0  0  0
 45 46  2  0  0  0
 45119  1  0  0  0
 46120  1  0  0  0
 47121  1  0  0  0
 47122  1  0  0  0
 48 56  1  0  0  0
 48 65  1  0  0  0
 48123  1  0  0  0
 49 50  1  0  0  0
 49 53  1  0  0  0
 49 64  1  0  0  0
 49124  1  0  0  0
 50 51  1  0  0  0
 50125  1  0  0  0
 50126  1  0  0  0
 51 52  1  0  0  0
 51127  1  0  0  0
 51128  1  0  0  0
 52129  1  0  0  0
 52130  1  0  0  0
 53 54  1  0  0  0
 54 55  2  0  0  0
 54131  1  0  0  0
 55 57  1  0  0  0
 55132  1  0  0  0
 56 69  2  0  0  0
 57 58  2  0  0  0
 57133  1  0  0  0
 58134  1  0  0  0
 59 60  1  0  0  0
 59 61  1  0  0  0
 59 62  1  0  0  0
 60135  1  0  0  0
 60136  1  0  0  0
 60137  1  0  0  0
 61138  1  0  0  0
 61139  1  0  0  0
 61140  1  0  0  0
 62141  1  0  0  0
 62142  1  0  0  0
 62143  1  0  0  0
 63 65  1  0  0  0
 63144  1  0  0  0
 63145  1  0  0  0
 63146  1  0  0  0
 64147  1  0  0  0
 65148  1  0  0  0
 68 85  1  0  0  0
 71 72  2  0  0  0
 71 74  1  0  0  0
 71149  1  0  0  0
 72 75  1  0  0  0
 72150  1  0  0  0
 73 74  2  0  0  0
 73 76  1  0  0  0
 73151  1  0  0  0
 74 86  1  0  0  0
 75 76  2  0  0  0
 75 87  1  0  0  0
 76 89  1  0  0  0
 77 79  1  0  0  0
 77 85  1  0  0  0
 77152  1  0  0  0
 77153  1  0  0  0
 78 80  1  0  0  0
 78 85  1  0  0  0
 78154  1  0  0  0
 78155  1  0  0  0
 79 87  1  0  0  0
 79156  1  0  0  0
 79157  1  0  0  0
 80 87  1  0  0  0
 80158  1  0  0  0
 80159  1  0  0  0
 81 83  1  0  0  0
 81 86  1  0  0  0
 81160  1  0  0  0
 81161  1  0  0  0
 82 84  1  0  0  0
 82 86  1  0  0  0
 82162  1  0  0  0
 82163  1  0  0  0
 83 88  1  0  0  0
 83164  1  0  0  0
 83165  1  0  0  0
 84 88  1  0  0  0
 84166  1  0  0  0
 84167  1  0  0  0
 85168  1  0  0  0
M  ISO  4   1 100  68 101  85 101  88 100
M  END
> <chiral flag>
0

> <version>
0

> <s_m_source_file>
/data/baiqing/PycharmProjects/Reinvent-master-3.2/result/LINK_invent/BTK/process_docking_weight1_custom_product_contain_oxygen_bond_distance_aromatic_linkinvent_7_9_3/rearranged_h_0009.sdf

> <i_m_source_file_index>
53

> <r_mmod_Potential_Energy-OPLS-2005>
247.034927368164

> <r_mmod_Stretch_Energy-OPLS-2005>
45.6667823791504

> <r_mmod_Bend_Energy-OPLS-2005>
121.215705871582

> <r_mmod_Torsional_Energy-OPLS-2005>
435.826965332031

> <r_mmod_Improper_Torsional_Energy-OPLS-2005>
8.12949371337891

> <r_mmod_Van_der_Waal_Energy-OPLS-2005>
171.675704956055

> <r_mmod_Electrostatic_Energy-OPLS-2005>
-336.218719482422

> <r_mmod_Solvation_Energy-OPLS-2005>
-220.023742675781

> <b_mmod_Minimization_Converged-OPLS-2005>
0

> <r_mmod_RMS_Derivative-OPLS-2005>
7.14264631271362

$$$$
53
                    3D
 Structure written by MMmdl.
156165  0  0  1  0            999 V2000
  -30.4623  -15.2350   20.3443 C   0  0  0  0  0  0
  -30.4304  -12.7799   19.5441 C   0  0  0  0  0  0
  -29.5359  -12.5681   18.2970 C   0  0  0  0  0  0
  -28.0824  -12.3014   18.7201 C   0  0  0  0  0  0
  -27.6115  -13.2788   19.8264 C   0  0  2  0  0  0
  -28.6400  -13.4532   20.9661 C   0  0  0  0  0  0
  -25.2377  -13.8266   20.5766 C   0  0  0  0  0  0
  -24.1733  -13.0445   20.9271 C   0  0  0  0  0  0
  -24.6391  -11.6943   20.8772 C   0  0  0  0  0  0
  -23.9096  -10.4294   21.0405 C   0  0  0  0  0  0
  -24.3643   -9.4205   21.9181 C   0  0  0  0  0  0
  -23.6312   -8.2244   22.0751 C   0  0  0  0  0  0
  -22.4291   -8.0288   21.3548 C   0  0  0  0  0  0
  -21.9930   -9.0264   20.4649 C   0  0  0  0  0  0
  -22.7268  -10.2136   20.3055 C   0  0  0  0  0  0
  -21.6854   -6.0745   22.5280 C   0  0  0  0  0  0
  -21.4022   -6.5649   23.8217 C   0  0  0  0  0  0
  -21.3662   -5.6800   24.9177 C   0  0  0  0  0  0
  -21.6038   -4.3063   24.7223 C   0  0  0  0  0  0
  -21.8815   -3.8156   23.4343 C   0  0  0  0  0  0
  -21.9186   -4.6972   22.3400 C   0  0  0  0  0  0
  -22.7745  -13.5193   21.1906 C   0  0  0  0  0  0
  -22.1654   -4.2160   21.0976 F   0  0  0  0  0  0
  -21.5622   -3.4546   25.7736 F   0  0  0  0  0  0
  -29.8828  -13.9368   20.3473 N   0  0  0  0  0  0
  -26.2807  -12.9548   20.3234 N   0  0  0  0  0  0
  -25.9334  -11.6651   20.5744 N   0  0  0  0  0  0
  -22.0399  -12.8186   22.0468 N   0  0  0  0  0  0
  -25.4009  -15.2004   20.4220 N   0  0  0  0  0  0
  -31.6778  -15.2055   20.1005 O   0  0  0  0  0  0
  -21.6646   -6.8893   21.4247 O   0  0  0  0  0  0
  -22.3422  -14.5490   20.6742 O   0  0  0  0  0  0
  -24.6600  -31.8251   23.1695 C   0  0  0  0  0  0
  -25.9289  -32.4594   23.8165 C   0  0  1  0  0  0
  -27.2216  -26.9496   20.1844 C   0  0  0  0  0  0
  -25.5965  -33.8409   24.2076 N   0  0  0  0  0  0
  -23.4740  -30.4344   21.5176 C   0  0  2  0  0  0
  -24.9273  -28.8205   20.1062 C   0  0  0  0  0  0
  -22.7657  -29.4440   22.4778 C   0  0  0  0  0  0
  -18.0321  -28.1408   22.8467 C   0  0  0  0  0  0
  -24.1491  -36.7218   23.2649 C   0  0  0  0  0  0
  -26.0386  -30.6373   21.3955 C   0  0  0  0  0  0
  -26.1057  -29.2285   20.7411 C   0  0  0  0  0  0
  -27.2445  -28.3116   20.7571 C   0  0  0  0  0  0
  -26.0183  -26.6821   19.4975 C   0  0  0  0  0  0
  -24.9074  -27.5684   19.4648 C   0  0  0  0  0  0
  -23.7121  -29.7472   20.1429 C   0  0  0  0  0  0
  -25.4129  -36.2975   24.0302 C   0  0  1  0  0  0
  -20.5946  -28.3748   23.1195 C   0  0  2  0  0  0
  -20.6796  -26.9431   22.5408 C   0  0  0  0  0  0
  -19.5771  -26.6373   21.5218 C   0  0  0  0  0  0
  -18.1953  -26.7941   22.1623 C   0  0  0  0  0  0
  -19.1584  -28.8897   23.2818 C   0  0  0  0  0  0
  -18.9495  -30.1488   23.8855 C   0  0  0  0  0  0
  -17.6490  -30.6595   24.0559 C   0  0  0  0  0  0
  -25.9092  -34.9359   23.5013 C   0  0  0  0  0  0
  -16.5378  -29.9087   23.6344 C   0  0  0  0  0  0
  -16.7305  -28.6509   23.0357 C   0  0  0  0  0  0
  -26.4545  -31.6536   25.0692 C   0  0  0  0  0  0
  -25.3678  -31.3787   26.1354 C   0  0  0  0  0  0
  -27.0441  -30.2910   24.6407 C   0  0  0  0  0  0
  -27.6037  -32.4345   25.7494 C   0  0  0  0  0  0
  -27.5570  -37.1765   24.8464 C   0  0  0  0  0  0
  -21.4327  -29.3040   22.3540 N   0  0  0  0  0  0
  -26.4277  -37.3708   23.9410 N   0  0  0  0  0  0
  -24.7452  -30.9929   22.0818 N   0  0  0  0  0  0
  -23.4214  -28.8023   23.3024 O   0  0  0  0  0  0
  -28.2516  -25.8892   20.3183 O   0  0  0  0  0  0
  -26.5707  -34.8893   22.4614 O   0  0  0  0  0  0
  -23.5676  -32.1209   23.6805 O   0  0  0  0  0  0
  -29.4839  -19.1594   16.8715 C   0  0  0  0  0  0
  -29.9896  -17.8787   16.9565 C   0  0  0  0  0  0
  -29.1544  -19.8426   18.0401 C   0  0  0  0  0  0
  -30.0680  -17.2617   18.2019 C   0  0  0  0  0  0
  -29.2972  -19.3797   19.3881 C   0  0  0  0  0  0
  -29.7059  -17.8297   19.4655 C   0  0  0  0  0  0
  -29.6636  -23.4561   20.3159 C   0  0  0  0  0  0
  -27.4545  -23.0326   20.5685 C   0  0  0  0  0  0
  -29.9603  -21.8670   19.9039 C   0  0  0  0  0  0
  -27.6979  -21.4369   20.0907 C   0  0  0  0  0  0
  -28.3084  -24.2798   19.9641 C   0  0  0  0  0  0
  -29.0347  -20.6699   20.2168 N   0  0  0  0  0  0
  -29.7529  -16.5433   20.4241 N   0  0  0  0  0  0
  -31.4575  -12.9548   19.2211 H   0  0  0  0  0  0
  -30.4725  -11.8742   20.1513 H   0  0  0  0  0  0
  -29.9108  -11.7381   17.6974 H   0  0  0  0  0  0
  -29.5793  -13.4531   17.6607 H   0  0  0  0  0  0
  -28.0344  -11.2785   19.0957 H   0  0  0  0  0  0
  -27.4152  -12.3421   17.8578 H   0  0  0  0  0  0
  -27.5312  -14.2460   19.3283 H   0  0  0  0  0  0
  -28.7932  -12.5237   21.5165 H   0  0  0  0  0  0
  -28.2831  -14.1896   21.6877 H   0  0  0  0  0  0
  -25.2779   -9.5687   22.4766 H   0  0  0  0  0  0
  -24.0015   -7.4635   22.7475 H   0  0  0  0  0  0
  -21.0852   -8.8794   19.8959 H   0  0  0  0  0  0
  -22.3719  -10.9685   19.6174 H   0  0  0  0  0  0
  -21.2026   -7.6157   23.9734 H   0  0  0  0  0  0
  -21.1490   -6.0523   25.9084 H   0  0  0  0  0  0
  -22.0588   -2.7618   23.2839 H   0  0  0  0  0  0
  -22.4041  -11.9878   22.4888 H   0  0  0  0  0  0
  -21.1000  -13.1191   22.2653 H   0  0  0  0  0  0
  -24.6336  -15.8506   20.5524 H   0  0  0  0  0  0
  -26.2428  -15.6460   20.0815 H   0  0  0  0  0  0
  -26.7363  -32.5138   23.0884 H   0  0  0  0  0  0
  -25.0052  -33.9482   25.0186 H   0  0  0  0  0  0
  -22.7863  -31.2651   21.3473 H   0  0  0  0  0  0
  -23.3762  -35.9539   23.3280 H   0  0  0  0  0  0
  -24.3568  -36.8897   22.2071 H   0  0  0  0  0  0
  -23.7242  -37.6396   23.6723 H   0  0  0  0  0  0
  -26.2149  -31.3785   20.6146 H   0  0  0  0  0  0
  -26.9005  -30.6954   22.0481 H   0  0  0  0  0  0
  -28.1347  -28.6170   21.2891 H   0  0  0  0  0  0
  -25.9062  -25.7192   19.0198 H   0  0  0  0  0  0
  -24.0091  -27.2494   18.9542 H   0  0  0  0  0  0
  -23.8681  -30.5161   19.3853 H   0  0  0  0  0  0
  -22.8213  -29.2030   19.8253 H   0  0  0  0  0  0
  -25.1328  -36.1776   25.0793 H   0  0  0  0  0  0
  -21.0034  -28.3356   24.1317 H   0  0  0  0  0  0
  -20.5678  -26.2366   23.3646 H   0  0  0  0  0  0
  -21.6661  -26.7406   22.1218 H   0  0  0  0  0  0
  -19.6930  -25.6273   21.1279 H   0  0  0  0  0  0
  -19.6713  -27.3157   20.6728 H   0  0  0  0  0  0
  -17.4225  -26.6688   21.4024 H   0  0  0  0  0  0
  -18.0344  -26.0094   22.9030 H   0  0  0  0  0  0
  -19.7970  -30.7318   24.2201 H   0  0  0  0  0  0
  -17.5040  -31.6268   24.5178 H   0  0  0  0  0  0
  -15.5377  -30.2974   23.7685 H   0  0  0  0  0  0
  -15.8706  -28.0812   22.7086 H   0  0  0  0  0  0
  -24.5854  -30.7141   25.7668 H   0  0  0  0  0  0
  -24.8870  -32.2992   26.4680 H   0  0  0  0  0  0
  -25.7912  -30.9018   27.0202 H   0  0  0  0  0  0
  -26.3096  -29.6581   24.1412 H   0  0  0  0  0  0
  -27.3986  -29.7280   25.5050 H   0  0  0  0  0  0
  -27.9032  -30.4105   23.9800 H   0  0  0  0  0  0
  -27.2597  -33.3674   26.1969 H   0  0  0  0  0  0
  -28.3899  -32.6860   25.0364 H   0  0  0  0  0  0
  -28.0647  -31.8545   26.5498 H   0  0  0  0  0  0
  -28.2570  -38.0075   24.7509 H   0  0  0  0  0  0
  -28.1081  -36.2605   24.6288 H   0  0  0  0  0  0
  -27.2290  -37.1408   25.8866 H   0  0  0  0  0  0
  -20.9573  -29.8726   21.6671 H   0  0  0  0  0  0
  -26.0131  -38.2770   24.1409 H   0  0  0  0  0  0
  -29.3691  -19.6384   15.9084 H   0  0  0  0  0  0
  -30.2732  -17.3437   16.0602 H   0  0  0  0  0  0
  -28.8125  -20.8391   17.8128 H   0  0  0  0  0  0
  -30.3911  -16.2410   18.0928 H   0  0  0  0  0  0
  -30.4875  -24.0346   19.8972 H   0  0  0  0  0  0
  -29.8197  -23.5346   21.3933 H   0  0  0  0  0  0
  -27.5357  -23.0614   21.6568 H   0  0  0  0  0  0
  -26.4042  -23.2581   20.3812 H   0  0  0  0  0  0
  -30.9094  -21.6120   20.3771 H   0  0  0  0  0  0
  -30.2206  -21.8971   18.8479 H   0  0  0  0  0  0
  -27.3155  -21.3641   19.0741 H   0  0  0  0  0  0
  -26.9852  -20.8440   20.6656 H   0  0  0  0  0  0
  -28.1789  -24.2452   18.8818 H   0  0  0  0  0  0
  -28.9306  -16.4840   21.0073 H   0  0  0  0  0  0
  1 25  1  0  0  0
  1 30  2  0  0  0
  1 83  1  0  0  0
  2  3  1  0  0  0
  2 25  1  0  0  0
  2 84  1  0  0  0
  2 85  1  0  0  0
  3  4  1  0  0  0
  3 86  1  0  0  0
  3 87  1  0  0  0
  4  5  1  0  0  0
  4 88  1  0  0  0
  4 89  1  0  0  0
  5  6  1  0  0  0
  5 26  1  0  0  0
  5 90  1  0  0  0
  6 25  1  0  0  0
  6 91  1  0  0  0
  6 92  1  0  0  0
  7  8  2  0  0  0
  7 26  1  0  0  0
  7 29  1  0  0  0
  8  9  1  0  0  0
  8 22  1  0  0  0
  9 10  1  0  0  0
  9 27  2  0  0  0
 10 11  2  0  0  0
 10 15  1  0  0  0
 11 12  1  0  0  0
 11 93  1  0  0  0
 12 13  2  0  0  0
 12 94  1  0  0  0
 13 14  1  0  0  0
 13 31  1  0  0  0
 14 15  2  0  0  0
 14 95  1  0  0  0
 15 96  1  0  0  0
 16 17  2  0  0  0
 16 21  1  0  0  0
 16 31  1  0  0  0
 17 18  1  0  0  0
 17 97  1  0  0  0
 18 19  2  0  0  0
 18 98  1  0  0  0
 19 20  1  0  0  0
 19 24  1  0  0  0
 20 21  2  0  0  0
 20 99  1  0  0  0
 21 23  1  0  0  0
 22 28  1  0  0  0
 22 32  2  0  0  0
 26 27  1  0  0  0
 28100  1  0  0  0
 28101  1  0  0  0
 29102  1  0  0  0
 29103  1  0  0  0
 33 34  1  0  0  0
 33 66  1  0  0  0
 33 70  2  0  0  0
 34 36  1  0  0  0
 34 59  1  0  0  0
 34104  1  0  0  0
 35 44  2  0  0  0
 35 45  1  0  0  0
 35 68  1  0  0  0
 36 56  1  0  0  0
 36105  1  0  0  0
 37 39  1  0  0  0
 37 47  1  0  0  0
 37 66  1  0  0  0
 37106  1  0  0  0
 38 43  2  0  0  0
 38 46  1  0  0  0
 38 47  1  0  0  0
 39 64  1  0  0  0
 39 67  2  0  0  0
 40 52  1  0  0  0
 40 53  2  0  0  0
 40 58  1  0  0  0
 41107  1  0  0  0
 41108  1  0  0  0
 41109  1  0  0  0
 41 48  1  0  0  0
 42 43  1  0  0  0
 42 66  1  0  0  0
 42110  1  0  0  0
 42111  1  0  0  0
 43 44  1  0  0  0
 44112  1  0  0  0
 45 46  2  0  0  0
 45113  1  0  0  0
 46114  1  0  0  0
 47115  1  0  0  0
 47116  1  0  0  0
 48 56  1  0  0  0
 48 65  1  0  0  0
 48117  1  0  0  0
 49 50  1  0  0  0
 49 53  1  0  0  0
 49 64  1  0  0  0
 49118  1  0  0  0
 50 51  1  0  0  0
 50119  1  0  0  0
 50120  1  0  0  0
 51 52  1  0  0  0
 51121  1  0  0  0
 51122  1  0  0  0
 52123  1  0  0  0
 52124  1  0  0  0
 53 54  1  0  0  0
 54 55  2  0  0  0
 54125  1  0  0  0
 55 57  1  0  0  0
 55126  1  0  0  0
 56 69  2  0  0  0
 57 58  2  0  0  0
 57127  1  0  0  0
 58128  1  0  0  0
 59 60  1  0  0  0
 59 61  1  0  0  0
 59 62  1  0  0  0
 60129  1  0  0  0
 60130  1  0  0  0
 60131  1  0  0  0
 61132  1  0  0  0
 61133  1  0  0  0
 61134  1  0  0  0
 62135  1  0  0  0
 62136  1  0  0  0
 62137  1  0  0  0
 63 65  1  0  0  0
 63138  1  0  0  0
 63139  1  0  0  0
 63140  1  0  0  0
 64141  1  0  0  0
 65142  1  0  0  0
 68 81  1  0  0  0
 71 72  2  0  0  0
 71 73  1  0  0  0
 71143  1  0  0  0
 72 74  1  0  0  0
 72144  1  0  0  0
 73 75  2  0  0  0
 73145  1  0  0  0
 74 76  2  0  0  0
 74146  1  0  0  0
 75 76  1  0  0  0
 75 82  1  0  0  0
 76 83  1  0  0  0
 77 79  1  0  0  0
 77 81  1  0  0  0
 77147  1  0  0  0
 77148  1  0  0  0
 78 80  1  0  0  0
 78 81  1  0  0  0
 78149  1  0  0  0
 78150  1  0  0  0
 79 82  1  0  0  0
 79151  1  0  0  0
 79152  1  0  0  0
 80 82  1  0  0  0
 80153  1  0  0  0
 80154  1  0  0  0
 81155  1  0  0  0
 83156  1  0  0  0
M  ISO  4   1 100  68 101  81 101  83 100
M  END
> <chiral flag>
0

> <version>
0

> <s_m_source_file>
/data/baiqing/PycharmProjects/Reinvent-master-3.2/result/LINK_invent/BTK/process_docking_weight1_custom_product_contain_oxygen_bond_distance_aromatic_linkinvent_7_9_3/rearranged_h_0009.sdf

> <i_m_source_file_index>
54

> <r_mmod_Potential_Energy-OPLS-2005>
1378.72741699219

> <r_mmod_Stretch_Energy-OPLS-2005>
531.180786132812

> <r_mmod_Bend_Energy-OPLS-2005>
591.318176269531

> <r_mmod_Torsional_Energy-OPLS-2005>
302.123901367188

> <r_mmod_Improper_Torsional_Energy-OPLS-2005>
12.6104965209961

> <r_mmod_Van_der_Waal_Energy-OPLS-2005>
163.095016479492

> <r_mmod_Electrostatic_Energy-OPLS-2005>
-406.059661865234

> <r_mmod_Solvation_Energy-OPLS-2005>
-239.17707824707

> <b_mmod_Minimization_Converged-OPLS-2005>
0

> <r_mmod_RMS_Derivative-OPLS-2005>
1.23869442939758

$$$$
54
                    3D
 Structure written by MMmdl.
153161  0  0  1  0            999 V2000
  -30.4655  -15.1565   20.3862 C   0  0  0  0  0  0
  -30.4598  -12.7193   19.5263 C   0  0  0  0  0  0
  -29.5426  -12.5323   18.2898 C   0  0  0  0  0  0
  -28.0937  -12.2604   18.7384 C   0  0  0  0  0  0
  -27.6334  -13.2466   19.8410 C   0  0  2  0  0  0
  -28.6751  -13.3652   20.9766 C   0  0  0  0  0  0
  -25.2483  -13.8187   20.5725 C   0  0  0  0  0  0
  -24.1808  -13.0446   20.9238 C   0  0  0  0  0  0
  -24.6372  -11.6889   20.8754 C   0  0  0  0  0  0
  -23.9031  -10.4276   21.0395 C   0  0  0  0  0  0
  -24.3578   -9.4197   21.9187 C   0  0  0  0  0  0
  -23.6255   -8.2236   22.0764 C   0  0  0  0  0  0
  -22.4249   -8.0256   21.3546 C   0  0  0  0  0  0
  -21.9862   -9.0229   20.4660 C   0  0  0  0  0  0
  -22.7178  -10.2111   20.3067 C   0  0  0  0  0  0
  -21.6855   -6.0693   22.5262 C   0  0  0  0  0  0
  -21.4008   -6.5607   23.8190 C   0  0  0  0  0  0
  -21.3661   -5.6776   24.9161 C   0  0  0  0  0  0
  -21.6054   -4.3037   24.7228 C   0  0  0  0  0  0
  -21.8826   -3.8108   23.4352 C   0  0  0  0  0  0
  -21.9193   -4.6916   22.3399 C   0  0  0  0  0  0
  -22.7811  -13.5193   21.1908 C   0  0  0  0  0  0
  -22.1673   -4.2088   21.0987 F   0  0  0  0  0  0
  -21.5638   -3.4543   25.7754 F   0  0  0  0  0  0
  -29.9193  -13.8517   20.3540 N   0  0  0  0  0  0
  -26.2926  -12.9416   20.3289 N   0  0  0  0  0  0
  -25.9336  -11.6538   20.5797 N   0  0  0  0  0  0
  -22.0491  -12.8192   22.0436 N   0  0  0  0  0  0
  -25.4199  -15.1929   20.4096 N   0  0  0  0  0  0
  -31.6785  -15.2153   20.1524 O   0  0  0  0  0  0
  -21.6644   -6.8834   21.4217 O   0  0  0  0  0  0
  -22.3493  -14.5510   20.6730 O   0  0  0  0  0  0
  -24.6594  -31.8186   23.1876 C   0  0  0  0  0  0
  -25.9366  -32.4375   23.8334 C   0  0  1  0  0  0
  -27.2202  -27.0136   20.1584 C   0  0  0  0  0  0
  -25.6086  -33.8204   24.2248 N   0  0  0  0  0  0
  -23.4613  -30.4367   21.5302 C   0  0  2  0  0  0
  -24.9138  -28.8456   20.1073 C   0  0  0  0  0  0
  -22.7661  -29.4407   22.4915 C   0  0  0  0  0  0
  -18.0272  -28.1277   22.8497 C   0  0  0  0  0  0
  -24.1486  -36.6912   23.2688 C   0  0  0  0  0  0
  -26.0377  -30.6477   21.4135 C   0  0  0  0  0  0
  -26.0977  -29.2662   20.7240 C   0  0  0  0  0  0
  -27.2508  -28.3760   20.7128 C   0  0  0  0  0  0
  -26.0008  -26.7131   19.5168 C   0  0  0  0  0  0
  -24.8872  -27.5891   19.4796 C   0  0  0  0  0  0
  -23.6904  -29.7514   20.1554 C   0  0  0  0  0  0
  -25.4111  -36.2742   24.0398 C   0  0  1  0  0  0
  -20.5897  -28.3591   23.1195 C   0  0  2  0  0  0
  -20.6657  -26.9275   22.5385 C   0  0  0  0  0  0
  -19.5663  -26.6330   21.5132 C   0  0  0  0  0  0
  -18.1862  -26.7826   22.1596 C   0  0  0  0  0  0
  -19.1547  -28.8798   23.2794 C   0  0  0  0  0  0
  -18.9468  -30.1394   23.8804 C   0  0  0  0  0  0
  -17.6465  -30.6514   24.0476 C   0  0  0  0  0  0
  -25.9142  -34.9146   23.5141 C   0  0  0  0  0  0
  -16.5349  -29.8952   23.6346 C   0  0  0  0  0  0
  -16.7261  -28.6331   23.0459 C   0  0  0  0  0  0
  -26.4740  -31.6226   25.0798 C   0  0  0  0  0  0
  -25.4139  -31.3222   26.1639 C   0  0  0  0  0  0
  -27.0670  -30.2568   24.6587 C   0  0  0  0  0  0
  -27.6263  -32.4078   25.7497 C   0  0  0  0  0  0
  -27.5528  -37.1557   24.8581 C   0  0  0  0  0  0
  -21.4370  -29.2859   22.3597 N   0  0  0  0  0  0
  -26.4221  -37.3519   23.9543 N   0  0  0  0  0  0
  -24.7366  -30.9996   22.0900 N   0  0  0  0  0  0
  -23.4256  -28.8094   23.3204 O   0  0  0  0  0  0
  -28.2592  -25.9789   20.2812 O   0  0  0  0  0  0
  -26.5746  -34.8695   22.4727 O   0  0  0  0  0  0
  -23.5721  -32.1150   23.7074 O   0  0  0  0  0  0
  -30.5788  -19.1530   20.7461 C   0  0  0  0  0  0
  -28.5510  -18.8251   19.4944 C   0  0  0  0  0  0
  -30.0731  -20.6905   21.1105 C   0  0  0  0  0  0
  -28.0828  -20.3952   19.7843 C   0  0  0  0  0  0
  -29.4676  -17.9986   20.5421 C   0  0  1  0  0  0
  -28.6304  -22.9597   20.7053 C   0  0  0  0  0  0
  -28.2536  -24.4245   19.8374 C   0  0  0  0  0  0
  -29.6189  -16.3463   20.4896 N   0  0  0  0  0  0
  -29.1157  -21.4731   20.1745 N   0  3  1  0  0  0
  -31.4875  -12.8964   19.2091 H   0  0  0  0  0  0
  -30.4974  -11.7961   20.1096 H   0  0  0  0  0  0
  -29.9017  -11.7094   17.6721 H   0  0  0  0  0  0
  -29.5709  -13.4237   17.6657 H   0  0  0  0  0  0
  -28.0693  -11.2473   19.1437 H   0  0  0  0  0  0
  -27.4109  -12.2708   17.8911 H   0  0  0  0  0  0
  -27.5699  -14.2184   19.3532 H   0  0  0  0  0  0
  -28.8244  -12.4084   21.4789 H   0  0  0  0  0  0
  -28.3416  -14.0633   21.7440 H   0  0  0  0  0  0
  -25.2728   -9.5698   22.4755 H   0  0  0  0  0  0
  -23.9982   -7.4638   22.7496 H   0  0  0  0  0  0
  -21.0790   -8.8712   19.8971 H   0  0  0  0  0  0
  -22.3610  -10.9642   19.6175 H   0  0  0  0  0  0
  -21.1995   -7.6123   23.9656 H   0  0  0  0  0  0
  -21.1488   -6.0533   25.9063 H   0  0  0  0  0  0
  -22.0605   -2.7566   23.2883 H   0  0  0  0  0  0
  -22.4118  -11.9827   22.4800 H   0  0  0  0  0  0
  -21.1131  -13.1225   22.2722 H   0  0  0  0  0  0
  -24.6458  -15.8446   20.5127 H   0  0  0  0  0  0
  -26.2390  -15.6103   19.9898 H   0  0  0  0  0  0
  -26.7457  -32.4856   23.1053 H   0  0  0  0  0  0
  -25.0105  -33.9251   25.0309 H   0  0  0  0  0  0
  -22.7628  -31.2593   21.3650 H   0  0  0  0  0  0
  -23.3788  -35.9190   23.3358 H   0  0  0  0  0  0
  -24.3614  -36.8494   22.2103 H   0  0  0  0  0  0
  -23.7163  -37.6099   23.6686 H   0  0  0  0  0  0
  -26.2937  -31.4218   20.6896 H   0  0  0  0  0  0
  -26.8675  -30.6231   22.1084 H   0  0  0  0  0  0
  -28.1587  -28.7175   21.1923 H   0  0  0  0  0  0
  -25.8456  -25.7394   19.0829 H   0  0  0  0  0  0
  -23.9808  -27.2440   18.9999 H   0  0  0  0  0  0
  -23.8094  -30.5132   19.3876 H   0  0  0  0  0  0
  -22.8112  -29.1759   19.8617 H   0  0  0  0  0  0
  -25.1240  -36.1513   25.0878 H   0  0  0  0  0  0
  -20.9911  -28.3083   24.1337 H   0  0  0  0  0  0
  -20.5320  -26.2205   23.3600 H   0  0  0  0  0  0
  -21.6525  -26.7100   22.1309 H   0  0  0  0  0  0
  -19.6772  -25.6272   21.1057 H   0  0  0  0  0  0
  -19.6527  -27.3218   20.6736 H   0  0  0  0  0  0
  -17.4097  -26.6598   21.4024 H   0  0  0  0  0  0
  -18.0279  -25.9904   22.8955 H   0  0  0  0  0  0
  -19.7963  -30.7199   24.2119 H   0  0  0  0  0  0
  -17.5018  -31.6204   24.5049 H   0  0  0  0  0  0
  -15.5331  -30.2815   23.7724 H   0  0  0  0  0  0
  -15.8647  -28.0556   22.7359 H   0  0  0  0  0  0
  -24.6484  -30.6273   25.8175 H   0  0  0  0  0  0
  -24.9157  -32.2201   26.5290 H   0  0  0  0  0  0
  -25.8805  -30.8464   27.0301 H   0  0  0  0  0  0
  -26.3336  -29.6107   24.1743 H   0  0  0  0  0  0
  -27.4286  -29.7014   25.5282 H   0  0  0  0  0  0
  -27.9291  -30.3641   23.9988 H   0  0  0  0  0  0
  -27.2891  -33.3470   26.1916 H   0  0  0  0  0  0
  -28.4112  -32.6484   25.0293 H   0  0  0  0  0  0
  -28.0928  -31.8316   26.5526 H   0  0  0  0  0  0
  -28.2574  -37.9832   24.7589 H   0  0  0  0  0  0
  -28.1005  -36.2353   24.6432 H   0  0  0  0  0  0
  -27.2298  -37.1218   25.9016 H   0  0  0  0  0  0
  -20.9745  -29.8366   21.6513 H   0  0  0  0  0  0
  -26.0023  -38.2552   24.1616 H   0  0  0  0  0  0
  -31.2437  -18.8533   21.5632 H   0  0  0  0  0  0
  -31.2302  -19.2036   19.8672 H   0  0  0  0  0  0
  -29.0413  -18.8025   18.5180 H   0  0  0  0  0  0
  -27.6210  -18.2689   19.3481 H   0  0  0  0  0  0
  -29.5924  -20.6348   22.0942 H   0  0  0  0  0  0
  -30.9505  -21.3228   21.2819 H   0  0  0  0  0  0
  -27.3009  -20.3704   20.5495 H   0  0  0  0  0  0
  -27.5760  -20.7513   18.8800 H   0  0  0  0  0  0
  -28.8907  -18.0577   21.4720 H   0  0  0  0  0  0
  -27.7784  -22.7841   21.3772 H   0  0  0  0  0  0
  -29.4405  -23.2646   21.3755 H   0  0  0  0  0  0
  -28.9587  -24.4374   19.0089 H   0  0  0  0  0  0
  -27.2979  -24.2201   19.3558 H   0  0  0  0  0  0
  -28.6947  -15.9669   20.6357 H   0  0  0  0  0  0
  -29.6635  -21.6445   19.3379 H   0  0  0  0  0  0
  1 25  1  0  0  0
  1 30  2  0  0  0
  1 78  1  0  0  0
  2  3  1  0  0  0
  2 25  1  0  0  0
  2 80  1  0  0  0
  2 81  1  0  0  0
  3  4  1  0  0  0
  3 82  1  0  0  0
  3 83  1  0  0  0
  4  5  1  0  0  0
  4 84  1  0  0  0
  4 85  1  0  0  0
  5  6  1  0  0  0
  5 26  1  0  0  0
  5 86  1  0  0  0
  6 25  1  0  0  0
  6 87  1  0  0  0
  6 88  1  0  0  0
  7  8  2  0  0  0
  7 26  1  0  0  0
  7 29  1  0  0  0
  8  9  1  0  0  0
  8 22  1  0  0  0
  9 10  1  0  0  0
  9 27  2  0  0  0
 10 11  2  0  0  0
 10 15  1  0  0  0
 11 12  1  0  0  0
 11 89  1  0  0  0
 12 13  2  0  0  0
 12 90  1  0  0  0
 13 14  1  0  0  0
 13 31  1  0  0  0
 14 15  2  0  0  0
 14 91  1  0  0  0
 15 92  1  0  0  0
 16 17  2  0  0  0
 16 21  1  0  0  0
 16 31  1  0  0  0
 17 18  1  0  0  0
 17 93  1  0  0  0
 18 19  2  0  0  0
 18 94  1  0  0  0
 19 20  1  0  0  0
 19 24  1  0  0  0
 20 21  2  0  0  0
 20 95  1  0  0  0
 21 23  1  0  0  0
 22 28  1  0  0  0
 22 32  2  0  0  0
 26 27  1  0  0  0
 28 96  1  0  0  0
 28 97  1  0  0  0
 29 98  1  0  0  0
 29 99  1  0  0  0
 33 34  1  0  0  0
 33 66  1  0  0  0
 33 70  2  0  0  0
 34 36  1  0  0  0
 34 59  1  0  0  0
 34100  1  0  0  0
 35 44  2  0  0  0
 35 45  1  0  0  0
 35 68  1  0  0  0
 36 56  1  0  0  0
 36101  1  0  0  0
 37 39  1  0  0  0
 37 47  1  0  0  0
 37 66  1  0  0  0
 37102  1  0  0  0
 38 43  2  0  0  0
 38 46  1  0  0  0
 38 47  1  0  0  0
 39 64  1  0  0  0
 39 67  2  0  0  0
 40 52  1  0  0  0
 40 53  2  0  0  0
 40 58  1  0  0  0
 41103  1  0  0  0
 41104  1  0  0  0
 41105  1  0  0  0
 41 48  1  0  0  0
 42 43  1  0  0  0
 42 66  1  0  0  0
 42106  1  0  0  0
 42107  1  0  0  0
 43 44  1  0  0  0
 44108  1  0  0  0
 45 46  2  0  0  0
 45109  1  0  0  0
 46110  1  0  0  0
 47111  1  0  0  0
 47112  1  0  0  0
 48 56  1  0  0  0
 48 65  1  0  0  0
 48113  1  0  0  0
 49 50  1  0  0  0
 49 53  1  0  0  0
 49 64  1  0  0  0
 49114  1  0  0  0
 50 51  1  0  0  0
 50115  1  0  0  0
 50116  1  0  0  0
 51 52  1  0  0  0
 51117  1  0  0  0
 51118  1  0  0  0
 52119  1  0  0  0
 52120  1  0  0  0
 53 54  1  0  0  0
 54 55  2  0  0  0
 54121  1  0  0  0
 55 57  1  0  0  0
 55122  1  0  0  0
 56 69  2  0  0  0
 57 58  2  0  0  0
 57123  1  0  0  0
 58124  1  0  0  0
 59 60  1  0  0  0
 59 61  1  0  0  0
 59 62  1  0  0  0
 60125  1  0  0  0
 60126  1  0  0  0
 60127  1  0  0  0
 61128  1  0  0  0
 61129  1  0  0  0
 61130  1  0  0  0
 62131  1  0  0  0
 62132  1  0  0  0
 62133  1  0  0  0
 63 65  1  0  0  0
 63134  1  0  0  0
 63135  1  0  0  0
 63136  1  0  0  0
 64137  1  0  0  0
 65138  1  0  0  0
 68 77  1  0  0  0
 71 73  1  0  0  0
 71 75  1  0  0  0
 71139  1  0  0  0
 71140  1  0  0  0
 72 74  1  0  0  0
 72 75  1  0  0  0
 72141  1  0  0  0
 72142  1  0  0  0
 73 79  1  0  0  0
 73143  1  0  0  0
 73144  1  0  0  0
 74 79  1  0  0  0
 74145  1  0  0  0
 74146  1  0  0  0
 75 78  1  0  0  0
 75147  1  0  0  0
 76 77  1  0  0  0
 76148  1  0  0  0
 76149  1  0  0  0
 76 79  1  0  0  0
 77150  1  0  0  0
 77151  1  0  0  0
 78152  1  0  0  0
 79153  1  0  0  0
M  CHG  1  79   1
M  ISO  4   1 100  68 101  77 101  78 100
M  END
> <chiral flag>
0

> <version>
0

> <s_m_source_file>
/data/baiqing/PycharmProjects/Reinvent-master-3.2/result/LINK_invent/BTK/process_docking_weight1_custom_product_contain_oxygen_bond_distance_aromatic_linkinvent_7_9_3/rearranged_h_0009.sdf

> <i_m_source_file_index>
55

> <r_mmod_Potential_Energy-OPLS-2005>
907.49267578125

> <r_mmod_Stretch_Energy-OPLS-2005>
422.123931884766

> <r_mmod_Bend_Energy-OPLS-2005>
452.849731445312

> <r_mmod_Torsional_Energy-OPLS-2005>
236.023727416992

> <r_mmod_Improper_Torsional_Energy-OPLS-2005>
4.44967126846313

> <r_mmod_Van_der_Waal_Energy-OPLS-2005>
109.575119018555

> <r_mmod_Electrostatic_Energy-OPLS-2005>
-210.960876464844

> <r_mmod_Solvation_Energy-OPLS-2005>
-454.601898193359

> <b_mmod_Minimization_Converged-OPLS-2005>
0

> <r_mmod_RMS_Derivative-OPLS-2005>
8.72944927215576

$$$$
55
                    3D
 Structure written by MMmdl.
150159  0  0  1  0            999 V2000
  -30.2814  -15.6725   20.3753 C   0  0  0  0  0  0
  -30.4301  -13.1057   19.5703 C   0  0  0  0  0  0
  -29.5664  -12.6869   18.3409 C   0  0  0  0  0  0
  -28.1330  -12.3216   18.7567 C   0  0  0  0  0  0
  -27.6030  -13.3082   19.8182 C   0  0  2  0  0  0
  -28.6136  -13.5881   20.9514 C   0  0  0  0  0  0
  -25.2349  -13.8289   20.5766 C   0  0  0  0  0  0
  -24.1731  -13.0442   20.9258 C   0  0  0  0  0  0
  -24.6430  -11.6949   20.8736 C   0  0  0  0  0  0
  -23.9125  -10.4299   21.0388 C   0  0  0  0  0  0
  -24.3659   -9.4209   21.9169 C   0  0  0  0  0  0
  -23.6314   -8.2252   22.0752 C   0  0  0  0  0  0
  -22.4293   -8.0295   21.3543 C   0  0  0  0  0  0
  -21.9939   -9.0272   20.4641 C   0  0  0  0  0  0
  -22.7290  -10.2138   20.3041 C   0  0  0  0  0  0
  -21.6863   -6.0739   22.5273 C   0  0  0  0  0  0
  -21.4020   -6.5636   23.8207 C   0  0  0  0  0  0
  -21.3663   -5.6788   24.9169 C   0  0  0  0  0  0
  -21.6048   -4.3050   24.7218 C   0  0  0  0  0  0
  -21.8818   -3.8143   23.4337 C   0  0  0  0  0  0
  -21.9194   -4.6965   22.3397 C   0  0  0  0  0  0
  -22.7743  -13.5173   21.1909 C   0  0  0  0  0  0
  -22.1660   -4.2148   21.0977 F   0  0  0  0  0  0
  -21.5633   -3.4534   25.7729 F   0  0  0  0  0  0
  -29.7881  -14.2771   20.3436 N   0  0  0  0  0  0
  -26.2785  -12.9609   20.3166 N   0  0  0  0  0  0
  -25.9371  -11.6683   20.5636 N   0  0  0  0  0  0
  -22.0400  -12.8164   22.0470 N   0  0  0  0  0  0
  -25.3979  -15.2036   20.4299 N   0  0  0  0  0  0
  -31.4822  -15.6239   20.0355 O   0  0  0  0  0  0
  -21.6653   -6.8890   21.4237 O   0  0  0  0  0  0
  -22.3412  -14.5469   20.6744 O   0  0  0  0  0  0
  -24.6852  -31.7961   23.1480 C   0  0  0  0  0  0
  -25.9422  -32.4444   23.8041 C   0  0  1  0  0  0
  -27.2335  -26.6708   20.2175 C   0  0  0  0  0  0
  -25.5987  -33.8271   24.1923 N   0  0  0  0  0  0
  -23.5140  -30.3943   21.5026 C   0  0  2  0  0  0
  -24.9732  -28.7265   20.1188 C   0  0  0  0  0  0
  -22.7772  -29.4289   22.4704 C   0  0  0  0  0  0
  -18.0340  -28.1416   22.8463 C   0  0  0  0  0  0
  -24.1501  -36.7142   23.2654 C   0  0  0  0  0  0
  -26.0943  -30.5145   21.4213 C   0  0  0  0  0  0
  -26.1585  -29.0747   20.7756 C   0  0  0  0  0  0
  -27.2666  -28.0725   20.7986 C   0  0  0  0  0  0
  -26.0200  -26.5429   19.4928 C   0  0  0  0  0  0
  -24.9434  -27.4858   19.4557 C   0  0  0  0  0  0
  -23.7706  -29.6856   20.1402 C   0  0  0  0  0  0
  -25.4151  -36.2881   24.0281 C   0  0  1  0  0  0
  -20.5977  -28.3780   23.1142 C   0  0  2  0  0  0
  -20.6804  -26.9438   22.5408 C   0  0  0  0  0  0
  -19.5778  -26.6369   21.5223 C   0  0  0  0  0  0
  -18.1963  -26.7946   22.1626 C   0  0  0  0  0  0
  -19.1607  -28.8923   23.2782 C   0  0  0  0  0  0
  -18.9512  -30.1508   23.8827 C   0  0  0  0  0  0
  -17.6501  -30.6603   24.0550 C   0  0  0  0  0  0
  -25.9133  -34.9272   23.4946 C   0  0  0  0  0  0
  -16.5391  -29.9084   23.6348 C   0  0  0  0  0  0
  -16.7322  -28.6503   23.0375 C   0  0  0  0  0  0
  -26.4595  -31.6490   25.0677 C   0  0  0  0  0  0
  -25.3652  -31.3812   26.1283 C   0  0  0  0  0  0
  -27.0532  -30.2823   24.6602 C   0  0  0  0  0  0
  -27.6042  -32.4354   25.7492 C   0  0  0  0  0  0
  -27.5568  -37.1726   24.8465 C   0  0  0  0  0  0
  -21.4416  -29.3020   22.3456 N   0  0  0  0  0  0
  -26.4276  -37.3644   23.9405 N   0  0  0  0  0  0
  -24.7882  -30.9369   22.0758 N   0  0  0  0  0  0
  -23.4200  -28.7910   23.3078 O   0  0  0  0  0  0
  -28.2184  -25.4580   20.2860 O   0  0  0  0  0  0
  -26.5785  -34.8855   22.4570 O   0  0  0  0  0  0
  -23.5865  -32.1051   23.6409 O   0  0  0  0  0  0
  -29.0547  -19.6196   19.2863 C   0  0  0  0  0  0
  -28.6956  -21.1180   19.2006 C   0  0  0  0  0  0
  -28.9489  -21.3428   21.3759 C   0  0  0  0  0  0
  -29.2893  -19.8421   21.4757 C   0  0  0  0  0  0
  -29.3876  -18.7467   20.4536 C   0  0  0  0  0  0
  -28.5871  -22.2177   20.2219 C   0  0  0  0  0  0
  -29.4994  -19.3156   22.8730 C   0  0  0  0  0  0
  -28.7248  -18.0070   23.0422 C   0  0  0  0  0  0
  -29.2787  -16.8215   22.2168 C   0  0  0  0  0  0
  -29.5797  -17.0369   20.7747 N   0  0  0  0  0  0
  -27.8906  -23.6993   20.0884 N   0  0  0  0  0  0
  -31.4243  -13.3712   19.2096 H   0  0  0  0  0  0
  -30.6063  -12.2490   20.2234 H   0  0  0  0  0  0
  -30.0321  -11.8535   17.8130 H   0  0  0  0  0  0
  -29.5375  -13.5171   17.6339 H   0  0  0  0  0  0
  -28.1492  -11.3136   19.1724 H   0  0  0  0  0  0
  -27.4755  -12.2906   17.8873 H   0  0  0  0  0  0
  -27.4808  -14.2483   19.2782 H   0  0  0  0  0  0
  -28.8849  -12.6684   21.4729 H   0  0  0  0  0  0
  -28.1271  -14.1917   21.7064 H   0  0  0  0  0  0
  -25.2802   -9.5684   22.4744 H   0  0  0  0  0  0
  -24.0013   -7.4648   22.7482 H   0  0  0  0  0  0
  -21.0861   -8.8808   19.8953 H   0  0  0  0  0  0
  -22.3753  -10.9680   19.6148 H   0  0  0  0  0  0
  -21.2015   -7.6143   23.9712 H   0  0  0  0  0  0
  -21.1486   -6.0516   25.9073 H   0  0  0  0  0  0
  -22.0596   -2.7604   23.2837 H   0  0  0  0  0  0
  -22.4029  -11.9846   22.4888 H   0  0  0  0  0  0
  -21.1000  -13.1167   22.2640 H   0  0  0  0  0  0
  -24.6344  -15.8571   20.5683 H   0  0  0  0  0  0
  -26.2528  -15.6525   20.1277 H   0  0  0  0  0  0
  -26.7506  -32.4907   23.0752 H   0  0  0  0  0  0
  -25.0028  -33.9301   25.0004 H   0  0  0  0  0  0
  -22.8412  -31.2322   21.3092 H   0  0  0  0  0  0
  -23.3783  -35.9451   23.3264 H   0  0  0  0  0  0
  -24.3571  -36.8857   22.2080 H   0  0  0  0  0  0
  -23.7241  -37.6299   23.6766 H   0  0  0  0  0  0
  -26.3021  -31.2341   20.6285 H   0  0  0  0  0  0
  -26.9426  -30.5841   22.0894 H   0  0  0  0  0  0
  -28.1566  -28.3453   21.3471 H   0  0  0  0  0  0
  -25.8606  -25.6090   18.9735 H   0  0  0  0  0  0
  -24.0514  -27.2104   18.9108 H   0  0  0  0  0  0
  -23.9477  -30.4422   19.3755 H   0  0  0  0  0  0
  -22.8751  -29.1521   19.8187 H   0  0  0  0  0  0
  -25.1362  -36.1643   25.0773 H   0  0  0  0  0  0
  -21.0056  -28.3410   24.1270 H   0  0  0  0  0  0
  -20.5665  -26.2409   23.3673 H   0  0  0  0  0  0
  -21.6668  -26.7379   22.1229 H   0  0  0  0  0  0
  -19.6931  -25.6260   21.1304 H   0  0  0  0  0  0
  -19.6720  -27.3142   20.6724 H   0  0  0  0  0  0
  -17.4234  -26.6698   21.4029 H   0  0  0  0  0  0
  -18.0344  -26.0102   22.9032 H   0  0  0  0  0  0
  -19.7988  -30.7341   24.2167 H   0  0  0  0  0  0
  -17.5053  -31.6277   24.5161 H   0  0  0  0  0  0
  -15.5387  -30.2961   23.7707 H   0  0  0  0  0  0
  -15.8726  -28.0789   22.7135 H   0  0  0  0  0  0
  -24.5853  -30.7155   25.7567 H   0  0  0  0  0  0
  -24.8829  -32.3039   26.4518 H   0  0  0  0  0  0
  -25.7814  -30.9084   27.0187 H   0  0  0  0  0  0
  -26.3258  -29.6423   24.1599 H   0  0  0  0  0  0
  -27.3949  -29.7282   25.5354 H   0  0  0  0  0  0
  -27.9243  -30.3937   24.0143 H   0  0  0  0  0  0
  -27.2586  -33.3724   26.1863 H   0  0  0  0  0  0
  -28.3955  -32.6797   25.0396 H   0  0  0  0  0  0
  -28.0598  -31.8621   26.5572 H   0  0  0  0  0  0
  -28.2545  -38.0057   24.7521 H   0  0  0  0  0  0
  -28.1104  -36.2580   24.6286 H   0  0  0  0  0  0
  -27.2283  -37.1354   25.8865 H   0  0  0  0  0  0
  -20.9721  -29.8661   21.6508 H   0  0  0  0  0  0
  -26.0102  -38.2692   24.1412 H   0  0  0  0  0  0
  -28.9976  -19.0971   18.3420 H   0  0  0  0  0  0
  -28.4294  -21.4325   18.2013 H   0  0  0  0  0  0
  -28.8938  -21.8574   22.3246 H   0  0  0  0  0  0
  -29.1623  -20.0409   23.6144 H   0  0  0  0  0  0
  -30.5655  -19.1620   23.0457 H   0  0  0  0  0  0
  -27.6743  -18.1735   22.7934 H   0  0  0  0  0  0
  -28.7350  -17.7281   24.0972 H   0  0  0  0  0  0
  -28.5268  -16.0518   22.3278 H   0  0  0  0  0  0
  -30.1753  -16.4665   22.7314 H   0  0  0  0  0  0
  -26.9834  -23.6386   19.6311 H   0  0  0  0  0  0
  1 25  1  0  0  0
  1 30  2  0  0  0
  1 80  1  0  0  0
  2  3  1  0  0  0
  2 25  1  0  0  0
  2 82  1  0  0  0
  2 83  1  0  0  0
  3  4  1  0  0  0
  3 84  1  0  0  0
  3 85  1  0  0  0
  4  5  1  0  0  0
  4 86  1  0  0  0
  4 87  1  0  0  0
  5  6  1  0  0  0
  5 26  1  0  0  0
  5 88  1  0  0  0
  6 25  1  0  0  0
  6 89  1  0  0  0
  6 90  1  0  0  0
  7  8  2  0  0  0
  7 26  1  0  0  0
  7 29  1  0  0  0
  8  9  1  0  0  0
  8 22  1  0  0  0
  9 10  1  0  0  0
  9 27  2  0  0  0
 10 11  2  0  0  0
 10 15  1  0  0  0
 11 12  1  0  0  0
 11 91  1  0  0  0
 12 13  2  0  0  0
 12 92  1  0  0  0
 13 14  1  0  0  0
 13 31  1  0  0  0
 14 15  2  0  0  0
 14 93  1  0  0  0
 15 94  1  0  0  0
 16 17  2  0  0  0
 16 21  1  0  0  0
 16 31  1  0  0  0
 17 18  1  0  0  0
 17 95  1  0  0  0
 18 19  2  0  0  0
 18 96  1  0  0  0
 19 20  1  0  0  0
 19 24  1  0  0  0
 20 21  2  0  0  0
 20 97  1  0  0  0
 21 23  1  0  0  0
 22 28  1  0  0  0
 22 32  2  0  0  0
 26 27  1  0  0  0
 28 98  1  0  0  0
 28 99  1  0  0  0
 29100  1  0  0  0
 29101  1  0  0  0
 33 34  1  0  0  0
 33 66  1  0  0  0
 33 70  2  0  0  0
 34 36  1  0  0  0
 34 59  1  0  0  0
 34102  1  0  0  0
 35 44  2  0  0  0
 35 45  1  0  0  0
 35 68  1  0  0  0
 36 56  1  0  0  0
 36103  1  0  0  0
 37 39  1  0  0  0
 37 47  1  0  0  0
 37 66  1  0  0  0
 37104  1  0  0  0
 38 43  2  0  0  0
 38 46  1  0  0  0
 38 47  1  0  0  0
 39 64  1  0  0  0
 39 67  2  0  0  0
 40 52  1  0  0  0
 40 53  2  0  0  0
 40 58  1  0  0  0
 41105  1  0  0  0
 41106  1  0  0  0
 41107  1  0  0  0
 41 48  1  0  0  0
 42 43  1  0  0  0
 42 66  1  0  0  0
 42108  1  0  0  0
 42109  1  0  0  0
 43 44  1  0  0  0
 44110  1  0  0  0
 45 46  2  0  0  0
 45111  1  0  0  0
 46112  1  0  0  0
 47113  1  0  0  0
 47114  1  0  0  0
 48 56  1  0  0  0
 48 65  1  0  0  0
 48115  1  0  0  0
 49 50  1  0  0  0
 49 53  1  0  0  0
 49 64  1  0  0  0
 49116  1  0  0  0
 50 51  1  0  0  0
 50117  1  0  0  0
 50118  1  0  0  0
 51 52  1  0  0  0
 51119  1  0  0  0
 51120  1  0  0  0
 52121  1  0  0  0
 52122  1  0  0  0
 53 54  1  0  0  0
 54 55  2  0  0  0
 54123  1  0  0  0
 55 57  1  0  0  0
 55124  1  0  0  0
 56 69  2  0  0  0
 57 58  2  0  0  0
 57125  1  0  0  0
 58126  1  0  0  0
 59 60  1  0  0  0
 59 61  1  0  0  0
 59 62  1  0  0  0
 60127  1  0  0  0
 60128  1  0  0  0
 60129  1  0  0  0
 61130  1  0  0  0
 61131  1  0  0  0
 61132  1  0  0  0
 62133  1  0  0  0
 62134  1  0  0  0
 62135  1  0  0  0
 63 65  1  0  0  0
 63136  1  0  0  0
 63137  1  0  0  0
 63138  1  0  0  0
 64139  1  0  0  0
 65140  1  0  0  0
 68 81  1  0  0  0
 71 72  2  0  0  0
 71 75  1  0  0  0
 71141  1  0  0  0
 72 76  1  0  0  0
 72142  1  0  0  0
 73 74  1  0  0  0
 73 76  2  0  0  0
 73143  1  0  0  0
 74 75  2  0  0  0
 74 77  1  0  0  0
 75 80  1  0  0  0
 76 81  1  0  0  0
 77 78  1  0  0  0
 77144  1  0  0  0
 77145  1  0  0  0
 78 79  1  0  0  0
 78146  1  0  0  0
 78147  1  0  0  0
 79 80  1  0  0  0
 79148  1  0  0  0
 79149  1  0  0  0
 81150  1  0  0  0
M  ISO  4   1 100  68 101  80 100  81 101
M  END
> <chiral flag>
0

> <version>
0

> <s_m_source_file>
/data/baiqing/PycharmProjects/Reinvent-master-3.2/result/LINK_invent/BTK/process_docking_weight1_custom_product_contain_oxygen_bond_distance_aromatic_linkinvent_7_9_3/rearranged_h_0009.sdf

> <i_m_source_file_index>
56

> <r_mmod_Potential_Energy-OPLS-2005>
2656.68139648438

> <r_mmod_Stretch_Energy-OPLS-2005>
1000.50177001953

> <r_mmod_Bend_Energy-OPLS-2005>
753.317565917969

> <r_mmod_Torsional_Energy-OPLS-2005>
313.231048583984

> <r_mmod_Improper_Torsional_Energy-OPLS-2005>
9.15179538726807

> <r_mmod_Van_der_Waal_Energy-OPLS-2005>
151.182739257812

> <r_mmod_Electrostatic_Energy-OPLS-2005>
-301.394653320312

> <r_mmod_Solvation_Energy-OPLS-2005>
-212.608413696289

> <b_mmod_Minimization_Converged-OPLS-2005>
0

> <r_mmod_RMS_Derivative-OPLS-2005>
1.18848943710327

$$$$
56
                    3D
 Structure written by MMmdl.
153162  0  0  1  0            999 V2000
  -30.5076  -15.0516   20.4097 C   0  0  0  0  0  0
  -30.4518  -12.6572   19.5069 C   0  0  0  0  0  0
  -29.5293  -12.5505   18.2676 C   0  0  0  0  0  0
  -28.0662  -12.3138   18.6879 C   0  0  0  0  0  0
  -27.6244  -13.2529   19.8394 C   0  0  2  0  0  0
  -28.6730  -13.3203   20.9739 C   0  0  0  0  0  0
  -25.2233  -13.7940   20.5568 C   0  0  0  0  0  0
  -24.1661  -13.0205   20.9264 C   0  0  0  0  0  0
  -24.6398  -11.6763   20.8817 C   0  0  0  0  0  0
  -23.9093  -10.4169   21.0437 C   0  0  0  0  0  0
  -24.3629   -9.4098   21.9218 C   0  0  0  0  0  0
  -23.6276   -8.2159   22.0771 C   0  0  0  0  0  0
  -22.4260   -8.0232   21.3549 C   0  0  0  0  0  0
  -21.9912   -9.0208   20.4648 C   0  0  0  0  0  0
  -22.7270  -10.2061   20.3066 C   0  0  0  0  0  0
  -21.6829   -6.0714   22.5283 C   0  0  0  0  0  0
  -21.3999   -6.5625   23.8214 C   0  0  0  0  0  0
  -21.3653   -5.6783   24.9179 C   0  0  0  0  0  0
  -21.6044   -4.3047   24.7232 C   0  0  0  0  0  0
  -21.8821   -3.8134   23.4354 C   0  0  0  0  0  0
  -21.9186   -4.6946   22.3408 C   0  0  0  0  0  0
  -22.7692  -13.5023   21.1906 C   0  0  0  0  0  0
  -22.1658   -4.2136   21.0985 F   0  0  0  0  0  0
  -21.5631   -3.4532   25.7745 F   0  0  0  0  0  0
  -29.9433  -13.7647   20.3736 N   0  0  0  0  0  0
  -26.2840  -12.9353   20.3262 N   0  0  0  0  0  0
  -25.9361  -11.6475   20.5832 N   0  0  0  0  0  0
  -22.0356  -12.8062   22.0505 N   0  0  0  0  0  0
  -25.3361  -15.1538   20.3617 N   0  0  0  0  0  0
  -31.7120  -15.1311   20.1416 O   0  0  0  0  0  0
  -21.6605   -6.8851   21.4245 O   0  0  0  0  0  0
  -22.3382  -14.5338   20.6750 O   0  0  0  0  0  0
  -24.6463  -31.8391   23.1820 C   0  0  0  0  0  0
  -25.9214  -32.4672   23.8236 C   0  0  1  0  0  0
  -27.2434  -27.1063   20.1706 C   0  0  0  0  0  0
  -25.5943  -33.8478   24.2155 N   0  0  0  0  0  0
  -23.4537  -30.4519   21.5281 C   0  0  2  0  0  0
  -24.9087  -28.8603   20.1200 C   0  0  0  0  0  0
  -22.7584  -29.4515   22.4854 C   0  0  0  0  0  0
  -18.0307  -28.1398   22.8475 C   0  0  0  0  0  0
  -24.1490  -36.7247   23.2645 C   0  0  0  0  0  0
  -26.0096  -30.7048   21.3827 C   0  0  0  0  0  0
  -26.0858  -29.3084   20.7325 C   0  0  0  0  0  0
  -27.2532  -28.4516   20.7301 C   0  0  0  0  0  0
  -26.0341  -26.7519   19.5359 C   0  0  0  0  0  0
  -24.8966  -27.5957   19.5059 C   0  0  0  0  0  0
  -23.6849  -29.7669   20.1533 C   0  0  0  0  0  0
  -25.4125  -36.3018   24.0312 C   0  0  1  0  0  0
  -20.5919  -28.3725   23.1233 C   0  0  2  0  0  0
  -20.6788  -26.9425   22.5407 C   0  0  0  0  0  0
  -19.5763  -26.6381   21.5214 C   0  0  0  0  0  0
  -18.1945  -26.7936   22.1623 C   0  0  0  0  0  0
  -19.1563  -28.8881   23.2844 C   0  0  0  0  0  0
  -18.9478  -30.1477   23.8871 C   0  0  0  0  0  0
  -17.6474  -30.6593   24.0559 C   0  0  0  0  0  0
  -25.9076  -34.9395   23.5049 C   0  0  0  0  0  0
  -16.5366  -29.9085   23.6336 C   0  0  0  0  0  0
  -16.7291  -28.6504   23.0357 C   0  0  0  0  0  0
  -26.4526  -31.6556   25.0694 C   0  0  0  0  0  0
  -25.3703  -31.3752   26.1385 C   0  0  0  0  0  0
  -27.0401  -30.2951   24.6294 C   0  0  0  0  0  0
  -27.6046  -32.4332   25.7487 C   0  0  0  0  0  0
  -27.5574  -37.1779   24.8466 C   0  0  0  0  0  0
  -21.4272  -29.3042   22.3602 N   0  0  0  0  0  0
  -26.4284  -37.3736   23.9408 N   0  0  0  0  0  0
  -24.7232  -31.0212   22.0866 N   0  0  0  0  0  0
  -23.4205  -28.8083   23.3038 O   0  0  0  0  0  0
  -28.3371  -26.1552   20.1696 O   0  0  0  0  0  0
  -26.5673  -34.8904   22.4636 O   0  0  0  0  0  0
  -23.5572  -32.1276   23.7020 O   0  0  0  0  0  0
  -30.4242  -20.2414   20.5373 C   0  0  0  0  0  0
  -30.6500  -18.7801   20.5498 C   0  0  0  0  0  0
  -28.1748  -19.9277   20.2539 C   0  0  0  0  0  0
  -28.3566  -18.4796   20.3010 C   0  0  0  0  0  0
  -29.1623  -20.9554   20.3940 C   0  0  0  0  0  0
  -29.6161  -17.7742   20.4479 C   0  0  0  0  0  0
  -29.5378  -23.7064   20.8469 C   0  0  0  0  0  0
  -27.8885  -23.3389   19.6407 C   0  0  0  0  0  0
  -28.2421  -24.6258   20.5446 C   0  0  0  0  0  0
  -27.0970  -17.6474   20.2497 C   0  0  0  0  0  0
  -28.7887  -22.4685   20.4730 N   0  0  0  0  0  0
  -29.6609  -16.2032   20.5599 N   0  0  0  0  0  0
  -25.9747  -18.3499   20.0839 F   0  0  0  0  0  0
  -27.1971  -16.7760   19.2452 F   0  0  0  0  0  0
  -27.0223  -16.9973   21.4104 F   0  0  0  0  0  0
  -31.4792  -12.8376   19.1871 H   0  0  0  0  0  0
  -30.4731  -11.7155   20.0579 H   0  0  0  0  0  0
  -29.8656  -11.7462   17.6120 H   0  0  0  0  0  0
  -29.5966  -13.4701   17.6841 H   0  0  0  0  0  0
  -27.9816  -11.2754   19.0105 H   0  0  0  0  0  0
  -27.4008  -12.4219   17.8306 H   0  0  0  0  0  0
  -27.5679  -14.2459   19.3955 H   0  0  0  0  0  0
  -28.7849  -12.3521   21.4640 H   0  0  0  0  0  0
  -28.3532  -14.0203   21.7475 H   0  0  0  0  0  0
  -25.2768   -9.5563   22.4806 H   0  0  0  0  0  0
  -23.9960   -7.4540   22.7493 H   0  0  0  0  0  0
  -21.0841   -8.8748   19.8952 H   0  0  0  0  0  0
  -22.3756  -10.9616   19.6178 H   0  0  0  0  0  0
  -21.1987   -7.6133   23.9714 H   0  0  0  0  0  0
  -21.1477   -6.0514   25.9082 H   0  0  0  0  0  0
  -22.0608   -2.7597   23.2858 H   0  0  0  0  0  0
  -22.3980  -11.9734   22.4904 H   0  0  0  0  0  0
  -21.0989  -13.1111   22.2732 H   0  0  0  0  0  0
  -24.5423  -15.7736   20.4671 H   0  0  0  0  0  0
  -26.1412  -15.6107   19.9518 H   0  0  0  0  0  0
  -26.7283  -32.5275   23.0967 H   0  0  0  0  0  0
  -25.0054  -33.9582   25.0278 H   0  0  0  0  0  0
  -22.7582  -31.2777   21.3641 H   0  0  0  0  0  0
  -23.3757  -35.9574   23.3291 H   0  0  0  0  0  0
  -24.3573  -36.8899   22.2062 H   0  0  0  0  0  0
  -23.7242  -37.6436   23.6698 H   0  0  0  0  0  0
  -26.1632  -31.4539   20.6049 H   0  0  0  0  0  0
  -26.8798  -30.7633   22.0248 H   0  0  0  0  0  0
  -28.1569  -28.8013   21.2091 H   0  0  0  0  0  0
  -25.9600  -25.7823   19.0644 H   0  0  0  0  0  0
  -23.9978  -27.2449   19.0175 H   0  0  0  0  0  0
  -23.8249  -30.5342   19.3910 H   0  0  0  0  0  0
  -22.8002  -29.2073   19.8445 H   0  0  0  0  0  0
  -25.1316  -36.1838   25.0804 H   0  0  0  0  0  0
  -21.0007  -28.3318   24.1356 H   0  0  0  0  0  0
  -20.5676  -26.2341   23.3630 H   0  0  0  0  0  0
  -21.6655  -26.7424   22.1210 H   0  0  0  0  0  0
  -19.6924  -25.6285   21.1261 H   0  0  0  0  0  0
  -19.6701  -27.3177   20.6733 H   0  0  0  0  0  0
  -17.4214  -26.6680   21.4028 H   0  0  0  0  0  0
  -18.0343  -26.0084   22.9026 H   0  0  0  0  0  0
  -19.7954  -30.7300   24.2230 H   0  0  0  0  0  0
  -17.5026  -31.6270   24.5166 H   0  0  0  0  0  0
  -15.5364  -30.2978   23.7675 H   0  0  0  0  0  0
  -15.8692  -28.0814   22.7085 H   0  0  0  0  0  0
  -24.5889  -30.7094   25.7703 H   0  0  0  0  0  0
  -24.8885  -32.2936   26.4749 H   0  0  0  0  0  0
  -25.7979  -30.8964   27.0204 H   0  0  0  0  0  0
  -26.3025  -29.6662   24.1296 H   0  0  0  0  0  0
  -27.4004  -29.7265   25.4877 H   0  0  0  0  0  0
  -27.8932  -30.4186   23.9620 H   0  0  0  0  0  0
  -27.2631  -33.3655   26.1998 H   0  0  0  0  0  0
  -28.3893  -32.6858   25.0343 H   0  0  0  0  0  0
  -28.0675  -31.8502   26.5460 H   0  0  0  0  0  0
  -28.2583  -38.0083   24.7509 H   0  0  0  0  0  0
  -28.1077  -36.2611   24.6296 H   0  0  0  0  0  0
  -27.2291  -37.1430   25.8868 H   0  0  0  0  0  0
  -20.9499  -29.8736   21.6753 H   0  0  0  0  0  0
  -26.0147  -38.2802   24.1410 H   0  0  0  0  0  0
  -31.3041  -20.8554   20.6677 H   0  0  0  0  0  0
  -31.6661  -18.4371   20.6841 H   0  0  0  0  0  0
  -27.1636  -20.2909   20.1587 H   0  0  0  0  0  0
  -29.8553  -23.7303   21.8901 H   0  0  0  0  0  0
  -30.3748  -23.9006   20.1739 H   0  0  0  0  0  0
  -28.2358  -23.4231   18.6094 H   0  0  0  0  0  0
  -26.8366  -23.0538   19.6827 H   0  0  0  0  0  0
  -27.5991  -24.5927   21.4260 H   0  0  0  0  0  0
  -28.7275  -15.8509   20.7143 H   0  0  0  0  0  0
  1 25  1  0  0  0
  1 30  2  0  0  0
  1 82  1  0  0  0
  2  3  1  0  0  0
  2 25  1  0  0  0
  2 86  1  0  0  0
  2 87  1  0  0  0
  3  4  1  0  0  0
  3 88  1  0  0  0
  3 89  1  0  0  0
  4  5  1  0  0  0
  4 90  1  0  0  0
  4 91  1  0  0  0
  5  6  1  0  0  0
  5 26  1  0  0  0
  5 92  1  0  0  0
  6 25  1  0  0  0
  6 93  1  0  0  0
  6 94  1  0  0  0
  7  8  2  0  0  0
  7 26  1  0  0  0
  7 29  1  0  0  0
  8  9  1  0  0  0
  8 22  1  0  0  0
  9 10  1  0  0  0
  9 27  2  0  0  0
 10 11  2  0  0  0
 10 15  1  0  0  0
 11 12  1  0  0  0
 11 95  1  0  0  0
 12 13  2  0  0  0
 12 96  1  0  0  0
 13 14  1  0  0  0
 13 31  1  0  0  0
 14 15  2  0  0  0
 14 97  1  0  0  0
 15 98  1  0  0  0
 16 17  2  0  0  0
 16 21  1  0  0  0
 16 31  1  0  0  0
 17 18  1  0  0  0
 17 99  1  0  0  0
 18 19  2  0  0  0
 18100  1  0  0  0
 19 20  1  0  0  0
 19 24  1  0  0  0
 20 21  2  0  0  0
 20101  1  0  0  0
 21 23  1  0  0  0
 22 28  1  0  0  0
 22 32  2  0  0  0
 26 27  1  0  0  0
 28102  1  0  0  0
 28103  1  0  0  0
 29104  1  0  0  0
 29105  1  0  0  0
 33 34  1  0  0  0
 33 66  1  0  0  0
 33 70  2  0  0  0
 34 36  1  0  0  0
 34 59  1  0  0  0
 34106  1  0  0  0
 35 44  2  0  0  0
 35 45  1  0  0  0
 35 68  1  0  0  0
 36 56  1  0  0  0
 36107  1  0  0  0
 37 39  1  0  0  0
 37 47  1  0  0  0
 37 66  1  0  0  0
 37108  1  0  0  0
 38 43  2  0  0  0
 38 46  1  0  0  0
 38 47  1  0  0  0
 39 64  1  0  0  0
 39 67  2  0  0  0
 40 52  1  0  0  0
 40 53  2  0  0  0
 40 58  1  0  0  0
 41109  1  0  0  0
 41110  1  0  0  0
 41111  1  0  0  0
 41 48  1  0  0  0
 42 43  1  0  0  0
 42 66  1  0  0  0
 42112  1  0  0  0
 42113  1  0  0  0
 43 44  1  0  0  0
 44114  1  0  0  0
 45 46  2  0  0  0
 45115  1  0  0  0
 46116  1  0  0  0
 47117  1  0  0  0
 47118  1  0  0  0
 48 56  1  0  0  0
 48 65  1  0  0  0
 48119  1  0  0  0
 49 50  1  0  0  0
 49 53  1  0  0  0
 49 64  1  0  0  0
 49120  1  0  0  0
 50 51  1  0  0  0
 50121  1  0  0  0
 50122  1  0  0  0
 51 52  1  0  0  0
 51123  1  0  0  0
 51124  1  0  0  0
 52125  1  0  0  0
 52126  1  0  0  0
 53 54  1  0  0  0
 54 55  2  0  0  0
 54127  1  0  0  0
 55 57  1  0  0  0
 55128  1  0  0  0
 56 69  2  0  0  0
 57 58  2  0  0  0
 57129  1  0  0  0
 58130  1  0  0  0
 59 60  1  0  0  0
 59 61  1  0  0  0
 59 62  1  0  0  0
 60131  1  0  0  0
 60132  1  0  0  0
 60133  1  0  0  0
 61134  1  0  0  0
 61135  1  0  0  0
 61136  1  0  0  0
 62137  1  0  0  0
 62138  1  0  0  0
 62139  1  0  0  0
 63 65  1  0  0  0
 63140  1  0  0  0
 63141  1  0  0  0
 63142  1  0  0  0
 64143  1  0  0  0
 65144  1  0  0  0
 68 79  1  0  0  0
 71 72  2  0  0  0
 71 75  1  0  0  0
 71145  1  0  0  0
 72 76  1  0  0  0
 72146  1  0  0  0
 73 74  1  0  0  0
 73 75  2  0  0  0
 73147  1  0  0  0
 74 76  2  0  0  0
 74 80  1  0  0  0
 75 81  1  0  0  0
 76 82  1  0  0  0
 77 79  1  0  0  0
 77 81  1  0  0  0
 77148  1  0  0  0
 77149  1  0  0  0
 78 79  1  0  0  0
 78 81  1  0  0  0
 78150  1  0  0  0
 78151  1  0  0  0
 79152  1  0  0  0
 80 83  1  0  0  0
 80 84  1  0  0  0
 80 85  1  0  0  0
 82153  1  0  0  0
M  ISO  4   1 100  68 101  79 101  82 100
M  END
> <chiral flag>
0

> <version>
0

> <s_m_source_file>
/data/baiqing/PycharmProjects/Reinvent-master-3.2/result/LINK_invent/BTK/process_docking_weight1_custom_product_contain_oxygen_bond_distance_aromatic_linkinvent_7_9_3/rearranged_h_0009.sdf

> <i_m_source_file_index>
57

> <r_mmod_Potential_Energy-OPLS-2005>
750.313598632812

> <r_mmod_Stretch_Energy-OPLS-2005>
271.159606933594

> <r_mmod_Bend_Energy-OPLS-2005>
407.069274902344

> <r_mmod_Torsional_Energy-OPLS-2005>
245.514190673828

> <r_mmod_Improper_Torsional_Energy-OPLS-2005>
7.93597364425659

> <r_mmod_Van_der_Waal_Energy-OPLS-2005>
140.924697875977

> <r_mmod_Electrostatic_Energy-OPLS-2005>
-349.928161621094

> <r_mmod_Solvation_Energy-OPLS-2005>
-214.024642944336

> <b_mmod_Minimization_Converged-OPLS-2005>
0

> <r_mmod_RMS_Derivative-OPLS-2005>
0.235582932829857

$$$$
57
                    3D
 Structure written by MMmdl.
148156  0  0  1  0            999 V2000
  -30.5226  -14.9136   20.4293 C   0  0  0  0  0  0
  -30.4488  -12.5603   19.4982 C   0  0  0  0  0  0
  -29.5250  -12.5321   18.2568 C   0  0  0  0  0  0
  -28.0550  -12.3244   18.6701 C   0  0  0  0  0  0
  -27.6383  -13.2414   19.8495 C   0  0  2  0  0  0
  -28.6811  -13.2255   20.9888 C   0  0  0  0  0  0
  -25.2494  -13.8203   20.5706 C   0  0  0  0  0  0
  -24.1795  -13.0436   20.9210 C   0  0  0  0  0  0
  -24.6401  -11.6919   20.8745 C   0  0  0  0  0  0
  -23.9079  -10.4292   21.0403 C   0  0  0  0  0  0
  -24.3626   -9.4207   21.9182 C   0  0  0  0  0  0
  -23.6297   -8.2244   22.0754 C   0  0  0  0  0  0
  -22.4279   -8.0283   21.3544 C   0  0  0  0  0  0
  -21.9917   -9.0257   20.4646 C   0  0  0  0  0  0
  -22.7249  -10.2135   20.3054 C   0  0  0  0  0  0
  -21.6855   -6.0736   22.5278 C   0  0  0  0  0  0
  -21.4016   -6.5640   23.8212 C   0  0  0  0  0  0
  -21.3660   -5.6793   24.9174 C   0  0  0  0  0  0
  -21.6044   -4.3055   24.7224 C   0  0  0  0  0  0
  -21.8819   -3.8147   23.4346 C   0  0  0  0  0  0
  -21.9193   -4.6964   22.3402 C   0  0  0  0  0  0
  -22.7815  -13.5211   21.1870 C   0  0  0  0  0  0
  -22.1661   -4.2149   21.0979 F   0  0  0  0  0  0
  -21.5628   -3.4539   25.7737 F   0  0  0  0  0  0
  -29.9669  -13.6374   20.4070 N   0  0  0  0  0  0
  -26.2926  -12.9425   20.3279 N   0  0  0  0  0  0
  -25.9337  -11.6558   20.5748 N   0  0  0  0  0  0
  -22.0468  -12.8199   22.0429 N   0  0  0  0  0  0
  -25.4167  -15.1930   20.4140 N   0  0  0  0  0  0
  -31.7033  -15.0368   20.0837 O   0  0  0  0  0  0
  -21.6642   -6.8880   21.4241 O   0  0  0  0  0  0
  -22.3493  -14.5514   20.6716 O   0  0  0  0  0  0
  -24.6423  -31.8444   23.1888 C   0  0  0  0  0  0
  -25.9199  -32.4695   23.8273 C   0  0  1  0  0  0
  -27.2228  -27.1462   20.1370 C   0  0  0  0  0  0
  -25.5949  -33.8501   24.2189 N   0  0  0  0  0  0
  -23.4453  -30.4641   21.5340 C   0  0  2  0  0  0
  -24.8948  -28.8943   20.1061 C   0  0  0  0  0  0
  -22.7561  -29.4546   22.4858 C   0  0  0  0  0  0
  -18.0303  -28.1394   22.8478 C   0  0  0  0  0  0
  -24.1492  -36.7257   23.2643 C   0  0  0  0  0  0
  -26.0005  -30.7197   21.3874 C   0  0  0  0  0  0
  -26.0703  -29.3328   20.7265 C   0  0  0  0  0  0
  -27.2296  -28.4721   20.7308 C   0  0  0  0  0  0
  -26.0157  -26.8055   19.4837 C   0  0  0  0  0  0
  -24.8798  -27.6434   19.4725 C   0  0  0  0  0  0
  -23.6705  -29.7946   20.1522 C   0  0  0  0  0  0
  -25.4124  -36.3033   24.0316 C   0  0  1  0  0  0
  -20.5915  -28.3718   23.1237 C   0  0  2  0  0  0
  -20.6787  -26.9422   22.5404 C   0  0  0  0  0  0
  -19.5761  -26.6380   21.5212 C   0  0  0  0  0  0
  -18.1943  -26.7932   22.1625 C   0  0  0  0  0  0
  -19.1560  -28.8875   23.2850 C   0  0  0  0  0  0
  -18.9477  -30.1471   23.8874 C   0  0  0  0  0  0
  -17.6474  -30.6591   24.0559 C   0  0  0  0  0  0
  -25.9073  -34.9407   23.5062 C   0  0  0  0  0  0
  -16.5365  -29.9084   23.6336 C   0  0  0  0  0  0
  -16.7288  -28.6503   23.0356 C   0  0  0  0  0  0
  -26.4525  -31.6565   25.0714 C   0  0  0  0  0  0
  -25.3712  -31.3753   26.1411 C   0  0  0  0  0  0
  -27.0395  -30.2962   24.6298 C   0  0  0  0  0  0
  -27.6050  -32.4337   25.7501 C   0  0  0  0  0  0
  -27.5576  -37.1786   24.8466 C   0  0  0  0  0  0
  -21.4254  -29.3044   22.3608 N   0  0  0  0  0  0
  -26.4288  -37.3745   23.9407 N   0  0  0  0  0  0
  -24.7157  -31.0306   22.0918 N   0  0  0  0  0  0
  -23.4208  -28.8095   23.3007 O   0  0  0  0  0  0
  -28.2920  -26.1843   20.2527 O   0  0  0  0  0  0
  -26.5661  -34.8904   22.4642 O   0  0  0  0  0  0
  -23.5544  -32.1318   23.7113 O   0  0  0  0  0  0
  -30.3165  -19.7861   19.5251 C   0  0  0  0  0  0
  -30.5013  -18.3516   19.6948 C   0  0  0  0  0  0
  -28.5259  -19.7830   21.0447 C   0  0  0  0  0  0
  -29.3103  -20.5993   20.1649 C   0  0  0  0  0  0
  -29.6774  -17.5391   20.5377 C   0  0  0  0  0  0
  -28.6877  -18.3442   21.2057 C   0  0  0  0  0  0
  -29.1426  -22.1578   19.8196 C   0  0  0  0  0  0
  -28.4874  -23.3182   20.2993 C   0  0  0  0  0  0
  -28.3578  -24.7906   19.5758 C   0  0  0  0  0  0
  -29.6890  -16.0185   20.7144 N   0  0  0  0  0  0
  -27.8287  -17.7024   22.0342 F   0  0  0  0  0  0
  -31.4828  -12.7223   19.1895 H   0  0  0  0  0  0
  -30.4396  -11.5964   20.0096 H   0  0  0  0  0  0
  -29.8360  -11.7431   17.5708 H   0  0  0  0  0  0
  -29.6213  -13.4703   17.7082 H   0  0  0  0  0  0
  -27.9399  -11.2792   18.9595 H   0  0  0  0  0  0
  -27.3943  -12.4780   17.8160 H   0  0  0  0  0  0
  -27.6147  -14.2529   19.4432 H   0  0  0  0  0  0
  -28.7560  -12.2334   21.4365 H   0  0  0  0  0  0
  -28.3841  -13.9002   21.7930 H   0  0  0  0  0  0
  -25.2771   -9.5682   22.4757 H   0  0  0  0  0  0
  -24.0004   -7.4636   22.7475 H   0  0  0  0  0  0
  -21.0846   -8.8780   19.8953 H   0  0  0  0  0  0
  -22.3708  -10.9675   19.6164 H   0  0  0  0  0  0
  -21.2010   -7.6149   23.9715 H   0  0  0  0  0  0
  -21.1481   -6.0523   25.9076 H   0  0  0  0  0  0
  -22.0598   -2.7609   23.2847 H   0  0  0  0  0  0
  -22.4094  -11.9865   22.4818 H   0  0  0  0  0  0
  -21.1084  -13.1217   22.2638 H   0  0  0  0  0  0
  -24.6517  -15.8462   20.5420 H   0  0  0  0  0  0
  -26.2676  -15.6407   20.0993 H   0  0  0  0  0  0
  -26.7261  -32.5300   23.0998 H   0  0  0  0  0  0
  -25.0072  -33.9617   25.0320 H   0  0  0  0  0  0
  -22.7474  -31.2899   21.3808 H   0  0  0  0  0  0
  -23.3757  -35.9585   23.3293 H   0  0  0  0  0  0
  -24.3575  -36.8901   22.2059 H   0  0  0  0  0  0
  -23.7244  -37.6448   23.6688 H   0  0  0  0  0  0
  -26.1574  -31.4758   20.6168 H   0  0  0  0  0  0
  -26.8704  -30.7674   22.0308 H   0  0  0  0  0  0
  -28.1224  -28.8010   21.2440 H   0  0  0  0  0  0
  -25.8864  -25.8471   19.0096 H   0  0  0  0  0  0
  -23.9788  -27.2992   18.9834 H   0  0  0  0  0  0
  -23.8050  -30.5699   19.3970 H   0  0  0  0  0  0
  -22.7855  -29.2359   19.8423 H   0  0  0  0  0  0
  -25.1313  -36.1861   25.0808 H   0  0  0  0  0  0
  -21.0009  -28.3309   24.1358 H   0  0  0  0  0  0
  -20.5682  -26.2331   23.3623 H   0  0  0  0  0  0
  -21.6653  -26.7428   22.1202 H   0  0  0  0  0  0
  -19.6922  -25.6285   21.1256 H   0  0  0  0  0  0
  -19.6698  -27.3178   20.6732 H   0  0  0  0  0  0
  -17.4210  -26.6673   21.4031 H   0  0  0  0  0  0
  -18.0345  -26.0080   22.9029 H   0  0  0  0  0  0
  -19.7952  -30.7294   24.2233 H   0  0  0  0  0  0
  -17.5026  -31.6269   24.5165 H   0  0  0  0  0  0
  -15.5364  -30.2979   23.7672 H   0  0  0  0  0  0
  -15.8689  -28.0814   22.7085 H   0  0  0  0  0  0
  -24.5889  -30.7105   25.7730 H   0  0  0  0  0  0
  -24.8904  -32.2937   26.4791 H   0  0  0  0  0  0
  -25.7995  -30.8952   27.0219 H   0  0  0  0  0  0
  -26.3016  -29.6679   24.1298 H   0  0  0  0  0  0
  -27.4002  -29.7267   25.4874 H   0  0  0  0  0  0
  -27.8925  -30.4200   23.9621 H   0  0  0  0  0  0
  -27.2635  -33.3653   26.2026 H   0  0  0  0  0  0
  -28.3888  -32.6875   25.0351 H   0  0  0  0  0  0
  -28.0690  -31.8501   26.5463 H   0  0  0  0  0  0
  -28.2587  -38.0088   24.7509 H   0  0  0  0  0  0
  -28.1078  -36.2616   24.6299 H   0  0  0  0  0  0
  -27.2290  -37.1438   25.8869 H   0  0  0  0  0  0
  -20.9463  -29.8757   21.6789 H   0  0  0  0  0  0
  -26.0155  -38.2813   24.1408 H   0  0  0  0  0  0
  -30.9845  -20.2807   18.8337 H   0  0  0  0  0  0
  -31.2841  -17.8700   19.1264 H   0  0  0  0  0  0
  -27.7275  -20.2587   21.5946 H   0  0  0  0  0  0
  -29.6598  -22.3727   18.8945 H   0  0  0  0  0  0
  -27.9340  -23.2313   21.2231 H   0  0  0  0  0  0
  -27.5417  -24.6799   18.8692 H   0  0  0  0  0  0
  -29.2302  -24.8542   18.9253 H   0  0  0  0  0  0
  -28.8203  -15.6985   21.1162 H   0  0  0  0  0  0
  1 25  1  0  0  0
  1 30  2  0  0  0
  1 80  1  0  0  0
  2  3  1  0  0  0
  2 25  1  0  0  0
  2 82  1  0  0  0
  2 83  1  0  0  0
  3  4  1  0  0  0
  3 84  1  0  0  0
  3 85  1  0  0  0
  4  5  1  0  0  0
  4 86  1  0  0  0
  4 87  1  0  0  0
  5  6  1  0  0  0
  5 26  1  0  0  0
  5 88  1  0  0  0
  6 25  1  0  0  0
  6 89  1  0  0  0
  6 90  1  0  0  0
  7  8  2  0  0  0
  7 26  1  0  0  0
  7 29  1  0  0  0
  8  9  1  0  0  0
  8 22  1  0  0  0
  9 10  1  0  0  0
  9 27  2  0  0  0
 10 11  2  0  0  0
 10 15  1  0  0  0
 11 12  1  0  0  0
 11 91  1  0  0  0
 12 13  2  0  0  0
 12 92  1  0  0  0
 13 14  1  0  0  0
 13 31  1  0  0  0
 14 15  2  0  0  0
 14 93  1  0  0  0
 15 94  1  0  0  0
 16 17  2  0  0  0
 16 21  1  0  0  0
 16 31  1  0  0  0
 17 18  1  0  0  0
 17 95  1  0  0  0
 18 19  2  0  0  0
 18 96  1  0  0  0
 19 20  1  0  0  0
 19 24  1  0  0  0
 20 21  2  0  0  0
 20 97  1  0  0  0
 21 23  1  0  0  0
 22 28  1  0  0  0
 22 32  2  0  0  0
 26 27  1  0  0  0
 28 98  1  0  0  0
 28 99  1  0  0  0
 29100  1  0  0  0
 29101  1  0  0  0
 33 34  1  0  0  0
 33 66  1  0  0  0
 33 70  2  0  0  0
 34 36  1  0  0  0
 34 59  1  0  0  0
 34102  1  0  0  0
 35 44  2  0  0  0
 35 45  1  0  0  0
 35 68  1  0  0  0
 36 56  1  0  0  0
 36103  1  0  0  0
 37 39  1  0  0  0
 37 47  1  0  0  0
 37 66  1  0  0  0
 37104  1  0  0  0
 38 43  2  0  0  0
 38 46  1  0  0  0
 38 47  1  0  0  0
 39 64  1  0  0  0
 39 67  2  0  0  0
 40 52  1  0  0  0
 40 53  2  0  0  0
 40 58  1  0  0  0
 41105  1  0  0  0
 41106  1  0  0  0
 41107  1  0  0  0
 41 48  1  0  0  0
 42 43  1  0  0  0
 42 66  1  0  0  0
 42108  1  0  0  0
 42109  1  0  0  0
 43 44  1  0  0  0
 44110  1  0  0  0
 45 46  2  0  0  0
 45111  1  0  0  0
 46112  1  0  0  0
 47113  1  0  0  0
 47114  1  0  0  0
 48 56  1  0  0  0
 48 65  1  0  0  0
 48115  1  0  0  0
 49 50  1  0  0  0
 49 53  1  0  0  0
 49 64  1  0  0  0
 49116  1  0  0  0
 50 51  1  0  0  0
 50117  1  0  0  0
 50118  1  0  0  0
 51 52  1  0  0  0
 51119  1  0  0  0
 51120  1  0  0  0
 52121  1  0  0  0
 52122  1  0  0  0
 53 54  1  0  0  0
 54 55  2  0  0  0
 54123  1  0  0  0
 55 57  1  0  0  0
 55124  1  0  0  0
 56 69  2  0  0  0
 57 58  2  0  0  0
 57125  1  0  0  0
 58126  1  0  0  0
 59 60  1  0  0  0
 59 61  1  0  0  0
 59 62  1  0  0  0
 60127  1  0  0  0
 60128  1  0  0  0
 60129  1  0  0  0
 61130  1  0  0  0
 61131  1  0  0  0
 61132  1  0  0  0
 62133  1  0  0  0
 62134  1  0  0  0
 62135  1  0  0  0
 63 65  1  0  0  0
 63136  1  0  0  0
 63137  1  0  0  0
 63138  1  0  0  0
 64139  1  0  0  0
 65140  1  0  0  0
 68 79  1  0  0  0
 71 72  2  0  0  0
 71 74  1  0  0  0
 71141  1  0  0  0
 72 75  1  0  0  0
 72142  1  0  0  0
 73 74  2  0  0  0
 73 76  1  0  0  0
 73143  1  0  0  0
 74 77  1  0  0  0
 75 76  2  0  0  0
 75 80  1  0  0  0
 76 81  1  0  0  0
 77 78  2  0  0  0
 77144  1  0  0  0
 78 79  1  0  0  0
 78145  1  0  0  0
 79146  1  0  0  0
 79147  1  0  0  0
 80148  1  0  0  0
M  ISO  4   1 100  68 101  79 101  80 100
M  END
> <chiral flag>
0

> <version>
0

> <s_m_source_file>
/data/baiqing/PycharmProjects/Reinvent-master-3.2/result/LINK_invent/BTK/process_docking_weight1_custom_product_contain_oxygen_bond_distance_aromatic_linkinvent_7_9_3/rearranged_h_0009.sdf

> <i_m_source_file_index>
58

> <r_mmod_Potential_Energy-OPLS-2005>
399.312713623047

> <r_mmod_Stretch_Energy-OPLS-2005>
213.372772216797

> <r_mmod_Bend_Energy-OPLS-2005>
260.7060546875

> <r_mmod_Torsional_Energy-OPLS-2005>
214.760696411133

> <r_mmod_Improper_Torsional_Energy-OPLS-2005>
4.42288541793823

> <r_mmod_Van_der_Waal_Energy-OPLS-2005>
132.536224365234

> <r_mmod_Electrostatic_Energy-OPLS-2005>
-400.437469482422

> <r_mmod_Solvation_Energy-OPLS-2005>
-201.287734985352

> <b_mmod_Minimization_Converged-OPLS-2005>
0

> <r_mmod_RMS_Derivative-OPLS-2005>
0.155435532331467

$$$$
58
                    3D
 Structure written by MMmdl.
157166  0  0  1  0            999 V2000
  -30.5872  -14.9360   20.4084 C   0  0  0  0  0  0
  -30.4268  -12.5780   19.4986 C   0  0  0  0  0  0
  -29.5160  -12.5298   18.2537 C   0  0  0  0  0  0
  -28.0507  -12.3191   18.6731 C   0  0  0  0  0  0
  -27.6290  -13.2555   19.8366 C   0  0  2  0  0  0
  -28.6720  -13.3090   20.9729 C   0  0  0  0  0  0
  -25.2484  -13.8245   20.5717 C   0  0  0  0  0  0
  -24.1792  -13.0462   20.9211 C   0  0  0  0  0  0
  -24.6419  -11.6949   20.8754 C   0  0  0  0  0  0
  -23.9110  -10.4310   21.0407 C   0  0  0  0  0  0
  -24.3651   -9.4220   21.9186 C   0  0  0  0  0  0
  -23.6316   -8.2258   22.0758 C   0  0  0  0  0  0
  -22.4296   -8.0305   21.3546 C   0  0  0  0  0  0
  -21.9945   -9.0277   20.4640 C   0  0  0  0  0  0
  -22.7286  -10.2149   20.3050 C   0  0  0  0  0  0
  -21.6857   -6.0758   22.5282 C   0  0  0  0  0  0
  -21.4014   -6.5654   23.8214 C   0  0  0  0  0  0
  -21.3657   -5.6798   24.9177 C   0  0  0  0  0  0
  -21.6041   -4.3062   24.7220 C   0  0  0  0  0  0
  -21.8820   -3.8164   23.4336 C   0  0  0  0  0  0
  -21.9195   -4.6985   22.3399 C   0  0  0  0  0  0
  -22.7816  -13.5223   21.1868 C   0  0  0  0  0  0
  -22.1662   -4.2173   21.0973 F   0  0  0  0  0  0
  -21.5629   -3.4540   25.7731 F   0  0  0  0  0  0
  -29.9469  -13.6977   20.3601 N   0  0  0  0  0  0
  -26.2904  -12.9486   20.3268 N   0  0  0  0  0  0
  -25.9356  -11.6607   20.5757 N   0  0  0  0  0  0
  -22.0475  -12.8179   22.0412 N   0  0  0  0  0  0
  -25.4222  -15.1966   20.4156 N   0  0  0  0  0  0
  -31.7931  -14.9372   20.1345 O   0  0  0  0  0  0
  -21.6649   -6.8908   21.4244 O   0  0  0  0  0  0
  -22.3495  -14.5535   20.6746 O   0  0  0  0  0  0
  -24.6421  -31.8453   23.1895 C   0  0  0  0  0  0
  -25.9197  -32.4703   23.8275 C   0  0  1  0  0  0
  -27.2080  -27.1460   20.1363 C   0  0  0  0  0  0
  -25.5957  -33.8511   24.2196 N   0  0  0  0  0  0
  -23.4434  -30.4667   21.5361 C   0  0  2  0  0  0
  -24.8907  -28.8981   20.1059 C   0  0  0  0  0  0
  -22.7553  -29.4551   22.4862 C   0  0  0  0  0  0
  -18.0300  -28.1403   22.8480 C   0  0  0  0  0  0
  -24.1484  -36.7255   23.2641 C   0  0  0  0  0  0
  -25.9987  -30.7216   21.3856 C   0  0  0  0  0  0
  -26.0678  -29.3344   20.7258 C   0  0  0  0  0  0
  -27.2272  -28.4731   20.7268 C   0  0  0  0  0  0
  -26.0070  -26.8144   19.4705 C   0  0  0  0  0  0
  -24.8726  -27.6521   19.4638 C   0  0  0  0  0  0
  -23.6673  -29.7997   20.1532 C   0  0  0  0  0  0
  -25.4117  -36.3036   24.0315 C   0  0  1  0  0  0
  -20.5912  -28.3725   23.1244 C   0  0  2  0  0  0
  -20.6787  -26.9429   22.5408 C   0  0  0  0  0  0
  -19.5763  -26.6391   21.5215 C   0  0  0  0  0  0
  -18.1939  -26.7949   22.1616 C   0  0  0  0  0  0
  -19.1556  -28.8881   23.2855 C   0  0  0  0  0  0
  -18.9480  -30.1479   23.8880 C   0  0  0  0  0  0
  -17.6479  -30.6603   24.0563 C   0  0  0  0  0  0
  -25.9072  -34.9412   23.5060 C   0  0  0  0  0  0
  -16.5365  -29.9100   23.6339 C   0  0  0  0  0  0
  -16.7288  -28.6519   23.0361 C   0  0  0  0  0  0
  -26.4529  -31.6564   25.0708 C   0  0  0  0  0  0
  -25.3709  -31.3766   26.1398 C   0  0  0  0  0  0
  -27.0382  -30.2959   24.6271 C   0  0  0  0  0  0
  -27.6069  -32.4324   25.7490 C   0  0  0  0  0  0
  -27.5573  -37.1782   24.8464 C   0  0  0  0  0  0
  -21.4248  -29.3053   22.3619 N   0  0  0  0  0  0
  -26.4282  -37.3748   23.9412 N   0  0  0  0  0  0
  -24.7147  -31.0321   22.0922 N   0  0  0  0  0  0
  -23.4215  -28.8079   23.2985 O   0  0  0  0  0  0
  -28.2588  -26.1633   20.2173 O   0  0  0  0  0  0
  -26.5654  -34.8906   22.4638 O   0  0  0  0  0  0
  -23.5548  -32.1325   23.7124 O   0  0  0  0  0  0
  -29.8587  -18.6415   21.5323 C   0  0  0  0  0  0
  -29.1341  -18.5228   19.2415 C   0  0  0  0  0  0
  -29.5185  -17.0456   21.5485 C   0  0  0  0  0  0
  -30.0548  -17.1850   19.2546 C   0  0  0  0  0  0
  -28.2177  -20.7292   20.7255 C   0  0  0  0  0  0
  -30.0851  -20.9799   20.0649 C   0  0  0  0  0  0
  -29.3232  -19.6106   20.3829 C   0  0  0  0  0  0
  -28.9523  -23.3621   20.4938 C   0  0  0  0  0  0
  -28.0244  -24.6458   19.9362 C   0  0  0  0  0  0
  -29.8712  -16.1779   20.3654 N   0  0  0  0  0  0
  -28.8643  -21.8605   19.9661 N   0  3  0  0  0  0
  -31.4647  -12.7054   19.1874 H   0  0  0  0  0  0
  -30.3938  -11.6317   20.0417 H   0  0  0  0  0  0
  -29.8331  -11.7347   17.5776 H   0  0  0  0  0  0
  -29.6090  -13.4636   17.6968 H   0  0  0  0  0  0
  -27.9442  -11.2782   18.9807 H   0  0  0  0  0  0
  -27.3886  -12.4537   17.8166 H   0  0  0  0  0  0
  -27.5875  -14.2546   19.4018 H   0  0  0  0  0  0
  -28.7529  -12.3502   21.4867 H   0  0  0  0  0  0
  -28.3758  -14.0459   21.7221 H   0  0  0  0  0  0
  -25.2797   -9.5681   22.4764 H   0  0  0  0  0  0
  -24.0021   -7.4644   22.7472 H   0  0  0  0  0  0
  -21.0887   -8.8803   19.8929 H   0  0  0  0  0  0
  -22.3765  -10.9693   19.6150 H   0  0  0  0  0  0
  -21.2003   -7.6160   23.9727 H   0  0  0  0  0  0
  -21.1474   -6.0527   25.9077 H   0  0  0  0  0  0
  -22.0599   -2.7628   23.2831 H   0  0  0  0  0  0
  -22.4104  -11.9803   22.4716 H   0  0  0  0  0  0
  -21.1101  -13.1189   22.2661 H   0  0  0  0  0  0
  -24.6652  -15.8624   20.5259 H   0  0  0  0  0  0
  -26.2890  -15.6272   20.1183 H   0  0  0  0  0  0
  -26.7256  -32.5312   23.0997 H   0  0  0  0  0  0
  -25.0100  -33.9633   25.0341 H   0  0  0  0  0  0
  -22.7449  -31.2927   21.3847 H   0  0  0  0  0  0
  -23.3762  -35.9567   23.3274 H   0  0  0  0  0  0
  -24.3571  -36.8921   22.2058 H   0  0  0  0  0  0
  -23.7222  -37.6433   23.6702 H   0  0  0  0  0  0
  -26.1490  -31.4759   20.6121 H   0  0  0  0  0  0
  -26.8716  -30.7747   22.0243 H   0  0  0  0  0  0
  -28.1231  -28.8001   21.2366 H   0  0  0  0  0  0
  -25.9048  -25.8677   18.9615 H   0  0  0  0  0  0
  -23.9740  -27.3189   18.9623 H   0  0  0  0  0  0
  -23.8004  -30.5768   19.3993 H   0  0  0  0  0  0
  -22.7813  -29.2427   19.8436 H   0  0  0  0  0  0
  -25.1302  -36.1863   25.0804 H   0  0  0  0  0  0
  -21.0002  -28.3318   24.1367 H   0  0  0  0  0  0
  -20.5700  -26.2330   23.3623 H   0  0  0  0  0  0
  -21.6653  -26.7450   22.1192 H   0  0  0  0  0  0
  -19.6926  -25.6299   21.1260 H   0  0  0  0  0  0
  -19.6715  -27.3186   20.6733 H   0  0  0  0  0  0
  -17.4215  -26.6714   21.4005 H   0  0  0  0  0  0
  -18.0319  -26.0087   22.9002 H   0  0  0  0  0  0
  -19.7957  -30.7296   24.2246 H   0  0  0  0  0  0
  -17.5037  -31.6284   24.5166 H   0  0  0  0  0  0
  -15.5373  -30.3003   23.7681 H   0  0  0  0  0  0
  -15.8682  -28.0842   22.7088 H   0  0  0  0  0  0
  -24.5906  -30.7089   25.7729 H   0  0  0  0  0  0
  -24.8867  -32.2949   26.4733 H   0  0  0  0  0  0
  -25.7976  -30.9013   27.0237 H   0  0  0  0  0  0
  -26.2988  -29.6690   24.1273 H   0  0  0  0  0  0
  -27.4002  -29.7255   25.4836 H   0  0  0  0  0  0
  -27.8895  -30.4202   23.9571 H   0  0  0  0  0  0
  -27.2696  -33.3691   26.1941 H   0  0  0  0  0  0
  -28.3946  -32.6768   25.0349 H   0  0  0  0  0  0
  -28.0646  -31.8512   26.5506 H   0  0  0  0  0  0
  -28.2574  -38.0091   24.7515 H   0  0  0  0  0  0
  -28.1086  -36.2624   24.6287 H   0  0  0  0  0  0
  -27.2294  -37.1419   25.8866 H   0  0  0  0  0  0
  -20.9450  -29.8796   21.6827 H   0  0  0  0  0  0
  -26.0148  -38.2813   24.1435 H   0  0  0  0  0  0
  -30.9458  -18.7304   21.5649 H   0  0  0  0  0  0
  -29.5357  -19.0411   22.4937 H   0  0  0  0  0  0
  -28.0920  -18.2003   19.2311 H   0  0  0  0  0  0
  -29.2734  -19.0053   18.2732 H   0  0  0  0  0  0
  -28.4481  -16.9250   21.7169 H   0  0  0  0  0  0
  -29.9977  -16.6146   22.4290 H   0  0  0  0  0  0
  -31.1042  -17.4854   19.2388 H   0  0  0  0  0  0
  -29.9009  -16.6516   18.3149 H   0  0  0  0  0  0
  -28.1705  -20.9524   21.7933 H   0  0  0  0  0  0
  -27.2192  -20.4931   20.3553 H   0  0  0  0  0  0
  -30.6608  -20.9655   19.1390 H   0  0  0  0  0  0
  -30.7276  -21.2953   20.8898 H   0  0  0  0  0  0
  -28.8902  -23.3394   21.5811 H   0  0  0  0  0  0
  -29.9792  -23.6585   20.2813 H   0  0  0  0  0  0
  -27.0080  -24.4201   20.2598 H   0  0  0  0  0  0
  -28.0026  -24.5676   18.8494 H   0  0  0  0  0  0
  -28.5392  -21.8482   19.0105 H   0  0  0  0  0  0
  1 25  1  0  0  0
  1 30  2  0  0  0
  1 80  1  0  0  0
  2  3  1  0  0  0
  2 25  1  0  0  0
  2 82  1  0  0  0
  2 83  1  0  0  0
  3  4  1  0  0  0
  3 84  1  0  0  0
  3 85  1  0  0  0
  4  5  1  0  0  0
  4 86  1  0  0  0
  4 87  1  0  0  0
  5  6  1  0  0  0
  5 26  1  0  0  0
  5 88  1  0  0  0
  6 25  1  0  0  0
  6 89  1  0  0  0
  6 90  1  0  0  0
  7  8  2  0  0  0
  7 26  1  0  0  0
  7 29  1  0  0  0
  8  9  1  0  0  0
  8 22  1  0  0  0
  9 10  1  0  0  0
  9 27  2  0  0  0
 10 11  2  0  0  0
 10 15  1  0  0  0
 11 12  1  0  0  0
 11 91  1  0  0  0
 12 13  2  0  0  0
 12 92  1  0  0  0
 13 14  1  0  0  0
 13 31  1  0  0  0
 14 15  2  0  0  0
 14 93  1  0  0  0
 15 94  1  0  0  0
 16 17  2  0  0  0
 16 21  1  0  0  0
 16 31  1  0  0  0
 17 18  1  0  0  0
 17 95  1  0  0  0
 18 19  2  0  0  0
 18 96  1  0  0  0
 19 20  1  0  0  0
 19 24  1  0  0  0
 20 21  2  0  0  0
 20 97  1  0  0  0
 21 23  1  0  0  0
 22 28  1  0  0  0
 22 32  2  0  0  0
 26 27  1  0  0  0
 28 98  1  0  0  0
 28 99  1  0  0  0
 29100  1  0  0  0
 29101  1  0  0  0
 33 34  1  0  0  0
 33 66  1  0  0  0
 33 70  2  0  0  0
 34 36  1  0  0  0
 34 59  1  0  0  0
 34102  1  0  0  0
 35 44  2  0  0  0
 35 45  1  0  0  0
 35 68  1  0  0  0
 36 56  1  0  0  0
 36103  1  0  0  0
 37 39  1  0  0  0
 37 47  1  0  0  0
 37 66  1  0  0  0
 37104  1  0  0  0
 38 43  2  0  0  0
 38 46  1  0  0  0
 38 47  1  0  0  0
 39 64  1  0  0  0
 39 67  2  0  0  0
 40 52  1  0  0  0
 40 53  2  0  0  0
 40 58  1  0  0  0
 41105  1  0  0  0
 41106  1  0  0  0
 41107  1  0  0  0
 41 48  1  0  0  0
 42 43  1  0  0  0
 42 66  1  0  0  0
 42108  1  0  0  0
 42109  1  0  0  0
 43 44  1  0  0  0
 44110  1  0  0  0
 45 46  2  0  0  0
 45111  1  0  0  0
 46112  1  0  0  0
 47113  1  0  0  0
 47114  1  0  0  0
 48 56  1  0  0  0
 48 65  1  0  0  0
 48115  1  0  0  0
 49 50  1  0  0  0
 49 53  1  0  0  0
 49 64  1  0  0  0
 49116  1  0  0  0
 50 51  1  0  0  0
 50117  1  0  0  0
 50118  1  0  0  0
 51 52  1  0  0  0
 51119  1  0  0  0
 51120  1  0  0  0
 52121  1  0  0  0
 52122  1  0  0  0
 53 54  1  0  0  0
 54 55  2  0  0  0
 54123  1  0  0  0
 55 57  1  0  0  0
 55124  1  0  0  0
 56 69  2  0  0  0
 57 58  2  0  0  0
 57125  1  0  0  0
 58126  1  0  0  0
 59 60  1  0  0  0
 59 61  1  0  0  0
 59 62  1  0  0  0
 60127  1  0  0  0
 60128  1  0  0  0
 60129  1  0  0  0
 61130  1  0  0  0
 61131  1  0  0  0
 61132  1  0  0  0
 62133  1  0  0  0
 62134  1  0  0  0
 62135  1  0  0  0
 63 65  1  0  0  0
 63136  1  0  0  0
 63137  1  0  0  0
 63138  1  0  0  0
 64139  1  0  0  0
 65140  1  0  0  0
 68 79  1  0  0  0
 71 73  1  0  0  0
 71141  1  0  0  0
 71142  1  0  0  0
 71 77  1  0  0  0
 72 74  1  0  0  0
 72 77  1  0  0  0
 72143  1  0  0  0
 72144  1  0  0  0
 73 80  1  0  0  0
 73145  1  0  0  0
 73146  1  0  0  0
 74 80  1  0  0  0
 74147  1  0  0  0
 74148  1  0  0  0
 75 77  1  0  0  0
 75 81  1  0  0  0
 75149  1  0  0  0
 75150  1  0  0  0
 76 77  1  0  0  0
 76 81  1  0  0  0
 76151  1  0  0  0
 76152  1  0  0  0
 78 79  1  0  0  0
 78153  1  0  0  0
 78154  1  0  0  0
 78 81  1  0  0  0
 79155  1  0  0  0
 79156  1  0  0  0
 81157  1  0  0  0
M  CHG  1  81   1
M  ISO  4   1 100  68 101  79 101  80 100
M  END
> <chiral flag>
0

> <version>
0

> <s_m_source_file>
/data/baiqing/PycharmProjects/Reinvent-master-3.2/result/LINK_invent/BTK/process_docking_weight1_custom_product_contain_oxygen_bond_distance_aromatic_linkinvent_7_9_3/rearranged_h_0009.sdf

> <i_m_source_file_index>
59

> <r_mmod_Potential_Energy-OPLS-2005>
618.265502929688

> <r_mmod_Stretch_Energy-OPLS-2005>
226.013290405273

> <r_mmod_Bend_Energy-OPLS-2005>
287.867034912109

> <r_mmod_Torsional_Energy-OPLS-2005>
386.409210205078

> <r_mmod_Improper_Torsional_Energy-OPLS-2005>
13.8364868164062

> <r_mmod_Van_der_Waal_Energy-OPLS-2005>
123.831832885742

> <r_mmod_Electrostatic_Energy-OPLS-2005>
-171.176132202148

> <r_mmod_Solvation_Energy-OPLS-2005>
-432.704437255859

> <b_mmod_Minimization_Converged-OPLS-2005>
0

> <r_mmod_RMS_Derivative-OPLS-2005>
1.5589165687561

$$$$
59
                    3D
 Structure written by MMmdl.
148156  0  0  1  0            999 V2000
  -30.5290  -15.0196   20.4062 C   0  0  0  0  0  0
  -30.4381  -12.6367   19.5021 C   0  0  0  0  0  0
  -29.5224  -12.5352   18.2603 C   0  0  0  0  0  0
  -28.0586  -12.3105   18.6821 C   0  0  0  0  0  0
  -27.6242  -13.2552   19.8329 C   0  0  2  0  0  0
  -28.6670  -13.3233   20.9683 C   0  0  0  0  0  0
  -25.2442  -13.8226   20.5725 C   0  0  0  0  0  0
  -24.1770  -13.0438   20.9241 C   0  0  0  0  0  0
  -24.6398  -11.6927   20.8762 C   0  0  0  0  0  0
  -23.9086  -10.4293   21.0411 C   0  0  0  0  0  0
  -24.3631   -9.4205   21.9187 C   0  0  0  0  0  0
  -23.6301   -8.2243   22.0755 C   0  0  0  0  0  0
  -22.4283   -8.0284   21.3545 C   0  0  0  0  0  0
  -21.9924   -9.0260   20.4647 C   0  0  0  0  0  0
  -22.7258  -10.2136   20.3059 C   0  0  0  0  0  0
  -21.6854   -6.0739   22.5278 C   0  0  0  0  0  0
  -21.4015   -6.5642   23.8211 C   0  0  0  0  0  0
  -21.3659   -5.6795   24.9173 C   0  0  0  0  0  0
  -21.6043   -4.3057   24.7224 C   0  0  0  0  0  0
  -21.8819   -3.8150   23.4345 C   0  0  0  0  0  0
  -21.9194   -4.6966   22.3401 C   0  0  0  0  0  0
  -22.7788  -13.5202   21.1891 C   0  0  0  0  0  0
  -22.1662   -4.2152   21.0978 F   0  0  0  0  0  0
  -21.5628   -3.4541   25.7737 F   0  0  0  0  0  0
  -29.9305  -13.7541   20.3564 N   0  0  0  0  0  0
  -26.2867  -12.9469   20.3240 N   0  0  0  0  0  0
  -25.9332  -11.6592   20.5741 N   0  0  0  0  0  0
  -22.0443  -12.8187   22.0446 N   0  0  0  0  0  0
  -25.4088  -15.1958   20.4148 N   0  0  0  0  0  0
  -31.7428  -15.0395   20.1708 O   0  0  0  0  0  0
  -21.6643   -6.8883   21.4240 O   0  0  0  0  0  0
  -22.3470  -14.5505   20.6732 O   0  0  0  0  0  0
  -24.6485  -31.8389   23.1835 C   0  0  0  0  0  0
  -25.9234  -32.4666   23.8245 C   0  0  1  0  0  0
  -27.2149  -27.0837   20.1595 C   0  0  0  0  0  0
  -25.5958  -33.8474   24.2156 N   0  0  0  0  0  0
  -23.4546  -30.4570   21.5303 C   0  0  2  0  0  0
  -24.9043  -28.8741   20.1106 C   0  0  0  0  0  0
  -22.7592  -29.4523   22.4837 C   0  0  0  0  0  0
  -18.0308  -28.1402   22.8479 C   0  0  0  0  0  0
  -24.1489  -36.7243   23.2645 C   0  0  0  0  0  0
  -26.0144  -30.6966   21.3896 C   0  0  0  0  0  0
  -26.0843  -29.3027   20.7315 C   0  0  0  0  0  0
  -27.2401  -28.4257   20.7344 C   0  0  0  0  0  0
  -26.0066  -26.7683   19.5001 C   0  0  0  0  0  0
  -24.8815  -27.6226   19.4777 C   0  0  0  0  0  0
  -23.6841  -29.7836   20.1512 C   0  0  0  0  0  0
  -25.4124  -36.3013   24.0311 C   0  0  1  0  0  0
  -20.5925  -28.3735   23.1224 C   0  0  2  0  0  0
  -20.6793  -26.9432   22.5406 C   0  0  0  0  0  0
  -19.5763  -26.6383   21.5218 C   0  0  0  0  0  0
  -18.1945  -26.7940   22.1627 C   0  0  0  0  0  0
  -19.1567  -28.8887   23.2842 C   0  0  0  0  0  0
  -18.9481  -30.1481   23.8872 C   0  0  0  0  0  0
  -17.6478  -30.6600   24.0560 C   0  0  0  0  0  0
  -25.9079  -34.9392   23.5046 C   0  0  0  0  0  0
  -16.5368  -29.9092   23.6340 C   0  0  0  0  0  0
  -16.7292  -28.6509   23.0364 C   0  0  0  0  0  0
  -26.4536  -31.6558   25.0712 C   0  0  0  0  0  0
  -25.3703  -31.3766   26.1396 C   0  0  0  0  0  0
  -27.0412  -30.2945   24.6337 C   0  0  0  0  0  0
  -27.6052  -32.4342   25.7503 C   0  0  0  0  0  0
  -27.5571  -37.1776   24.8465 C   0  0  0  0  0  0
  -21.4278  -29.3050   22.3587 N   0  0  0  0  0  0
  -26.4281  -37.3733   23.9409 N   0  0  0  0  0  0
  -24.7262  -31.0199   22.0894 N   0  0  0  0  0  0
  -23.4211  -28.8075   23.3010 O   0  0  0  0  0  0
  -28.2545  -26.0681   20.2288 O   0  0  0  0  0  0
  -26.5674  -34.8902   22.4630 O   0  0  0  0  0  0
  -23.5591  -32.1287   23.7026 O   0  0  0  0  0  0
  -31.4360  -18.1165   20.7147 C   0  0  0  0  0  0
  -31.8594  -19.4591   20.7859 C   0  0  0  0  0  0
  -29.2035  -18.9755   20.3672 C   0  0  0  0  0  0
  -30.0898  -17.7613   20.5030 C   0  0  0  0  0  0
  -29.5990  -20.4334   20.4256 C   0  0  0  0  0  0
  -31.0030  -20.5769   20.6538 C   0  0  0  0  0  0
  -27.9696  -24.5138   20.1165 C   0  0  0  0  0  0
  -29.0141  -23.1677   20.3371 C   0  0  0  0  0  0
  -29.7562  -16.2372   20.4841 N   0  0  0  0  0  0
  -28.6998  -21.6172   20.2754 O   0  0  0  0  0  0
  -31.8021  -22.1024   20.8007 Cl  0  0  0  0  0  0
  -31.4691  -12.7998   19.1845 H   0  0  0  0  0  0
  -30.4452  -11.6975   20.0577 H   0  0  0  0  0  0
  -29.8537  -11.7254   17.6088 H   0  0  0  0  0  0
  -29.5987  -13.4522   17.6737 H   0  0  0  0  0  0
  -27.9675  -11.2731   19.0056 H   0  0  0  0  0  0
  -27.3935  -12.4220   17.8250 H   0  0  0  0  0  0
  -27.5742  -14.2484   19.3859 H   0  0  0  0  0  0
  -28.7743  -12.3593   21.4677 H   0  0  0  0  0  0
  -28.3559  -14.0369   21.7329 H   0  0  0  0  0  0
  -25.2774   -9.5680   22.4767 H   0  0  0  0  0  0
  -24.0008   -7.4633   22.7475 H   0  0  0  0  0  0
  -21.0854   -8.8783   19.8953 H   0  0  0  0  0  0
  -22.3715  -10.9679   19.6171 H   0  0  0  0  0  0
  -21.2008   -7.6151   23.9714 H   0  0  0  0  0  0
  -21.1481   -6.0526   25.9076 H   0  0  0  0  0  0
  -22.0598   -2.7612   23.2844 H   0  0  0  0  0  0
  -22.4072  -11.9854   22.4835 H   0  0  0  0  0  0
  -21.1056  -13.1198   22.2649 H   0  0  0  0  0  0
  -24.6363  -15.8437   20.5259 H   0  0  0  0  0  0
  -26.2451  -15.6382   20.0574 H   0  0  0  0  0  0
  -26.7300  -32.5253   23.0970 H   0  0  0  0  0  0
  -25.0069  -33.9577   25.0280 H   0  0  0  0  0  0
  -22.7599  -31.2846   21.3721 H   0  0  0  0  0  0
  -23.3756  -35.9568   23.3290 H   0  0  0  0  0  0
  -24.3570  -36.8897   22.2062 H   0  0  0  0  0  0
  -23.7245  -37.6431   23.6701 H   0  0  0  0  0  0
  -26.1758  -31.4480   20.6156 H   0  0  0  0  0  0
  -26.8824  -30.7478   22.0353 H   0  0  0  0  0  0
  -28.1384  -28.7500   21.2407 H   0  0  0  0  0  0
  -25.8960  -25.8119   19.0127 H   0  0  0  0  0  0
  -23.9815  -27.2897   18.9789 H   0  0  0  0  0  0
  -23.8259  -30.5571   19.3954 H   0  0  0  0  0  0
  -22.7972  -29.2299   19.8384 H   0  0  0  0  0  0
  -25.1314  -36.1828   25.0802 H   0  0  0  0  0  0
  -21.0017  -28.3333   24.1347 H   0  0  0  0  0  0
  -20.5691  -26.2349   23.3631 H   0  0  0  0  0  0
  -21.6656  -26.7435   22.1199 H   0  0  0  0  0  0
  -19.6924  -25.6286   21.1268 H   0  0  0  0  0  0
  -19.6701  -27.3176   20.6733 H   0  0  0  0  0  0
  -17.4214  -26.6689   21.4030 H   0  0  0  0  0  0
  -18.0338  -26.0088   22.9028 H   0  0  0  0  0  0
  -19.7957  -30.7303   24.2233 H   0  0  0  0  0  0
  -17.5031  -31.6278   24.5164 H   0  0  0  0  0  0
  -15.5369  -30.2987   23.7679 H   0  0  0  0  0  0
  -15.8691  -28.0818   22.7099 H   0  0  0  0  0  0
  -24.5886  -30.7113   25.7711 H   0  0  0  0  0  0
  -24.8890  -32.2955   26.4752 H   0  0  0  0  0  0
  -25.7968  -30.8980   27.0220 H   0  0  0  0  0  0
  -26.3045  -29.6652   24.1330 H   0  0  0  0  0  0
  -27.3986  -29.7264   25.4937 H   0  0  0  0  0  0
  -27.8967  -30.4163   23.9690 H   0  0  0  0  0  0
  -27.2634  -33.3670   26.2001 H   0  0  0  0  0  0
  -28.3904  -32.6862   25.0363 H   0  0  0  0  0  0
  -28.0674  -31.8524   26.5487 H   0  0  0  0  0  0
  -28.2575  -38.0085   24.7512 H   0  0  0  0  0  0
  -28.1081  -36.2613   24.6290 H   0  0  0  0  0  0
  -27.2288  -37.1419   25.8867 H   0  0  0  0  0  0
  -20.9499  -29.8753   21.6750 H   0  0  0  0  0  0
  -26.0140  -38.2795   24.1420 H   0  0  0  0  0  0
  -32.1911  -17.3568   20.8470 H   0  0  0  0  0  0
  -32.9097  -19.6433   20.9592 H   0  0  0  0  0  0
  -28.1528  -18.7832   20.2072 H   0  0  0  0  0  0
  -27.1294  -24.3396   20.7892 H   0  0  0  0  0  0
  -27.5590  -24.3744   19.1170 H   0  0  0  0  0  0
  -29.4665  -23.3260   21.3155 H   0  0  0  0  0  0
  -29.8032  -23.3268   19.6036 H   0  0  0  0  0  0
  -28.7679  -16.0425   20.5352 H   0  0  0  0  0  0
  1 25  1  0  0  0
  1 30  2  0  0  0
  1 79  1  0  0  0
  2  3  1  0  0  0
  2 25  1  0  0  0
  2 82  1  0  0  0
  2 83  1  0  0  0
  3  4  1  0  0  0
  3 84  1  0  0  0
  3 85  1  0  0  0
  4  5  1  0  0  0
  4 86  1  0  0  0
  4 87  1  0  0  0
  5  6  1  0  0  0
  5 26  1  0  0  0
  5 88  1  0  0  0
  6 25  1  0  0  0
  6 89  1  0  0  0
  6 90  1  0  0  0
  7  8  2  0  0  0
  7 26  1  0  0  0
  7 29  1  0  0  0
  8  9  1  0  0  0
  8 22  1  0  0  0
  9 10  1  0  0  0
  9 27  2  0  0  0
 10 11  2  0  0  0
 10 15  1  0  0  0
 11 12  1  0  0  0
 11 91  1  0  0  0
 12 13  2  0  0  0
 12 92  1  0  0  0
 13 14  1  0  0  0
 13 31  1  0  0  0
 14 15  2  0  0  0
 14 93  1  0  0  0
 15 94  1  0  0  0
 16 17  2  0  0  0
 16 21  1  0  0  0
 16 31  1  0  0  0
 17 18  1  0  0  0
 17 95  1  0  0  0
 18 19  2  0  0  0
 18 96  1  0  0  0
 19 20  1  0  0  0
 19 24  1  0  0  0
 20 21  2  0  0  0
 20 97  1  0  0  0
 21 23  1  0  0  0
 22 28  1  0  0  0
 22 32  2  0  0  0
 26 27  1  0  0  0
 28 98  1  0  0  0
 28 99  1  0  0  0
 29100  1  0  0  0
 29101  1  0  0  0
 33 34  1  0  0  0
 33 66  1  0  0  0
 33 70  2  0  0  0
 34 36  1  0  0  0
 34 59  1  0  0  0
 34102  1  0  0  0
 35 44  2  0  0  0
 35 45  1  0  0  0
 35 68  1  0  0  0
 36 56  1  0  0  0
 36103  1  0  0  0
 37 39  1  0  0  0
 37 47  1  0  0  0
 37 66  1  0  0  0
 37104  1  0  0  0
 38 43  2  0  0  0
 38 46  1  0  0  0
 38 47  1  0  0  0
 39 64  1  0  0  0
 39 67  2  0  0  0
 40 52  1  0  0  0
 40 53  2  0  0  0
 40 58  1  0  0  0
 41105  1  0  0  0
 41106  1  0  0  0
 41107  1  0  0  0
 41 48  1  0  0  0
 42 43  1  0  0  0
 42 66  1  0  0  0
 42108  1  0  0  0
 42109  1  0  0  0
 43 44  1  0  0  0
 44110  1  0  0  0
 45 46  2  0  0  0
 45111  1  0  0  0
 46112  1  0  0  0
 47113  1  0  0  0
 47114  1  0  0  0
 48 56  1  0  0  0
 48 65  1  0  0  0
 48115  1  0  0  0
 49 50  1  0  0  0
 49 53  1  0  0  0
 49 64  1  0  0  0
 49116  1  0  0  0
 50 51  1  0  0  0
 50117  1  0  0  0
 50118  1  0  0  0
 51 52  1  0  0  0
 51119  1  0  0  0
 51120  1  0  0  0
 52121  1  0  0  0
 52122  1  0  0  0
 53 54  1  0  0  0
 54 55  2  0  0  0
 54123  1  0  0  0
 55 57  1  0  0  0
 55124  1  0  0  0
 56 69  2  0  0  0
 57 58  2  0  0  0
 57125  1  0  0  0
 58126  1  0  0  0
 59 60  1  0  0  0
 59 61  1  0  0  0
 59 62  1  0  0  0
 60127  1  0  0  0
 60128  1  0  0  0
 60129  1  0  0  0
 61130  1  0  0  0
 61131  1  0  0  0
 61132  1  0  0  0
 62133  1  0  0  0
 62134  1  0  0  0
 62135  1  0  0  0
 63 65  1  0  0  0
 63136  1  0  0  0
 63137  1  0  0  0
 63138  1  0  0  0
 64139  1  0  0  0
 65140  1  0  0  0
 68 77  1  0  0  0
 71 72  2  0  0  0
 71 74  1  0  0  0
 71141  1  0  0  0
 72 76  1  0  0  0
 72142  1  0  0  0
 73 74  2  0  0  0
 73 75  1  0  0  0
 73143  1  0  0  0
 74 79  1  0  0  0
 75 76  2  0  0  0
 75 80  1  0  0  0
 76 81  1  0  0  0
 77 78  1  0  0  0
 77144  1  0  0  0
 77145  1  0  0  0
 78 80  1  0  0  0
 78146  1  0  0  0
 78147  1  0  0  0
 79148  1  0  0  0
M  ISO  4   1 100  68 101  77 101  79 100
M  END
> <chiral flag>
0

> <version>
0

> <s_m_source_file>
/data/baiqing/PycharmProjects/Reinvent-master-3.2/result/LINK_invent/BTK/process_docking_weight1_custom_product_contain_oxygen_bond_distance_aromatic_linkinvent_7_9_3/rearranged_h_0009.sdf

> <i_m_source_file_index>
60

> <r_mmod_Potential_Energy-OPLS-2005>
671.287353515625

> <r_mmod_Stretch_Energy-OPLS-2005>
335.650939941406

> <r_mmod_Bend_Energy-OPLS-2005>
295.341583251953

> <r_mmod_Torsional_Energy-OPLS-2005>
210.673706054688

> <r_mmod_Improper_Torsional_Energy-OPLS-2005>
5.0516185760498

> <r_mmod_Van_der_Waal_Energy-OPLS-2005>
142.006500244141

> <r_mmod_Electrostatic_Energy-OPLS-2005>
-348.162994384766

> <r_mmod_Solvation_Energy-OPLS-2005>
-212.564102172852

> <b_mmod_Minimization_Converged-OPLS-2005>
0

> <r_mmod_RMS_Derivative-OPLS-2005>
0.2660131752491

$$$$
60
                    3D
 Structure written by MMmdl.
148156  0  0  1  0            999 V2000
  -30.5089  -14.9122   20.4351 C   0  0  0  0  0  0
  -30.4555  -12.5616   19.4901 C   0  0  0  0  0  0
  -29.5264  -12.5317   18.2520 C   0  0  0  0  0  0
  -28.0565  -12.3206   18.6662 C   0  0  0  0  0  0
  -27.6389  -13.2354   19.8464 C   0  0  2  0  0  0
  -28.6835  -13.2119   20.9840 C   0  0  0  0  0  0
  -25.2500  -13.8182   20.5681 C   0  0  0  0  0  0
  -24.1806  -13.0431   20.9230 C   0  0  0  0  0  0
  -24.6402  -11.6911   20.8760 C   0  0  0  0  0  0
  -23.9076  -10.4289   21.0416 C   0  0  0  0  0  0
  -24.3624   -9.4201   21.9190 C   0  0  0  0  0  0
  -23.6294   -8.2240   22.0758 C   0  0  0  0  0  0
  -22.4276   -8.0282   21.3547 C   0  0  0  0  0  0
  -21.9915   -9.0259   20.4652 C   0  0  0  0  0  0
  -22.7249  -10.2135   20.3063 C   0  0  0  0  0  0
  -21.6853   -6.0736   22.5279 C   0  0  0  0  0  0
  -21.4015   -6.5640   23.8212 C   0  0  0  0  0  0
  -21.3659   -5.6793   24.9175 C   0  0  0  0  0  0
  -21.6044   -4.3056   24.7225 C   0  0  0  0  0  0
  -21.8818   -3.8147   23.4347 C   0  0  0  0  0  0
  -21.9192   -4.6963   22.3402 C   0  0  0  0  0  0
  -22.7826  -13.5218   21.1880 C   0  0  0  0  0  0
  -22.1661   -4.2149   21.0979 F   0  0  0  0  0  0
  -21.5626   -3.4539   25.7738 F   0  0  0  0  0  0
  -29.9682  -13.6307   20.4025 N   0  0  0  0  0  0
  -26.2925  -12.9392   20.3247 N   0  0  0  0  0  0
  -25.9332  -11.6537   20.5742 N   0  0  0  0  0  0
  -22.0465  -12.8213   22.0434 N   0  0  0  0  0  0
  -25.4162  -15.1901   20.4026 N   0  0  0  0  0  0
  -31.6970  -15.0562   20.1234 O   0  0  0  0  0  0
  -21.6639   -6.8881   21.4242 O   0  0  0  0  0  0
  -22.3518  -14.5520   20.6717 O   0  0  0  0  0  0
  -24.6422  -31.8456   23.1895 C   0  0  0  0  0  0
  -25.9199  -32.4704   23.8282 C   0  0  1  0  0  0
  -27.2214  -27.1519   20.1469 C   0  0  0  0  0  0
  -25.5952  -33.8509   24.2201 N   0  0  0  0  0  0
  -23.4453  -30.4654   21.5351 C   0  0  2  0  0  0
  -24.8953  -28.8959   20.1105 C   0  0  0  0  0  0
  -22.7562  -29.4552   22.4864 C   0  0  0  0  0  0
  -18.0305  -28.1392   22.8480 C   0  0  0  0  0  0
  -24.1492  -36.7261   23.2642 C   0  0  0  0  0  0
  -26.0006  -30.7245   21.3860 C   0  0  0  0  0  0
  -26.0728  -29.3373   20.7273 C   0  0  0  0  0  0
  -27.2369  -28.4820   20.7280 C   0  0  0  0  0  0
  -26.0152  -26.8096   19.4937 C   0  0  0  0  0  0
  -24.8787  -27.6448   19.4786 C   0  0  0  0  0  0
  -23.6712  -29.7962   20.1539 C   0  0  0  0  0  0
  -25.4122  -36.3038   24.0318 C   0  0  1  0  0  0
  -20.5917  -28.3717   23.1239 C   0  0  2  0  0  0
  -20.6789  -26.9422   22.5403 C   0  0  0  0  0  0
  -19.5760  -26.6380   21.5213 C   0  0  0  0  0  0
  -18.1944  -26.7931   22.1628 C   0  0  0  0  0  0
  -19.1562  -28.8873   23.2853 C   0  0  0  0  0  0
  -18.9477  -30.1469   23.8878 C   0  0  0  0  0  0
  -17.6473  -30.6589   24.0558 C   0  0  0  0  0  0
  -25.9071  -34.9412   23.5068 C   0  0  0  0  0  0
  -16.5365  -29.9082   23.6333 C   0  0  0  0  0  0
  -16.7289  -28.6500   23.0357 C   0  0  0  0  0  0
  -26.4522  -31.6564   25.0716 C   0  0  0  0  0  0
  -25.3712  -31.3749   26.1414 C   0  0  0  0  0  0
  -27.0385  -30.2963   24.6283 C   0  0  0  0  0  0
  -27.6053  -32.4328   25.7502 C   0  0  0  0  0  0
  -27.5575  -37.1788   24.8465 C   0  0  0  0  0  0
  -21.4255  -29.3048   22.3615 N   0  0  0  0  0  0
  -26.4286  -37.3749   23.9408 N   0  0  0  0  0  0
  -24.7158  -31.0325   22.0923 N   0  0  0  0  0  0
  -23.4210  -28.8096   23.3008 O   0  0  0  0  0  0
  -28.2796  -26.1752   20.2158 O   0  0  0  0  0  0
  -26.5655  -34.8906   22.4645 O   0  0  0  0  0  0
  -23.5543  -32.1325   23.7122 O   0  0  0  0  0  0
  -30.4979  -18.5502   20.3681 C   0  0  0  0  0  0
  -30.1918  -19.9876   20.3030 C   0  0  0  0  0  0
  -28.2013  -18.0915   20.6159 C   0  0  0  0  0  0
  -29.5058  -17.5125   20.5303 C   0  0  0  0  0  0
  -28.8604  -20.5427   20.3787 C   0  0  0  0  0  0
  -27.8953  -19.4982   20.5370 C   0  0  0  0  0  0
  -27.9814  -24.6559   20.0800 C   0  0  0  0  0  0
  -28.9666  -23.3090   20.3181 C   0  0  0  0  0  0
  -29.6181  -15.9877   20.6567 N   0  0  0  0  0  0
  -28.3436  -21.9122   20.2867 O   0  0  0  0  0  0
  -26.5907  -19.8568   20.6201 F   0  0  0  0  0  0
  -31.4867  -12.7370   19.1791 H   0  0  0  0  0  0
  -30.4561  -11.5962   19.9987 H   0  0  0  0  0  0
  -29.8377  -11.7454   17.5632 H   0  0  0  0  0  0
  -29.6191  -13.4710   17.7045 H   0  0  0  0  0  0
  -27.9424  -11.2750   18.9545 H   0  0  0  0  0  0
  -27.3955  -12.4747   17.8124 H   0  0  0  0  0  0
  -27.6160  -14.2467   19.4405 H   0  0  0  0  0  0
  -28.7608  -12.2155   21.4218 H   0  0  0  0  0  0
  -28.3869  -13.8773   21.7964 H   0  0  0  0  0  0
  -25.2769   -9.5672   22.4767 H   0  0  0  0  0  0
  -24.0000   -7.4629   22.7477 H   0  0  0  0  0  0
  -21.0844   -8.8784   19.8957 H   0  0  0  0  0  0
  -22.3712  -10.9678   19.6174 H   0  0  0  0  0  0
  -21.2010   -7.6149   23.9716 H   0  0  0  0  0  0
  -21.1480   -6.0523   25.9077 H   0  0  0  0  0  0
  -22.0597   -2.7608   23.2848 H   0  0  0  0  0  0
  -22.4083  -11.9878   22.4830 H   0  0  0  0  0  0
  -21.1084  -13.1242   22.2641 H   0  0  0  0  0  0
  -24.6295  -15.8261   20.4770 H   0  0  0  0  0  0
  -26.2182  -15.6066   19.9499 H   0  0  0  0  0  0
  -26.7265  -32.5316   23.1014 H   0  0  0  0  0  0
  -25.0077  -33.9626   25.0333 H   0  0  0  0  0  0
  -22.7472  -31.2910   21.3818 H   0  0  0  0  0  0
  -23.3757  -35.9590   23.3292 H   0  0  0  0  0  0
  -24.3578  -36.8903   22.2059 H   0  0  0  0  0  0
  -23.7245  -37.6454   23.6684 H   0  0  0  0  0  0
  -26.1536  -31.4794   20.6136 H   0  0  0  0  0  0
  -26.8721  -30.7754   22.0269 H   0  0  0  0  0  0
  -28.1335  -28.8156   21.2313 H   0  0  0  0  0  0
  -25.9102  -25.8553   19.0018 H   0  0  0  0  0  0
  -23.9801  -27.3016   18.9846 H   0  0  0  0  0  0
  -23.8070  -30.5716   19.3992 H   0  0  0  0  0  0
  -22.7864  -29.2380   19.8427 H   0  0  0  0  0  0
  -25.1309  -36.1869   25.0810 H   0  0  0  0  0  0
  -21.0010  -28.3306   24.1360 H   0  0  0  0  0  0
  -20.5685  -26.2330   23.3621 H   0  0  0  0  0  0
  -21.6654  -26.7429   22.1199 H   0  0  0  0  0  0
  -19.6921  -25.6286   21.1255 H   0  0  0  0  0  0
  -19.6694  -27.3179   20.6734 H   0  0  0  0  0  0
  -17.4210  -26.6673   21.4035 H   0  0  0  0  0  0
  -18.0346  -26.0078   22.9030 H   0  0  0  0  0  0
  -19.7952  -30.7291   24.2241 H   0  0  0  0  0  0
  -17.5025  -31.6268   24.5163 H   0  0  0  0  0  0
  -15.5364  -30.2977   23.7663 H   0  0  0  0  0  0
  -15.8691  -28.0808   22.7085 H   0  0  0  0  0  0
  -24.5894  -30.7094   25.7734 H   0  0  0  0  0  0
  -24.8898  -32.2930   26.4792 H   0  0  0  0  0  0
  -25.7998  -30.8952   27.0222 H   0  0  0  0  0  0
  -26.2998  -29.6690   24.1281 H   0  0  0  0  0  0
  -27.3997  -29.7256   25.4848 H   0  0  0  0  0  0
  -27.8906  -30.4204   23.9597 H   0  0  0  0  0  0
  -27.2645  -33.3646   26.2028 H   0  0  0  0  0  0
  -28.3892  -32.6860   25.0352 H   0  0  0  0  0  0
  -28.0689  -31.8488   26.5463 H   0  0  0  0  0  0
  -28.2585  -38.0091   24.7510 H   0  0  0  0  0  0
  -28.1079  -36.2622   24.6295 H   0  0  0  0  0  0
  -27.2293  -37.1437   25.8868 H   0  0  0  0  0  0
  -20.9461  -29.8768   21.6802 H   0  0  0  0  0  0
  -26.0155  -38.2818   24.1409 H   0  0  0  0  0  0
  -31.5349  -18.2525   20.2974 H   0  0  0  0  0  0
  -31.0171  -20.6732   20.1773 H   0  0  0  0  0  0
  -27.3590  -17.4297   20.7477 H   0  0  0  0  0  0
  -27.1214  -24.4889   20.7294 H   0  0  0  0  0  0
  -27.6025  -24.5258   19.0670 H   0  0  0  0  0  0
  -29.4518  -23.4117   21.2888 H   0  0  0  0  0  0
  -29.7707  -23.3307   19.5826 H   0  0  0  0  0  0
  -28.7268  -15.5824   20.8973 H   0  0  0  0  0  0
  1 25  1  0  0  0
  1 30  2  0  0  0
  1 79  1  0  0  0
  2  3  1  0  0  0
  2 25  1  0  0  0
  2 82  1  0  0  0
  2 83  1  0  0  0
  3  4  1  0  0  0
  3 84  1  0  0  0
  3 85  1  0  0  0
  4  5  1  0  0  0
  4 86  1  0  0  0
  4 87  1  0  0  0
  5  6  1  0  0  0
  5 26  1  0  0  0
  5 88  1  0  0  0
  6 25  1  0  0  0
  6 89  1  0  0  0
  6 90  1  0  0  0
  7  8  2  0  0  0
  7 26  1  0  0  0
  7 29  1  0  0  0
  8  9  1  0  0  0
  8 22  1  0  0  0
  9 10  1  0  0  0
  9 27  2  0  0  0
 10 11  2  0  0  0
 10 15  1  0  0  0
 11 12  1  0  0  0
 11 91  1  0  0  0
 12 13  2  0  0  0
 12 92  1  0  0  0
 13 14  1  0  0  0
 13 31  1  0  0  0
 14 15  2  0  0  0
 14 93  1  0  0  0
 15 94  1  0  0  0
 16 17  2  0  0  0
 16 21  1  0  0  0
 16 31  1  0  0  0
 17 18  1  0  0  0
 17 95  1  0  0  0
 18 19  2  0  0  0
 18 96  1  0  0  0
 19 20  1  0  0  0
 19 24  1  0  0  0
 20 21  2  0  0  0
 20 97  1  0  0  0
 21 23  1  0  0  0
 22 28  1  0  0  0
 22 32  2  0  0  0
 26 27  1  0  0  0
 28 98  1  0  0  0
 28 99  1  0  0  0
 29100  1  0  0  0
 29101  1  0  0  0
 33 34  1  0  0  0
 33 66  1  0  0  0
 33 70  2  0  0  0
 34 36  1  0  0  0
 34 59  1  0  0  0
 34102  1  0  0  0
 35 44  2  0  0  0
 35 45  1  0  0  0
 35 68  1  0  0  0
 36 56  1  0  0  0
 36103  1  0  0  0
 37 39  1  0  0  0
 37 47  1  0  0  0
 37 66  1  0  0  0
 37104  1  0  0  0
 38 43  2  0  0  0
 38 46  1  0  0  0
 38 47  1  0  0  0
 39 64  1  0  0  0
 39 67  2  0  0  0
 40 52  1  0  0  0
 40 53  2  0  0  0
 40 58  1  0  0  0
 41105  1  0  0  0
 41106  1  0  0  0
 41107  1  0  0  0
 41 48  1  0  0  0
 42 43  1  0  0  0
 42 66  1  0  0  0
 42108  1  0  0  0
 42109  1  0  0  0
 43 44  1  0  0  0
 44110  1  0  0  0
 45 46  2  0  0  0
 45111  1  0  0  0
 46112  1  0  0  0
 47113  1  0  0  0
 47114  1  0  0  0
 48 56  1  0  0  0
 48 65  1  0  0  0
 48115  1  0  0  0
 49 50  1  0  0  0
 49 53  1  0  0  0
 49 64  1  0  0  0
 49116  1  0  0  0
 50 51  1  0  0  0
 50117  1  0  0  0
 50118  1  0  0  0
 51 52  1  0  0  0
 51119  1  0  0  0
 51120  1  0  0  0
 52121  1  0  0  0
 52122  1  0  0  0
 53 54  1  0  0  0
 54 55  2  0  0  0
 54123  1  0  0  0
 55 57  1  0  0  0
 55124  1  0  0  0
 56 69  2  0  0  0
 57 58  2  0  0  0
 57125  1  0  0  0
 58126  1  0  0  0
 59 60  1  0  0  0
 59 61  1  0  0  0
 59 62  1  0  0  0
 60127  1  0  0  0
 60128  1  0  0  0
 60129  1  0  0  0
 61130  1  0  0  0
 61131  1  0  0  0
 61132  1  0  0  0
 62133  1  0  0  0
 62134  1  0  0  0
 62135  1  0  0  0
 63 65  1  0  0  0
 63136  1  0  0  0
 63137  1  0  0  0
 63138  1  0  0  0
 64139  1  0  0  0
 65140  1  0  0  0
 68 77  1  0  0  0
 71 72  2  0  0  0
 71 74  1  0  0  0
 71141  1  0  0  0
 72 75  1  0  0  0
 72142  1  0  0  0
 73 74  2  0  0  0
 73 76  1  0  0  0
 73143  1  0  0  0
 74 79  1  0  0  0
 75 76  2  0  0  0
 75 80  1  0  0  0
 76 81  1  0  0  0
 77 78  1  0  0  0
 77144  1  0  0  0
 77145  1  0  0  0
 78 80  1  0  0  0
 78146  1  0  0  0
 78147  1  0  0  0
 79148  1  0  0  0
M  ISO  4   1 100  68 101  77 101  79 100
M  END
> <chiral flag>
0

> <version>
0

> <s_m_source_file>
/data/baiqing/PycharmProjects/Reinvent-master-3.2/result/LINK_invent/BTK/process_docking_weight1_custom_product_contain_oxygen_bond_distance_aromatic_linkinvent_7_9_3/rearranged_h_0009.sdf

> <i_m_source_file_index>
61

> <r_mmod_Potential_Energy-OPLS-2005>
491.091247558594

> <r_mmod_Stretch_Energy-OPLS-2005>
216.953765869141

> <r_mmod_Bend_Energy-OPLS-2005>
302.484619140625

> <r_mmod_Torsional_Energy-OPLS-2005>
212.021713256836

> <r_mmod_Improper_Torsional_Energy-OPLS-2005>
4.76716709136963

> <r_mmod_Van_der_Waal_Energy-OPLS-2005>
130.573699951172

> <r_mmod_Electrostatic_Energy-OPLS-2005>
-337.487060546875

> <r_mmod_Solvation_Energy-OPLS-2005>
-212.451721191406

> <b_mmod_Minimization_Converged-OPLS-2005>
0

> <r_mmod_RMS_Derivative-OPLS-2005>
0.366873770952225

$$$$
61
                    3D
 Structure written by MMmdl.
163172  0  0  1  0            999 V2000
  -30.7062  -14.4493   20.5749 C   0  0  0  0  0  0
  -30.4188  -12.2904   19.4251 C   0  0  0  0  0  0
  -29.4950  -12.5069   18.2088 C   0  0  0  0  0  0
  -28.0149  -12.3697   18.6176 C   0  0  0  0  0  0
  -27.6628  -13.2056   19.8780 C   0  0  2  0  0  0
  -28.7014  -12.9754   20.9994 C   0  0  0  0  0  0
  -25.2589  -13.8159   20.5683 C   0  0  0  0  0  0
  -24.1833  -13.0438   20.9166 C   0  0  0  0  0  0
  -24.6385  -11.6905   20.8728 C   0  0  0  0  0  0
  -23.9053  -10.4290   21.0398 C   0  0  0  0  0  0
  -24.3609   -9.4209   21.9180 C   0  0  0  0  0  0
  -23.6288   -8.2244   22.0754 C   0  0  0  0  0  0
  -22.4269   -8.0278   21.3546 C   0  0  0  0  0  0
  -21.9903   -9.0246   20.4643 C   0  0  0  0  0  0
  -22.7230  -10.2125   20.3045 C   0  0  0  0  0  0
  -21.6851   -6.0733   22.5280 C   0  0  0  0  0  0
  -21.4012   -6.5639   23.8214 C   0  0  0  0  0  0
  -21.3659   -5.6789   24.9177 C   0  0  0  0  0  0
  -21.6045   -4.3051   24.7225 C   0  0  0  0  0  0
  -21.8819   -3.8145   23.4344 C   0  0  0  0  0  0
  -21.9193   -4.6961   22.3402 C   0  0  0  0  0  0
  -22.7856  -13.5239   21.1832 C   0  0  0  0  0  0
  -22.1660   -4.2147   21.0977 F   0  0  0  0  0  0
  -21.5630   -3.4534   25.7736 F   0  0  0  0  0  0
  -30.0376  -13.2711   20.4536 N   0  0  0  0  0  0
  -26.3025  -12.9328   20.3373 N   0  0  0  0  0  0
  -25.9313  -11.6486   20.5763 N   0  0  0  0  0  0
  -22.0490  -12.8220   22.0373 N   0  0  0  0  0  0
  -25.4327  -15.1877   20.4108 N   0  0  0  0  0  0
  -31.8316  -14.6219   20.0988 O   0  0  0  0  0  0
  -21.6638   -6.8875   21.4241 O   0  0  0  0  0  0
  -22.3550  -14.5559   20.6700 O   0  0  0  0  0  0
  -24.6108  -31.8698   23.2117 C   0  0  0  0  0  0
  -25.9012  -32.4836   23.8408 C   0  0  1  0  0  0
  -27.2467  -27.4517   20.1057 C   0  0  0  0  0  0
  -25.5875  -33.8633   24.2343 N   0  0  0  0  0  0
  -23.3997  -30.4909   21.5502 C   0  0  2  0  0  0
  -24.8515  -28.9562   20.1183 C   0  0  0  0  0  0
  -22.7396  -29.4663   22.5000 C   0  0  0  0  0  0
  -18.0264  -28.1379   22.8495 C   0  0  0  0  0  0
  -24.1480  -36.7316   23.2630 C   0  0  0  0  0  0
  -25.9241  -30.8407   21.3627 C   0  0  0  0  0  0
  -26.0053  -29.4718   20.7214 C   0  0  0  0  0  0
  -27.2043  -28.7260   20.7227 C   0  0  0  0  0  0
  -26.0819  -26.9553   19.4877 C   0  0  0  0  0  0
  -24.8825  -27.6935   19.5004 C   0  0  0  0  0  0
  -23.6100  -29.8186   20.1659 C   0  0  0  0  0  0
  -25.4094  -36.3118   24.0344 C   0  0  1  0  0  0
  -20.5854  -28.3657   23.1329 C   0  0  2  0  0  0
  -20.6755  -26.9398   22.5422 C   0  0  0  0  0  0
  -19.5740  -26.6395   21.5212 C   0  0  0  0  0  0
  -18.1916  -26.7930   22.1618 C   0  0  0  0  0  0
  -19.1514  -28.8833   23.2911 C   0  0  0  0  0  0
  -18.9446  -30.1441   23.8921 C   0  0  0  0  0  0
  -17.6449  -30.6585   24.0573 C   0  0  0  0  0  0
  -25.9028  -34.9486   23.5145 C   0  0  0  0  0  0
  -16.5338  -29.9091   23.6328 C   0  0  0  0  0  0
  -16.7254  -28.6509   23.0343 C   0  0  0  0  0  0
  -26.4458  -31.6597   25.0717 C   0  0  0  0  0  0
  -25.3740  -31.3682   26.1475 C   0  0  0  0  0  0
  -27.0288  -30.3052   24.6054 C   0  0  0  0  0  0
  -27.6041  -32.4306   25.7477 C   0  0  0  0  0  0
  -27.5593  -37.1795   24.8439 C   0  0  0  0  0  0
  -21.4126  -29.3027   22.3740 N   0  0  0  0  0  0
  -26.4272  -37.3811   23.9434 N   0  0  0  0  0  0
  -24.6628  -31.0814   22.1009 N   0  0  0  0  0  0
  -23.4182  -28.8209   23.3036 O   0  0  0  0  0  0
  -28.3759  -26.6642   20.0464 O   0  0  0  0  0  0
  -26.5598  -34.8933   22.4710 O   0  0  0  0  0  0
  -23.5308  -32.1435   23.7527 O   0  0  0  0  0  0
  -29.4657  -19.1081   21.7586 C   0  0  0  0  0  0
  -29.3870  -17.7004   21.8637 C   0  0  0  0  0  0
  -31.0233  -17.4785   20.0863 C   0  0  0  0  0  0
  -30.3283  -19.7156   20.8180 C   0  0  0  0  0  0
  -30.1690  -16.8628   21.0358 C   0  0  0  0  0  0
  -31.1052  -18.8813   19.9815 C   0  0  0  0  0  0
  -29.1603  -21.9616   20.2777 C   0  0  0  0  0  0
  -30.9364  -21.8988   22.0107 C   0  0  0  0  0  0
  -29.4095  -23.4793   20.0768 C   0  0  0  0  0  0
  -31.1953  -23.4029   21.7915 C   0  0  0  0  0  0
  -30.4504  -21.2422   20.7119 C   0  0  1  0  0  0
  -30.3301  -25.5842   21.0516 C   0  0  0  0  0  0
  -29.1570  -26.5729   21.2361 C   0  0  0  0  0  0
  -30.0140  -15.4429   21.1696 N   0  0  0  0  0  0
  -30.0028  -24.1403   21.2780 N   0  3  1  0  0  0
  -31.9427  -19.4207   19.0627 F   0  0  0  0  0  0
  -31.4656  -12.3772   19.1288 H   0  0  0  0  0  0
  -30.3059  -11.2778   19.8151 H   0  0  0  0  0  0
  -29.7340  -11.7904   17.4218 H   0  0  0  0  0  0
  -29.6688  -13.4972   17.7842 H   0  0  0  0  0  0
  -27.8215  -11.3133   18.8084 H   0  0  0  0  0  0
  -27.3662  -12.6494   17.7866 H   0  0  0  0  0  0
  -27.7111  -14.2555   19.5879 H   0  0  0  0  0  0
  -28.6686  -11.9382   21.3358 H   0  0  0  0  0  0
  -28.4618  -13.5700   21.8816 H   0  0  0  0  0  0
  -25.2755   -9.5688   22.4750 H   0  0  0  0  0  0
  -24.0000   -7.4635   22.7472 H   0  0  0  0  0  0
  -21.0839   -8.8754   19.8945 H   0  0  0  0  0  0
  -22.3692  -10.9653   19.6144 H   0  0  0  0  0  0
  -21.2000   -7.6147   23.9718 H   0  0  0  0  0  0
  -21.1481   -6.0518   25.9080 H   0  0  0  0  0  0
  -22.0597   -2.7606   23.2842 H   0  0  0  0  0  0
  -22.4091  -11.9858   22.4727 H   0  0  0  0  0  0
  -21.1102  -13.1235   22.2566 H   0  0  0  0  0  0
  -24.6693  -15.8462   20.5207 H   0  0  0  0  0  0
  -26.2931  -15.6262   20.1062 H   0  0  0  0  0  0
  -26.7086  -32.5569   23.1185 H   0  0  0  0  0  0
  -25.0016  -33.9797   25.0480 H   0  0  0  0  0  0
  -22.6875  -31.3063   21.4090 H   0  0  0  0  0  0
  -23.3759  -35.9630   23.3259 H   0  0  0  0  0  0
  -24.3594  -36.8958   22.2052 H   0  0  0  0  0  0
  -23.7204  -37.6504   23.6652 H   0  0  0  0  0  0
  -26.0272  -31.6016   20.5877 H   0  0  0  0  0  0
  -26.8150  -30.9048   21.9753 H   0  0  0  0  0  0
  -28.0864  -29.1480   21.1820 H   0  0  0  0  0  0
  -26.1027  -25.9885   19.0045 H   0  0  0  0  0  0
  -23.9972  -27.2904   19.0280 H   0  0  0  0  0  0
  -23.7146  -30.5899   19.4021 H   0  0  0  0  0  0
  -22.7366  -29.2329   19.8732 H   0  0  0  0  0  0
  -25.1262  -36.1978   25.0835 H   0  0  0  0  0  0
  -20.9942  -28.3215   24.1450 H   0  0  0  0  0  0
  -20.5652  -26.2267   23.3607 H   0  0  0  0  0  0
  -21.6629  -26.7448   22.1214 H   0  0  0  0  0  0
  -19.6904  -25.6317   21.1216 H   0  0  0  0  0  0
  -19.6683  -27.3231   20.6764 H   0  0  0  0  0  0
  -17.4192  -26.6687   21.4014 H   0  0  0  0  0  0
  -18.0312  -26.0061   22.9004 H   0  0  0  0  0  0
  -19.7923  -30.7247   24.2303 H   0  0  0  0  0  0
  -17.5008  -31.6266   24.5175 H   0  0  0  0  0  0
  -15.5341  -30.3003   23.7646 H   0  0  0  0  0  0
  -15.8652  -28.0843   22.7040 H   0  0  0  0  0  0
  -24.5900  -30.7046   25.7807 H   0  0  0  0  0  0
  -24.8945  -32.2829   26.4967 H   0  0  0  0  0  0
  -25.8106  -30.8814   27.0205 H   0  0  0  0  0  0
  -26.2824  -29.6823   24.1108 H   0  0  0  0  0  0
  -27.4086  -29.7267   25.4486 H   0  0  0  0  0  0
  -27.8644  -30.4399   23.9181 H   0  0  0  0  0  0
  -27.2671  -33.3604   26.2070 H   0  0  0  0  0  0
  -28.3843  -32.6863   25.0294 H   0  0  0  0  0  0
  -28.0713  -31.8412   26.5379 H   0  0  0  0  0  0
  -28.2528  -38.0173   24.7612 H   0  0  0  0  0  0
  -28.1174  -36.2719   24.6092 H   0  0  0  0  0  0
  -27.2346  -37.1223   25.8842 H   0  0  0  0  0  0
  -20.9283  -29.8752   21.6967 H   0  0  0  0  0  0
  -26.0162  -38.2874   24.1507 H   0  0  0  0  0  0
  -28.8596  -19.7209   22.4107 H   0  0  0  0  0  0
  -28.7147  -17.2689   22.5930 H   0  0  0  0  0  0
  -31.6296  -16.9009   19.4068 H   0  0  0  0  0  0
  -28.7957  -21.5324   19.3435 H   0  0  0  0  0  0
  -28.3710  -21.8059   21.0142 H   0  0  0  0  0  0
  -30.2115  -21.7546   22.8126 H   0  0  0  0  0  0
  -31.8600  -21.4229   22.3423 H   0  0  0  0  0  0
  -28.4717  -23.9699   19.8144 H   0  0  0  0  0  0
  -30.0766  -23.6190   19.2245 H   0  0  0  0  0  0
  -32.0226  -23.5286   21.0908 H   0  0  0  0  0  0
  -31.5212  -23.8434   22.7348 H   0  0  0  0  0  0
  -31.2019  -21.4508   19.9493 H   0  0  0  0  0  0
  -31.0770  -25.8787   21.7904 H   0  0  0  0  0  0
  -30.8116  -25.7324   20.0844 H   0  0  0  0  0  0
  -29.5833  -27.5524   21.4541 H   0  0  0  0  0  0
  -28.5389  -26.2970   22.0922 H   0  0  0  0  0  0
  -29.1801  -15.1371   21.6473 H   0  0  0  0  0  0
  -29.3100  -24.1014   22.0126 H   0  0  0  0  0  0
  1 25  1  0  0  0
  1 30  2  0  0  0
  1 84  1  0  0  0
  2  3  1  0  0  0
  2 25  1  0  0  0
  2 87  1  0  0  0
  2 88  1  0  0  0
  3  4  1  0  0  0
  3 89  1  0  0  0
  3 90  1  0  0  0
  4  5  1  0  0  0
  4 91  1  0  0  0
  4 92  1  0  0  0
  5  6  1  0  0  0
  5 26  1  0  0  0
  5 93  1  0  0  0
  6 25  1  0  0  0
  6 94  1  0  0  0
  6 95  1  0  0  0
  7  8  2  0  0  0
  7 26  1  0  0  0
  7 29  1  0  0  0
  8  9  1  0  0  0
  8 22  1  0  0  0
  9 10  1  0  0  0
  9 27  2  0  0  0
 10 11  2  0  0  0
 10 15  1  0  0  0
 11 12  1  0  0  0
 11 96  1  0  0  0
 12 13  2  0  0  0
 12 97  1  0  0  0
 13 14  1  0  0  0
 13 31  1  0  0  0
 14 15  2  0  0  0
 14 98  1  0  0  0
 15 99  1  0  0  0
 16 17  2  0  0  0
 16 21  1  0  0  0
 16 31  1  0  0  0
 17 18  1  0  0  0
 17100  1  0  0  0
 18 19  2  0  0  0
 18101  1  0  0  0
 19 20  1  0  0  0
 19 24  1  0  0  0
 20 21  2  0  0  0
 20102  1  0  0  0
 21 23  1  0  0  0
 22 28  1  0  0  0
 22 32  2  0  0  0
 26 27  1  0  0  0
 28103  1  0  0  0
 28104  1  0  0  0
 29105  1  0  0  0
 29106  1  0  0  0
 33 34  1  0  0  0
 33 66  1  0  0  0
 33 70  2  0  0  0
 34 36  1  0  0  0
 34 59  1  0  0  0
 34107  1  0  0  0
 35 44  2  0  0  0
 35 45  1  0  0  0
 35 68  1  0  0  0
 36 56  1  0  0  0
 36108  1  0  0  0
 37 39  1  0  0  0
 37 47  1  0  0  0
 37 66  1  0  0  0
 37109  1  0  0  0
 38 43  2  0  0  0
 38 46  1  0  0  0
 38 47  1  0  0  0
 39 64  1  0  0  0
 39 67  2  0  0  0
 40 52  1  0  0  0
 40 53  2  0  0  0
 40 58  1  0  0  0
 41110  1  0  0  0
 41111  1  0  0  0
 41112  1  0  0  0
 41 48  1  0  0  0
 42 43  1  0  0  0
 42 66  1  0  0  0
 42113  1  0  0  0
 42114  1  0  0  0
 43 44  1  0  0  0
 44115  1  0  0  0
 45 46  2  0  0  0
 45116  1  0  0  0
 46117  1  0  0  0
 47118  1  0  0  0
 47119  1  0  0  0
 48 56  1  0  0  0
 48 65  1  0  0  0
 48120  1  0  0  0
 49 50  1  0  0  0
 49 53  1  0  0  0
 49 64  1  0  0  0
 49121  1  0  0  0
 50 51  1  0  0  0
 50122  1  0  0  0
 50123  1  0  0  0
 51 52  1  0  0  0
 51124  1  0  0  0
 51125  1  0  0  0
 52126  1  0  0  0
 52127  1  0  0  0
 53 54  1  0  0  0
 54 55  2  0  0  0
 54128  1  0  0  0
 55 57  1  0  0  0
 55129  1  0  0  0
 56 69  2  0  0  0
 57 58  2  0  0  0
 57130  1  0  0  0
 58131  1  0  0  0
 59 60  1  0  0  0
 59 61  1  0  0  0
 59 62  1  0  0  0
 60132  1  0  0  0
 60133  1  0  0  0
 60134  1  0  0  0
 61135  1  0  0  0
 61136  1  0  0  0
 61137  1  0  0  0
 62138  1  0  0  0
 62139  1  0  0  0
 62140  1  0  0  0
 63 65  1  0  0  0
 63141  1  0  0  0
 63142  1  0  0  0
 63143  1  0  0  0
 64144  1  0  0  0
 65145  1  0  0  0
 68 83  1  0  0  0
 71 72  2  0  0  0
 71 74  1  0  0  0
 71146  1  0  0  0
 72 75  1  0  0  0
 72147  1  0  0  0
 73 75  2  0  0  0
 73 76  1  0  0  0
 73148  1  0  0  0
 74 76  2  0  0  0
 74 81  1  0  0  0
 75 84  1  0  0  0
 76 86  1  0  0  0
 77 79  1  0  0  0
 77 81  1  0  0  0
 77149  1  0  0  0
 77150  1  0  0  0
 78 80  1  0  0  0
 78 81  1  0  0  0
 78151  1  0  0  0
 78152  1  0  0  0
 79 85  1  0  0  0
 79153  1  0  0  0
 79154  1  0  0  0
 80 85  1  0  0  0
 80155  1  0  0  0
 80156  1  0  0  0
 81157  1  0  0  0
 82 83  1  0  0  0
 82158  1  0  0  0
 82159  1  0  0  0
 82 85  1  0  0  0
 83160  1  0  0  0
 83161  1  0  0  0
 84162  1  0  0  0
 85163  1  0  0  0
M  CHG  1  85   1
M  ISO  4   1 100  68 101  83 101  84 100
M  END
> <chiral flag>
0

> <version>
0

> <s_m_source_file>
/data/baiqing/PycharmProjects/Reinvent-master-3.2/result/LINK_invent/BTK/process_docking_weight1_custom_product_contain_oxygen_bond_distance_aromatic_linkinvent_7_9_3/rearranged_h_0009.sdf

> <i_m_source_file_index>
62

> <r_mmod_Potential_Energy-OPLS-2005>
-88.999267578125

> <r_mmod_Stretch_Energy-OPLS-2005>
38.4424171447754

> <r_mmod_Bend_Energy-OPLS-2005>
104.056968688965

> <r_mmod_Torsional_Energy-OPLS-2005>
257.813781738281

> <r_mmod_Improper_Torsional_Energy-OPLS-2005>
2.91086506843567

> <r_mmod_Van_der_Waal_Energy-OPLS-2005>
160.994277954102

> <r_mmod_Electrostatic_Energy-OPLS-2005>
-243.103012084961

> <r_mmod_Solvation_Energy-OPLS-2005>
-420.235687255859

> <b_mmod_Minimization_Converged-OPLS-2005>
0

> <r_mmod_RMS_Derivative-OPLS-2005>
0.648635804653168

$$$$
62
                    3D
 Structure written by MMmdl.
155164  0  0  1  0            999 V2000
  -30.5508  -14.6477   20.5284 C   0  0  0  0  0  0
  -30.4495  -12.4033   19.4457 C   0  0  0  0  0  0
  -29.5062  -12.5081   18.2256 C   0  0  0  0  0  0
  -28.0311  -12.3367   18.6382 C   0  0  0  0  0  0
  -27.6525  -13.1967   19.8697 C   0  0  2  0  0  0
  -28.6932  -13.0105   20.9958 C   0  0  0  0  0  0
  -25.2537  -13.8092   20.5633 C   0  0  0  0  0  0
  -24.1825  -13.0380   20.9227 C   0  0  0  0  0  0
  -24.6378  -11.6859   20.8746 C   0  0  0  0  0  0
  -23.9046  -10.4258   21.0421 C   0  0  0  0  0  0
  -24.3612   -9.4179   21.9201 C   0  0  0  0  0  0
  -23.6270   -8.2221   22.0773 C   0  0  0  0  0  0
  -22.4261   -8.0266   21.3538 C   0  0  0  0  0  0
  -21.9901   -9.0248   20.4655 C   0  0  0  0  0  0
  -22.7233  -10.2117   20.3063 C   0  0  0  0  0  0
  -21.6844   -6.0728   22.5280 C   0  0  0  0  0  0
  -21.4016   -6.5638   23.8210 C   0  0  0  0  0  0
  -21.3644   -5.6799   24.9179 C   0  0  0  0  0  0
  -21.6041   -4.3058   24.7244 C   0  0  0  0  0  0
  -21.8814   -3.8144   23.4362 C   0  0  0  0  0  0
  -21.9193   -4.6959   22.3408 C   0  0  0  0  0  0
  -22.7851  -13.5198   21.1871 C   0  0  0  0  0  0
  -22.1661   -4.2143   21.0974 F   0  0  0  0  0  0
  -21.5628   -3.4540   25.7770 F   0  0  0  0  0  0
  -30.0042  -13.3931   20.4486 N   0  0  0  0  0  0
  -26.2965  -12.9240   20.3314 N   0  0  0  0  0  0
  -25.9289  -11.6432   20.5760 N   0  0  0  0  0  0
  -22.0486  -12.8194   22.0427 N   0  0  0  0  0  0
  -25.4163  -15.1780   20.3893 N   0  0  0  0  0  0
  -31.6989  -14.8760   20.1285 O   0  0  0  0  0  0
  -21.6602   -6.8879   21.4257 O   0  0  0  0  0  0
  -22.3547  -14.5492   20.6706 O   0  0  0  0  0  0
  -24.6269  -31.8605   23.2065 C   0  0  0  0  0  0
  -25.9123  -32.4779   23.8346 C   0  0  1  0  0  0
  -27.1575  -27.2795   20.1220 C   0  0  0  0  0  0
  -25.5941  -33.8574   24.2277 N   0  0  0  0  0  0
  -23.4154  -30.4964   21.5496 C   0  0  2  0  0  0
  -24.8540  -28.9697   20.0920 C   0  0  0  0  0  0
  -22.7452  -29.4622   22.4871 C   0  0  0  0  0  0
  -18.0273  -28.1367   22.8408 C   0  0  0  0  0  0
  -24.1484  -36.7313   23.2625 C   0  0  0  0  0  0
  -25.9607  -30.7806   21.3833 C   0  0  0  0  0  0
  -26.0252  -29.4080   20.7247 C   0  0  0  0  0  0
  -27.1838  -28.5719   20.7425 C   0  0  0  0  0  0
  -25.9951  -26.9481   19.3951 C   0  0  0  0  0  0
  -24.8445  -27.7469   19.4119 C   0  0  0  0  0  0
  -23.6299  -29.8594   20.1538 C   0  0  0  0  0  0
  -25.4102  -36.3083   24.0323 C   0  0  1  0  0  0
  -20.5865  -28.3663   23.1252 C   0  0  2  0  0  0
  -20.6761  -26.9387   22.5398 C   0  0  0  0  0  0
  -19.5777  -26.6345   21.5179 C   0  0  0  0  0  0
  -18.1931  -26.7898   22.1552 C   0  0  0  0  0  0
  -19.1523  -28.8824   23.2805 C   0  0  0  0  0  0
  -18.9489  -30.1419   23.8853 C   0  0  0  0  0  0
  -17.6500  -30.6571   24.0536 C   0  0  0  0  0  0
  -25.9036  -34.9453   23.5102 C   0  0  0  0  0  0
  -16.5375  -29.9085   23.6311 C   0  0  0  0  0  0
  -16.7274  -28.6505   23.0305 C   0  0  0  0  0  0
  -26.4503  -31.6578   25.0708 C   0  0  0  0  0  0
  -25.3712  -31.3804   26.1437 C   0  0  0  0  0  0
  -27.0286  -30.2957   24.6173 C   0  0  0  0  0  0
  -27.6095  -32.4264   25.7459 C   0  0  0  0  0  0
  -27.5583  -37.1775   24.8420 C   0  0  0  0  0  0
  -21.4151  -29.3051   22.3661 N   0  0  0  0  0  0
  -26.4264  -37.3795   23.9425 N   0  0  0  0  0  0
  -24.6870  -31.0603   22.1036 N   0  0  0  0  0  0
  -23.4189  -28.8080   23.2876 O   0  0  0  0  0  0
  -28.1901  -26.3324   20.2222 O   0  0  0  0  0  0
  -26.5602  -34.8937   22.4659 O   0  0  0  0  0  0
  -23.5437  -32.1452   23.7400 O   0  0  0  0  0  0
  -28.0562  -18.9867   20.0982 C   0  0  0  0  0  0
  -30.4082  -19.3726   20.3895 C   0  0  0  0  0  0
  -28.2583  -17.6044   20.3950 C   0  0  0  0  0  0
  -30.6189  -17.9845   20.6658 C   0  0  0  0  0  0
  -29.1330  -19.9098   20.0616 C   0  0  0  0  0  0
  -29.5482  -17.0522   20.6488 C   0  0  0  0  0  0
  -28.5007  -23.8346   19.5261 C   0  0  0  0  0  0
  -27.8903  -24.2261   21.7792 C   0  0  0  0  0  0
  -28.0529  -22.6980   21.4915 C   0  0  0  0  0  0
  -27.7726  -24.8956   20.3973 C   0  0  1  0  0  0
  -28.9967  -21.3394   19.4146 C   0  0  0  0  0  0
  -28.5533  -22.6047   20.1181 N   0  0  0  0  0  0
  -29.6772  -15.6234   20.9451 N   0  0  0  0  0  0
  -28.9159  -24.0868   18.3919 O   0  0  0  0  0  0
  -31.4823  -12.5671   19.1363 H   0  0  0  0  0  0
  -30.4238  -11.3998   19.8717 H   0  0  0  0  0  0
  -29.7723  -11.7584   17.4795 H   0  0  0  0  0  0
  -29.6380  -13.4777   17.7436 H   0  0  0  0  0  0
  -27.8738  -11.2825   18.8678 H   0  0  0  0  0  0
  -27.3764  -12.5700   17.7995 H   0  0  0  0  0  0
  -27.6836  -14.2348   19.5465 H   0  0  0  0  0  0
  -28.7167  -11.9701   21.3228 H   0  0  0  0  0  0
  -28.4368  -13.5872   21.8862 H   0  0  0  0  0  0
  -25.2763   -9.5636   22.4788 H   0  0  0  0  0  0
  -23.9979   -7.4611   22.7488 H   0  0  0  0  0  0
  -21.0847   -8.8760   19.8953 H   0  0  0  0  0  0
  -22.3697  -10.9668   19.6175 H   0  0  0  0  0  0
  -21.2002   -7.6153   23.9721 H   0  0  0  0  0  0
  -21.1471   -6.0526   25.9078 H   0  0  0  0  0  0
  -22.0604   -2.7611   23.2875 H   0  0  0  0  0  0
  -22.4095  -11.9816   22.4751 H   0  0  0  0  0  0
  -21.1112  -13.1223   22.2666 H   0  0  0  0  0  0
  -24.6298  -15.8147   20.4608 H   0  0  0  0  0  0
  -26.2028  -15.5748   19.8923 H   0  0  0  0  0  0
  -26.7187  -32.5446   23.1076 H   0  0  0  0  0  0
  -25.0048  -33.9689   25.0403 H   0  0  0  0  0  0
  -22.7066  -31.3180   21.4186 H   0  0  0  0  0  0
  -23.3782  -35.9591   23.3164 H   0  0  0  0  0  0
  -24.3624  -36.9094   22.2066 H   0  0  0  0  0  0
  -23.7169  -37.6443   23.6767 H   0  0  0  0  0  0
  -26.0831  -31.5394   20.6104 H   0  0  0  0  0  0
  -26.8459  -30.8366   22.0050 H   0  0  0  0  0  0
  -28.0675  -28.8816   21.2826 H   0  0  0  0  0  0
  -25.9371  -26.0453   18.8051 H   0  0  0  0  0  0
  -23.9604  -27.4316   18.8784 H   0  0  0  0  0  0
  -23.7551  -30.6517   19.4158 H   0  0  0  0  0  0
  -22.7415  -29.3093   19.8386 H   0  0  0  0  0  0
  -25.1253  -36.1931   25.0799 H   0  0  0  0  0  0
  -20.9931  -28.3291   24.1387 H   0  0  0  0  0  0
  -20.5676  -26.2264   23.3585 H   0  0  0  0  0  0
  -21.6646  -26.7411   22.1243 H   0  0  0  0  0  0
  -19.6960  -25.6251   21.1240 H   0  0  0  0  0  0
  -19.6765  -27.3110   20.6673 H   0  0  0  0  0  0
  -17.4190  -26.6581   21.3960 H   0  0  0  0  0  0
  -18.0359  -26.0045   22.8951 H   0  0  0  0  0  0
  -19.7989  -30.7183   24.2253 H   0  0  0  0  0  0
  -17.5099  -31.6271   24.5110 H   0  0  0  0  0  0
  -15.5415  -30.3000   23.7690 H   0  0  0  0  0  0
  -15.8631  -28.0883   22.7033 H   0  0  0  0  0  0
  -24.5847  -30.7173   25.7800 H   0  0  0  0  0  0
  -24.8936  -32.3008   26.4791 H   0  0  0  0  0  0
  -25.7988  -30.9014   27.0248 H   0  0  0  0  0  0
  -26.2823  -29.6698   24.1231 H   0  0  0  0  0  0
  -27.3987  -29.7221   25.4679 H   0  0  0  0  0  0
  -27.8719  -30.4177   23.9369 H   0  0  0  0  0  0
  -27.2846  -33.3723   26.1814 H   0  0  0  0  0  0
  -28.4053  -32.6515   25.0344 H   0  0  0  0  0  0
  -28.0556  -31.8441   26.5547 H   0  0  0  0  0  0
  -28.2506  -38.0162   24.7620 H   0  0  0  0  0  0
  -28.1204  -36.2697   24.6085 H   0  0  0  0  0  0
  -27.2323  -37.1250   25.8827 H   0  0  0  0  0  0
  -20.9300  -29.8888   21.6976 H   0  0  0  0  0  0
  -26.0145  -38.2842   24.1580 H   0  0  0  0  0  0
  -27.0630  -19.3226   19.8313 H   0  0  0  0  0  0
  -31.2640  -20.0316   20.3743 H   0  0  0  0  0  0
  -27.3933  -16.9598   20.3795 H   0  0  0  0  0  0
  -31.6216  -17.6412   20.8835 H   0  0  0  0  0  0
  -28.7533  -24.6126   22.3209 H   0  0  0  0  0  0
  -27.0063  -24.4154   22.3902 H   0  0  0  0  0  0
  -27.0895  -22.1851   21.5700 H   0  0  0  0  0  0
  -28.7429  -22.2220   22.1912 H   0  0  0  0  0  0
  -26.7273  -24.7394   20.1481 H   0  0  0  0  0  0
  -28.3315  -21.2100   18.5548 H   0  0  0  0  0  0
  -29.9657  -21.5676   18.9606 H   0  0  0  0  0  0
  -28.8272  -15.2070   21.2911 H   0  0  0  0  0  0
  1 25  1  0  0  0
  1 30  2  0  0  0
  1 83  1  0  0  0
  2  3  1  0  0  0
  2 25  1  0  0  0
  2 85  1  0  0  0
  2 86  1  0  0  0
  3  4  1  0  0  0
  3 87  1  0  0  0
  3 88  1  0  0  0
  4  5  1  0  0  0
  4 89  1  0  0  0
  4 90  1  0  0  0
  5  6  1  0  0  0
  5 26  1  0  0  0
  5 91  1  0  0  0
  6 25  1  0  0  0
  6 92  1  0  0  0
  6 93  1  0  0  0
  7  8  2  0  0  0
  7 26  1  0  0  0
  7 29  1  0  0  0
  8  9  1  0  0  0
  8 22  1  0  0  0
  9 10  1  0  0  0
  9 27  2  0  0  0
 10 11  2  0  0  0
 10 15  1  0  0  0
 11 12  1  0  0  0
 11 94  1  0  0  0
 12 13  2  0  0  0
 12 95  1  0  0  0
 13 14  1  0  0  0
 13 31  1  0  0  0
 14 15  2  0  0  0
 14 96  1  0  0  0
 15 97  1  0  0  0
 16 17  2  0  0  0
 16 21  1  0  0  0
 16 31  1  0  0  0
 17 18  1  0  0  0
 17 98  1  0  0  0
 18 19  2  0  0  0
 18 99  1  0  0  0
 19 20  1  0  0  0
 19 24  1  0  0  0
 20 21  2  0  0  0
 20100  1  0  0  0
 21 23  1  0  0  0
 22 28  1  0  0  0
 22 32  2  0  0  0
 26 27  1  0  0  0
 28101  1  0  0  0
 28102  1  0  0  0
 29103  1  0  0  0
 29104  1  0  0  0
 33 34  1  0  0  0
 33 66  1  0  0  0
 33 70  2  0  0  0
 34 36  1  0  0  0
 34 59  1  0  0  0
 34105  1  0  0  0
 35 44  2  0  0  0
 35 45  1  0  0  0
 35 68  1  0  0  0
 36 56  1  0  0  0
 36106  1  0  0  0
 37 39  1  0  0  0
 37 47  1  0  0  0
 37 66  1  0  0  0
 37107  1  0  0  0
 38 43  2  0  0  0
 38 46  1  0  0  0
 38 47  1  0  0  0
 39 64  1  0  0  0
 39 67  2  0  0  0
 40 52  1  0  0  0
 40 53  2  0  0  0
 40 58  1  0  0  0
 41108  1  0  0  0
 41109  1  0  0  0
 41110  1  0  0  0
 41 48  1  0  0  0
 42 43  1  0  0  0
 42 66  1  0  0  0
 42111  1  0  0  0
 42112  1  0  0  0
 43 44  1  0  0  0
 44113  1  0  0  0
 45 46  2  0  0  0
 45114  1  0  0  0
 46115  1  0  0  0
 47116  1  0  0  0
 47117  1  0  0  0
 48 56  1  0  0  0
 48 65  1  0  0  0
 48118  1  0  0  0
 49 50  1  0  0  0
 49 53  1  0  0  0
 49 64  1  0  0  0
 49119  1  0  0  0
 50 51  1  0  0  0
 50120  1  0  0  0
 50121  1  0  0  0
 51 52  1  0  0  0
 51122  1  0  0  0
 51123  1  0  0  0
 52124  1  0  0  0
 52125  1  0  0  0
 53 54  1  0  0  0
 54 55  2  0  0  0
 54126  1  0  0  0
 55 57  1  0  0  0
 55127  1  0  0  0
 56 69  2  0  0  0
 57 58  2  0  0  0
 57128  1  0  0  0
 58129  1  0  0  0
 59 60  1  0  0  0
 59 61  1  0  0  0
 59 62  1  0  0  0
 60130  1  0  0  0
 60131  1  0  0  0
 60132  1  0  0  0
 61133  1  0  0  0
 61134  1  0  0  0
 61135  1  0  0  0
 62136  1  0  0  0
 62137  1  0  0  0
 62138  1  0  0  0
 63 65  1  0  0  0
 63139  1  0  0  0
 63140  1  0  0  0
 63141  1  0  0  0
 64142  1  0  0  0
 65143  1  0  0  0
 68 80  1  0  0  0
 71 73  2  0  0  0
 71 75  1  0  0  0
 71144  1  0  0  0
 72 74  1  0  0  0
 72 75  2  0  0  0
 72145  1  0  0  0
 73 76  1  0  0  0
 73146  1  0  0  0
 74 76  2  0  0  0
 74147  1  0  0  0
 75 81  1  0  0  0
 76 83  1  0  0  0
 77 80  1  0  0  0
 77 82  1  0  0  0
 77 84  2  0  0  0
 78 79  1  0  0  0
 78 80  1  0  0  0
 78148  1  0  0  0
 78149  1  0  0  0
 79 82  1  0  0  0
 79150  1  0  0  0
 79151  1  0  0  0
 80152  1  0  0  0
 81 82  1  0  0  0
 81153  1  0  0  0
 81154  1  0  0  0
 83155  1  0  0  0
M  ISO  4   1 100  68 101  80 101  83 100
M  END
> <chiral flag>
0

> <version>
0

> <s_m_source_file>
/data/baiqing/PycharmProjects/Reinvent-master-3.2/result/LINK_invent/BTK/process_docking_weight1_custom_product_contain_oxygen_bond_distance_aromatic_linkinvent_7_9_3/rearranged_h_0009.sdf

> <i_m_source_file_index>
63

> <r_mmod_Potential_Energy-OPLS-2005>
180.226959228516

> <r_mmod_Stretch_Energy-OPLS-2005>
82.5121765136719

> <r_mmod_Bend_Energy-OPLS-2005>
182.966415405273

> <r_mmod_Torsional_Energy-OPLS-2005>
274.786285400391

> <r_mmod_Improper_Torsional_Energy-OPLS-2005>
8.02795314788818

> <r_mmod_Van_der_Waal_Energy-OPLS-2005>
141.610763549805

> <r_mmod_Electrostatic_Energy-OPLS-2005>
-348.881744384766

> <r_mmod_Solvation_Energy-OPLS-2005>
-236.630828857422

> <b_mmod_Minimization_Converged-OPLS-2005>
0

> <r_mmod_RMS_Derivative-OPLS-2005>
5.5366997718811

$$$$
63
                    3D
 Structure written by MMmdl.
155164  0  0  1  0            999 V2000
  -30.3547  -15.4190   20.3339 C   0  0  0  0  0  0
  -30.4453  -12.9063   19.5567 C   0  0  0  0  0  0
  -29.5577  -12.6061   18.3179 C   0  0  0  0  0  0
  -28.1106  -12.2971   18.7393 C   0  0  0  0  0  0
  -27.6076  -13.2890   19.8143 C   0  0  2  0  0  0
  -28.6267  -13.5225   20.9491 C   0  0  0  0  0  0
  -25.2382  -13.8263   20.5754 C   0  0  0  0  0  0
  -24.1740  -13.0442   20.9256 C   0  0  0  0  0  0
  -24.6409  -11.6940   20.8740 C   0  0  0  0  0  0
  -23.9095  -10.4300   21.0385 C   0  0  0  0  0  0
  -24.3638   -9.4217   21.9169 C   0  0  0  0  0  0
  -23.6308   -8.2252   22.0746 C   0  0  0  0  0  0
  -22.4291   -8.0285   21.3538 C   0  0  0  0  0  0
  -21.9921   -9.0257   20.4645 C   0  0  0  0  0  0
  -22.7253  -10.2136   20.3046 C   0  0  0  0  0  0
  -21.6861   -6.0737   22.5277 C   0  0  0  0  0  0
  -21.4020   -6.5634   23.8212 C   0  0  0  0  0  0
  -21.3667   -5.6784   24.9172 C   0  0  0  0  0  0
  -21.6044   -4.3045   24.7216 C   0  0  0  0  0  0
  -21.8818   -3.8140   23.4336 C   0  0  0  0  0  0
  -21.9196   -4.6964   22.3395 C   0  0  0  0  0  0
  -22.7756  -13.5189   21.1900 C   0  0  0  0  0  0
  -22.1661   -4.2153   21.0970 F   0  0  0  0  0  0
  -21.5634   -3.4524   25.7724 F   0  0  0  0  0  0
  -29.8535  -14.0676   20.3375 N   0  0  0  0  0  0
  -26.2805  -12.9559   20.3163 N   0  0  0  0  0  0
  -25.9348  -11.6651   20.5668 N   0  0  0  0  0  0
  -22.0398  -12.8187   22.0461 N   0  0  0  0  0  0
  -25.4031  -15.2003   20.4243 N   0  0  0  0  0  0
  -31.5788  -15.3990   20.1189 O   0  0  0  0  0  0
  -21.6648   -6.8887   21.4242 O   0  0  0  0  0  0
  -22.3435  -14.5484   20.6737 O   0  0  0  0  0  0
  -24.6721  -31.8133   23.1616 C   0  0  0  0  0  0
  -25.9354  -32.4535   23.8121 C   0  0  1  0  0  0
  -27.2206  -26.8289   20.1981 C   0  0  0  0  0  0
  -25.5985  -33.8353   24.2019 N   0  0  0  0  0  0
  -23.4925  -30.4205   21.5129 C   0  0  2  0  0  0
  -24.9458  -28.7860   20.1153 C   0  0  0  0  0  0
  -22.7717  -29.4389   22.4748 C   0  0  0  0  0  0
  -18.0329  -28.1408   22.8469 C   0  0  0  0  0  0
  -24.1498  -36.7187   23.2651 C   0  0  0  0  0  0
  -26.0669  -30.5884   21.4053 C   0  0  0  0  0  0
  -26.1329  -29.1664   20.7534 C   0  0  0  0  0  0
  -27.2611  -28.2123   20.7642 C   0  0  0  0  0  0
  -26.0019  -26.6234   19.5103 C   0  0  0  0  0  0
  -24.9116  -27.5373   19.4722 C   0  0  0  0  0  0
  -23.7372  -29.7264   20.1436 C   0  0  0  0  0  0
  -25.4141  -36.2937   24.0294 C   0  0  1  0  0  0
  -20.5965  -28.3762   23.1168 C   0  0  2  0  0  0
  -20.6807  -26.9432   22.5402 C   0  0  0  0  0  0
  -19.5775  -26.6371   21.5221 C   0  0  0  0  0  0
  -18.1958  -26.7939   22.1627 C   0  0  0  0  0  0
  -19.1595  -28.8907   23.2804 C   0  0  0  0  0  0
  -18.9499  -30.1495   23.8842 C   0  0  0  0  0  0
  -17.6489  -30.6597   24.0550 C   0  0  0  0  0  0
  -25.9113  -34.9321   23.4984 C   0  0  0  0  0  0
  -16.5379  -29.9080   23.6344 C   0  0  0  0  0  0
  -16.7309  -28.6498   23.0370 C   0  0  0  0  0  0
  -26.4572  -31.6521   25.0694 C   0  0  0  0  0  0
  -25.3673  -31.3800   26.1335 C   0  0  0  0  0  0
  -27.0480  -30.2874   24.6500 C   0  0  0  0  0  0
  -27.6036  -32.4364   25.7501 C   0  0  0  0  0  0
  -27.5571  -37.1749   24.8462 C   0  0  0  0  0  0
  -21.4375  -29.3036   22.3509 N   0  0  0  0  0  0
  -26.4277  -37.3685   23.9412 N   0  0  0  0  0  0
  -24.7664  -30.9705   22.0798 N   0  0  0  0  0  0
  -23.4217  -28.7973   23.3037 O   0  0  0  0  0  0
  -28.2157  -25.6835   20.2659 O   0  0  0  0  0  0
  -26.5737  -34.8875   22.4590 O   0  0  0  0  0  0
  -23.5766  -32.1140   23.6650 O   0  0  0  0  0  0
  -31.2078  -20.1107   20.7030 C   0  0  0  0  0  0
  -30.9138  -20.0354   19.2081 C   0  0  0  0  0  0
  -29.6468  -18.2351   21.5608 C   0  0  0  0  0  0
  -29.1804  -18.1183   19.2118 C   0  0  0  0  0  0
  -29.5234  -17.0310   20.4264 C   0  0  1  0  0  0
  -29.8095  -19.9178   21.3117 C   0  0  2  0  0  0
  -29.3927  -19.8191   19.1993 C   0  0  1  0  0  0
  -29.0843  -22.4835   20.3097 C   0  0  0  0  0  0
  -28.0057  -23.9939   20.1766 C   0  0  0  0  0  0
  -28.8988  -20.7633   20.3520 N   0  3  2  0  0  0
  -31.4583  -13.1302   19.2215 H   0  0  0  0  0  0
  -30.5413  -12.0214   20.1880 H   0  0  0  0  0  0
  -29.9703  -11.7715   17.7492 H   0  0  0  0  0  0
  -29.5683  -13.4696   17.6507 H   0  0  0  0  0  0
  -28.0948  -11.2850   19.1451 H   0  0  0  0  0  0
  -27.4486  -12.2921   17.8720 H   0  0  0  0  0  0
  -27.5052  -14.2398   19.2889 H   0  0  0  0  0  0
  -28.8187  -12.6068   21.5094 H   0  0  0  0  0  0
  -28.2323  -14.2454   21.6652 H   0  0  0  0  0  0
  -25.2783   -9.5695   22.4746 H   0  0  0  0  0  0
  -24.0017   -7.4644   22.7459 H   0  0  0  0  0  0
  -21.0851   -8.8775   19.8957 H   0  0  0  0  0  0
  -22.3699  -10.9674   19.6158 H   0  0  0  0  0  0
  -21.2009   -7.6141   23.9719 H   0  0  0  0  0  0
  -21.1496   -6.0509   25.9080 H   0  0  0  0  0  0
  -22.0593   -2.7602   23.2827 H   0  0  0  0  0  0
  -22.4019  -11.9891   22.4912 H   0  0  0  0  0  0
  -21.1008  -13.1213   22.2623 H   0  0  0  0  0  0
  -24.6359  -15.8511   20.5519 H   0  0  0  0  0  0
  -26.2501  -15.6465   20.0978 H   0  0  0  0  0  0
  -26.7436  -32.5042   23.0840 H   0  0  0  0  0  0
  -25.0064  -33.9414   25.0127 H   0  0  0  0  0  0
  -22.8108  -31.2546   21.3332 H   0  0  0  0  0  0
  -23.3773  -35.9502   23.3261 H   0  0  0  0  0  0
  -24.3578  -36.8889   22.2076 H   0  0  0  0  0  0
  -23.7237  -37.6352   23.6744 H   0  0  0  0  0  0
  -26.2583  -31.3219   20.6212 H   0  0  0  0  0  0
  -26.9230  -30.6500   22.0652 H   0  0  0  0  0  0
  -28.1592  -28.5074   21.2887 H   0  0  0  0  0  0
  -25.8558  -25.6743   19.0154 H   0  0  0  0  0  0
  -24.0118  -27.2393   18.9507 H   0  0  0  0  0  0
  -23.8997  -30.4899   19.3817 H   0  0  0  0  0  0
  -22.8446  -29.1849   19.8258 H   0  0  0  0  0  0
  -25.1346  -36.1719   25.0785 H   0  0  0  0  0  0
  -21.0052  -28.3374   24.1294 H   0  0  0  0  0  0
  -20.5691  -26.2381   23.3654 H   0  0  0  0  0  0
  -21.6668  -26.7399   22.1205 H   0  0  0  0  0  0
  -19.6935  -25.6268   21.1288 H   0  0  0  0  0  0
  -19.6715  -27.3152   20.6729 H   0  0  0  0  0  0
  -17.4234  -26.6686   21.4026 H   0  0  0  0  0  0
  -18.0339  -26.0091   22.9031 H   0  0  0  0  0  0
  -19.7974  -30.7328   24.2187 H   0  0  0  0  0  0
  -17.5036  -31.6275   24.5157 H   0  0  0  0  0  0
  -15.5373  -30.2960   23.7701 H   0  0  0  0  0  0
  -15.8712  -28.0792   22.7121 H   0  0  0  0  0  0
  -24.5826  -30.7200   25.7627 H   0  0  0  0  0  0
  -24.8904  -32.3015   26.4681 H   0  0  0  0  0  0
  -25.7871  -30.8989   27.0176 H   0  0  0  0  0  0
  -26.3163  -29.6521   24.1499 H   0  0  0  0  0  0
  -27.3962  -29.7284   25.5196 H   0  0  0  0  0  0
  -27.9127  -30.4030   23.9962 H   0  0  0  0  0  0
  -27.2566  -33.3688   26.1967 H   0  0  0  0  0  0
  -28.3895  -32.6902   25.0375 H   0  0  0  0  0  0
  -28.0658  -31.8583   26.5513 H   0  0  0  0  0  0
  -28.2559  -38.0074   24.7527 H   0  0  0  0  0  0
  -28.1098  -36.2600   24.6265 H   0  0  0  0  0  0
  -27.2292  -37.1359   25.8866 H   0  0  0  0  0  0
  -20.9650  -29.8692   21.6598 H   0  0  0  0  0  0
  -26.0113  -38.2739   24.1424 H   0  0  0  0  0  0
  -31.6193  -21.0861   20.9646 H   0  0  0  0  0  0
  -31.9228  -19.3537   21.0283 H   0  0  0  0  0  0
  -31.4597  -19.2310   18.7143 H   0  0  0  0  0  0
  -31.1868  -20.9663   18.7108 H   0  0  0  0  0  0
  -30.4485  -17.9341   22.2357 H   0  0  0  0  0  0
  -28.7541  -18.1386   22.1798 H   0  0  0  0  0  0
  -28.1195  -17.9809   19.0004 H   0  0  0  0  0  0
  -29.6611  -17.7305   18.3127 H   0  0  0  0  0  0
  -28.5384  -16.6172   20.6461 H   0  0  0  0  0  0
  -29.7795  -20.3907   22.2937 H   0  0  0  0  0  0
  -28.9812  -20.1930   18.2610 H   0  0  0  0  0  0
  -29.6018  -22.6678   21.2503 H   0  0  0  0  0  0
  -29.8580  -22.6477   19.5617 H   0  0  0  0  0  0
  -27.2157  -23.8198   20.9069 H   0  0  0  0  0  0
  -27.5010  -23.8663   19.2194 H   0  0  0  0  0  0
  -27.9319  -20.5616   20.5628 H   0  0  0  0  0  0
  1 25  1  0  0  0
  1 30  2  0  0  0
  1 75  1  0  0  0
  2  3  1  0  0  0
  2 25  1  0  0  0
  2 81  1  0  0  0
  2 82  1  0  0  0
  3  4  1  0  0  0
  3 83  1  0  0  0
  3 84  1  0  0  0
  4  5  1  0  0  0
  4 85  1  0  0  0
  4 86  1  0  0  0
  5  6  1  0  0  0
  5 26  1  0  0  0
  5 87  1  0  0  0
  6 25  1  0  0  0
  6 88  1  0  0  0
  6 89  1  0  0  0
  7  8  2  0  0  0
  7 26  1  0  0  0
  7 29  1  0  0  0
  8  9  1  0  0  0
  8 22  1  0  0  0
  9 10  1  0  0  0
  9 27  2  0  0  0
 10 11  2  0  0  0
 10 15  1  0  0  0
 11 12  1  0  0  0
 11 90  1  0  0  0
 12 13  2  0  0  0
 12 91  1  0  0  0
 13 14  1  0  0  0
 13 31  1  0  0  0
 14 15  2  0  0  0
 14 92  1  0  0  0
 15 93  1  0  0  0
 16 17  2  0  0  0
 16 21  1  0  0  0
 16 31  1  0  0  0
 17 18  1  0  0  0
 17 94  1  0  0  0
 18 19  2  0  0  0
 18 95  1  0  0  0
 19 20  1  0  0  0
 19 24  1  0  0  0
 20 21  2  0  0  0
 20 96  1  0  0  0
 21 23  1  0  0  0
 22 28  1  0  0  0
 22 32  2  0  0  0
 26 27  1  0  0  0
 28 97  1  0  0  0
 28 98  1  0  0  0
 29 99  1  0  0  0
 29100  1  0  0  0
 33 34  1  0  0  0
 33 66  1  0  0  0
 33 70  2  0  0  0
 34 36  1  0  0  0
 34 59  1  0  0  0
 34101  1  0  0  0
 35 44  2  0  0  0
 35 45  1  0  0  0
 35 68  1  0  0  0
 36 56  1  0  0  0
 36102  1  0  0  0
 37 39  1  0  0  0
 37 47  1  0  0  0
 37 66  1  0  0  0
 37103  1  0  0  0
 38 43  2  0  0  0
 38 46  1  0  0  0
 38 47  1  0  0  0
 39 64  1  0  0  0
 39 67  2  0  0  0
 40 52  1  0  0  0
 40 53  2  0  0  0
 40 58  1  0  0  0
 41104  1  0  0  0
 41105  1  0  0  0
 41106  1  0  0  0
 41 48  1  0  0  0
 42 43  1  0  0  0
 42 66  1  0  0  0
 42107  1  0  0  0
 42108  1  0  0  0
 43 44  1  0  0  0
 44109  1  0  0  0
 45 46  2  0  0  0
 45110  1  0  0  0
 46111  1  0  0  0
 47112  1  0  0  0
 47113  1  0  0  0
 48 56  1  0  0  0
 48 65  1  0  0  0
 48114  1  0  0  0
 49 50  1  0  0  0
 49 53  1  0  0  0
 49 64  1  0  0  0
 49115  1  0  0  0
 50 51  1  0  0  0
 50116  1  0  0  0
 50117  1  0  0  0
 51 52  1  0  0  0
 51118  1  0  0  0
 51119  1  0  0  0
 52120  1  0  0  0
 52121  1  0  0  0
 53 54  1  0  0  0
 54 55  2  0  0  0
 54122  1  0  0  0
 55 57  1  0  0  0
 55123  1  0  0  0
 56 69  2  0  0  0
 57 58  2  0  0  0
 57124  1  0  0  0
 58125  1  0  0  0
 59 60  1  0  0  0
 59 61  1  0  0  0
 59 62  1  0  0  0
 60126  1  0  0  0
 60127  1  0  0  0
 60128  1  0  0  0
 61129  1  0  0  0
 61130  1  0  0  0
 61131  1  0  0  0
 62132  1  0  0  0
 62133  1  0  0  0
 62134  1  0  0  0
 63 65  1  0  0  0
 63135  1  0  0  0
 63136  1  0  0  0
 63137  1  0  0  0
 64138  1  0  0  0
 65139  1  0  0  0
 68 79  1  0  0  0
 71 72  1  0  0  0
 71140  1  0  0  0
 71141  1  0  0  0
 71 76  1  0  0  0
 72142  1  0  0  0
 72143  1  0  0  0
 72 77  1  0  0  0
 73 75  1  0  0  0
 73 76  1  0  0  0
 73144  1  0  0  0
 73145  1  0  0  0
 74 75  1  0  0  0
 74 77  1  0  0  0
 74146  1  0  0  0
 74147  1  0  0  0
 75148  1  0  0  0
 76 80  1  0  0  0
 76149  1  0  0  0
 77 80  1  0  0  0
 77150  1  0  0  0
 78 79  1  0  0  0
 78151  1  0  0  0
 78152  1  0  0  0
 78 80  1  0  0  0
 79153  1  0  0  0
 79154  1  0  0  0
 80155  1  0  0  0
M  CHG  1  80   1
M  ISO  4   1 100  68 101  75 100  79 101
M  END
> <chiral flag>
0

> <version>
0

> <s_m_source_file>
/data/baiqing/PycharmProjects/Reinvent-master-3.2/result/LINK_invent/BTK/process_docking_weight1_custom_product_contain_oxygen_bond_distance_aromatic_linkinvent_7_9_3/rearranged_h_0009.sdf

> <i_m_source_file_index>
64

> <r_mmod_Potential_Energy-OPLS-2005>
1818.36950683594

> <r_mmod_Stretch_Energy-OPLS-2005>
748.281677246094

> <r_mmod_Bend_Energy-OPLS-2005>
659.242248535156

> <r_mmod_Torsional_Energy-OPLS-2005>
310.319213867188

> <r_mmod_Improper_Torsional_Energy-OPLS-2005>
2.69613409042358

> <r_mmod_Van_der_Waal_Energy-OPLS-2005>
113.883178710938

> <r_mmod_Electrostatic_Energy-OPLS-2005>
-222.947250366211

> <r_mmod_Solvation_Energy-OPLS-2005>
-416.953369140625

> <b_mmod_Minimization_Converged-OPLS-2005>
0

> <r_mmod_RMS_Derivative-OPLS-2005>
1.38395822048187

$$$$
64
                    3D
 Structure written by MMmdl.
155164  0  0  1  0            999 V2000
  -30.6580  -14.7627   20.4644 C   0  0  0  0  0  0
  -30.4186  -12.4665   19.4927 C   0  0  0  0  0  0
  -29.5180  -12.5372   18.2446 C   0  0  0  0  0  0
  -28.0437  -12.3520   18.6474 C   0  0  0  0  0  0
  -27.6410  -13.2447   19.8526 C   0  0  2  0  0  0
  -28.6825  -13.2120   20.9919 C   0  0  0  0  0  0
  -25.2490  -13.8196   20.5690 C   0  0  0  0  0  0
  -24.1785  -13.0428   20.9202 C   0  0  0  0  0  0
  -24.6372  -11.6923   20.8713 C   0  0  0  0  0  0
  -23.9053  -10.4303   21.0379 C   0  0  0  0  0  0
  -24.3608   -9.4203   21.9154 C   0  0  0  0  0  0
  -23.6276   -8.2224   22.0733 C   0  0  0  0  0  0
  -22.4259   -8.0252   21.3532 C   0  0  0  0  0  0
  -21.9904   -9.0227   20.4643 C   0  0  0  0  0  0
  -22.7220  -10.2109   20.3046 C   0  0  0  0  0  0
  -21.6873   -6.0689   22.5265 C   0  0  0  0  0  0
  -21.4025   -6.5616   23.8182 C   0  0  0  0  0  0
  -21.3662   -5.6779   24.9150 C   0  0  0  0  0  0
  -21.6065   -4.3051   24.7224 C   0  0  0  0  0  0
  -21.8805   -3.8123   23.4356 C   0  0  0  0  0  0
  -21.9192   -4.6918   22.3397 C   0  0  0  0  0  0
  -22.7814  -13.5194   21.1909 C   0  0  0  0  0  0
  -22.1659   -4.2106   21.0977 F   0  0  0  0  0  0
  -21.5639   -3.4536   25.7740 F   0  0  0  0  0  0
  -29.9886  -13.5535   20.4063 N   0  0  0  0  0  0
  -26.2937  -12.9428   20.3272 N   0  0  0  0  0  0
  -25.9327  -11.6575   20.5728 N   0  0  0  0  0  0
  -22.0490  -12.8159   22.0474 N   0  0  0  0  0  0
  -25.4177  -15.1922   20.4051 N   0  0  0  0  0  0
  -31.8396  -14.7975   20.1226 O   0  0  0  0  0  0
  -21.6645   -6.8838   21.4217 O   0  0  0  0  0  0
  -22.3461  -14.5497   20.6775 O   0  0  0  0  0  0
  -24.6288  -31.8553   23.1994 C   0  0  0  0  0  0
  -25.9111  -32.4778   23.8354 C   0  0  1  0  0  0
  -27.2422  -27.2436   20.1366 C   0  0  0  0  0  0
  -25.5920  -33.8567   24.2276 N   0  0  0  0  0  0
  -23.4328  -30.4645   21.5497 C   0  0  2  0  0  0
  -24.8875  -28.9128   20.1106 C   0  0  0  0  0  0
  -22.7550  -29.4517   22.5027 C   0  0  0  0  0  0
  -18.0261  -28.1393   22.8555 C   0  0  0  0  0  0
  -24.1483  -36.7284   23.2635 C   0  0  0  0  0  0
  -25.9768  -30.7584   21.3838 C   0  0  0  0  0  0
  -26.0535  -29.3748   20.7361 C   0  0  0  0  0  0
  -27.2271  -28.5485   20.7460 C   0  0  0  0  0  0
  -26.0601  -26.8778   19.4479 C   0  0  0  0  0  0
  -24.9015  -27.6773   19.4443 C   0  0  0  0  0  0
  -23.6512  -29.7921   20.1624 C   0  0  0  0  0  0
  -25.4117  -36.3085   24.0337 C   0  0  1  0  0  0
  -20.5848  -28.3685   23.1353 C   0  0  2  0  0  0
  -20.6843  -26.9459   22.5427 C   0  0  0  0  0  0
  -19.5785  -26.6361   21.5334 C   0  0  0  0  0  0
  -18.1928  -26.7934   22.1673 C   0  0  0  0  0  0
  -19.1514  -28.8848   23.2938 C   0  0  0  0  0  0
  -18.9473  -30.1487   23.8915 C   0  0  0  0  0  0
  -17.6485  -30.6649   24.0600 C   0  0  0  0  0  0
  -25.9085  -34.9454   23.5114 C   0  0  0  0  0  0
  -16.5371  -29.9133   23.6444 C   0  0  0  0  0  0
  -16.7268  -28.6543   23.0471 C   0  0  0  0  0  0
  -26.4490  -31.6558   25.0692 C   0  0  0  0  0  0
  -25.3719  -31.3657   26.1417 C   0  0  0  0  0  0
  -27.0318  -30.2991   24.6081 C   0  0  0  0  0  0
  -27.6058  -32.4255   25.7448 C   0  0  0  0  0  0
  -27.5592  -37.1777   24.8465 C   0  0  0  0  0  0
  -21.4234  -29.3071   22.3866 N   0  0  0  0  0  0
  -26.4289  -37.3786   23.9442 N   0  0  0  0  0  0
  -24.6999  -31.0440   22.1024 N   0  0  0  0  0  0
  -23.4237  -28.8015   23.3071 O   0  0  0  0  0  0
  -28.3395  -26.3419   20.2323 O   0  0  0  0  0  0
  -26.5630  -34.8943   22.4651 O   0  0  0  0  0  0
  -23.5407  -32.1368   23.7258 O   0  0  0  0  0  0
  -32.1620  -19.0913   20.8818 C   0  0  0  0  0  0
  -31.2477  -20.1688   20.8219 C   0  0  0  0  0  0
  -31.7353  -17.7414   20.8224 C   0  0  0  0  0  0
  -29.4599  -18.5237   20.6126 C   0  0  0  0  0  0
  -29.8710  -19.9269   20.6732 C   0  0  0  0  0  0
  -30.3712  -17.3848   20.6899 C   0  0  0  0  0  0
  -28.7437  -23.7553   20.8850 C   0  0  0  0  0  0
  -28.8180  -24.3888   18.5948 C   0  0  0  0  0  0
  -29.2636  -22.9065   18.8112 C   0  0  0  0  0  0
  -28.1920  -24.8692   19.9097 C   0  0  2  0  0  0
  -28.8479  -21.1550   20.6741 C   0  0  0  0  0  0
  -29.1397  -22.6015   20.2421 N   0  0  0  0  0  0
  -29.9449  -15.9448   20.6798 N   0  0  0  0  0  0
  -28.6651  -23.8749   22.1124 O   0  0  0  0  0  0
  -31.4714  -12.5433   19.2166 H   0  0  0  0  0  0
  -30.3113  -11.4973   19.9860 H   0  0  0  0  0  0
  -29.8120  -11.7786   17.5185 H   0  0  0  0  0  0
  -29.6474  -13.5019   17.7488 H   0  0  0  0  0  0
  -27.9048  -11.3019   18.9009 H   0  0  0  0  0  0
  -27.3921  -12.5547   17.7965 H   0  0  0  0  0  0
  -27.6291  -14.2661   19.4702 H   0  0  0  0  0  0
  -28.7196  -12.2303   21.4645 H   0  0  0  0  0  0
  -28.4113  -13.9177   21.7789 H   0  0  0  0  0  0
  -25.2748   -9.5668   22.4722 H   0  0  0  0  0  0
  -24.0000   -7.4617   22.7452 H   0  0  0  0  0  0
  -21.0820   -8.8716   19.8958 H   0  0  0  0  0  0
  -22.3648  -10.9620   19.6163 H   0  0  0  0  0  0
  -21.2015   -7.6133   23.9659 H   0  0  0  0  0  0
  -21.1527   -6.0537   25.9050 H   0  0  0  0  0  0
  -22.0596   -2.7590   23.2870 H   0  0  0  0  0  0
  -22.4170  -11.9818   22.4823 H   0  0  0  0  0  0
  -21.1115  -13.1139   22.2756 H   0  0  0  0  0  0
  -24.6462  -15.8480   20.4697 H   0  0  0  0  0  0
  -26.2660  -15.6132   20.0521 H   0  0  0  0  0  0
  -26.7108  -32.5458   23.1043 H   0  0  0  0  0  0
  -25.0009  -33.9682   25.0382 H   0  0  0  0  0  0
  -22.7214  -31.2789   21.4008 H   0  0  0  0  0  0
  -23.3784  -35.9584   23.3270 H   0  0  0  0  0  0
  -24.3556  -36.8901   22.2045 H   0  0  0  0  0  0
  -23.7184  -37.6451   23.6674 H   0  0  0  0  0  0
  -26.0843  -31.5083   20.5997 H   0  0  0  0  0  0
  -26.8633  -30.8404   21.9990 H   0  0  0  0  0  0
  -28.1120  -28.8850   21.2660 H   0  0  0  0  0  0
  -25.9899  -25.9504   18.9006 H   0  0  0  0  0  0
  -24.0270  -27.3340   18.9105 H   0  0  0  0  0  0
  -23.7588  -30.5619   19.3993 H   0  0  0  0  0  0
  -22.7763  -29.2102   19.8689 H   0  0  0  0  0  0
  -25.1286  -36.1926   25.0831 H   0  0  0  0  0  0
  -20.9730  -28.3151   24.1555 H   0  0  0  0  0  0
  -21.6685  -26.7589   22.1071 H   0  0  0  0  0  0
  -20.5983  -26.2304   23.3635 H   0  0  0  0  0  0
  -19.7005  -25.6267   21.1443 H   0  0  0  0  0  0
  -19.6761  -27.3124   20.6801 H   0  0  0  0  0  0
  -17.4300  -26.6627   21.4003 H   0  0  0  0  0  0
  -18.0184  -26.0097   22.9091 H   0  0  0  0  0  0
  -19.7959  -30.7291   24.2236 H   0  0  0  0  0  0
  -17.5068  -31.6378   24.5137 H   0  0  0  0  0  0
  -15.5418  -30.3063   23.7752 H   0  0  0  0  0  0
  -15.8621  -28.0909   22.7175 H   0  0  0  0  0  0
  -24.5987  -30.6882   25.7756 H   0  0  0  0  0  0
  -24.8833  -32.2809   26.4792 H   0  0  0  0  0  0
  -25.8127  -30.8898   27.0199 H   0  0  0  0  0  0
  -26.2885  -29.6762   24.1085 H   0  0  0  0  0  0
  -27.4006  -29.7210   25.4565 H   0  0  0  0  0  0
  -27.8787  -30.4295   23.9326 H   0  0  0  0  0  0
  -27.2712  -33.3606   26.1968 H   0  0  0  0  0  0
  -28.3945  -32.6669   25.0303 H   0  0  0  0  0  0
  -28.0655  -31.8357   26.5388 H   0  0  0  0  0  0
  -28.2577  -38.0097   24.7581 H   0  0  0  0  0  0
  -28.1112  -36.2630   24.6251 H   0  0  0  0  0  0
  -27.2310  -37.1387   25.8855 H   0  0  0  0  0  0
  -20.9401  -29.8947   21.7209 H   0  0  0  0  0  0
  -26.0172  -38.2852   24.1481 H   0  0  0  0  0  0
  -33.2172  -19.2981   21.0031 H   0  0  0  0  0  0
  -31.6244  -21.1824   20.9164 H   0  0  0  0  0  0
  -32.5027  -16.9831   20.9016 H   0  0  0  0  0  0
  -28.4046  -18.3146   20.5132 H   0  0  0  0  0  0
  -28.1084  -24.4786   17.7699 H   0  0  0  0  0  0
  -29.6862  -24.9972   18.3394 H   0  0  0  0  0  0
  -30.2978  -22.7736   18.4918 H   0  0  0  0  0  0
  -28.6500  -22.2238   18.2149 H   0  0  0  0  0  0
  -27.1410  -24.5925   19.8974 H   0  0  0  0  0  0
  -28.4119  -21.1974   21.6707 H   0  0  0  0  0  0
  -28.0278  -20.8325   20.0296 H   0  0  0  0  0  0
  -28.9605  -15.7934   20.8332 H   0  0  0  0  0  0
  1 25  1  0  0  0
  1 30  2  0  0  0
  1 83  1  0  0  0
  2  3  1  0  0  0
  2 25  1  0  0  0
  2 85  1  0  0  0
  2 86  1  0  0  0
  3  4  1  0  0  0
  3 87  1  0  0  0
  3 88  1  0  0  0
  4  5  1  0  0  0
  4 89  1  0  0  0
  4 90  1  0  0  0
  5  6  1  0  0  0
  5 26  1  0  0  0
  5 91  1  0  0  0
  6 25  1  0  0  0
  6 92  1  0  0  0
  6 93  1  0  0  0
  7  8  2  0  0  0
  7 26  1  0  0  0
  7 29  1  0  0  0
  8  9  1  0  0  0
  8 22  1  0  0  0
  9 10  1  0  0  0
  9 27  2  0  0  0
 10 11  2  0  0  0
 10 15  1  0  0  0
 11 12  1  0  0  0
 11 94  1  0  0  0
 12 13  2  0  0  0
 12 95  1  0  0  0
 13 14  1  0  0  0
 13 31  1  0  0  0
 14 15  2  0  0  0
 14 96  1  0  0  0
 15 97  1  0  0  0
 16 17  2  0  0  0
 16 21  1  0  0  0
 16 31  1  0  0  0
 17 18  1  0  0  0
 17 98  1  0  0  0
 18 19  2  0  0  0
 18 99  1  0  0  0
 19 20  1  0  0  0
 19 24  1  0  0  0
 20 21  2  0  0  0
 20100  1  0  0  0
 21 23  1  0  0  0
 22 28  1  0  0  0
 22 32  2  0  0  0
 26 27  1  0  0  0
 28101  1  0  0  0
 28102  1  0  0  0
 29103  1  0  0  0
 29104  1  0  0  0
 33 34  1  0  0  0
 33 66  1  0  0  0
 33 70  2  0  0  0
 34 36  1  0  0  0
 34 59  1  0  0  0
 34105  1  0  0  0
 35 44  2  0  0  0
 35 45  1  0  0  0
 35 68  1  0  0  0
 36 56  1  0  0  0
 36106  1  0  0  0
 37 39  1  0  0  0
 37 47  1  0  0  0
 37 66  1  0  0  0
 37107  1  0  0  0
 38 43  2  0  0  0
 38 46  1  0  0  0
 38 47  1  0  0  0
 39 64  1  0  0  0
 39 67  2  0  0  0
 40 52  1  0  0  0
 40 53  2  0  0  0
 40 58  1  0  0  0
 41108  1  0  0  0
 41109  1  0  0  0
 41110  1  0  0  0
 41 48  1  0  0  0
 42 43  1  0  0  0
 42 66  1  0  0  0
 42111  1  0  0  0
 42112  1  0  0  0
 43 44  1  0  0  0
 44113  1  0  0  0
 45 46  2  0  0  0
 45114  1  0  0  0
 46115  1  0  0  0
 47116  1  0  0  0
 47117  1  0  0  0
 48 56  1  0  0  0
 48 65  1  0  0  0
 48118  1  0  0  0
 49 50  1  0  0  0
 49 53  1  0  0  0
 49 64  1  0  0  0
 49119  1  0  0  0
 50 51  1  0  0  0
 50120  1  0  0  0
 50121  1  0  0  0
 51 52  1  0  0  0
 51122  1  0  0  0
 51123  1  0  0  0
 52124  1  0  0  0
 52125  1  0  0  0
 53 54  1  0  0  0
 54 55  2  0  0  0
 54126  1  0  0  0
 55 57  1  0  0  0
 55127  1  0  0  0
 56 69  2  0  0  0
 57 58  2  0  0  0
 57128  1  0  0  0
 58129  1  0  0  0
 59 60  1  0  0  0
 59 61  1  0  0  0
 59 62  1  0  0  0
 60130  1  0  0  0
 60131  1  0  0  0
 60132  1  0  0  0
 61133  1  0  0  0
 61134  1  0  0  0
 61135  1  0  0  0
 62136  1  0  0  0
 62137  1  0  0  0
 62138  1  0  0  0
 63 65  1  0  0  0
 63139  1  0  0  0
 63140  1  0  0  0
 63141  1  0  0  0
 64142  1  0  0  0
 65143  1  0  0  0
 68 80  1  0  0  0
 71 72  2  0  0  0
 71 73  1  0  0  0
 71144  1  0  0  0
 72 75  1  0  0  0
 72145  1  0  0  0
 73 76  2  0  0  0
 73146  1  0  0  0
 74 75  2  0  0  0
 74 76  1  0  0  0
 74147  1  0  0  0
 75 81  1  0  0  0
 76 83  1  0  0  0
 77 80  1  0  0  0
 77 82  1  0  0  0
 77 84  2  0  0  0
 78 79  1  0  0  0
 78 80  1  0  0  0
 78148  1  0  0  0
 78149  1  0  0  0
 79 82  1  0  0  0
 79150  1  0  0  0
 79151  1  0  0  0
 80152  1  0  0  0
 81 82  1  0  0  0
 81153  1  0  0  0
 81154  1  0  0  0
 83155  1  0  0  0
M  ISO  4   1 100  68 101  80 101  83 100
M  END
> <chiral flag>
0

> <version>
0

> <s_m_source_file>
/data/baiqing/PycharmProjects/Reinvent-master-3.2/result/LINK_invent/BTK/process_docking_weight1_custom_product_contain_oxygen_bond_distance_aromatic_linkinvent_7_9_3/rearranged_h_0009.sdf

> <i_m_source_file_index>
65

> <r_mmod_Potential_Energy-OPLS-2005>
261.103240966797

> <r_mmod_Stretch_Energy-OPLS-2005>
133.069580078125

> <r_mmod_Bend_Energy-OPLS-2005>
208.311126708984

> <r_mmod_Torsional_Energy-OPLS-2005>
255.861938476562

> <r_mmod_Improper_Torsional_Energy-OPLS-2005>
9.14150524139404

> <r_mmod_Van_der_Waal_Energy-OPLS-2005>
137.036407470703

> <r_mmod_Electrostatic_Energy-OPLS-2005>
-338.604156494141

> <r_mmod_Solvation_Energy-OPLS-2005>
-239.702896118164

> <b_mmod_Minimization_Converged-OPLS-2005>
0

> <r_mmod_RMS_Derivative-OPLS-2005>
7.92072153091431

$$$$
65
                    3D
 Structure written by MMmdl.
155164  0  0  1  0            999 V2000
  -30.5508  -14.6477   20.5284 C   0  0  0  0  0  0
  -30.4495  -12.4033   19.4457 C   0  0  0  0  0  0
  -29.5062  -12.5081   18.2256 C   0  0  0  0  0  0
  -28.0311  -12.3367   18.6382 C   0  0  0  0  0  0
  -27.6525  -13.1967   19.8697 C   0  0  2  0  0  0
  -28.6932  -13.0105   20.9958 C   0  0  0  0  0  0
  -25.2537  -13.8092   20.5633 C   0  0  0  0  0  0
  -24.1825  -13.0380   20.9227 C   0  0  0  0  0  0
  -24.6378  -11.6859   20.8746 C   0  0  0  0  0  0
  -23.9046  -10.4258   21.0421 C   0  0  0  0  0  0
  -24.3612   -9.4179   21.9201 C   0  0  0  0  0  0
  -23.6270   -8.2221   22.0773 C   0  0  0  0  0  0
  -22.4261   -8.0266   21.3538 C   0  0  0  0  0  0
  -21.9901   -9.0248   20.4655 C   0  0  0  0  0  0
  -22.7233  -10.2117   20.3063 C   0  0  0  0  0  0
  -21.6844   -6.0728   22.5280 C   0  0  0  0  0  0
  -21.4016   -6.5638   23.8210 C   0  0  0  0  0  0
  -21.3644   -5.6799   24.9179 C   0  0  0  0  0  0
  -21.6041   -4.3058   24.7244 C   0  0  0  0  0  0
  -21.8814   -3.8144   23.4362 C   0  0  0  0  0  0
  -21.9193   -4.6959   22.3408 C   0  0  0  0  0  0
  -22.7851  -13.5198   21.1871 C   0  0  0  0  0  0
  -22.1661   -4.2143   21.0974 F   0  0  0  0  0  0
  -21.5628   -3.4540   25.7770 F   0  0  0  0  0  0
  -30.0042  -13.3931   20.4486 N   0  0  0  0  0  0
  -26.2965  -12.9240   20.3314 N   0  0  0  0  0  0
  -25.9289  -11.6432   20.5760 N   0  0  0  0  0  0
  -22.0486  -12.8194   22.0427 N   0  0  0  0  0  0
  -25.4163  -15.1780   20.3893 N   0  0  0  0  0  0
  -31.6989  -14.8760   20.1285 O   0  0  0  0  0  0
  -21.6602   -6.8879   21.4257 O   0  0  0  0  0  0
  -22.3547  -14.5492   20.6706 O   0  0  0  0  0  0
  -24.6269  -31.8605   23.2065 C   0  0  0  0  0  0
  -25.9123  -32.4779   23.8346 C   0  0  1  0  0  0
  -27.1575  -27.2795   20.1220 C   0  0  0  0  0  0
  -25.5941  -33.8574   24.2277 N   0  0  0  0  0  0
  -23.4154  -30.4964   21.5496 C   0  0  2  0  0  0
  -24.8540  -28.9697   20.0920 C   0  0  0  0  0  0
  -22.7452  -29.4622   22.4871 C   0  0  0  0  0  0
  -18.0273  -28.1367   22.8408 C   0  0  0  0  0  0
  -24.1484  -36.7313   23.2625 C   0  0  0  0  0  0
  -25.9607  -30.7806   21.3833 C   0  0  0  0  0  0
  -26.0252  -29.4080   20.7247 C   0  0  0  0  0  0
  -27.1838  -28.5719   20.7425 C   0  0  0  0  0  0
  -25.9951  -26.9481   19.3951 C   0  0  0  0  0  0
  -24.8445  -27.7469   19.4119 C   0  0  0  0  0  0
  -23.6299  -29.8594   20.1538 C   0  0  0  0  0  0
  -25.4102  -36.3083   24.0323 C   0  0  1  0  0  0
  -20.5865  -28.3663   23.1252 C   0  0  2  0  0  0
  -20.6761  -26.9387   22.5398 C   0  0  0  0  0  0
  -19.5777  -26.6345   21.5179 C   0  0  0  0  0  0
  -18.1931  -26.7898   22.1552 C   0  0  0  0  0  0
  -19.1523  -28.8824   23.2805 C   0  0  0  0  0  0
  -18.9489  -30.1419   23.8853 C   0  0  0  0  0  0
  -17.6500  -30.6571   24.0536 C   0  0  0  0  0  0
  -25.9036  -34.9453   23.5102 C   0  0  0  0  0  0
  -16.5375  -29.9085   23.6311 C   0  0  0  0  0  0
  -16.7274  -28.6505   23.0305 C   0  0  0  0  0  0
  -26.4503  -31.6578   25.0708 C   0  0  0  0  0  0
  -25.3712  -31.3804   26.1437 C   0  0  0  0  0  0
  -27.0286  -30.2957   24.6173 C   0  0  0  0  0  0
  -27.6095  -32.4264   25.7459 C   0  0  0  0  0  0
  -27.5583  -37.1775   24.8420 C   0  0  0  0  0  0
  -21.4151  -29.3051   22.3661 N   0  0  0  0  0  0
  -26.4264  -37.3795   23.9425 N   0  0  0  0  0  0
  -24.6870  -31.0603   22.1036 N   0  0  0  0  0  0
  -23.4189  -28.8080   23.2876 O   0  0  0  0  0  0
  -28.1901  -26.3324   20.2222 O   0  0  0  0  0  0
  -26.5602  -34.8937   22.4659 O   0  0  0  0  0  0
  -23.5437  -32.1452   23.7400 O   0  0  0  0  0  0
  -28.0562  -18.9867   20.0982 C   0  0  0  0  0  0
  -30.4082  -19.3726   20.3895 C   0  0  0  0  0  0
  -28.2583  -17.6044   20.3950 C   0  0  0  0  0  0
  -30.6189  -17.9845   20.6658 C   0  0  0  0  0  0
  -29.1330  -19.9098   20.0616 C   0  0  0  0  0  0
  -29.5482  -17.0522   20.6488 C   0  0  0  0  0  0
  -28.5007  -23.8346   19.5261 C   0  0  0  0  0  0
  -27.8903  -24.2261   21.7792 C   0  0  0  0  0  0
  -28.0529  -22.6980   21.4915 C   0  0  0  0  0  0
  -27.7726  -24.8956   20.3973 C   0  0  1  0  0  0
  -28.9967  -21.3394   19.4146 C   0  0  0  0  0  0
  -28.5533  -22.6047   20.1181 N   0  0  0  0  0  0
  -29.6772  -15.6234   20.9451 N   0  0  0  0  0  0
  -28.9159  -24.0868   18.3919 O   0  0  0  0  0  0
  -31.4823  -12.5671   19.1363 H   0  0  0  0  0  0
  -30.4238  -11.3998   19.8717 H   0  0  0  0  0  0
  -29.7723  -11.7584   17.4795 H   0  0  0  0  0  0
  -29.6380  -13.4777   17.7436 H   0  0  0  0  0  0
  -27.8738  -11.2825   18.8678 H   0  0  0  0  0  0
  -27.3764  -12.5700   17.7995 H   0  0  0  0  0  0
  -27.6836  -14.2348   19.5465 H   0  0  0  0  0  0
  -28.7167  -11.9701   21.3228 H   0  0  0  0  0  0
  -28.4368  -13.5872   21.8862 H   0  0  0  0  0  0
  -25.2763   -9.5636   22.4788 H   0  0  0  0  0  0
  -23.9979   -7.4611   22.7488 H   0  0  0  0  0  0
  -21.0847   -8.8760   19.8953 H   0  0  0  0  0  0
  -22.3697  -10.9668   19.6175 H   0  0  0  0  0  0
  -21.2002   -7.6153   23.9721 H   0  0  0  0  0  0
  -21.1471   -6.0526   25.9078 H   0  0  0  0  0  0
  -22.0604   -2.7611   23.2875 H   0  0  0  0  0  0
  -22.4095  -11.9816   22.4751 H   0  0  0  0  0  0
  -21.1112  -13.1223   22.2666 H   0  0  0  0  0  0
  -24.6298  -15.8147   20.4608 H   0  0  0  0  0  0
  -26.2028  -15.5748   19.8923 H   0  0  0  0  0  0
  -26.7187  -32.5446   23.1076 H   0  0  0  0  0  0
  -25.0048  -33.9689   25.0403 H   0  0  0  0  0  0
  -22.7066  -31.3180   21.4186 H   0  0  0  0  0  0
  -23.3782  -35.9591   23.3164 H   0  0  0  0  0  0
  -24.3624  -36.9094   22.2066 H   0  0  0  0  0  0
  -23.7169  -37.6443   23.6767 H   0  0  0  0  0  0
  -26.0831  -31.5394   20.6104 H   0  0  0  0  0  0
  -26.8459  -30.8366   22.0050 H   0  0  0  0  0  0
  -28.0675  -28.8816   21.2826 H   0  0  0  0  0  0
  -25.9371  -26.0453   18.8051 H   0  0  0  0  0  0
  -23.9604  -27.4316   18.8784 H   0  0  0  0  0  0
  -23.7551  -30.6517   19.4158 H   0  0  0  0  0  0
  -22.7415  -29.3093   19.8386 H   0  0  0  0  0  0
  -25.1253  -36.1931   25.0799 H   0  0  0  0  0  0
  -20.9931  -28.3291   24.1387 H   0  0  0  0  0  0
  -20.5676  -26.2264   23.3585 H   0  0  0  0  0  0
  -21.6646  -26.7411   22.1243 H   0  0  0  0  0  0
  -19.6960  -25.6251   21.1240 H   0  0  0  0  0  0
  -19.6765  -27.3110   20.6673 H   0  0  0  0  0  0
  -17.4190  -26.6581   21.3960 H   0  0  0  0  0  0
  -18.0359  -26.0045   22.8951 H   0  0  0  0  0  0
  -19.7989  -30.7183   24.2253 H   0  0  0  0  0  0
  -17.5099  -31.6271   24.5110 H   0  0  0  0  0  0
  -15.5415  -30.3000   23.7690 H   0  0  0  0  0  0
  -15.8631  -28.0883   22.7033 H   0  0  0  0  0  0
  -24.5847  -30.7173   25.7800 H   0  0  0  0  0  0
  -24.8936  -32.3008   26.4791 H   0  0  0  0  0  0
  -25.7988  -30.9014   27.0248 H   0  0  0  0  0  0
  -26.2823  -29.6698   24.1231 H   0  0  0  0  0  0
  -27.3987  -29.7221   25.4679 H   0  0  0  0  0  0
  -27.8719  -30.4177   23.9369 H   0  0  0  0  0  0
  -27.2846  -33.3723   26.1814 H   0  0  0  0  0  0
  -28.4053  -32.6515   25.0344 H   0  0  0  0  0  0
  -28.0556  -31.8441   26.5547 H   0  0  0  0  0  0
  -28.2506  -38.0162   24.7620 H   0  0  0  0  0  0
  -28.1204  -36.2697   24.6085 H   0  0  0  0  0  0
  -27.2323  -37.1250   25.8827 H   0  0  0  0  0  0
  -20.9300  -29.8888   21.6976 H   0  0  0  0  0  0
  -26.0145  -38.2842   24.1580 H   0  0  0  0  0  0
  -27.0630  -19.3226   19.8313 H   0  0  0  0  0  0
  -31.2640  -20.0316   20.3743 H   0  0  0  0  0  0
  -27.3933  -16.9598   20.3795 H   0  0  0  0  0  0
  -31.6216  -17.6412   20.8835 H   0  0  0  0  0  0
  -28.7533  -24.6126   22.3209 H   0  0  0  0  0  0
  -27.0063  -24.4154   22.3902 H   0  0  0  0  0  0
  -27.0895  -22.1851   21.5700 H   0  0  0  0  0  0
  -28.7429  -22.2220   22.1912 H   0  0  0  0  0  0
  -26.7273  -24.7394   20.1481 H   0  0  0  0  0  0
  -28.3315  -21.2100   18.5548 H   0  0  0  0  0  0
  -29.9657  -21.5676   18.9606 H   0  0  0  0  0  0
  -28.8272  -15.2070   21.2911 H   0  0  0  0  0  0
  1 25  1  0  0  0
  1 30  2  0  0  0
  1 83  1  0  0  0
  2  3  1  0  0  0
  2 25  1  0  0  0
  2 85  1  0  0  0
  2 86  1  0  0  0
  3  4  1  0  0  0
  3 87  1  0  0  0
  3 88  1  0  0  0
  4  5  1  0  0  0
  4 89  1  0  0  0
  4 90  1  0  0  0
  5  6  1  0  0  0
  5 26  1  0  0  0
  5 91  1  0  0  0
  6 25  1  0  0  0
  6 92  1  0  0  0
  6 93  1  0  0  0
  7  8  2  0  0  0
  7 26  1  0  0  0
  7 29  1  0  0  0
  8  9  1  0  0  0
  8 22  1  0  0  0
  9 10  1  0  0  0
  9 27  2  0  0  0
 10 11  2  0  0  0
 10 15  1  0  0  0
 11 12  1  0  0  0
 11 94  1  0  0  0
 12 13  2  0  0  0
 12 95  1  0  0  0
 13 14  1  0  0  0
 13 31  1  0  0  0
 14 15  2  0  0  0
 14 96  1  0  0  0
 15 97  1  0  0  0
 16 17  2  0  0  0
 16 21  1  0  0  0
 16 31  1  0  0  0
 17 18  1  0  0  0
 17 98  1  0  0  0
 18 19  2  0  0  0
 18 99  1  0  0  0
 19 20  1  0  0  0
 19 24  1  0  0  0
 20 21  2  0  0  0
 20100  1  0  0  0
 21 23  1  0  0  0
 22 28  1  0  0  0
 22 32  2  0  0  0
 26 27  1  0  0  0
 28101  1  0  0  0
 28102  1  0  0  0
 29103  1  0  0  0
 29104  1  0  0  0
 33 34  1  0  0  0
 33 66  1  0  0  0
 33 70  2  0  0  0
 34 36  1  0  0  0
 34 59  1  0  0  0
 34105  1  0  0  0
 35 44  2  0  0  0
 35 45  1  0  0  0
 35 68  1  0  0  0
 36 56  1  0  0  0
 36106  1  0  0  0
 37 39  1  0  0  0
 37 47  1  0  0  0
 37 66  1  0  0  0
 37107  1  0  0  0
 38 43  2  0  0  0
 38 46  1  0  0  0
 38 47  1  0  0  0
 39 64  1  0  0  0
 39 67  2  0  0  0
 40 52  1  0  0  0
 40 53  2  0  0  0
 40 58  1  0  0  0
 41108  1  0  0  0
 41109  1  0  0  0
 41110  1  0  0  0
 41 48  1  0  0  0
 42 43  1  0  0  0
 42 66  1  0  0  0
 42111  1  0  0  0
 42112  1  0  0  0
 43 44  1  0  0  0
 44113  1  0  0  0
 45 46  2  0  0  0
 45114  1  0  0  0
 46115  1  0  0  0
 47116  1  0  0  0
 47117  1  0  0  0
 48 56  1  0  0  0
 48 65  1  0  0  0
 48118  1  0  0  0
 49 50  1  0  0  0
 49 53  1  0  0  0
 49 64  1  0  0  0
 49119  1  0  0  0
 50 51  1  0  0  0
 50120  1  0  0  0
 50121  1  0  0  0
 51 52  1  0  0  0
 51122  1  0  0  0
 51123  1  0  0  0
 52124  1  0  0  0
 52125  1  0  0  0
 53 54  1  0  0  0
 54 55  2  0  0  0
 54126  1  0  0  0
 55 57  1  0  0  0
 55127  1  0  0  0
 56 69  2  0  0  0
 57 58  2  0  0  0
 57128  1  0  0  0
 58129  1  0  0  0
 59 60  1  0  0  0
 59 61  1  0  0  0
 59 62  1  0  0  0
 60130  1  0  0  0
 60131  1  0  0  0
 60132  1  0  0  0
 61133  1  0  0  0
 61134  1  0  0  0
 61135  1  0  0  0
 62136  1  0  0  0
 62137  1  0  0  0
 62138  1  0  0  0
 63 65  1  0  0  0
 63139  1  0  0  0
 63140  1  0  0  0
 63141  1  0  0  0
 64142  1  0  0  0
 65143  1  0  0  0
 68 80  1  0  0  0
 71 73  2  0  0  0
 71 75  1  0  0  0
 71144  1  0  0  0
 72 74  1  0  0  0
 72 75  2  0  0  0
 72145  1  0  0  0
 73 76  1  0  0  0
 73146  1  0  0  0
 74 76  2  0  0  0
 74147  1  0  0  0
 75 81  1  0  0  0
 76 83  1  0  0  0
 77 80  1  0  0  0
 77 82  1  0  0  0
 77 84  2  0  0  0
 78 79  1  0  0  0
 78 80  1  0  0  0
 78148  1  0  0  0
 78149  1  0  0  0
 79 82  1  0  0  0
 79150  1  0  0  0
 79151  1  0  0  0
 80152  1  0  0  0
 81 82  1  0  0  0
 81153  1  0  0  0
 81154  1  0  0  0
 83155  1  0  0  0
M  ISO  4   1 100  68 101  80 101  83 100
M  END
> <chiral flag>
0

> <version>
0

> <s_m_source_file>
/data/baiqing/PycharmProjects/Reinvent-master-3.2/result/LINK_invent/BTK/process_docking_weight1_custom_product_contain_oxygen_bond_distance_aromatic_linkinvent_7_9_3/rearranged_h_0009.sdf

> <i_m_source_file_index>
66

> <r_mmod_Potential_Energy-OPLS-2005>
180.226959228516

> <r_mmod_Stretch_Energy-OPLS-2005>
82.5121765136719

> <r_mmod_Bend_Energy-OPLS-2005>
182.966415405273

> <r_mmod_Torsional_Energy-OPLS-2005>
274.786285400391

> <r_mmod_Improper_Torsional_Energy-OPLS-2005>
8.02795314788818

> <r_mmod_Van_der_Waal_Energy-OPLS-2005>
141.610763549805

> <r_mmod_Electrostatic_Energy-OPLS-2005>
-348.881744384766

> <r_mmod_Solvation_Energy-OPLS-2005>
-236.630828857422

> <b_mmod_Minimization_Converged-OPLS-2005>
0

> <r_mmod_RMS_Derivative-OPLS-2005>
5.5366997718811

$$$$
66
                    3D
 Structure written by MMmdl.
148156  0  0  1  0            999 V2000
  -30.5089  -14.9122   20.4351 C   0  0  0  0  0  0
  -30.4555  -12.5616   19.4901 C   0  0  0  0  0  0
  -29.5264  -12.5317   18.2520 C   0  0  0  0  0  0
  -28.0565  -12.3206   18.6662 C   0  0  0  0  0  0
  -27.6389  -13.2354   19.8464 C   0  0  2  0  0  0
  -28.6835  -13.2119   20.9840 C   0  0  0  0  0  0
  -25.2500  -13.8182   20.5681 C   0  0  0  0  0  0
  -24.1806  -13.0431   20.9230 C   0  0  0  0  0  0
  -24.6402  -11.6911   20.8760 C   0  0  0  0  0  0
  -23.9076  -10.4289   21.0416 C   0  0  0  0  0  0
  -24.3624   -9.4201   21.9190 C   0  0  0  0  0  0
  -23.6294   -8.2240   22.0758 C   0  0  0  0  0  0
  -22.4276   -8.0282   21.3547 C   0  0  0  0  0  0
  -21.9915   -9.0259   20.4652 C   0  0  0  0  0  0
  -22.7249  -10.2135   20.3063 C   0  0  0  0  0  0
  -21.6853   -6.0736   22.5279 C   0  0  0  0  0  0
  -21.4015   -6.5640   23.8212 C   0  0  0  0  0  0
  -21.3659   -5.6793   24.9175 C   0  0  0  0  0  0
  -21.6044   -4.3056   24.7225 C   0  0  0  0  0  0
  -21.8818   -3.8147   23.4347 C   0  0  0  0  0  0
  -21.9192   -4.6963   22.3402 C   0  0  0  0  0  0
  -22.7826  -13.5218   21.1880 C   0  0  0  0  0  0
  -22.1661   -4.2149   21.0979 F   0  0  0  0  0  0
  -21.5626   -3.4539   25.7738 F   0  0  0  0  0  0
  -29.9682  -13.6307   20.4025 N   0  0  0  0  0  0
  -26.2925  -12.9392   20.3247 N   0  0  0  0  0  0
  -25.9332  -11.6537   20.5742 N   0  0  0  0  0  0
  -22.0465  -12.8213   22.0434 N   0  0  0  0  0  0
  -25.4162  -15.1901   20.4026 N   0  0  0  0  0  0
  -31.6970  -15.0562   20.1234 O   0  0  0  0  0  0
  -21.6639   -6.8881   21.4242 O   0  0  0  0  0  0
  -22.3518  -14.5520   20.6717 O   0  0  0  0  0  0
  -24.6422  -31.8456   23.1895 C   0  0  0  0  0  0
  -25.9199  -32.4704   23.8282 C   0  0  1  0  0  0
  -27.2214  -27.1519   20.1469 C   0  0  0  0  0  0
  -25.5952  -33.8509   24.2201 N   0  0  0  0  0  0
  -23.4453  -30.4654   21.5351 C   0  0  2  0  0  0
  -24.8953  -28.8959   20.1105 C   0  0  0  0  0  0
  -22.7562  -29.4552   22.4864 C   0  0  0  0  0  0
  -18.0305  -28.1392   22.8480 C   0  0  0  0  0  0
  -24.1492  -36.7261   23.2642 C   0  0  0  0  0  0
  -26.0006  -30.7245   21.3860 C   0  0  0  0  0  0
  -26.0728  -29.3373   20.7273 C   0  0  0  0  0  0
  -27.2369  -28.4820   20.7280 C   0  0  0  0  0  0
  -26.0152  -26.8096   19.4937 C   0  0  0  0  0  0
  -24.8787  -27.6448   19.4786 C   0  0  0  0  0  0
  -23.6712  -29.7962   20.1539 C   0  0  0  0  0  0
  -25.4122  -36.3038   24.0318 C   0  0  1  0  0  0
  -20.5917  -28.3717   23.1239 C   0  0  2  0  0  0
  -20.6789  -26.9422   22.5403 C   0  0  0  0  0  0
  -19.5760  -26.6380   21.5213 C   0  0  0  0  0  0
  -18.1944  -26.7931   22.1628 C   0  0  0  0  0  0
  -19.1562  -28.8873   23.2853 C   0  0  0  0  0  0
  -18.9477  -30.1469   23.8878 C   0  0  0  0  0  0
  -17.6473  -30.6589   24.0558 C   0  0  0  0  0  0
  -25.9071  -34.9412   23.5068 C   0  0  0  0  0  0
  -16.5365  -29.9082   23.6333 C   0  0  0  0  0  0
  -16.7289  -28.6500   23.0357 C   0  0  0  0  0  0
  -26.4522  -31.6564   25.0716 C   0  0  0  0  0  0
  -25.3712  -31.3749   26.1414 C   0  0  0  0  0  0
  -27.0385  -30.2963   24.6283 C   0  0  0  0  0  0
  -27.6053  -32.4328   25.7502 C   0  0  0  0  0  0
  -27.5575  -37.1788   24.8465 C   0  0  0  0  0  0
  -21.4255  -29.3048   22.3615 N   0  0  0  0  0  0
  -26.4286  -37.3749   23.9408 N   0  0  0  0  0  0
  -24.7158  -31.0325   22.0923 N   0  0  0  0  0  0
  -23.4210  -28.8096   23.3008 O   0  0  0  0  0  0
  -28.2796  -26.1752   20.2158 O   0  0  0  0  0  0
  -26.5655  -34.8906   22.4645 O   0  0  0  0  0  0
  -23.5543  -32.1325   23.7122 O   0  0  0  0  0  0
  -30.4979  -18.5502   20.3681 C   0  0  0  0  0  0
  -30.1918  -19.9876   20.3030 C   0  0  0  0  0  0
  -28.2013  -18.0915   20.6159 C   0  0  0  0  0  0
  -29.5058  -17.5125   20.5303 C   0  0  0  0  0  0
  -28.8604  -20.5427   20.3787 C   0  0  0  0  0  0
  -27.8953  -19.4982   20.5370 C   0  0  0  0  0  0
  -27.9814  -24.6559   20.0800 C   0  0  0  0  0  0
  -28.9666  -23.3090   20.3181 C   0  0  0  0  0  0
  -29.6181  -15.9877   20.6567 N   0  0  0  0  0  0
  -28.3436  -21.9122   20.2867 O   0  0  0  0  0  0
  -26.5907  -19.8568   20.6201 F   0  0  0  0  0  0
  -31.4867  -12.7370   19.1791 H   0  0  0  0  0  0
  -30.4561  -11.5962   19.9987 H   0  0  0  0  0  0
  -29.8377  -11.7454   17.5632 H   0  0  0  0  0  0
  -29.6191  -13.4710   17.7045 H   0  0  0  0  0  0
  -27.9424  -11.2750   18.9545 H   0  0  0  0  0  0
  -27.3955  -12.4747   17.8124 H   0  0  0  0  0  0
  -27.6160  -14.2467   19.4405 H   0  0  0  0  0  0
  -28.7608  -12.2155   21.4218 H   0  0  0  0  0  0
  -28.3869  -13.8773   21.7964 H   0  0  0  0  0  0
  -25.2769   -9.5672   22.4767 H   0  0  0  0  0  0
  -24.0000   -7.4629   22.7477 H   0  0  0  0  0  0
  -21.0844   -8.8784   19.8957 H   0  0  0  0  0  0
  -22.3712  -10.9678   19.6174 H   0  0  0  0  0  0
  -21.2010   -7.6149   23.9716 H   0  0  0  0  0  0
  -21.1480   -6.0523   25.9077 H   0  0  0  0  0  0
  -22.0597   -2.7608   23.2848 H   0  0  0  0  0  0
  -22.4083  -11.9878   22.4830 H   0  0  0  0  0  0
  -21.1084  -13.1242   22.2641 H   0  0  0  0  0  0
  -24.6295  -15.8261   20.4770 H   0  0  0  0  0  0
  -26.2182  -15.6066   19.9499 H   0  0  0  0  0  0
  -26.7265  -32.5316   23.1014 H   0  0  0  0  0  0
  -25.0077  -33.9626   25.0333 H   0  0  0  0  0  0
  -22.7472  -31.2910   21.3818 H   0  0  0  0  0  0
  -23.3757  -35.9590   23.3292 H   0  0  0  0  0  0
  -24.3578  -36.8903   22.2059 H   0  0  0  0  0  0
  -23.7245  -37.6454   23.6684 H   0  0  0  0  0  0
  -26.1536  -31.4794   20.6136 H   0  0  0  0  0  0
  -26.8721  -30.7754   22.0269 H   0  0  0  0  0  0
  -28.1335  -28.8156   21.2313 H   0  0  0  0  0  0
  -25.9102  -25.8553   19.0018 H   0  0  0  0  0  0
  -23.9801  -27.3016   18.9846 H   0  0  0  0  0  0
  -23.8070  -30.5716   19.3992 H   0  0  0  0  0  0
  -22.7864  -29.2380   19.8427 H   0  0  0  0  0  0
  -25.1309  -36.1869   25.0810 H   0  0  0  0  0  0
  -21.0010  -28.3306   24.1360 H   0  0  0  0  0  0
  -20.5685  -26.2330   23.3621 H   0  0  0  0  0  0
  -21.6654  -26.7429   22.1199 H   0  0  0  0  0  0
  -19.6921  -25.6286   21.1255 H   0  0  0  0  0  0
  -19.6694  -27.3179   20.6734 H   0  0  0  0  0  0
  -17.4210  -26.6673   21.4035 H   0  0  0  0  0  0
  -18.0346  -26.0078   22.9030 H   0  0  0  0  0  0
  -19.7952  -30.7291   24.2241 H   0  0  0  0  0  0
  -17.5025  -31.6268   24.5163 H   0  0  0  0  0  0
  -15.5364  -30.2977   23.7663 H   0  0  0  0  0  0
  -15.8691  -28.0808   22.7085 H   0  0  0  0  0  0
  -24.5894  -30.7094   25.7734 H   0  0  0  0  0  0
  -24.8898  -32.2930   26.4792 H   0  0  0  0  0  0
  -25.7998  -30.8952   27.0222 H   0  0  0  0  0  0
  -26.2998  -29.6690   24.1281 H   0  0  0  0  0  0
  -27.3997  -29.7256   25.4848 H   0  0  0  0  0  0
  -27.8906  -30.4204   23.9597 H   0  0  0  0  0  0
  -27.2645  -33.3646   26.2028 H   0  0  0  0  0  0
  -28.3892  -32.6860   25.0352 H   0  0  0  0  0  0
  -28.0689  -31.8488   26.5463 H   0  0  0  0  0  0
  -28.2585  -38.0091   24.7510 H   0  0  0  0  0  0
  -28.1079  -36.2622   24.6295 H   0  0  0  0  0  0
  -27.2293  -37.1437   25.8868 H   0  0  0  0  0  0
  -20.9461  -29.8768   21.6802 H   0  0  0  0  0  0
  -26.0155  -38.2818   24.1409 H   0  0  0  0  0  0
  -31.5349  -18.2525   20.2974 H   0  0  0  0  0  0
  -31.0171  -20.6732   20.1773 H   0  0  0  0  0  0
  -27.3590  -17.4297   20.7477 H   0  0  0  0  0  0
  -27.1214  -24.4889   20.7294 H   0  0  0  0  0  0
  -27.6025  -24.5258   19.0670 H   0  0  0  0  0  0
  -29.4518  -23.4117   21.2888 H   0  0  0  0  0  0
  -29.7707  -23.3307   19.5826 H   0  0  0  0  0  0
  -28.7268  -15.5824   20.8973 H   0  0  0  0  0  0
  1 25  1  0  0  0
  1 30  2  0  0  0
  1 79  1  0  0  0
  2  3  1  0  0  0
  2 25  1  0  0  0
  2 82  1  0  0  0
  2 83  1  0  0  0
  3  4  1  0  0  0
  3 84  1  0  0  0
  3 85  1  0  0  0
  4  5  1  0  0  0
  4 86  1  0  0  0
  4 87  1  0  0  0
  5  6  1  0  0  0
  5 26  1  0  0  0
  5 88  1  0  0  0
  6 25  1  0  0  0
  6 89  1  0  0  0
  6 90  1  0  0  0
  7  8  2  0  0  0
  7 26  1  0  0  0
  7 29  1  0  0  0
  8  9  1  0  0  0
  8 22  1  0  0  0
  9 10  1  0  0  0
  9 27  2  0  0  0
 10 11  2  0  0  0
 10 15  1  0  0  0
 11 12  1  0  0  0
 11 91  1  0  0  0
 12 13  2  0  0  0
 12 92  1  0  0  0
 13 14  1  0  0  0
 13 31  1  0  0  0
 14 15  2  0  0  0
 14 93  1  0  0  0
 15 94  1  0  0  0
 16 17  2  0  0  0
 16 21  1  0  0  0
 16 31  1  0  0  0
 17 18  1  0  0  0
 17 95  1  0  0  0
 18 19  2  0  0  0
 18 96  1  0  0  0
 19 20  1  0  0  0
 19 24  1  0  0  0
 20 21  2  0  0  0
 20 97  1  0  0  0
 21 23  1  0  0  0
 22 28  1  0  0  0
 22 32  2  0  0  0
 26 27  1  0  0  0
 28 98  1  0  0  0
 28 99  1  0  0  0
 29100  1  0  0  0
 29101  1  0  0  0
 33 34  1  0  0  0
 33 66  1  0  0  0
 33 70  2  0  0  0
 34 36  1  0  0  0
 34 59  1  0  0  0
 34102  1  0  0  0
 35 44  2  0  0  0
 35 45  1  0  0  0
 35 68  1  0  0  0
 36 56  1  0  0  0
 36103  1  0  0  0
 37 39  1  0  0  0
 37 47  1  0  0  0
 37 66  1  0  0  0
 37104  1  0  0  0
 38 43  2  0  0  0
 38 46  1  0  0  0
 38 47  1  0  0  0
 39 64  1  0  0  0
 39 67  2  0  0  0
 40 52  1  0  0  0
 40 53  2  0  0  0
 40 58  1  0  0  0
 41105  1  0  0  0
 41106  1  0  0  0
 41107  1  0  0  0
 41 48  1  0  0  0
 42 43  1  0  0  0
 42 66  1  0  0  0
 42108  1  0  0  0
 42109  1  0  0  0
 43 44  1  0  0  0
 44110  1  0  0  0
 45 46  2  0  0  0
 45111  1  0  0  0
 46112  1  0  0  0
 47113  1  0  0  0
 47114  1  0  0  0
 48 56  1  0  0  0
 48 65  1  0  0  0
 48115  1  0  0  0
 49 50  1  0  0  0
 49 53  1  0  0  0
 49 64  1  0  0  0
 49116  1  0  0  0
 50 51  1  0  0  0
 50117  1  0  0  0
 50118  1  0  0  0
 51 52  1  0  0  0
 51119  1  0  0  0
 51120  1  0  0  0
 52121  1  0  0  0
 52122  1  0  0  0
 53 54  1  0  0  0
 54 55  2  0  0  0
 54123  1  0  0  0
 55 57  1  0  0  0
 55124  1  0  0  0
 56 69  2  0  0  0
 57 58  2  0  0  0
 57125  1  0  0  0
 58126  1  0  0  0
 59 60  1  0  0  0
 59 61  1  0  0  0
 59 62  1  0  0  0
 60127  1  0  0  0
 60128  1  0  0  0
 60129  1  0  0  0
 61130  1  0  0  0
 61131  1  0  0  0
 61132  1  0  0  0
 62133  1  0  0  0
 62134  1  0  0  0
 62135  1  0  0  0
 63 65  1  0  0  0
 63136  1  0  0  0
 63137  1  0  0  0
 63138  1  0  0  0
 64139  1  0  0  0
 65140  1  0  0  0
 68 77  1  0  0  0
 71 72  2  0  0  0
 71 74  1  0  0  0
 71141  1  0  0  0
 72 75  1  0  0  0
 72142  1  0  0  0
 73 74  2  0  0  0
 73 76  1  0  0  0
 73143  1  0  0  0
 74 79  1  0  0  0
 75 76  2  0  0  0
 75 80  1  0  0  0
 76 81  1  0  0  0
 77 78  1  0  0  0
 77144  1  0  0  0
 77145  1  0  0  0
 78 80  1  0  0  0
 78146  1  0  0  0
 78147  1  0  0  0
 79148  1  0  0  0
M  ISO  4   1 100  68 101  77 101  79 100
M  END
> <chiral flag>
0

> <version>
0

> <s_m_source_file>
/data/baiqing/PycharmProjects/Reinvent-master-3.2/result/LINK_invent/BTK/process_docking_weight1_custom_product_contain_oxygen_bond_distance_aromatic_linkinvent_7_9_3/rearranged_h_0009.sdf

> <i_m_source_file_index>
67

> <r_mmod_Potential_Energy-OPLS-2005>
491.091247558594

> <r_mmod_Stretch_Energy-OPLS-2005>
216.953765869141

> <r_mmod_Bend_Energy-OPLS-2005>
302.484619140625

> <r_mmod_Torsional_Energy-OPLS-2005>
212.021713256836

> <r_mmod_Improper_Torsional_Energy-OPLS-2005>
4.76716709136963

> <r_mmod_Van_der_Waal_Energy-OPLS-2005>
130.573699951172

> <r_mmod_Electrostatic_Energy-OPLS-2005>
-337.487060546875

> <r_mmod_Solvation_Energy-OPLS-2005>
-212.451721191406

> <b_mmod_Minimization_Converged-OPLS-2005>
0

> <r_mmod_RMS_Derivative-OPLS-2005>
0.366873770952225

$$$$
67
                    3D
 Structure written by MMmdl.
153162  0  0  1  0            999 V2000
  -30.5041  -14.9487   20.4277 C   0  0  0  0  0  0
  -30.4546  -12.5902   19.4880 C   0  0  0  0  0  0
  -29.5250  -12.5287   18.2517 C   0  0  0  0  0  0
  -28.0582  -12.3085   18.6739 C   0  0  0  0  0  0
  -27.6339  -13.2393   19.8399 C   0  0  2  0  0  0
  -28.6783  -13.2464   20.9767 C   0  0  0  0  0  0
  -25.2496  -13.8204   20.5718 C   0  0  0  0  0  0
  -24.1801  -13.0435   20.9234 C   0  0  0  0  0  0
  -24.6400  -11.6915   20.8762 C   0  0  0  0  0  0
  -23.9078  -10.4289   21.0417 C   0  0  0  0  0  0
  -24.3627   -9.4204   21.9189 C   0  0  0  0  0  0
  -23.6299   -8.2241   22.0758 C   0  0  0  0  0  0
  -22.4280   -8.0284   21.3547 C   0  0  0  0  0  0
  -21.9918   -9.0258   20.4646 C   0  0  0  0  0  0
  -22.7253  -10.2133   20.3058 C   0  0  0  0  0  0
  -21.6852   -6.0742   22.5281 C   0  0  0  0  0  0
  -21.4013   -6.5643   23.8215 C   0  0  0  0  0  0
  -21.3659   -5.6793   24.9174 C   0  0  0  0  0  0
  -21.6043   -4.3057   24.7221 C   0  0  0  0  0  0
  -21.8819   -3.8149   23.4342 C   0  0  0  0  0  0
  -21.9192   -4.6969   22.3402 C   0  0  0  0  0  0
  -22.7816  -13.5211   21.1889 C   0  0  0  0  0  0
  -22.1658   -4.2157   21.0981 F   0  0  0  0  0  0
  -21.5629   -3.4539   25.7733 F   0  0  0  0  0  0
  -29.9540  -13.6702   20.3818 N   0  0  0  0  0  0
  -26.2908  -12.9410   20.3238 N   0  0  0  0  0  0
  -25.9330  -11.6549   20.5738 N   0  0  0  0  0  0
  -22.0458  -12.8197   22.0434 N   0  0  0  0  0  0
  -25.4149  -15.1943   20.4162 N   0  0  0  0  0  0
  -31.7096  -15.0666   20.1789 O   0  0  0  0  0  0
  -21.6640   -6.8886   21.4242 O   0  0  0  0  0  0
  -22.3499  -14.5522   20.6739 O   0  0  0  0  0  0
  -24.6432  -31.8427   23.1850 C   0  0  0  0  0  0
  -25.9197  -32.4697   23.8249 C   0  0  1  0  0  0
  -27.2259  -27.1367   20.1660 C   0  0  0  0  0  0
  -25.5945  -33.8500   24.2180 N   0  0  0  0  0  0
  -23.4479  -30.4591   21.5304 C   0  0  2  0  0  0
  -24.8984  -28.8748   20.1182 C   0  0  0  0  0  0
  -22.7566  -29.4542   22.4858 C   0  0  0  0  0  0
  -18.0300  -28.1404   22.8483 C   0  0  0  0  0  0
  -24.1480  -36.7244   23.2642 C   0  0  0  0  0  0
  -26.0014  -30.7197   21.3784 C   0  0  0  0  0  0
  -26.0754  -29.3263   20.7290 C   0  0  0  0  0  0
  -27.2427  -28.4757   20.7276 C   0  0  0  0  0  0
  -26.0215  -26.7733   19.5305 C   0  0  0  0  0  0
  -24.8829  -27.6117   19.5033 C   0  0  0  0  0  0
  -23.6752  -29.7783   20.1534 C   0  0  0  0  0  0
  -25.4111  -36.3028   24.0319 C   0  0  1  0  0  0
  -20.5915  -28.3722   23.1240 C   0  0  2  0  0  0
  -20.6783  -26.9425   22.5405 C   0  0  0  0  0  0
  -19.5754  -26.6387   21.5216 C   0  0  0  0  0  0
  -18.1935  -26.7946   22.1625 C   0  0  0  0  0  0
  -19.1558  -28.8879   23.2857 C   0  0  0  0  0  0
  -18.9481  -30.1477   23.8882 C   0  0  0  0  0  0
  -17.6479  -30.6603   24.0566 C   0  0  0  0  0  0
  -25.9068  -34.9410   23.5059 C   0  0  0  0  0  0
  -16.5367  -29.9101   23.6342 C   0  0  0  0  0  0
  -16.7285  -28.6518   23.0363 C   0  0  0  0  0  0
  -26.4524  -31.6563   25.0689 C   0  0  0  0  0  0
  -25.3722  -31.3760   26.1398 C   0  0  0  0  0  0
  -27.0376  -30.2964   24.6237 C   0  0  0  0  0  0
  -27.6060  -32.4319   25.7476 C   0  0  0  0  0  0
  -27.5572  -37.1764   24.8460 C   0  0  0  0  0  0
  -21.4258  -29.3055   22.3613 N   0  0  0  0  0  0
  -26.4267  -37.3751   23.9432 N   0  0  0  0  0  0
  -24.7178  -31.0284   22.0876 N   0  0  0  0  0  0
  -23.4207  -28.8095   23.3016 O   0  0  0  0  0  0
  -28.3080  -26.1877   20.1615 O   0  0  0  0  0  0
  -26.5656  -34.8913   22.4638 O   0  0  0  0  0  0
  -23.5550  -32.1284   23.7075 O   0  0  0  0  0  0
  -30.2724  -19.9540   21.1842 C   0  0  0  0  0  0
  -30.4759  -18.5089   21.1566 C   0  0  0  0  0  0
  -28.4171  -19.7578   19.7614 C   0  0  0  0  0  0
  -29.2301  -20.6841   20.4977 C   0  0  0  0  0  0
  -29.6301  -17.5898   20.4517 C   0  0  0  0  0  0
  -28.5875  -18.3078   19.7625 C   0  0  0  0  0  0
  -29.2036  -24.3813   21.6978 C   0  0  0  0  0  0
  -29.2786  -22.8317   21.9033 C   0  0  0  0  0  0
  -28.4313  -23.2906   19.7547 C   0  0  0  0  0  0
  -28.1731  -24.6957   20.5955 C   0  0  2  0  0  0
  -29.0260  -22.1660   20.6225 N   0  0  0  0  0  0
  -29.6201  -16.0545   20.5264 N   0  0  0  0  0  0
  -27.6779  -17.5666   19.0837 F   0  0  0  0  0  0
  -31.4824  -12.7750   19.1718 H   0  0  0  0  0  0
  -30.4699  -11.6337   20.0126 H   0  0  0  0  0  0
  -29.8448  -11.7327   17.5778 H   0  0  0  0  0  0
  -29.6054  -13.4584   17.6865 H   0  0  0  0  0  0
  -27.9592  -11.2672   18.9830 H   0  0  0  0  0  0
  -27.3916  -12.4364   17.8201 H   0  0  0  0  0  0
  -27.6001  -14.2432   19.4162 H   0  0  0  0  0  0
  -28.7685  -12.2610   21.4366 H   0  0  0  0  0  0
  -28.3779  -13.9302   21.7728 H   0  0  0  0  0  0
  -25.2775   -9.5681   22.4761 H   0  0  0  0  0  0
  -24.0007   -7.4633   22.7479 H   0  0  0  0  0  0
  -21.0850   -8.8780   19.8949 H   0  0  0  0  0  0
  -22.3720  -10.9673   19.6164 H   0  0  0  0  0  0
  -21.2003   -7.6151   23.9722 H   0  0  0  0  0  0
  -21.1480   -6.0521   25.9079 H   0  0  0  0  0  0
  -22.0599   -2.7611   23.2838 H   0  0  0  0  0  0
  -22.4066  -11.9845   22.4809 H   0  0  0  0  0  0
  -21.1074  -13.1221   22.2641 H   0  0  0  0  0  0
  -24.6406  -15.8370   20.5432 H   0  0  0  0  0  0
  -26.2372  -15.6466   20.0374 H   0  0  0  0  0  0
  -26.7264  -32.5309   23.0978 H   0  0  0  0  0  0
  -25.0088  -33.9609   25.0330 H   0  0  0  0  0  0
  -22.7514  -31.2845   21.3702 H   0  0  0  0  0  0
  -23.3760  -35.9558   23.3274 H   0  0  0  0  0  0
  -24.3570  -36.8896   22.2061 H   0  0  0  0  0  0
  -23.7203  -37.6424   23.6686 H   0  0  0  0  0  0
  -26.1457  -31.4684   20.5980 H   0  0  0  0  0  0
  -26.8771  -30.7813   22.0130 H   0  0  0  0  0  0
  -28.1477  -28.8247   21.2046 H   0  0  0  0  0  0
  -25.9524  -25.8025   19.0594 H   0  0  0  0  0  0
  -23.9827  -27.2592   19.0189 H   0  0  0  0  0  0
  -23.8138  -30.5472   19.3925 H   0  0  0  0  0  0
  -22.7910  -29.2178   19.8442 H   0  0  0  0  0  0
  -25.1292  -36.1846   25.0810 H   0  0  0  0  0  0
  -21.0006  -28.3305   24.1361 H   0  0  0  0  0  0
  -20.5671  -26.2338   23.3626 H   0  0  0  0  0  0
  -21.6647  -26.7426   22.1200 H   0  0  0  0  0  0
  -19.6915  -25.6295   21.1250 H   0  0  0  0  0  0
  -19.6694  -27.3197   20.6747 H   0  0  0  0  0  0
  -17.4205  -26.6696   21.4028 H   0  0  0  0  0  0
  -18.0329  -26.0097   22.9026 H   0  0  0  0  0  0
  -19.7960  -30.7299   24.2240 H   0  0  0  0  0  0
  -17.5038  -31.6284   24.5167 H   0  0  0  0  0  0
  -15.5369  -30.3004   23.7684 H   0  0  0  0  0  0
  -15.8680  -28.0836   22.7093 H   0  0  0  0  0  0
  -24.5904  -30.7097   25.7730 H   0  0  0  0  0  0
  -24.8917  -32.2953   26.4757 H   0  0  0  0  0  0
  -25.8021  -30.8982   27.0210 H   0  0  0  0  0  0
  -26.2974  -29.6698   24.1247 H   0  0  0  0  0  0
  -27.4017  -29.7241   25.4780 H   0  0  0  0  0  0
  -27.8868  -30.4213   23.9515 H   0  0  0  0  0  0
  -27.2669  -33.3665   26.1953 H   0  0  0  0  0  0
  -28.3934  -32.6790   25.0344 H   0  0  0  0  0  0
  -28.0651  -31.8498   26.5475 H   0  0  0  0  0  0
  -28.2545  -38.0106   24.7564 H   0  0  0  0  0  0
  -28.1109  -36.2635   24.6205 H   0  0  0  0  0  0
  -27.2306  -37.1310   25.8866 H   0  0  0  0  0  0
  -20.9464  -29.8775   21.6799 H   0  0  0  0  0  0
  -26.0126  -38.2803   24.1496 H   0  0  0  0  0  0
  -30.9723  -20.5185   21.7831 H   0  0  0  0  0  0
  -31.2846  -18.1031   21.7470 H   0  0  0  0  0  0
  -27.5822  -20.1552   19.2042 H   0  0  0  0  0  0
  -30.1810  -24.7370   21.3703 H   0  0  0  0  0  0
  -28.9774  -24.9026   22.6282 H   0  0  0  0  0  0
  -28.5104  -22.5178   22.6114 H   0  0  0  0  0  0
  -30.2415  -22.5510   22.3301 H   0  0  0  0  0  0
  -29.1354  -23.4884   18.9457 H   0  0  0  0  0  0
  -27.5066  -22.9572   19.2810 H   0  0  0  0  0  0
  -27.1868  -24.6017   21.0531 H   0  0  0  0  0  0
  -28.6743  -15.7065   20.5422 H   0  0  0  0  0  0
  1 25  1  0  0  0
  1 30  2  0  0  0
  1 82  1  0  0  0
  2  3  1  0  0  0
  2 25  1  0  0  0
  2 84  1  0  0  0
  2 85  1  0  0  0
  3  4  1  0  0  0
  3 86  1  0  0  0
  3 87  1  0  0  0
  4  5  1  0  0  0
  4 88  1  0  0  0
  4 89  1  0  0  0
  5  6  1  0  0  0
  5 26  1  0  0  0
  5 90  1  0  0  0
  6 25  1  0  0  0
  6 91  1  0  0  0
  6 92  1  0  0  0
  7  8  2  0  0  0
  7 26  1  0  0  0
  7 29  1  0  0  0
  8  9  1  0  0  0
  8 22  1  0  0  0
  9 10  1  0  0  0
  9 27  2  0  0  0
 10 11  2  0  0  0
 10 15  1  0  0  0
 11 12  1  0  0  0
 11 93  1  0  0  0
 12 13  2  0  0  0
 12 94  1  0  0  0
 13 14  1  0  0  0
 13 31  1  0  0  0
 14 15  2  0  0  0
 14 95  1  0  0  0
 15 96  1  0  0  0
 16 17  2  0  0  0
 16 21  1  0  0  0
 16 31  1  0  0  0
 17 18  1  0  0  0
 17 97  1  0  0  0
 18 19  2  0  0  0
 18 98  1  0  0  0
 19 20  1  0  0  0
 19 24  1  0  0  0
 20 21  2  0  0  0
 20 99  1  0  0  0
 21 23  1  0  0  0
 22 28  1  0  0  0
 22 32  2  0  0  0
 26 27  1  0  0  0
 28100  1  0  0  0
 28101  1  0  0  0
 29102  1  0  0  0
 29103  1  0  0  0
 33 34  1  0  0  0
 33 66  1  0  0  0
 33 70  2  0  0  0
 34 36  1  0  0  0
 34 59  1  0  0  0
 34104  1  0  0  0
 35 44  2  0  0  0
 35 45  1  0  0  0
 35 68  1  0  0  0
 36 56  1  0  0  0
 36105  1  0  0  0
 37 39  1  0  0  0
 37 47  1  0  0  0
 37 66  1  0  0  0
 37106  1  0  0  0
 38 43  2  0  0  0
 38 46  1  0  0  0
 38 47  1  0  0  0
 39 64  1  0  0  0
 39 67  2  0  0  0
 40 52  1  0  0  0
 40 53  2  0  0  0
 40 58  1  0  0  0
 41107  1  0  0  0
 41108  1  0  0  0
 41109  1  0  0  0
 41 48  1  0  0  0
 42 43  1  0  0  0
 42 66  1  0  0  0
 42110  1  0  0  0
 42111  1  0  0  0
 43 44  1  0  0  0
 44112  1  0  0  0
 45 46  2  0  0  0
 45113  1  0  0  0
 46114  1  0  0  0
 47115  1  0  0  0
 47116  1  0  0  0
 48 56  1  0  0  0
 48 65  1  0  0  0
 48117  1  0  0  0
 49 50  1  0  0  0
 49 53  1  0  0  0
 49 64  1  0  0  0
 49118  1  0  0  0
 50 51  1  0  0  0
 50119  1  0  0  0
 50120  1  0  0  0
 51 52  1  0  0  0
 51121  1  0  0  0
 51122  1  0  0  0
 52123  1  0  0  0
 52124  1  0  0  0
 53 54  1  0  0  0
 54 55  2  0  0  0
 54125  1  0  0  0
 55 57  1  0  0  0
 55126  1  0  0  0
 56 69  2  0  0  0
 57 58  2  0  0  0
 57127  1  0  0  0
 58128  1  0  0  0
 59 60  1  0  0  0
 59 61  1  0  0  0
 59 62  1  0  0  0
 60129  1  0  0  0
 60130  1  0  0  0
 60131  1  0  0  0
 61132  1  0  0  0
 61133  1  0  0  0
 61134  1  0  0  0
 62135  1  0  0  0
 62136  1  0  0  0
 62137  1  0  0  0
 63 65  1  0  0  0
 63138  1  0  0  0
 63139  1  0  0  0
 63140  1  0  0  0
 64141  1  0  0  0
 65142  1  0  0  0
 68 80  1  0  0  0
 71 72  2  0  0  0
 71 74  1  0  0  0
 71143  1  0  0  0
 72 75  1  0  0  0
 72144  1  0  0  0
 73 74  2  0  0  0
 73 76  1  0  0  0
 73145  1  0  0  0
 74 81  1  0  0  0
 75 76  2  0  0  0
 75 82  1  0  0  0
 76 83  1  0  0  0
 77 78  1  0  0  0
 77 80  1  0  0  0
 77146  1  0  0  0
 77147  1  0  0  0
 78 81  1  0  0  0
 78148  1  0  0  0
 78149  1  0  0  0
 79 80  1  0  0  0
 79 81  1  0  0  0
 79150  1  0  0  0
 79151  1  0  0  0
 80152  1  0  0  0
 82153  1  0  0  0
M  ISO  4   1 100  68 101  80 101  82 100
M  END
> <chiral flag>
0

> <version>
0

> <s_m_source_file>
/data/baiqing/PycharmProjects/Reinvent-master-3.2/result/LINK_invent/BTK/process_docking_weight1_custom_product_contain_oxygen_bond_distance_aromatic_linkinvent_7_9_3/rearranged_h_0009.sdf

> <i_m_source_file_index>
68

> <r_mmod_Potential_Energy-OPLS-2005>
511.134216308594

> <r_mmod_Stretch_Energy-OPLS-2005>
215.138229370117

> <r_mmod_Bend_Energy-OPLS-2005>
311.854766845703

> <r_mmod_Torsional_Energy-OPLS-2005>
297.146484375

> <r_mmod_Improper_Torsional_Energy-OPLS-2005>
6.74517917633057

> <r_mmod_Van_der_Waal_Energy-OPLS-2005>
122.15104675293

> <r_mmod_Electrostatic_Energy-OPLS-2005>
-410.138092041016

> <r_mmod_Solvation_Energy-OPLS-2005>
-221.11376953125

> <b_mmod_Minimization_Converged-OPLS-2005>
0

> <r_mmod_RMS_Derivative-OPLS-2005>
0.983909428119659

$$$$
68
                    3D
 Structure written by MMmdl.
154162  0  0  1  0            999 V2000
  -30.6094  -14.7063   20.3582 C   0  0  0  0  0  0
  -30.4390  -12.3871   19.4741 C   0  0  0  0  0  0
  -29.5129  -12.3595   18.2392 C   0  0  0  0  0  0
  -28.0254  -12.2915   18.6532 C   0  0  0  0  0  0
  -27.6413  -13.2119   19.8466 C   0  0  2  0  0  0
  -28.6972  -13.1704   20.9702 C   0  0  0  0  0  0
  -25.2544  -13.8175   20.5714 C   0  0  0  0  0  0
  -24.1807  -13.0447   20.9232 C   0  0  0  0  0  0
  -24.6371  -11.6914   20.8814 C   0  0  0  0  0  0
  -23.9038  -10.4303   21.0461 C   0  0  0  0  0  0
  -24.3591   -9.4220   21.9244 C   0  0  0  0  0  0
  -23.6274   -8.2247   22.0782 C   0  0  0  0  0  0
  -22.4265   -8.0295   21.3557 C   0  0  0  0  0  0
  -21.9893   -9.0269   20.4664 C   0  0  0  0  0  0
  -22.7213  -10.2159   20.3103 C   0  0  0  0  0  0
  -21.6849   -6.0744   22.5281 C   0  0  0  0  0  0
  -21.4022   -6.5655   23.8218 C   0  0  0  0  0  0
  -21.3663   -5.6816   24.9185 C   0  0  0  0  0  0
  -21.6034   -4.3072   24.7235 C   0  0  0  0  0  0
  -21.8805   -3.8160   23.4358 C   0  0  0  0  0  0
  -21.9178   -4.6970   22.3414 C   0  0  0  0  0  0
  -22.7839  -13.5271   21.1875 C   0  0  0  0  0  0
  -22.1646   -4.2153   21.0987 F   0  0  0  0  0  0
  -21.5611   -3.4555   25.7747 F   0  0  0  0  0  0
  -29.9892  -13.4825   20.3528 N   0  0  0  0  0  0
  -26.2952  -12.9329   20.3353 N   0  0  0  0  0  0
  -25.9304  -11.6494   20.5865 N   0  0  0  0  0  0
  -22.0436  -12.8293   22.0420 N   0  0  0  0  0  0
  -25.4257  -15.1884   20.4045 N   0  0  0  0  0  0
  -31.8368  -14.7804   20.2368 O   0  0  0  0  0  0
  -21.6639   -6.8885   21.4243 O   0  0  0  0  0  0
  -22.3559  -14.5587   20.6723 O   0  0  0  0  0  0
  -24.6301  -31.8575   23.2049 C   0  0  0  0  0  0
  -25.9144  -32.4758   23.8389 C   0  0  1  0  0  0
  -27.2185  -27.2964   20.1397 C   0  0  0  0  0  0
  -25.5967  -33.8563   24.2332 N   0  0  0  0  0  0
  -23.4234  -30.4855   21.5462 C   0  0  2  0  0  0
  -24.8659  -28.9337   20.1154 C   0  0  0  0  0  0
  -22.7481  -29.4625   22.4915 C   0  0  0  0  0  0
  -18.0281  -28.1390   22.8474 C   0  0  0  0  0  0
  -24.1476  -36.7271   23.2644 C   0  0  0  0  0  0
  -25.9639  -30.7882   21.3715 C   0  0  0  0  0  0
  -26.0349  -29.4130   20.7165 C   0  0  0  0  0  0
  -27.2116  -28.6072   20.7135 C   0  0  0  0  0  0
  -26.0186  -26.8633   19.5310 C   0  0  0  0  0  0
  -24.8592  -27.6642   19.5172 C   0  0  0  0  0  0
  -23.6419  -29.8270   20.1580 C   0  0  0  0  0  0
  -25.4094  -36.3066   24.0354 C   0  0  1  0  0  0
  -20.5881  -28.3709   23.1261 C   0  0  2  0  0  0
  -20.6764  -26.9420   22.5408 C   0  0  0  0  0  0
  -19.5750  -26.6386   21.5197 C   0  0  0  0  0  0
  -18.1929  -26.7933   22.1608 C   0  0  0  0  0  0
  -19.1528  -28.8857   23.2868 C   0  0  0  0  0  0
  -18.9452  -30.1449   23.8908 C   0  0  0  0  0  0
  -17.6448  -30.6579   24.0573 C   0  0  0  0  0  0
  -25.9044  -34.9433   23.5131 C   0  0  0  0  0  0
  -16.5344  -29.9091   23.6318 C   0  0  0  0  0  0
  -16.7262  -28.6508   23.0335 C   0  0  0  0  0  0
  -26.4525  -31.6567   25.0766 C   0  0  0  0  0  0
  -25.3795  -31.3681   26.1529 C   0  0  0  0  0  0
  -27.0386  -30.3006   24.6213 C   0  0  0  0  0  0
  -27.6084  -32.4313   25.7529 C   0  0  0  0  0  0
  -27.5560  -37.1807   24.8481 C   0  0  0  0  0  0
  -21.4183  -29.3074   22.3658 N   0  0  0  0  0  0
  -26.4268  -37.3774   23.9426 N   0  0  0  0  0  0
  -24.6922  -31.0607   22.0982 N   0  0  0  0  0  0
  -23.4188  -28.8137   23.2985 O   0  0  0  0  0  0
  -28.3596  -26.4787   20.2172 O   0  0  0  0  0  0
  -26.5565  -34.8905   22.4676 O   0  0  0  0  0  0
  -23.5463  -32.1355   23.7385 O   0  0  0  0  0  0
  -30.5270  -18.1896   20.0148 C   0  0  0  0  0  0
  -28.5391  -17.4975   21.1753 C   0  0  0  0  0  0
  -30.1843  -19.5632   20.2231 C   0  0  0  0  0  0
  -28.2123  -18.8695   21.4002 C   0  0  0  0  0  0
  -29.7015  -17.1152   20.4614 C   0  0  0  0  0  0
  -29.0013  -19.9459   20.9094 C   0  0  0  0  0  0
  -29.7208  -15.8229   18.4297 C   0  0  0  0  0  0
  -28.4031  -23.8474   20.7857 C   0  0  0  0  0  0
  -28.8017  -22.3883   20.2483 C   0  0  0  0  0  0
  -28.4154  -25.0662   19.7511 C   0  0  0  0  0  0
  -29.8359  -15.7658   19.9007 N   0  0  0  0  0  0
  -28.5976  -21.2736   21.1815 O   0  0  0  0  0  0
  -31.4785  -12.5026   19.1598 H   0  0  0  0  0  0
  -30.3869  -11.4367   20.0077 H   0  0  0  0  0  0
  -29.7480  -11.4775   17.6418 H   0  0  0  0  0  0
  -29.7160  -13.1994   17.5802 H   0  0  0  0  0  0
  -27.8352  -11.2556   18.9359 H   0  0  0  0  0  0
  -27.3801  -12.4872   17.7964 H   0  0  0  0  0  0
  -27.6151  -14.2271   19.4624 H   0  0  0  0  0  0
  -28.7249  -12.1942   21.4562 H   0  0  0  0  0  0
  -28.4615  -13.9018   21.7458 H   0  0  0  0  0  0
  -25.2707   -9.5715   22.4864 H   0  0  0  0  0  0
  -23.9963   -7.4647   22.7526 H   0  0  0  0  0  0
  -21.0810   -8.8813   19.8987 H   0  0  0  0  0  0
  -22.3657  -10.9729   19.6252 H   0  0  0  0  0  0
  -21.2041   -7.6169   23.9726 H   0  0  0  0  0  0
  -21.1491   -6.0553   25.9088 H   0  0  0  0  0  0
  -22.0571   -2.7618   23.2863 H   0  0  0  0  0  0
  -22.3957  -11.9904   22.4791 H   0  0  0  0  0  0
  -21.1112  -13.1453   22.2679 H   0  0  0  0  0  0
  -24.6534  -15.8416   20.4815 H   0  0  0  0  0  0
  -26.2693  -15.6147   20.0428 H   0  0  0  0  0  0
  -26.7225  -32.5428   23.1146 H   0  0  0  0  0  0
  -25.0250  -33.9697   25.0565 H   0  0  0  0  0  0
  -22.7219  -31.3095   21.4060 H   0  0  0  0  0  0
  -23.3733  -35.9610   23.3321 H   0  0  0  0  0  0
  -24.3569  -36.8861   22.2055 H   0  0  0  0  0  0
  -23.7233  -37.6492   23.6631 H   0  0  0  0  0  0
  -26.0958  -31.5488   20.6010 H   0  0  0  0  0  0
  -26.8438  -30.8380   22.0011 H   0  0  0  0  0  0
  -28.1115  -28.9745   21.1861 H   0  0  0  0  0  0
  -25.9256  -25.8879   19.0853 H   0  0  0  0  0  0
  -23.9563  -27.2794   19.0638 H   0  0  0  0  0  0
  -23.7912  -30.6132   19.4168 H   0  0  0  0  0  0
  -22.7545  -29.2829   19.8300 H   0  0  0  0  0  0
  -25.1264  -36.1935   25.0848 H   0  0  0  0  0  0
  -20.9969  -28.3300   24.1381 H   0  0  0  0  0  0
  -20.5626  -26.2328   23.3623 H   0  0  0  0  0  0
  -21.6642  -26.7435   22.1227 H   0  0  0  0  0  0
  -19.6912  -25.6292   21.1242 H   0  0  0  0  0  0
  -19.6684  -27.3181   20.6715 H   0  0  0  0  0  0
  -17.4194  -26.6652   21.4020 H   0  0  0  0  0  0
  -18.0345  -26.0085   22.9014 H   0  0  0  0  0  0
  -19.7923  -30.7243   24.2312 H   0  0  0  0  0  0
  -17.5005  -31.6253   24.5185 H   0  0  0  0  0  0
  -15.5349  -30.2993   23.7634 H   0  0  0  0  0  0
  -15.8661  -28.0829   22.7050 H   0  0  0  0  0  0
  -24.5956  -30.7025   25.7896 H   0  0  0  0  0  0
  -24.9020  -32.2840   26.5029 H   0  0  0  0  0  0
  -25.8181  -30.8853   27.0276 H   0  0  0  0  0  0
  -26.2960  -29.6739   24.1277 H   0  0  0  0  0  0
  -27.4122  -29.7288   25.4714 H   0  0  0  0  0  0
  -27.8816  -30.4298   23.9427 H   0  0  0  0  0  0
  -27.2695  -33.3603   26.2126 H   0  0  0  0  0  0
  -28.3883  -32.6902   25.0354 H   0  0  0  0  0  0
  -28.0784  -31.8450   26.5438 H   0  0  0  0  0  0
  -28.2608  -38.0072   24.7473 H   0  0  0  0  0  0
  -28.1019  -36.2606   24.6356 H   0  0  0  0  0  0
  -27.2285  -37.1531   25.8888 H   0  0  0  0  0  0
  -20.9354  -29.8881   21.6939 H   0  0  0  0  0  0
  -26.0147  -38.2845   24.1443 H   0  0  0  0  0  0
  -31.4073  -17.9620   19.4295 H   0  0  0  0  0  0
  -27.8366  -16.7389   21.4920 H   0  0  0  0  0  0
  -30.8481  -20.3233   19.8388 H   0  0  0  0  0  0
  -27.2929  -19.0942   21.9224 H   0  0  0  0  0  0
  -30.6717  -15.6244   17.9304 H   0  0  0  0  0  0
  -29.3770  -16.7958   18.0744 H   0  0  0  0  0  0
  -28.9821  -15.1213   18.0573 H   0  0  0  0  0  0
  -29.0812  -24.0940   21.6043 H   0  0  0  0  0  0
  -27.4120  -23.7888   21.2376 H   0  0  0  0  0  0
  -29.8385  -22.4039   19.9138 H   0  0  0  0  0  0
  -28.1943  -22.1649   19.3705 H   0  0  0  0  0  0
  -27.6990  -24.8619   18.9597 H   0  0  0  0  0  0
  -29.3736  -25.0009   19.2357 H   0  0  0  0  0  0
  1 25  1  0  0  0
  1 30  2  0  0  0
  1 81  1  0  0  0
  2  3  1  0  0  0
  2 25  1  0  0  0
  2 83  1  0  0  0
  2 84  1  0  0  0
  3  4  1  0  0  0
  3 85  1  0  0  0
  3 86  1  0  0  0
  4  5  1  0  0  0
  4 87  1  0  0  0
  4 88  1  0  0  0
  5  6  1  0  0  0
  5 26  1  0  0  0
  5 89  1  0  0  0
  6 25  1  0  0  0
  6 90  1  0  0  0
  6 91  1  0  0  0
  7  8  2  0  0  0
  7 26  1  0  0  0
  7 29  1  0  0  0
  8  9  1  0  0  0
  8 22  1  0  0  0
  9 10  1  0  0  0
  9 27  2  0  0  0
 10 11  2  0  0  0
 10 15  1  0  0  0
 11 12  1  0  0  0
 11 92  1  0  0  0
 12 13  2  0  0  0
 12 93  1  0  0  0
 13 14  1  0  0  0
 13 31  1  0  0  0
 14 15  2  0  0  0
 14 94  1  0  0  0
 15 95  1  0  0  0
 16 17  2  0  0  0
 16 21  1  0  0  0
 16 31  1  0  0  0
 17 18  1  0  0  0
 17 96  1  0  0  0
 18 19  2  0  0  0
 18 97  1  0  0  0
 19 20  1  0  0  0
 19 24  1  0  0  0
 20 21  2  0  0  0
 20 98  1  0  0  0
 21 23  1  0  0  0
 22 28  1  0  0  0
 22 32  2  0  0  0
 26 27  1  0  0  0
 28 99  1  0  0  0
 28100  1  0  0  0
 29101  1  0  0  0
 29102  1  0  0  0
 33 34  1  0  0  0
 33 66  1  0  0  0
 33 70  2  0  0  0
 34 36  1  0  0  0
 34 59  1  0  0  0
 34103  1  0  0  0
 35 44  2  0  0  0
 35 45  1  0  0  0
 35 68  1  0  0  0
 36 56  1  0  0  0
 36104  1  0  0  0
 37 39  1  0  0  0
 37 47  1  0  0  0
 37 66  1  0  0  0
 37105  1  0  0  0
 38 43  2  0  0  0
 38 46  1  0  0  0
 38 47  1  0  0  0
 39 64  1  0  0  0
 39 67  2  0  0  0
 40 52  1  0  0  0
 40 53  2  0  0  0
 40 58  1  0  0  0
 41106  1  0  0  0
 41107  1  0  0  0
 41108  1  0  0  0
 41 48  1  0  0  0
 42 43  1  0  0  0
 42 66  1  0  0  0
 42109  1  0  0  0
 42110  1  0  0  0
 43 44  1  0  0  0
 44111  1  0  0  0
 45 46  2  0  0  0
 45112  1  0  0  0
 46113  1  0  0  0
 47114  1  0  0  0
 47115  1  0  0  0
 48 56  1  0  0  0
 48 65  1  0  0  0
 48116  1  0  0  0
 49 50  1  0  0  0
 49 53  1  0  0  0
 49 64  1  0  0  0
 49117  1  0  0  0
 50 51  1  0  0  0
 50118  1  0  0  0
 50119  1  0  0  0
 51 52  1  0  0  0
 51120  1  0  0  0
 51121  1  0  0  0
 52122  1  0  0  0
 52123  1  0  0  0
 53 54  1  0  0  0
 54 55  2  0  0  0
 54124  1  0  0  0
 55 57  1  0  0  0
 55125  1  0  0  0
 56 69  2  0  0  0
 57 58  2  0  0  0
 57126  1  0  0  0
 58127  1  0  0  0
 59 60  1  0  0  0
 59 61  1  0  0  0
 59 62  1  0  0  0
 60128  1  0  0  0
 60129  1  0  0  0
 60130  1  0  0  0
 61131  1  0  0  0
 61132  1  0  0  0
 61133  1  0  0  0
 62134  1  0  0  0
 62135  1  0  0  0
 62136  1  0  0  0
 63 65  1  0  0  0
 63137  1  0  0  0
 63138  1  0  0  0
 63139  1  0  0  0
 64140  1  0  0  0
 65141  1  0  0  0
 68 80  1  0  0  0
 71 73  2  0  0  0
 71 75  1  0  0  0
 71142  1  0  0  0
 72 74  1  0  0  0
 72 75  2  0  0  0
 72143  1  0  0  0
 73 76  1  0  0  0
 73144  1  0  0  0
 74 76  2  0  0  0
 74145  1  0  0  0
 75 81  1  0  0  0
 76 82  1  0  0  0
 77 81  1  0  0  0
 77146  1  0  0  0
 77147  1  0  0  0
 77148  1  0  0  0
 78 79  1  0  0  0
 78 80  1  0  0  0
 78149  1  0  0  0
 78150  1  0  0  0
 79 82  1  0  0  0
 79151  1  0  0  0
 79152  1  0  0  0
 80153  1  0  0  0
 80154  1  0  0  0
M  ISO  4   1 100  68 101  80 101  81 100
M  END
> <chiral flag>
0

> <version>
0

> <s_m_source_file>
/data/baiqing/PycharmProjects/Reinvent-master-3.2/result/LINK_invent/BTK/process_docking_weight1_custom_product_contain_oxygen_bond_distance_aromatic_linkinvent_7_9_3/rearranged_h_0009.sdf

> <i_m_source_file_index>
69

> <r_mmod_Potential_Energy-OPLS-2005>
326.434143066406

> <r_mmod_Stretch_Energy-OPLS-2005>
87.9355850219727

> <r_mmod_Bend_Energy-OPLS-2005>
167.475799560547

> <r_mmod_Torsional_Energy-OPLS-2005>
334.097442626953

> <r_mmod_Improper_Torsional_Energy-OPLS-2005>
26.7105770111084

> <r_mmod_Van_der_Waal_Energy-OPLS-2005>
141.255142211914

> <r_mmod_Electrostatic_Energy-OPLS-2005>
-312.797546386719

> <r_mmod_Solvation_Energy-OPLS-2005>
-196.871047973633

> <b_mmod_Minimization_Converged-OPLS-2005>
0

> <r_mmod_RMS_Derivative-OPLS-2005>
2.83015894889832

$$$$
69
                    3D
 Structure written by MMmdl.
148156  0  0  1  0            999 V2000
  -30.5214  -14.9152   20.4322 C   0  0  0  0  0  0
  -30.4560  -12.5613   19.4932 C   0  0  0  0  0  0
  -29.5263  -12.5225   18.2560 C   0  0  0  0  0  0
  -28.0560  -12.3176   18.6734 C   0  0  0  0  0  0
  -27.6385  -13.2396   19.8491 C   0  0  2  0  0  0
  -28.6855  -13.2218   20.9846 C   0  0  0  0  0  0
  -25.2459  -13.8158   20.5697 C   0  0  0  0  0  0
  -24.1765  -13.0390   20.9179 C   0  0  0  0  0  0
  -24.6393  -11.6885   20.8728 C   0  0  0  0  0  0
  -23.9070  -10.4267   21.0393 C   0  0  0  0  0  0
  -24.3618   -9.4189   21.9177 C   0  0  0  0  0  0
  -23.6287   -8.2227   22.0750 C   0  0  0  0  0  0
  -22.4268   -8.0269   21.3541 C   0  0  0  0  0  0
  -21.9903   -9.0243   20.4647 C   0  0  0  0  0  0
  -22.7235  -10.2117   20.3050 C   0  0  0  0  0  0
  -21.6852   -6.0726   22.5279 C   0  0  0  0  0  0
  -21.4012   -6.5629   23.8210 C   0  0  0  0  0  0
  -21.3659   -5.6784   24.9173 C   0  0  0  0  0  0
  -21.6046   -4.3046   24.7225 C   0  0  0  0  0  0
  -21.8819   -3.8139   23.4345 C   0  0  0  0  0  0
  -21.9194   -4.6956   22.3402 C   0  0  0  0  0  0
  -22.7791  -13.5179   21.1863 C   0  0  0  0  0  0
  -22.1663   -4.2144   21.0979 F   0  0  0  0  0  0
  -21.5632   -3.4530   25.7737 F   0  0  0  0  0  0
  -29.9702  -13.6372   20.3996 N   0  0  0  0  0  0
  -26.2930  -12.9409   20.3303 N   0  0  0  0  0  0
  -25.9337  -11.6539   20.5759 N   0  0  0  0  0  0
  -22.0457  -12.8183   22.0447 N   0  0  0  0  0  0
  -25.4009  -15.1882   20.4184 N   0  0  0  0  0  0
  -31.7098  -15.0488   20.1197 O   0  0  0  0  0  0
  -21.6633   -6.8868   21.4238 O   0  0  0  0  0  0
  -22.3464  -14.5487   20.6720 O   0  0  0  0  0  0
  -24.6417  -31.8452   23.1899 C   0  0  0  0  0  0
  -25.9199  -32.4701   23.8276 C   0  0  1  0  0  0
  -27.2222  -27.1526   20.1448 C   0  0  0  0  0  0
  -25.5963  -33.8506   24.2202 N   0  0  0  0  0  0
  -23.4442  -30.4662   21.5348 C   0  0  2  0  0  0
  -24.8945  -28.8965   20.1100 C   0  0  0  0  0  0
  -22.7558  -29.4553   22.4857 C   0  0  0  0  0  0
  -18.0310  -28.1394   22.8468 C   0  0  0  0  0  0
  -24.1494  -36.7248   23.2642 C   0  0  0  0  0  0
  -25.9996  -30.7246   21.3863 C   0  0  0  0  0  0
  -26.0726  -29.3379   20.7264 C   0  0  0  0  0  0
  -27.2371  -28.4831   20.7255 C   0  0  0  0  0  0
  -26.0147  -26.8095   19.4943 C   0  0  0  0  0  0
  -24.8785  -27.6452   19.4787 C   0  0  0  0  0  0
  -23.6702  -29.7971   20.1536 C   0  0  0  0  0  0
  -25.4127  -36.3035   24.0318 C   0  0  1  0  0  0
  -20.5917  -28.3714   23.1234 C   0  0  2  0  0  0
  -20.6791  -26.9415   22.5409 C   0  0  0  0  0  0
  -19.5773  -26.6381   21.5204 C   0  0  0  0  0  0
  -18.1953  -26.7936   22.1610 C   0  0  0  0  0  0
  -19.1564  -28.8872   23.2845 C   0  0  0  0  0  0
  -18.9482  -30.1470   23.8868 C   0  0  0  0  0  0
  -17.6479  -30.6588   24.0559 C   0  0  0  0  0  0
  -25.9072  -34.9408   23.5067 C   0  0  0  0  0  0
  -16.5370  -29.9079   23.6341 C   0  0  0  0  0  0
  -16.7295  -28.6502   23.0351 C   0  0  0  0  0  0
  -26.4528  -31.6562   25.0707 C   0  0  0  0  0  0
  -25.3724  -31.3763   26.1419 C   0  0  0  0  0  0
  -27.0377  -30.2957   24.6274 C   0  0  0  0  0  0
  -27.6085  -32.4306   25.7471 C   0  0  0  0  0  0
  -27.5583  -37.1777   24.8465 C   0  0  0  0  0  0
  -21.4253  -29.3042   22.3607 N   0  0  0  0  0  0
  -26.4289  -37.3751   23.9413 N   0  0  0  0  0  0
  -24.7147  -31.0326   22.0924 N   0  0  0  0  0  0
  -23.4214  -28.8101   23.2998 O   0  0  0  0  0  0
  -28.2831  -26.1774   20.2081 O   0  0  0  0  0  0
  -26.5645  -34.8904   22.4637 O   0  0  0  0  0  0
  -23.5543  -32.1321   23.7134 O   0  0  0  0  0  0
  -30.5390  -18.5592   20.3119 C   0  0  0  0  0  0
  -30.2281  -19.9961   20.2516 C   0  0  0  0  0  0
  -27.9577  -19.5005   20.6233 C   0  0  0  0  0  0
  -29.5558  -17.5246   20.5374 C   0  0  0  0  0  0
  -28.9022  -20.5492   20.4006 C   0  0  0  0  0  0
  -28.2572  -18.0929   20.6946 C   0  0  0  0  0  0
  -27.9882  -24.6555   20.0887 C   0  0  0  0  0  0
  -28.9899  -23.3140   20.2894 C   0  0  0  0  0  0
  -29.6477  -16.0010   20.6557 N   0  0  0  0  0  0
  -28.3721  -21.9139   20.3335 O   0  0  0  0  0  0
  -27.2334  -17.2380   20.9233 F   0  0  0  0  0  0
  -31.4877  -12.7311   19.1805 H   0  0  0  0  0  0
  -30.4555  -11.5990   20.0081 H   0  0  0  0  0  0
  -29.8357  -11.7251   17.5785 H   0  0  0  0  0  0
  -29.6217  -13.4538   17.6962 H   0  0  0  0  0  0
  -27.9448  -11.2745   18.9718 H   0  0  0  0  0  0
  -27.3927  -12.4619   17.8198 H   0  0  0  0  0  0
  -27.6113  -14.2499   19.4400 H   0  0  0  0  0  0
  -28.7627  -12.2279   21.4282 H   0  0  0  0  0  0
  -28.3905  -13.8918   21.7938 H   0  0  0  0  0  0
  -25.2762   -9.5668   22.4749 H   0  0  0  0  0  0
  -23.9997   -7.4619   22.7465 H   0  0  0  0  0  0
  -21.0833   -8.8763   19.8957 H   0  0  0  0  0  0
  -22.3691  -10.9656   19.6162 H   0  0  0  0  0  0
  -21.2000   -7.6137   23.9710 H   0  0  0  0  0  0
  -21.1484   -6.0514   25.9077 H   0  0  0  0  0  0
  -22.0601   -2.7602   23.2845 H   0  0  0  0  0  0
  -22.4080  -11.9854   22.4844 H   0  0  0  0  0  0
  -21.1086  -13.1224   22.2682 H   0  0  0  0  0  0
  -24.6307  -15.8255   20.5832 H   0  0  0  0  0  0
  -26.2721  -15.6785   20.2515 H   0  0  0  0  0  0
  -26.7256  -32.5313   23.0995 H   0  0  0  0  0  0
  -25.0120  -33.9624   25.0359 H   0  0  0  0  0  0
  -22.7457  -31.2916   21.3825 H   0  0  0  0  0  0
  -23.3764  -35.9569   23.3295 H   0  0  0  0  0  0
  -24.3583  -36.8891   22.2059 H   0  0  0  0  0  0
  -23.7234  -37.6438   23.6676 H   0  0  0  0  0  0
  -26.1548  -31.4813   20.6161 H   0  0  0  0  0  0
  -26.8698  -30.7733   22.0286 H   0  0  0  0  0  0
  -28.1339  -28.8182   21.2272 H   0  0  0  0  0  0
  -25.9091  -25.8553   19.0022 H   0  0  0  0  0  0
  -23.9799  -27.3022   18.9846 H   0  0  0  0  0  0
  -23.8050  -30.5726   19.3985 H   0  0  0  0  0  0
  -22.7852  -29.2385   19.8435 H   0  0  0  0  0  0
  -25.1315  -36.1864   25.0809 H   0  0  0  0  0  0
  -21.0014  -28.3306   24.1352 H   0  0  0  0  0  0
  -20.5663  -26.2325   23.3628 H   0  0  0  0  0  0
  -21.6662  -26.7413   22.1223 H   0  0  0  0  0  0
  -19.6932  -25.6283   21.1254 H   0  0  0  0  0  0
  -19.6724  -27.3171   20.6718 H   0  0  0  0  0  0
  -17.4226  -26.6676   21.4011 H   0  0  0  0  0  0
  -18.0354  -26.0083   22.9012 H   0  0  0  0  0  0
  -19.7958  -30.7294   24.2221 H   0  0  0  0  0  0
  -17.5034  -31.6265   24.5168 H   0  0  0  0  0  0
  -15.5369  -30.2970   23.7682 H   0  0  0  0  0  0
  -15.8697  -28.0816   22.7070 H   0  0  0  0  0  0
  -24.5924  -30.7070   25.7768 H   0  0  0  0  0  0
  -24.8877  -32.2943   26.4751 H   0  0  0  0  0  0
  -25.8032  -30.9027   27.0250 H   0  0  0  0  0  0
  -26.2980  -29.6682   24.1288 H   0  0  0  0  0  0
  -27.4006  -29.7261   25.4840 H   0  0  0  0  0  0
  -27.8891  -30.4196   23.9575 H   0  0  0  0  0  0
  -27.2716  -33.3639   26.1992 H   0  0  0  0  0  0
  -28.3918  -32.6809   25.0300 H   0  0  0  0  0  0
  -28.0715  -31.8450   26.5425 H   0  0  0  0  0  0
  -28.2603  -38.0072   24.7516 H   0  0  0  0  0  0
  -28.1080  -36.2606   24.6286 H   0  0  0  0  0  0
  -27.2304  -37.1424   25.8870 H   0  0  0  0  0  0
  -20.9449  -29.8759   21.6797 H   0  0  0  0  0  0
  -26.0160  -38.2818   24.1433 H   0  0  0  0  0  0
  -31.5690  -18.2594   20.1836 H   0  0  0  0  0  0
  -31.0442  -20.6817   20.0723 H   0  0  0  0  0  0
  -26.9238  -19.7840   20.7511 H   0  0  0  0  0  0
  -27.1559  -24.4881   20.7736 H   0  0  0  0  0  0
  -27.5690  -24.5159   19.0932 H   0  0  0  0  0  0
  -29.5433  -23.4398   21.2200 H   0  0  0  0  0  0
  -29.7405  -23.3184   19.4988 H   0  0  0  0  0  0
  -28.7399  -15.6306   20.8942 H   0  0  0  0  0  0
  1 25  1  0  0  0
  1 30  2  0  0  0
  1 79  1  0  0  0
  2  3  1  0  0  0
  2 25  1  0  0  0
  2 82  1  0  0  0
  2 83  1  0  0  0
  3  4  1  0  0  0
  3 84  1  0  0  0
  3 85  1  0  0  0
  4  5  1  0  0  0
  4 86  1  0  0  0
  4 87  1  0  0  0
  5  6  1  0  0  0
  5 26  1  0  0  0
  5 88  1  0  0  0
  6 25  1  0  0  0
  6 89  1  0  0  0
  6 90  1  0  0  0
  7  8  2  0  0  0
  7 26  1  0  0  0
  7 29  1  0  0  0
  8  9  1  0  0  0
  8 22  1  0  0  0
  9 10  1  0  0  0
  9 27  2  0  0  0
 10 11  2  0  0  0
 10 15  1  0  0  0
 11 12  1  0  0  0
 11 91  1  0  0  0
 12 13  2  0  0  0
 12 92  1  0  0  0
 13 14  1  0  0  0
 13 31  1  0  0  0
 14 15  2  0  0  0
 14 93  1  0  0  0
 15 94  1  0  0  0
 16 17  2  0  0  0
 16 21  1  0  0  0
 16 31  1  0  0  0
 17 18  1  0  0  0
 17 95  1  0  0  0
 18 19  2  0  0  0
 18 96  1  0  0  0
 19 20  1  0  0  0
 19 24  1  0  0  0
 20 21  2  0  0  0
 20 97  1  0  0  0
 21 23  1  0  0  0
 22 28  1  0  0  0
 22 32  2  0  0  0
 26 27  1  0  0  0
 28 98  1  0  0  0
 28 99  1  0  0  0
 29100  1  0  0  0
 29101  1  0  0  0
 33 34  1  0  0  0
 33 66  1  0  0  0
 33 70  2  0  0  0
 34 36  1  0  0  0
 34 59  1  0  0  0
 34102  1  0  0  0
 35 44  2  0  0  0
 35 45  1  0  0  0
 35 68  1  0  0  0
 36 56  1  0  0  0
 36103  1  0  0  0
 37 39  1  0  0  0
 37 47  1  0  0  0
 37 66  1  0  0  0
 37104  1  0  0  0
 38 43  2  0  0  0
 38 46  1  0  0  0
 38 47  1  0  0  0
 39 64  1  0  0  0
 39 67  2  0  0  0
 40 52  1  0  0  0
 40 53  2  0  0  0
 40 58  1  0  0  0
 41105  1  0  0  0
 41106  1  0  0  0
 41107  1  0  0  0
 41 48  1  0  0  0
 42 43  1  0  0  0
 42 66  1  0  0  0
 42108  1  0  0  0
 42109  1  0  0  0
 43 44  1  0  0  0
 44110  1  0  0  0
 45 46  2  0  0  0
 45111  1  0  0  0
 46112  1  0  0  0
 47113  1  0  0  0
 47114  1  0  0  0
 48 56  1  0  0  0
 48 65  1  0  0  0
 48115  1  0  0  0
 49 50  1  0  0  0
 49 53  1  0  0  0
 49 64  1  0  0  0
 49116  1  0  0  0
 50 51  1  0  0  0
 50117  1  0  0  0
 50118  1  0  0  0
 51 52  1  0  0  0
 51119  1  0  0  0
 51120  1  0  0  0
 52121  1  0  0  0
 52122  1  0  0  0
 53 54  1  0  0  0
 54 55  2  0  0  0
 54123  1  0  0  0
 55 57  1  0  0  0
 55124  1  0  0  0
 56 69  2  0  0  0
 57 58  2  0  0  0
 57125  1  0  0  0
 58126  1  0  0  0
 59 60  1  0  0  0
 59 61  1  0  0  0
 59 62  1  0  0  0
 60127  1  0  0  0
 60128  1  0  0  0
 60129  1  0  0  0
 61130  1  0  0  0
 61131  1  0  0  0
 61132  1  0  0  0
 62133  1  0  0  0
 62134  1  0  0  0
 62135  1  0  0  0
 63 65  1  0  0  0
 63136  1  0  0  0
 63137  1  0  0  0
 63138  1  0  0  0
 64139  1  0  0  0
 65140  1  0  0  0
 68 77  1  0  0  0
 71 72  2  0  0  0
 71 74  1  0  0  0
 71141  1  0  0  0
 72 75  1  0  0  0
 72142  1  0  0  0
 73 75  2  0  0  0
 73 76  1  0  0  0
 73143  1  0  0  0
 74 76  2  0  0  0
 74 79  1  0  0  0
 75 80  1  0  0  0
 76 81  1  0  0  0
 77 78  1  0  0  0
 77144  1  0  0  0
 77145  1  0  0  0
 78 80  1  0  0  0
 78146  1  0  0  0
 78147  1  0  0  0
 79148  1  0  0  0
M  ISO  4   1 100  68 101  77 101  79 100
M  END
> <chiral flag>
0

> <version>
0

> <s_m_source_file>
/data/baiqing/PycharmProjects/Reinvent-master-3.2/result/LINK_invent/BTK/process_docking_weight1_custom_product_contain_oxygen_bond_distance_aromatic_linkinvent_7_9_3/rearranged_h_0009.sdf

> <i_m_source_file_index>
70

> <r_mmod_Potential_Energy-OPLS-2005>
429.317779541016

> <r_mmod_Stretch_Energy-OPLS-2005>
215.171890258789

> <r_mmod_Bend_Energy-OPLS-2005>
307.654571533203

> <r_mmod_Torsional_Energy-OPLS-2005>
210.088012695312

> <r_mmod_Improper_Torsional_Energy-OPLS-2005>
3.85878729820251

> <r_mmod_Van_der_Waal_Energy-OPLS-2005>
133.190078735352

> <r_mmod_Electrostatic_Energy-OPLS-2005>
-411.460144042969

> <r_mmod_Solvation_Energy-OPLS-2005>
-203.061370849609

> <b_mmod_Minimization_Converged-OPLS-2005>
0

> <r_mmod_RMS_Derivative-OPLS-2005>
0.840658664703369

$$$$
70
                    3D
 Structure written by MMmdl.
151159  0  0  1  0            999 V2000
  -30.6840  -14.6349   20.4796 C   0  0  0  0  0  0
  -30.4152  -12.3899   19.4637 C   0  0  0  0  0  0
  -29.4996  -12.4931   18.2269 C   0  0  0  0  0  0
  -28.0250  -12.3361   18.6419 C   0  0  0  0  0  0
  -27.6439  -13.2295   19.8535 C   0  0  2  0  0  0
  -28.6887  -13.1431   20.9882 C   0  0  0  0  0  0
  -25.2514  -13.8202   20.5698 C   0  0  0  0  0  0
  -24.1802  -13.0449   20.9209 C   0  0  0  0  0  0
  -24.6389  -11.6925   20.8753 C   0  0  0  0  0  0
  -23.9067  -10.4299   21.0411 C   0  0  0  0  0  0
  -24.3619   -9.4211   21.9185 C   0  0  0  0  0  0
  -23.6295   -8.2245   22.0754 C   0  0  0  0  0  0
  -22.4276   -8.0283   21.3546 C   0  0  0  0  0  0
  -21.9912   -9.0258   20.4649 C   0  0  0  0  0  0
  -22.7239  -10.2139   20.3059 C   0  0  0  0  0  0
  -21.6855   -6.0736   22.5279 C   0  0  0  0  0  0
  -21.4015   -6.5640   23.8212 C   0  0  0  0  0  0
  -21.3660   -5.6792   24.9175 C   0  0  0  0  0  0
  -21.6043   -4.3054   24.7225 C   0  0  0  0  0  0
  -21.8818   -3.8147   23.4347 C   0  0  0  0  0  0
  -21.9193   -4.6964   22.3403 C   0  0  0  0  0  0
  -22.7822  -13.5230   21.1865 C   0  0  0  0  0  0
  -22.1661   -4.2149   21.0980 F   0  0  0  0  0  0
  -21.5630   -3.4538   25.7737 F   0  0  0  0  0  0
  -29.9996  -13.4506   20.4058 N   0  0  0  0  0  0
  -26.2945  -12.9409   20.3301 N   0  0  0  0  0  0
  -25.9319  -11.6551   20.5765 N   0  0  0  0  0  0
  -22.0468  -12.8222   22.0423 N   0  0  0  0  0  0
  -25.4206  -15.1924   20.4104 N   0  0  0  0  0  0
  -31.8703  -14.6885   20.1489 O   0  0  0  0  0  0
  -21.6641   -6.8879   21.4240 O   0  0  0  0  0  0
  -22.3504  -14.5534   20.6710 O   0  0  0  0  0  0
  -24.6254  -31.8609   23.2041 C   0  0  0  0  0  0
  -25.9104  -32.4785   23.8367 C   0  0  1  0  0  0
  -27.2145  -27.3219   20.1248 C   0  0  0  0  0  0
  -25.5922  -33.8586   24.2288 N   0  0  0  0  0  0
  -23.4190  -30.4856   21.5462 C   0  0  2  0  0  0
  -24.8657  -28.9443   20.1092 C   0  0  0  0  0  0
  -22.7473  -29.4630   22.4935 C   0  0  0  0  0  0
  -18.0288  -28.1383   22.8488 C   0  0  0  0  0  0
  -24.1489  -36.7298   23.2638 C   0  0  0  0  0  0
  -25.9604  -30.7923   21.3767 C   0  0  0  0  0  0
  -26.0341  -29.4206   20.7188 C   0  0  0  0  0  0
  -27.2149  -28.6205   20.7182 C   0  0  0  0  0  0
  -26.0338  -26.9086   19.4702 C   0  0  0  0  0  0
  -24.8673  -27.6936   19.4740 C   0  0  0  0  0  0
  -23.6339  -29.8238   20.1601 C   0  0  0  0  0  0
  -25.4112  -36.3088   24.0330 C   0  0  1  0  0  0
  -20.5887  -28.3688   23.1283 C   0  0  2  0  0  0
  -20.6776  -26.9412   22.5410 C   0  0  0  0  0  0
  -19.5751  -26.6383   21.5212 C   0  0  0  0  0  0
  -18.1931  -26.7926   22.1627 C   0  0  0  0  0  0
  -19.1540  -28.8852   23.2882 C   0  0  0  0  0  0
  -18.9462  -30.1454   23.8898 C   0  0  0  0  0  0
  -17.6462  -30.6586   24.0563 C   0  0  0  0  0  0
  -25.9048  -34.9456   23.5109 C   0  0  0  0  0  0
  -16.5353  -29.9085   23.6328 C   0  0  0  0  0  0
  -16.7275  -28.6502   23.0350 C   0  0  0  0  0  0
  -26.4488  -31.6594   25.0736 C   0  0  0  0  0  0
  -25.3723  -31.3737   26.1465 C   0  0  0  0  0  0
  -27.0328  -30.3015   24.6193 C   0  0  0  0  0  0
  -27.6048  -32.4330   25.7504 C   0  0  0  0  0  0
  -27.5580  -37.1804   24.8463 C   0  0  0  0  0  0
  -21.4187  -29.3044   22.3678 N   0  0  0  0  0  0
  -26.4291  -37.3780   23.9408 N   0  0  0  0  0  0
  -24.6869  -31.0627   22.0991 N   0  0  0  0  0  0
  -23.4200  -28.8165   23.3009 O   0  0  0  0  0  0
  -28.3050  -26.4437   20.1693 O   0  0  0  0  0  0
  -26.5616  -34.8920   22.4675 O   0  0  0  0  0  0
  -23.5417  -32.1407   23.7369 O   0  0  0  0  0  0
  -28.6349  -18.8080   21.0064 C   0  0  0  0  0  0
  -30.1591  -21.0172   20.1538 C   0  0  0  0  0  0
  -29.9499  -18.5522   20.5477 C   0  0  0  0  0  0
  -28.8511  -21.2797   20.6283 C   0  0  0  0  0  0
  -28.1069  -20.1357   21.0457 C   0  0  0  0  0  0
  -30.6896  -19.6946   20.1220 C   0  0  0  0  0  0
  -30.6649  -17.1500   20.5332 C   0  0  0  0  0  0
  -28.0188  -25.0830   20.6921 C   0  0  0  0  0  0
  -28.8844  -23.8087   20.2846 C   0  0  0  0  0  0
  -29.9999  -15.8059   20.7005 N   0  0  0  0  0  0
  -28.2586  -22.5579   20.7294 O   0  0  0  0  0  0
  -26.8469  -20.3140   21.5099 F   0  0  0  0  0  0
  -31.9589  -19.5256   19.6810 F   0  0  0  0  0  0
  -31.4610  -12.4763   19.1642 H   0  0  0  0  0  0
  -30.3214  -11.4095   19.9332 H   0  0  0  0  0  0
  -29.7653  -11.7296   17.4947 H   0  0  0  0  0  0
  -29.6455  -13.4559   17.7342 H   0  0  0  0  0  0
  -27.8682  -11.2869   18.8945 H   0  0  0  0  0  0
  -27.3688  -12.5455   17.7964 H   0  0  0  0  0  0
  -27.6478  -14.2555   19.4850 H   0  0  0  0  0  0
  -28.6975  -12.1477   21.4345 H   0  0  0  0  0  0
  -28.4435  -13.8376   21.7931 H   0  0  0  0  0  0
  -25.2764   -9.5689   22.4759 H   0  0  0  0  0  0
  -24.0008   -7.4634   22.7471 H   0  0  0  0  0  0
  -21.0844   -8.8779   19.8954 H   0  0  0  0  0  0
  -22.3698  -10.9680   19.6170 H   0  0  0  0  0  0
  -21.2009   -7.6148   23.9715 H   0  0  0  0  0  0
  -21.1483   -6.0522   25.9076 H   0  0  0  0  0  0
  -22.0596   -2.7609   23.2845 H   0  0  0  0  0  0
  -22.4090  -11.9892   22.4821 H   0  0  0  0  0  0
  -21.1084  -13.1246   22.2626 H   0  0  0  0  0  0
  -24.6509  -15.8445   20.5154 H   0  0  0  0  0  0
  -26.2642  -15.6304   20.0639 H   0  0  0  0  0  0
  -26.7174  -32.5456   23.1117 H   0  0  0  0  0  0
  -25.0066  -33.9735   25.0430 H   0  0  0  0  0  0
  -22.7124  -31.3061   21.4049 H   0  0  0  0  0  0
  -23.3749  -35.9634   23.3302 H   0  0  0  0  0  0
  -24.3582  -36.8917   22.2052 H   0  0  0  0  0  0
  -23.7244  -37.6503   23.6657 H   0  0  0  0  0  0
  -26.0932  -31.5561   20.6093 H   0  0  0  0  0  0
  -26.8402  -30.8393   22.0069 H   0  0  0  0  0  0
  -28.1094  -28.9767   21.2097 H   0  0  0  0  0  0
  -25.9983  -25.9573   18.9588 H   0  0  0  0  0  0
  -23.9757  -27.3281   18.9830 H   0  0  0  0  0  0
  -23.7536  -30.6021   19.4055 H   0  0  0  0  0  0
  -22.7539  -29.2542   19.8562 H   0  0  0  0  0  0
  -25.1291  -36.1943   25.0823 H   0  0  0  0  0  0
  -20.9982  -28.3262   24.1402 H   0  0  0  0  0  0
  -20.5677  -26.2299   23.3609 H   0  0  0  0  0  0
  -21.6644  -26.7441   22.1202 H   0  0  0  0  0  0
  -19.6911  -25.6294   21.1242 H   0  0  0  0  0  0
  -19.6684  -27.3194   20.6741 H   0  0  0  0  0  0
  -17.4199  -26.6672   21.4030 H   0  0  0  0  0  0
  -18.0333  -26.0068   22.9024 H   0  0  0  0  0  0
  -19.7938  -30.7269   24.2267 H   0  0  0  0  0  0
  -17.5017  -31.6266   24.5165 H   0  0  0  0  0  0
  -15.5353  -30.2987   23.7650 H   0  0  0  0  0  0
  -15.8676  -28.0821   22.7063 H   0  0  0  0  0  0
  -24.5892  -30.7090   25.7799 H   0  0  0  0  0  0
  -24.8919  -32.2907   26.4890 H   0  0  0  0  0  0
  -25.8047  -30.8916   27.0242 H   0  0  0  0  0  0
  -26.2904  -29.6774   24.1204 H   0  0  0  0  0  0
  -27.4006  -29.7265   25.4701 H   0  0  0  0  0  0
  -27.8784  -30.4298   23.9432 H   0  0  0  0  0  0
  -27.2655  -33.3626   26.2087 H   0  0  0  0  0  0
  -28.3853  -32.6899   25.0330 H   0  0  0  0  0  0
  -28.0723  -31.8455   26.5417 H   0  0  0  0  0  0
  -28.2597  -38.0101   24.7510 H   0  0  0  0  0  0
  -28.1075  -36.2632   24.6287 H   0  0  0  0  0  0
  -27.2300  -37.1455   25.8868 H   0  0  0  0  0  0
  -20.9362  -29.8775   21.6898 H   0  0  0  0  0  0
  -26.0174  -38.2857   24.1406 H   0  0  0  0  0  0
  -28.0212  -17.9906   21.3537 H   0  0  0  0  0  0
  -30.7858  -21.8299   19.8200 H   0  0  0  0  0  0
  -31.4484  -17.2075   21.2908 H   0  0  0  0  0  0
  -31.1974  -17.1152   19.5806 H   0  0  0  0  0  0
  -28.0573  -25.1658   21.7786 H   0  0  0  0  0  0
  -26.9876  -24.8009   20.4894 H   0  0  0  0  0  0
  -29.8871  -23.8968   20.7038 H   0  0  0  0  0  0
  -28.9911  -23.7718   19.2001 H   0  0  0  0  0  0
  -29.0156  -15.7661   20.9144 H   0  0  0  0  0  0
  1 25  1  0  0  0
  1 30  2  0  0  0
  1 80  1  0  0  0
  2  3  1  0  0  0
  2 25  1  0  0  0
  2 84  1  0  0  0
  2 85  1  0  0  0
  3  4  1  0  0  0
  3 86  1  0  0  0
  3 87  1  0  0  0
  4  5  1  0  0  0
  4 88  1  0  0  0
  4 89  1  0  0  0
  5  6  1  0  0  0
  5 26  1  0  0  0
  5 90  1  0  0  0
  6 25  1  0  0  0
  6 91  1  0  0  0
  6 92  1  0  0  0
  7  8  2  0  0  0
  7 26  1  0  0  0
  7 29  1  0  0  0
  8  9  1  0  0  0
  8 22  1  0  0  0
  9 10  1  0  0  0
  9 27  2  0  0  0
 10 11  2  0  0  0
 10 15  1  0  0  0
 11 12  1  0  0  0
 11 93  1  0  0  0
 12 13  2  0  0  0
 12 94  1  0  0  0
 13 14  1  0  0  0
 13 31  1  0  0  0
 14 15  2  0  0  0
 14 95  1  0  0  0
 15 96  1  0  0  0
 16 17  2  0  0  0
 16 21  1  0  0  0
 16 31  1  0  0  0
 17 18  1  0  0  0
 17 97  1  0  0  0
 18 19  2  0  0  0
 18 98  1  0  0  0
 19 20  1  0  0  0
 19 24  1  0  0  0
 20 21  2  0  0  0
 20 99  1  0  0  0
 21 23  1  0  0  0
 22 28  1  0  0  0
 22 32  2  0  0  0
 26 27  1  0  0  0
 28100  1  0  0  0
 28101  1  0  0  0
 29102  1  0  0  0
 29103  1  0  0  0
 33 34  1  0  0  0
 33 66  1  0  0  0
 33 70  2  0  0  0
 34 36  1  0  0  0
 34 59  1  0  0  0
 34104  1  0  0  0
 35 44  2  0  0  0
 35 45  1  0  0  0
 35 68  1  0  0  0
 36 56  1  0  0  0
 36105  1  0  0  0
 37 39  1  0  0  0
 37 47  1  0  0  0
 37 66  1  0  0  0
 37106  1  0  0  0
 38 43  2  0  0  0
 38 46  1  0  0  0
 38 47  1  0  0  0
 39 64  1  0  0  0
 39 67  2  0  0  0
 40 52  1  0  0  0
 40 53  2  0  0  0
 40 58  1  0  0  0
 41107  1  0  0  0
 41108  1  0  0  0
 41109  1  0  0  0
 41 48  1  0  0  0
 42 43  1  0  0  0
 42 66  1  0  0  0
 42110  1  0  0  0
 42111  1  0  0  0
 43 44  1  0  0  0
 44112  1  0  0  0
 45 46  2  0  0  0
 45113  1  0  0  0
 46114  1  0  0  0
 47115  1  0  0  0
 47116  1  0  0  0
 48 56  1  0  0  0
 48 65  1  0  0  0
 48117  1  0  0  0
 49 50  1  0  0  0
 49 53  1  0  0  0
 49 64  1  0  0  0
 49118  1  0  0  0
 50 51  1  0  0  0
 50119  1  0  0  0
 50120  1  0  0  0
 51 52  1  0  0  0
 51121  1  0  0  0
 51122  1  0  0  0
 52123  1  0  0  0
 52124  1  0  0  0
 53 54  1  0  0  0
 54 55  2  0  0  0
 54125  1  0  0  0
 55 57  1  0  0  0
 55126  1  0  0  0
 56 69  2  0  0  0
 57 58  2  0  0  0
 57127  1  0  0  0
 58128  1  0  0  0
 59 60  1  0  0  0
 59 61  1  0  0  0
 59 62  1  0  0  0
 60129  1  0  0  0
 60130  1  0  0  0
 60131  1  0  0  0
 61132  1  0  0  0
 61133  1  0  0  0
 61134  1  0  0  0
 62135  1  0  0  0
 62136  1  0  0  0
 62137  1  0  0  0
 63 65  1  0  0  0
 63138  1  0  0  0
 63139  1  0  0  0
 63140  1  0  0  0
 64141  1  0  0  0
 65142  1  0  0  0
 68 78  1  0  0  0
 71 73  2  0  0  0
 71 75  1  0  0  0
 71143  1  0  0  0
 72 74  1  0  0  0
 72 76  2  0  0  0
 72144  1  0  0  0
 73 76  1  0  0  0
 73 77  1  0  0  0
 74 75  2  0  0  0
 74 81  1  0  0  0
 75 82  1  0  0  0
 76 83  1  0  0  0
 77 80  1  0  0  0
 77145  1  0  0  0
 77146  1  0  0  0
 78 79  1  0  0  0
 78147  1  0  0  0
 78148  1  0  0  0
 79 81  1  0  0  0
 79149  1  0  0  0
 79150  1  0  0  0
 80151  1  0  0  0
M  ISO  4   1 100  68 101  78 101  80 100
M  END
> <chiral flag>
0

> <version>
0

> <s_m_source_file>
/data/baiqing/PycharmProjects/Reinvent-master-3.2/result/LINK_invent/BTK/process_docking_weight1_custom_product_contain_oxygen_bond_distance_aromatic_linkinvent_7_9_3/rearranged_h_0009.sdf

> <i_m_source_file_index>
71

> <r_mmod_Potential_Energy-OPLS-2005>
57.0831565856934

> <r_mmod_Stretch_Energy-OPLS-2005>
77.5309219360352

> <r_mmod_Bend_Energy-OPLS-2005>
157.080307006836

> <r_mmod_Torsional_Energy-OPLS-2005>
213.825088500977

> <r_mmod_Improper_Torsional_Energy-OPLS-2005>
5.06722545623779

> <r_mmod_Van_der_Waal_Energy-OPLS-2005>
146.785446166992

> <r_mmod_Electrostatic_Energy-OPLS-2005>
-388.317230224609

> <r_mmod_Solvation_Energy-OPLS-2005>
-208.614639282227

> <b_mmod_Minimization_Converged-OPLS-2005>
0

> <r_mmod_RMS_Derivative-OPLS-2005>
0.317894071340561

$$$$
71
                    3D
 Structure written by MMmdl.
153162  0  0  1  0            999 V2000
  -30.5041  -14.9487   20.4277 C   0  0  0  0  0  0
  -30.4546  -12.5902   19.4880 C   0  0  0  0  0  0
  -29.5250  -12.5287   18.2517 C   0  0  0  0  0  0
  -28.0582  -12.3085   18.6739 C   0  0  0  0  0  0
  -27.6339  -13.2393   19.8399 C   0  0  2  0  0  0
  -28.6783  -13.2464   20.9767 C   0  0  0  0  0  0
  -25.2496  -13.8204   20.5718 C   0  0  0  0  0  0
  -24.1801  -13.0435   20.9234 C   0  0  0  0  0  0
  -24.6400  -11.6915   20.8762 C   0  0  0  0  0  0
  -23.9078  -10.4289   21.0417 C   0  0  0  0  0  0
  -24.3627   -9.4204   21.9189 C   0  0  0  0  0  0
  -23.6299   -8.2241   22.0758 C   0  0  0  0  0  0
  -22.4280   -8.0284   21.3547 C   0  0  0  0  0  0
  -21.9918   -9.0258   20.4646 C   0  0  0  0  0  0
  -22.7253  -10.2133   20.3058 C   0  0  0  0  0  0
  -21.6852   -6.0742   22.5281 C   0  0  0  0  0  0
  -21.4013   -6.5643   23.8215 C   0  0  0  0  0  0
  -21.3659   -5.6793   24.9174 C   0  0  0  0  0  0
  -21.6043   -4.3057   24.7221 C   0  0  0  0  0  0
  -21.8819   -3.8149   23.4342 C   0  0  0  0  0  0
  -21.9192   -4.6969   22.3402 C   0  0  0  0  0  0
  -22.7816  -13.5211   21.1889 C   0  0  0  0  0  0
  -22.1658   -4.2157   21.0981 F   0  0  0  0  0  0
  -21.5629   -3.4539   25.7733 F   0  0  0  0  0  0
  -29.9540  -13.6702   20.3818 N   0  0  0  0  0  0
  -26.2908  -12.9410   20.3238 N   0  0  0  0  0  0
  -25.9330  -11.6549   20.5738 N   0  0  0  0  0  0
  -22.0458  -12.8197   22.0434 N   0  0  0  0  0  0
  -25.4149  -15.1943   20.4162 N   0  0  0  0  0  0
  -31.7096  -15.0666   20.1789 O   0  0  0  0  0  0
  -21.6640   -6.8886   21.4242 O   0  0  0  0  0  0
  -22.3499  -14.5522   20.6739 O   0  0  0  0  0  0
  -24.6432  -31.8427   23.1850 C   0  0  0  0  0  0
  -25.9197  -32.4697   23.8249 C   0  0  1  0  0  0
  -27.2259  -27.1367   20.1660 C   0  0  0  0  0  0
  -25.5945  -33.8500   24.2180 N   0  0  0  0  0  0
  -23.4479  -30.4591   21.5304 C   0  0  2  0  0  0
  -24.8984  -28.8748   20.1182 C   0  0  0  0  0  0
  -22.7566  -29.4542   22.4858 C   0  0  0  0  0  0
  -18.0300  -28.1404   22.8483 C   0  0  0  0  0  0
  -24.1480  -36.7244   23.2642 C   0  0  0  0  0  0
  -26.0014  -30.7197   21.3784 C   0  0  0  0  0  0
  -26.0754  -29.3263   20.7290 C   0  0  0  0  0  0
  -27.2427  -28.4757   20.7276 C   0  0  0  0  0  0
  -26.0215  -26.7733   19.5305 C   0  0  0  0  0  0
  -24.8829  -27.6117   19.5033 C   0  0  0  0  0  0
  -23.6752  -29.7783   20.1534 C   0  0  0  0  0  0
  -25.4111  -36.3028   24.0319 C   0  0  1  0  0  0
  -20.5915  -28.3722   23.1240 C   0  0  2  0  0  0
  -20.6783  -26.9425   22.5405 C   0  0  0  0  0  0
  -19.5754  -26.6387   21.5216 C   0  0  0  0  0  0
  -18.1935  -26.7946   22.1625 C   0  0  0  0  0  0
  -19.1558  -28.8879   23.2857 C   0  0  0  0  0  0
  -18.9481  -30.1477   23.8882 C   0  0  0  0  0  0
  -17.6479  -30.6603   24.0566 C   0  0  0  0  0  0
  -25.9068  -34.9410   23.5059 C   0  0  0  0  0  0
  -16.5367  -29.9101   23.6342 C   0  0  0  0  0  0
  -16.7285  -28.6518   23.0363 C   0  0  0  0  0  0
  -26.4524  -31.6563   25.0689 C   0  0  0  0  0  0
  -25.3722  -31.3760   26.1398 C   0  0  0  0  0  0
  -27.0376  -30.2964   24.6237 C   0  0  0  0  0  0
  -27.6060  -32.4319   25.7476 C   0  0  0  0  0  0
  -27.5572  -37.1764   24.8460 C   0  0  0  0  0  0
  -21.4258  -29.3055   22.3613 N   0  0  0  0  0  0
  -26.4267  -37.3751   23.9432 N   0  0  0  0  0  0
  -24.7178  -31.0284   22.0876 N   0  0  0  0  0  0
  -23.4207  -28.8095   23.3016 O   0  0  0  0  0  0
  -28.3080  -26.1877   20.1615 O   0  0  0  0  0  0
  -26.5656  -34.8913   22.4638 O   0  0  0  0  0  0
  -23.5550  -32.1284   23.7075 O   0  0  0  0  0  0
  -30.2724  -19.9540   21.1842 C   0  0  0  0  0  0
  -30.4759  -18.5089   21.1566 C   0  0  0  0  0  0
  -28.4171  -19.7578   19.7614 C   0  0  0  0  0  0
  -29.2301  -20.6841   20.4977 C   0  0  0  0  0  0
  -29.6301  -17.5898   20.4517 C   0  0  0  0  0  0
  -28.5875  -18.3078   19.7625 C   0  0  0  0  0  0
  -29.2036  -24.3813   21.6978 C   0  0  0  0  0  0
  -29.2786  -22.8317   21.9033 C   0  0  0  0  0  0
  -28.4313  -23.2906   19.7547 C   0  0  0  0  0  0
  -28.1731  -24.6957   20.5955 C   0  0  2  0  0  0
  -29.0260  -22.1660   20.6225 N   0  0  0  0  0  0
  -29.6201  -16.0545   20.5264 N   0  0  0  0  0  0
  -27.6779  -17.5666   19.0837 F   0  0  0  0  0  0
  -31.4824  -12.7750   19.1718 H   0  0  0  0  0  0
  -30.4699  -11.6337   20.0126 H   0  0  0  0  0  0
  -29.8448  -11.7327   17.5778 H   0  0  0  0  0  0
  -29.6054  -13.4584   17.6865 H   0  0  0  0  0  0
  -27.9592  -11.2672   18.9830 H   0  0  0  0  0  0
  -27.3916  -12.4364   17.8201 H   0  0  0  0  0  0
  -27.6001  -14.2432   19.4162 H   0  0  0  0  0  0
  -28.7685  -12.2610   21.4366 H   0  0  0  0  0  0
  -28.3779  -13.9302   21.7728 H   0  0  0  0  0  0
  -25.2775   -9.5681   22.4761 H   0  0  0  0  0  0
  -24.0007   -7.4633   22.7479 H   0  0  0  0  0  0
  -21.0850   -8.8780   19.8949 H   0  0  0  0  0  0
  -22.3720  -10.9673   19.6164 H   0  0  0  0  0  0
  -21.2003   -7.6151   23.9722 H   0  0  0  0  0  0
  -21.1480   -6.0521   25.9079 H   0  0  0  0  0  0
  -22.0599   -2.7611   23.2838 H   0  0  0  0  0  0
  -22.4066  -11.9845   22.4809 H   0  0  0  0  0  0
  -21.1074  -13.1221   22.2641 H   0  0  0  0  0  0
  -24.6406  -15.8370   20.5432 H   0  0  0  0  0  0
  -26.2372  -15.6466   20.0374 H   0  0  0  0  0  0
  -26.7264  -32.5309   23.0978 H   0  0  0  0  0  0
  -25.0088  -33.9609   25.0330 H   0  0  0  0  0  0
  -22.7514  -31.2845   21.3702 H   0  0  0  0  0  0
  -23.3760  -35.9558   23.3274 H   0  0  0  0  0  0
  -24.3570  -36.8896   22.2061 H   0  0  0  0  0  0
  -23.7203  -37.6424   23.6686 H   0  0  0  0  0  0
  -26.1457  -31.4684   20.5980 H   0  0  0  0  0  0
  -26.8771  -30.7813   22.0130 H   0  0  0  0  0  0
  -28.1477  -28.8247   21.2046 H   0  0  0  0  0  0
  -25.9524  -25.8025   19.0594 H   0  0  0  0  0  0
  -23.9827  -27.2592   19.0189 H   0  0  0  0  0  0
  -23.8138  -30.5472   19.3925 H   0  0  0  0  0  0
  -22.7910  -29.2178   19.8442 H   0  0  0  0  0  0
  -25.1292  -36.1846   25.0810 H   0  0  0  0  0  0
  -21.0006  -28.3305   24.1361 H   0  0  0  0  0  0
  -20.5671  -26.2338   23.3626 H   0  0  0  0  0  0
  -21.6647  -26.7426   22.1200 H   0  0  0  0  0  0
  -19.6915  -25.6295   21.1250 H   0  0  0  0  0  0
  -19.6694  -27.3197   20.6747 H   0  0  0  0  0  0
  -17.4205  -26.6696   21.4028 H   0  0  0  0  0  0
  -18.0329  -26.0097   22.9026 H   0  0  0  0  0  0
  -19.7960  -30.7299   24.2240 H   0  0  0  0  0  0
  -17.5038  -31.6284   24.5167 H   0  0  0  0  0  0
  -15.5369  -30.3004   23.7684 H   0  0  0  0  0  0
  -15.8680  -28.0836   22.7093 H   0  0  0  0  0  0
  -24.5904  -30.7097   25.7730 H   0  0  0  0  0  0
  -24.8917  -32.2953   26.4757 H   0  0  0  0  0  0
  -25.8021  -30.8982   27.0210 H   0  0  0  0  0  0
  -26.2974  -29.6698   24.1247 H   0  0  0  0  0  0
  -27.4017  -29.7241   25.4780 H   0  0  0  0  0  0
  -27.8868  -30.4213   23.9515 H   0  0  0  0  0  0
  -27.2669  -33.3665   26.1953 H   0  0  0  0  0  0
  -28.3934  -32.6790   25.0344 H   0  0  0  0  0  0
  -28.0651  -31.8498   26.5475 H   0  0  0  0  0  0
  -28.2545  -38.0106   24.7564 H   0  0  0  0  0  0
  -28.1109  -36.2635   24.6205 H   0  0  0  0  0  0
  -27.2306  -37.1310   25.8866 H   0  0  0  0  0  0
  -20.9464  -29.8775   21.6799 H   0  0  0  0  0  0
  -26.0126  -38.2803   24.1496 H   0  0  0  0  0  0
  -30.9723  -20.5185   21.7831 H   0  0  0  0  0  0
  -31.2846  -18.1031   21.7470 H   0  0  0  0  0  0
  -27.5822  -20.1552   19.2042 H   0  0  0  0  0  0
  -30.1810  -24.7370   21.3703 H   0  0  0  0  0  0
  -28.9774  -24.9026   22.6282 H   0  0  0  0  0  0
  -28.5104  -22.5178   22.6114 H   0  0  0  0  0  0
  -30.2415  -22.5510   22.3301 H   0  0  0  0  0  0
  -29.1354  -23.4884   18.9457 H   0  0  0  0  0  0
  -27.5066  -22.9572   19.2810 H   0  0  0  0  0  0
  -27.1868  -24.6017   21.0531 H   0  0  0  0  0  0
  -28.6743  -15.7065   20.5422 H   0  0  0  0  0  0
  1 25  1  0  0  0
  1 30  2  0  0  0
  1 82  1  0  0  0
  2  3  1  0  0  0
  2 25  1  0  0  0
  2 84  1  0  0  0
  2 85  1  0  0  0
  3  4  1  0  0  0
  3 86  1  0  0  0
  3 87  1  0  0  0
  4  5  1  0  0  0
  4 88  1  0  0  0
  4 89  1  0  0  0
  5  6  1  0  0  0
  5 26  1  0  0  0
  5 90  1  0  0  0
  6 25  1  0  0  0
  6 91  1  0  0  0
  6 92  1  0  0  0
  7  8  2  0  0  0
  7 26  1  0  0  0
  7 29  1  0  0  0
  8  9  1  0  0  0
  8 22  1  0  0  0
  9 10  1  0  0  0
  9 27  2  0  0  0
 10 11  2  0  0  0
 10 15  1  0  0  0
 11 12  1  0  0  0
 11 93  1  0  0  0
 12 13  2  0  0  0
 12 94  1  0  0  0
 13 14  1  0  0  0
 13 31  1  0  0  0
 14 15  2  0  0  0
 14 95  1  0  0  0
 15 96  1  0  0  0
 16 17  2  0  0  0
 16 21  1  0  0  0
 16 31  1  0  0  0
 17 18  1  0  0  0
 17 97  1  0  0  0
 18 19  2  0  0  0
 18 98  1  0  0  0
 19 20  1  0  0  0
 19 24  1  0  0  0
 20 21  2  0  0  0
 20 99  1  0  0  0
 21 23  1  0  0  0
 22 28  1  0  0  0
 22 32  2  0  0  0
 26 27  1  0  0  0
 28100  1  0  0  0
 28101  1  0  0  0
 29102  1  0  0  0
 29103  1  0  0  0
 33 34  1  0  0  0
 33 66  1  0  0  0
 33 70  2  0  0  0
 34 36  1  0  0  0
 34 59  1  0  0  0
 34104  1  0  0  0
 35 44  2  0  0  0
 35 45  1  0  0  0
 35 68  1  0  0  0
 36 56  1  0  0  0
 36105  1  0  0  0
 37 39  1  0  0  0
 37 47  1  0  0  0
 37 66  1  0  0  0
 37106  1  0  0  0
 38 43  2  0  0  0
 38 46  1  0  0  0
 38 47  1  0  0  0
 39 64  1  0  0  0
 39 67  2  0  0  0
 40 52  1  0  0  0
 40 53  2  0  0  0
 40 58  1  0  0  0
 41107  1  0  0  0
 41108  1  0  0  0
 41109  1  0  0  0
 41 48  1  0  0  0
 42 43  1  0  0  0
 42 66  1  0  0  0
 42110  1  0  0  0
 42111  1  0  0  0
 43 44  1  0  0  0
 44112  1  0  0  0
 45 46  2  0  0  0
 45113  1  0  0  0
 46114  1  0  0  0
 47115  1  0  0  0
 47116  1  0  0  0
 48 56  1  0  0  0
 48 65  1  0  0  0
 48117  1  0  0  0
 49 50  1  0  0  0
 49 53  1  0  0  0
 49 64  1  0  0  0
 49118  1  0  0  0
 50 51  1  0  0  0
 50119  1  0  0  0
 50120  1  0  0  0
 51 52  1  0  0  0
 51121  1  0  0  0
 51122  1  0  0  0
 52123  1  0  0  0
 52124  1  0  0  0
 53 54  1  0  0  0
 54 55  2  0  0  0
 54125  1  0  0  0
 55 57  1  0  0  0
 55126  1  0  0  0
 56 69  2  0  0  0
 57 58  2  0  0  0
 57127  1  0  0  0
 58128  1  0  0  0
 59 60  1  0  0  0
 59 61  1  0  0  0
 59 62  1  0  0  0
 60129  1  0  0  0
 60130  1  0  0  0
 60131  1  0  0  0
 61132  1  0  0  0
 61133  1  0  0  0
 61134  1  0  0  0
 62135  1  0  0  0
 62136  1  0  0  0
 62137  1  0  0  0
 63 65  1  0  0  0
 63138  1  0  0  0
 63139  1  0  0  0
 63140  1  0  0  0
 64141  1  0  0  0
 65142  1  0  0  0
 68 80  1  0  0  0
 71 72  2  0  0  0
 71 74  1  0  0  0
 71143  1  0  0  0
 72 75  1  0  0  0
 72144  1  0  0  0
 73 74  2  0  0  0
 73 76  1  0  0  0
 73145  1  0  0  0
 74 81  1  0  0  0
 75 76  2  0  0  0
 75 82  1  0  0  0
 76 83  1  0  0  0
 77 78  1  0  0  0
 77 80  1  0  0  0
 77146  1  0  0  0
 77147  1  0  0  0
 78 81  1  0  0  0
 78148  1  0  0  0
 78149  1  0  0  0
 79 80  1  0  0  0
 79 81  1  0  0  0
 79150  1  0  0  0
 79151  1  0  0  0
 80152  1  0  0  0
 82153  1  0  0  0
M  ISO  4   1 100  68 101  80 101  82 100
M  END
> <chiral flag>
0

> <version>
0

> <s_m_source_file>
/data/baiqing/PycharmProjects/Reinvent-master-3.2/result/LINK_invent/BTK/process_docking_weight1_custom_product_contain_oxygen_bond_distance_aromatic_linkinvent_7_9_3/rearranged_h_0009.sdf

> <i_m_source_file_index>
72

> <r_mmod_Potential_Energy-OPLS-2005>
511.134216308594

> <r_mmod_Stretch_Energy-OPLS-2005>
215.138229370117

> <r_mmod_Bend_Energy-OPLS-2005>
311.854766845703

> <r_mmod_Torsional_Energy-OPLS-2005>
297.146484375

> <r_mmod_Improper_Torsional_Energy-OPLS-2005>
6.74517917633057

> <r_mmod_Van_der_Waal_Energy-OPLS-2005>
122.15104675293

> <r_mmod_Electrostatic_Energy-OPLS-2005>
-410.138092041016

> <r_mmod_Solvation_Energy-OPLS-2005>
-221.11376953125

> <b_mmod_Minimization_Converged-OPLS-2005>
0

> <r_mmod_RMS_Derivative-OPLS-2005>
0.983909428119659

$$$$
72
                    3D
 Structure written by MMmdl.
153162  0  0  1  0            999 V2000
  -30.5124  -14.9454   20.4268 C   0  0  0  0  0  0
  -30.4539  -12.5881   19.4866 C   0  0  0  0  0  0
  -29.5243  -12.5303   18.2507 C   0  0  0  0  0  0
  -28.0576  -12.3138   18.6724 C   0  0  0  0  0  0
  -27.6349  -13.2403   19.8414 C   0  0  2  0  0  0
  -28.6810  -13.2483   20.9769 C   0  0  0  0  0  0
  -25.2483  -13.8193   20.5694 C   0  0  0  0  0  0
  -24.1794  -13.0428   20.9226 C   0  0  0  0  0  0
  -24.6407  -11.6915   20.8770 C   0  0  0  0  0  0
  -23.9079  -10.4290   21.0423 C   0  0  0  0  0  0
  -24.3632   -9.4206   21.9193 C   0  0  0  0  0  0
  -23.6306   -8.2238   22.0758 C   0  0  0  0  0  0
  -22.4282   -8.0286   21.3551 C   0  0  0  0  0  0
  -21.9922   -9.0257   20.4645 C   0  0  0  0  0  0
  -22.7255  -10.2134   20.3061 C   0  0  0  0  0  0
  -21.6847   -6.0745   22.5281 C   0  0  0  0  0  0
  -21.4007   -6.5649   23.8215 C   0  0  0  0  0  0
  -21.3661   -5.6797   24.9176 C   0  0  0  0  0  0
  -21.6042   -4.3057   24.7221 C   0  0  0  0  0  0
  -21.8821   -3.8153   23.4341 C   0  0  0  0  0  0
  -21.9191   -4.6974   22.3401 C   0  0  0  0  0  0
  -22.7817  -13.5207   21.1887 C   0  0  0  0  0  0
  -22.1661   -4.2164   21.0978 F   0  0  0  0  0  0
  -21.5632   -3.4537   25.7730 F   0  0  0  0  0  0
  -29.9566  -13.6690   20.3806 N   0  0  0  0  0  0
  -26.2915  -12.9414   20.3261 N   0  0  0  0  0  0
  -25.9339  -11.6553   20.5756 N   0  0  0  0  0  0
  -22.0460  -12.8197   22.0440 N   0  0  0  0  0  0
  -25.4122  -15.1925   20.4096 N   0  0  0  0  0  0
  -31.7195  -15.0584   20.1825 O   0  0  0  0  0  0
  -21.6643   -6.8888   21.4245 O   0  0  0  0  0  0
  -22.3510  -14.5521   20.6742 O   0  0  0  0  0  0
  -24.6434  -31.8431   23.1850 C   0  0  0  0  0  0
  -25.9196  -32.4701   23.8256 C   0  0  1  0  0  0
  -27.2326  -27.1409   20.1683 C   0  0  0  0  0  0
  -25.5950  -33.8504   24.2190 N   0  0  0  0  0  0
  -23.4492  -30.4591   21.5291 C   0  0  2  0  0  0
  -24.9021  -28.8758   20.1177 C   0  0  0  0  0  0
  -22.7566  -29.4548   22.4844 C   0  0  0  0  0  0
  -18.0300  -28.1413   22.8495 C   0  0  0  0  0  0
  -24.1474  -36.7244   23.2641 C   0  0  0  0  0  0
  -26.0030  -30.7202   21.3797 C   0  0  0  0  0  0
  -26.0780  -29.3278   20.7307 C   0  0  0  0  0  0
  -27.2469  -28.4787   20.7313 C   0  0  0  0  0  0
  -26.0302  -26.7785   19.5273 C   0  0  0  0  0  0
  -24.8896  -27.6139   19.5006 C   0  0  0  0  0  0
  -23.6786  -29.7790   20.1524 C   0  0  0  0  0  0
  -25.4108  -36.3033   24.0324 C   0  0  1  0  0  0
  -20.5921  -28.3735   23.1235 C   0  0  2  0  0  0
  -20.6786  -26.9434   22.5411 C   0  0  0  0  0  0
  -19.5758  -26.6388   21.5224 C   0  0  0  0  0  0
  -18.1935  -26.7954   22.1628 C   0  0  0  0  0  0
  -19.1566  -28.8888   23.2863 C   0  0  0  0  0  0
  -18.9484  -30.1487   23.8885 C   0  0  0  0  0  0
  -17.6484  -30.6613   24.0569 C   0  0  0  0  0  0
  -25.9064  -34.9412   23.5068 C   0  0  0  0  0  0
  -16.5371  -29.9113   23.6341 C   0  0  0  0  0  0
  -16.7286  -28.6526   23.0367 C   0  0  0  0  0  0
  -26.4521  -31.6570   25.0696 C   0  0  0  0  0  0
  -25.3715  -31.3787   26.1408 C   0  0  0  0  0  0
  -27.0366  -30.2966   24.6255 C   0  0  0  0  0  0
  -27.6058  -32.4325   25.7483 C   0  0  0  0  0  0
  -27.5577  -37.1756   24.8457 C   0  0  0  0  0  0
  -21.4256  -29.3063   22.3603 N   0  0  0  0  0  0
  -26.4260  -37.3759   23.9445 N   0  0  0  0  0  0
  -24.7185  -31.0293   22.0871 N   0  0  0  0  0  0
  -23.4199  -28.8088   23.2997 O   0  0  0  0  0  0
  -28.3151  -26.1911   20.1746 O   0  0  0  0  0  0
  -26.5646  -34.8915   22.4637 O   0  0  0  0  0  0
  -23.5551  -32.1289   23.7081 O   0  0  0  0  0  0
  -28.5106  -19.7951   19.7197 C   0  0  0  0  0  0
  -28.6779  -18.3466   19.6993 C   0  0  0  0  0  0
  -30.4501  -18.4981   21.2309 C   0  0  0  0  0  0
  -29.2680  -20.6976   20.5387 C   0  0  0  0  0  0
  -29.6550  -17.5964   20.4478 C   0  0  0  0  0  0
  -30.2619  -19.9460   21.2854 C   0  0  0  0  0  0
  -28.9879  -24.3619   21.8192 C   0  0  0  0  0  0
  -29.0254  -22.8086   21.9973 C   0  0  0  0  0  0
  -28.5814  -23.3177   19.7462 C   0  0  0  0  0  0
  -28.1522  -24.6911   20.5664 C   0  0  2  0  0  0
  -29.0343  -22.1768   20.6731 N   0  0  0  0  0  0
  -29.6315  -16.0573   20.5080 N   0  0  0  0  0  0
  -31.0940  -20.6281   22.1093 F   0  0  0  0  0  0
  -31.4829  -12.7700   19.1704 H   0  0  0  0  0  0
  -30.4665  -11.6314   20.0106 H   0  0  0  0  0  0
  -29.8423  -11.7344   17.5755 H   0  0  0  0  0  0
  -29.6075  -13.4611   17.6859 H   0  0  0  0  0  0
  -27.9546  -11.2712   18.9768 H   0  0  0  0  0  0
  -27.3911  -12.4470   17.8197 H   0  0  0  0  0  0
  -27.6014  -14.2450   19.4196 H   0  0  0  0  0  0
  -28.7706  -12.2644   21.4403 H   0  0  0  0  0  0
  -28.3823  -13.9356   21.7704 H   0  0  0  0  0  0
  -25.2775   -9.5678   22.4772 H   0  0  0  0  0  0
  -24.0012   -7.4625   22.7471 H   0  0  0  0  0  0
  -21.0855   -8.8778   19.8943 H   0  0  0  0  0  0
  -22.3721  -10.9679   19.6173 H   0  0  0  0  0  0
  -21.1994   -7.6157   23.9724 H   0  0  0  0  0  0
  -21.1480   -6.0524   25.9080 H   0  0  0  0  0  0
  -22.0597   -2.7613   23.2830 H   0  0  0  0  0  0
  -22.4073  -11.9850   22.4814 H   0  0  0  0  0  0
  -21.1081  -13.1233   22.2647 H   0  0  0  0  0  0
  -24.6319  -15.8331   20.5085 H   0  0  0  0  0  0
  -26.2414  -15.6380   20.0421 H   0  0  0  0  0  0
  -26.7265  -32.5314   23.0991 H   0  0  0  0  0  0
  -25.0110  -33.9617   25.0350 H   0  0  0  0  0  0
  -22.7542  -31.2858   21.3686 H   0  0  0  0  0  0
  -23.3763  -35.9545   23.3262 H   0  0  0  0  0  0
  -24.3576  -36.8899   22.2065 H   0  0  0  0  0  0
  -23.7175  -37.6411   23.6686 H   0  0  0  0  0  0
  -26.1505  -31.4682   20.6002 H   0  0  0  0  0  0
  -26.8767  -30.7819   22.0167 H   0  0  0  0  0  0
  -28.1493  -28.8286   21.2127 H   0  0  0  0  0  0
  -25.9643  -25.8093   19.0531 H   0  0  0  0  0  0
  -23.9902  -27.2617   19.0141 H   0  0  0  0  0  0
  -23.8201  -30.5481   19.3926 H   0  0  0  0  0  0
  -22.7949  -29.2195   19.8403 H   0  0  0  0  0  0
  -25.1281  -36.1845   25.0809 H   0  0  0  0  0  0
  -21.0026  -28.3317   24.1354 H   0  0  0  0  0  0
  -20.5683  -26.2346   23.3632 H   0  0  0  0  0  0
  -21.6646  -26.7432   22.1195 H   0  0  0  0  0  0
  -19.6909  -25.6293   21.1265 H   0  0  0  0  0  0
  -19.6694  -27.3196   20.6753 H   0  0  0  0  0  0
  -17.4206  -26.6715   21.4030 H   0  0  0  0  0  0
  -18.0323  -26.0112   22.9034 H   0  0  0  0  0  0
  -19.7963  -30.7314   24.2232 H   0  0  0  0  0  0
  -17.5044  -31.6293   24.5176 H   0  0  0  0  0  0
  -15.5372  -30.3022   23.7688 H   0  0  0  0  0  0
  -15.8679  -28.0850   22.7093 H   0  0  0  0  0  0
  -24.5884  -30.7140   25.7749 H   0  0  0  0  0  0
  -24.8930  -32.2992   26.4763 H   0  0  0  0  0  0
  -25.8012  -30.9008   27.0225 H   0  0  0  0  0  0
  -26.2968  -29.6712   24.1252 H   0  0  0  0  0  0
  -27.3990  -29.7238   25.4800 H   0  0  0  0  0  0
  -27.8871  -30.4214   23.9552 H   0  0  0  0  0  0
  -27.2670  -33.3680   26.1950 H   0  0  0  0  0  0
  -28.3942  -32.6784   25.0357 H   0  0  0  0  0  0
  -28.0639  -31.8508   26.5492 H   0  0  0  0  0  0
  -28.2523  -38.0123   24.7605 H   0  0  0  0  0  0
  -28.1134  -36.2659   24.6136 H   0  0  0  0  0  0
  -27.2325  -37.1222   25.8861 H   0  0  0  0  0  0
  -20.9456  -29.8794   21.6807 H   0  0  0  0  0  0
  -26.0115  -38.2801   24.1538 H   0  0  0  0  0  0
  -27.7218  -20.2134   19.1123 H   0  0  0  0  0  0
  -27.9881  -17.7896   19.0812 H   0  0  0  0  0  0
  -31.2131  -18.0768   21.8688 H   0  0  0  0  0  0
  -30.0074  -24.7186   21.6665 H   0  0  0  0  0  0
  -28.6096  -24.8656   22.7098 H   0  0  0  0  0  0
  -28.1298  -22.4798   22.5275 H   0  0  0  0  0  0
  -29.8805  -22.5229   22.6087 H   0  0  0  0  0  0
  -29.4176  -23.5506   19.0851 H   0  0  0  0  0  0
  -27.7661  -22.9887   19.1010 H   0  0  0  0  0  0
  -27.1078  -24.5597   20.8502 H   0  0  0  0  0  0
  -28.6880  -15.7050   20.5335 H   0  0  0  0  0  0
  1 25  1  0  0  0
  1 30  2  0  0  0
  1 82  1  0  0  0
  2  3  1  0  0  0
  2 25  1  0  0  0
  2 84  1  0  0  0
  2 85  1  0  0  0
  3  4  1  0  0  0
  3 86  1  0  0  0
  3 87  1  0  0  0
  4  5  1  0  0  0
  4 88  1  0  0  0
  4 89  1  0  0  0
  5  6  1  0  0  0
  5 26  1  0  0  0
  5 90  1  0  0  0
  6 25  1  0  0  0
  6 91  1  0  0  0
  6 92  1  0  0  0
  7  8  2  0  0  0
  7 26  1  0  0  0
  7 29  1  0  0  0
  8  9  1  0  0  0
  8 22  1  0  0  0
  9 10  1  0  0  0
  9 27  2  0  0  0
 10 11  2  0  0  0
 10 15  1  0  0  0
 11 12  1  0  0  0
 11 93  1  0  0  0
 12 13  2  0  0  0
 12 94  1  0  0  0
 13 14  1  0  0  0
 13 31  1  0  0  0
 14 15  2  0  0  0
 14 95  1  0  0  0
 15 96  1  0  0  0
 16 17  2  0  0  0
 16 21  1  0  0  0
 16 31  1  0  0  0
 17 18  1  0  0  0
 17 97  1  0  0  0
 18 19  2  0  0  0
 18 98  1  0  0  0
 19 20  1  0  0  0
 19 24  1  0  0  0
 20 21  2  0  0  0
 20 99  1  0  0  0
 21 23  1  0  0  0
 22 28  1  0  0  0
 22 32  2  0  0  0
 26 27  1  0  0  0
 28100  1  0  0  0
 28101  1  0  0  0
 29102  1  0  0  0
 29103  1  0  0  0
 33 34  1  0  0  0
 33 66  1  0  0  0
 33 70  2  0  0  0
 34 36  1  0  0  0
 34 59  1  0  0  0
 34104  1  0  0  0
 35 44  2  0  0  0
 35 45  1  0  0  0
 35 68  1  0  0  0
 36 56  1  0  0  0
 36105  1  0  0  0
 37 39  1  0  0  0
 37 47  1  0  0  0
 37 66  1  0  0  0
 37106  1  0  0  0
 38 43  2  0  0  0
 38 46  1  0  0  0
 38 47  1  0  0  0
 39 64  1  0  0  0
 39 67  2  0  0  0
 40 52  1  0  0  0
 40 53  2  0  0  0
 40 58  1  0  0  0
 41107  1  0  0  0
 41108  1  0  0  0
 41109  1  0  0  0
 41 48  1  0  0  0
 42 43  1  0  0  0
 42 66  1  0  0  0
 42110  1  0  0  0
 42111  1  0  0  0
 43 44  1  0  0  0
 44112  1  0  0  0
 45 46  2  0  0  0
 45113  1  0  0  0
 46114  1  0  0  0
 47115  1  0  0  0
 47116  1  0  0  0
 48 56  1  0  0  0
 48 65  1  0  0  0
 48117  1  0  0  0
 49 50  1  0  0  0
 49 53  1  0  0  0
 49 64  1  0  0  0
 49118  1  0  0  0
 50 51  1  0  0  0
 50119  1  0  0  0
 50120  1  0  0  0
 51 52  1  0  0  0
 51121  1  0  0  0
 51122  1  0  0  0
 52123  1  0  0  0
 52124  1  0  0  0
 53 54  1  0  0  0
 54 55  2  0  0  0
 54125  1  0  0  0
 55 57  1  0  0  0
 55126  1  0  0  0
 56 69  2  0  0  0
 57 58  2  0  0  0
 57127  1  0  0  0
 58128  1  0  0  0
 59 60  1  0  0  0
 59 61  1  0  0  0
 59 62  1  0  0  0
 60129  1  0  0  0
 60130  1  0  0  0
 60131  1  0  0  0
 61132  1  0  0  0
 61133  1  0  0  0
 61134  1  0  0  0
 62135  1  0  0  0
 62136  1  0  0  0
 62137  1  0  0  0
 63 65  1  0  0  0
 63138  1  0  0  0
 63139  1  0  0  0
 63140  1  0  0  0
 64141  1  0  0  0
 65142  1  0  0  0
 68 80  1  0  0  0
 71 72  2  0  0  0
 71 74  1  0  0  0
 71143  1  0  0  0
 72 75  1  0  0  0
 72144  1  0  0  0
 73 75  2  0  0  0
 73 76  1  0  0  0
 73145  1  0  0  0
 74 76  2  0  0  0
 74 81  1  0  0  0
 75 82  1  0  0  0
 76 83  1  0  0  0
 77 78  1  0  0  0
 77 80  1  0  0  0
 77146  1  0  0  0
 77147  1  0  0  0
 78 81  1  0  0  0
 78148  1  0  0  0
 78149  1  0  0  0
 79 80  1  0  0  0
 79 81  1  0  0  0
 79150  1  0  0  0
 79151  1  0  0  0
 80152  1  0  0  0
 82153  1  0  0  0
M  ISO  4   1 100  68 101  80 101  82 100
M  END
> <chiral flag>
0

> <version>
0

> <s_m_source_file>
/data/baiqing/PycharmProjects/Reinvent-master-3.2/result/LINK_invent/BTK/process_docking_weight1_custom_product_contain_oxygen_bond_distance_aromatic_linkinvent_7_9_3/rearranged_h_0009.sdf

> <i_m_source_file_index>
73

> <r_mmod_Potential_Energy-OPLS-2005>
592.114562988281

> <r_mmod_Stretch_Energy-OPLS-2005>
218.330841064453

> <r_mmod_Bend_Energy-OPLS-2005>
308.939666748047

> <r_mmod_Torsional_Energy-OPLS-2005>
300.988464355469

> <r_mmod_Improper_Torsional_Energy-OPLS-2005>
7.21998405456543

> <r_mmod_Van_der_Waal_Energy-OPLS-2005>
124.425346374512

> <r_mmod_Electrostatic_Energy-OPLS-2005>
-326.940246582031

> <r_mmod_Solvation_Energy-OPLS-2005>
-227.665924072266

> <b_mmod_Minimization_Converged-OPLS-2005>
0

> <r_mmod_RMS_Derivative-OPLS-2005>
1.55988013744354

$$$$
73
                    3D
 Structure written by MMmdl.
155163  0  0  1  0            999 V2000
  -30.4400  -15.3775   20.3650 C   0  0  0  0  0  0
  -30.4205  -12.9138   19.5027 C   0  0  0  0  0  0
  -29.5280  -12.5878   18.2793 C   0  0  0  0  0  0
  -28.0790  -12.3029   18.7079 C   0  0  0  0  0  0
  -27.5965  -13.2823   19.8058 C   0  0  2  0  0  0
  -28.6353  -13.4795   20.9275 C   0  0  0  0  0  0
  -25.2343  -13.8229   20.5771 C   0  0  0  0  0  0
  -24.1699  -13.0413   20.9245 C   0  0  0  0  0  0
  -24.6354  -11.6909   20.8719 C   0  0  0  0  0  0
  -23.9026  -10.4292   21.0397 C   0  0  0  0  0  0
  -24.3597   -9.4220   21.9168 C   0  0  0  0  0  0
  -23.6289   -8.2250   22.0711 C   0  0  0  0  0  0
  -22.4255   -8.0272   21.3537 C   0  0  0  0  0  0
  -21.9909   -9.0224   20.4608 C   0  0  0  0  0  0
  -22.7210  -10.2116   20.3029 C   0  0  0  0  0  0
  -21.6871   -6.0730   22.5304 C   0  0  0  0  0  0
  -21.4017   -6.5628   23.8233 C   0  0  0  0  0  0
  -21.3636   -5.6744   24.9183 C   0  0  0  0  0  0
  -21.6032   -4.3017   24.7212 C   0  0  0  0  0  0
  -21.8820   -3.8139   23.4340 C   0  0  0  0  0  0
  -21.9187   -4.6968   22.3397 C   0  0  0  0  0  0
  -22.7744  -13.5210   21.1946 C   0  0  0  0  0  0
  -22.1634   -4.2185   21.0968 F   0  0  0  0  0  0
  -21.5656   -3.4459   25.7704 F   0  0  0  0  0  0
  -29.8178  -14.0806   20.2723 N   0  0  0  0  0  0
  -26.2753  -12.9522   20.3193 N   0  0  0  0  0  0
  -25.9289  -11.6611   20.5662 N   0  0  0  0  0  0
  -22.0402  -12.8154   22.0480 N   0  0  0  0  0  0
  -25.3964  -15.1963   20.4299 N   0  0  0  0  0  0
  -31.6685  -15.2492   20.2626 O   0  0  0  0  0  0
  -21.6628   -6.8874   21.4255 O   0  0  0  0  0  0
  -22.3420  -14.5537   20.6847 O   0  0  0  0  0  0
  -24.6686  -31.8115   23.1654 C   0  0  0  0  0  0
  -25.9333  -32.4529   23.8138 C   0  0  1  0  0  0
  -27.2227  -26.8599   20.1992 C   0  0  0  0  0  0
  -25.6002  -33.8361   24.2076 N   0  0  0  0  0  0
  -23.4906  -30.4188   21.5114 C   0  0  2  0  0  0
  -24.9477  -28.7986   20.1068 C   0  0  0  0  0  0
  -22.7707  -29.4345   22.4727 C   0  0  0  0  0  0
  -18.0330  -28.1410   22.8452 C   0  0  0  0  0  0
  -24.1482  -36.7137   23.2677 C   0  0  0  0  0  0
  -26.0647  -30.5969   21.4077 C   0  0  0  0  0  0
  -26.1276  -29.1822   20.7474 C   0  0  0  0  0  0
  -27.2550  -28.2360   20.7707 C   0  0  0  0  0  0
  -26.0180  -26.6457   19.4920 C   0  0  0  0  0  0
  -24.9208  -27.5513   19.4577 C   0  0  0  0  0  0
  -23.7357  -29.7291   20.1382 C   0  0  0  0  0  0
  -25.4138  -36.2921   24.0320 C   0  0  1  0  0  0
  -20.5972  -28.3726   23.1208 C   0  0  2  0  0  0
  -20.6836  -26.9413   22.5427 C   0  0  0  0  0  0
  -19.5804  -26.6364   21.5256 C   0  0  0  0  0  0
  -18.1967  -26.7947   22.1616 C   0  0  0  0  0  0
  -19.1607  -28.8883   23.2812 C   0  0  0  0  0  0
  -18.9512  -30.1470   23.8832 C   0  0  0  0  0  0
  -17.6516  -30.6594   24.0515 C   0  0  0  0  0  0
  -25.9123  -34.9311   23.5021 C   0  0  0  0  0  0
  -16.5391  -29.9077   23.6355 C   0  0  0  0  0  0
  -16.7316  -28.6499   23.0382 C   0  0  0  0  0  0
  -26.4577  -31.6521   25.0695 C   0  0  0  0  0  0
  -25.3672  -31.3752   26.1301 C   0  0  0  0  0  0
  -27.0526  -30.2896   24.6487 C   0  0  0  0  0  0
  -27.6033  -32.4417   25.7481 C   0  0  0  0  0  0
  -27.5554  -37.1721   24.8501 C   0  0  0  0  0  0
  -21.4367  -29.2987   22.3492 N   0  0  0  0  0  0
  -26.4251  -37.3683   23.9460 N   0  0  0  0  0  0
  -24.7642  -30.9698   22.0810 N   0  0  0  0  0  0
  -23.4253  -28.7940   23.3011 O   0  0  0  0  0  0
  -28.2119  -25.7276   20.3209 O   0  0  0  0  0  0
  -26.5710  -34.8851   22.4589 O   0  0  0  0  0  0
  -23.5724  -32.1156   23.6633 O   0  0  0  0  0  0
  -27.1489  -17.7153   22.5565 C   0  0  0  0  0  0
  -26.8795  -19.0743   22.5527 C   0  0  0  0  0  0
  -28.1653  -17.2068   21.7456 C   0  0  0  0  0  0
  -27.6064  -19.9247   21.7184 C   0  0  0  0  0  0
  -28.9732  -17.9490   20.8429 C   0  0  0  0  0  0
  -28.6484  -19.5439   20.8227 C   0  0  0  0  0  0
  -31.3428  -20.6158   19.4046 C   0  0  0  0  0  0
  -29.8639  -20.6798   18.9983 C   0  0  0  0  0  0
  -28.8518  -22.5258   20.6346 C   0  0  0  0  0  0
  -28.0959  -24.0797   19.9873 C   0  0  0  0  0  0
  -29.9041  -16.7910   20.1823 N   0  0  0  0  0  0
  -28.9883  -20.9117   20.1445 N   0  0  0  0  0  0
  -31.4211  -13.1476   19.1368 H   0  0  0  0  0  0
  -30.5540  -12.0348   20.1354 H   0  0  0  0  0  0
  -29.9382  -11.7395   17.7273 H   0  0  0  0  0  0
  -29.5413  -13.4326   17.5900 H   0  0  0  0  0  0
  -28.0472  -11.2838   19.0886 H   0  0  0  0  0  0
  -27.4117  -12.3315   17.8460 H   0  0  0  0  0  0
  -27.4958  -14.2459   19.3015 H   0  0  0  0  0  0
  -28.8631  -12.5294   21.4125 H   0  0  0  0  0  0
  -28.2486  -14.1129   21.7188 H   0  0  0  0  0  0
  -25.2757   -9.5725   22.4724 H   0  0  0  0  0  0
  -24.0005   -7.4629   22.7420 H   0  0  0  0  0  0
  -21.0837   -8.8680   19.8923 H   0  0  0  0  0  0
  -22.3631  -10.9604   19.6098 H   0  0  0  0  0  0
  -21.2002   -7.6122   23.9763 H   0  0  0  0  0  0
  -21.1452   -6.0460   25.9075 H   0  0  0  0  0  0
  -22.0641   -2.7620   23.2795 H   0  0  0  0  0  0
  -22.3937  -11.9720   22.4756 H   0  0  0  0  0  0
  -21.1067  -13.1238   22.2783 H   0  0  0  0  0  0
  -24.6273  -15.8469   20.5539 H   0  0  0  0  0  0
  -26.2487  -15.6482   20.1252 H   0  0  0  0  0  0
  -26.7340  -32.5032   23.0791 H   0  0  0  0  0  0
  -25.0184  -33.9474   25.0251 H   0  0  0  0  0  0
  -22.8076  -31.2529   21.3307 H   0  0  0  0  0  0
  -23.3802  -35.9410   23.3309 H   0  0  0  0  0  0
  -24.3531  -36.8800   22.2093 H   0  0  0  0  0  0
  -23.7177  -37.6295   23.6735 H   0  0  0  0  0  0
  -26.2731  -31.3400   20.6385 H   0  0  0  0  0  0
  -26.9163  -30.6333   22.0745 H   0  0  0  0  0  0
  -28.1383  -28.5266   21.3196 H   0  0  0  0  0  0
  -25.8921  -25.6976   18.9910 H   0  0  0  0  0  0
  -24.0208  -27.2493   18.9418 H   0  0  0  0  0  0
  -23.8926  -30.5016   19.3859 H   0  0  0  0  0  0
  -22.8474  -29.1831   19.8159 H   0  0  0  0  0  0
  -25.1327  -36.1704   25.0809 H   0  0  0  0  0  0
  -21.0031  -28.3313   24.1334 H   0  0  0  0  0  0
  -20.5862  -26.2273   23.3623 H   0  0  0  0  0  0
  -21.6668  -26.7460   22.1116 H   0  0  0  0  0  0
  -19.6988  -25.6296   21.1264 H   0  0  0  0  0  0
  -19.6791  -27.3165   20.6806 H   0  0  0  0  0  0
  -17.4281  -26.6718   21.3990 H   0  0  0  0  0  0
  -18.0267  -26.0126   22.9032 H   0  0  0  0  0  0
  -19.7993  -30.7290   24.2179 H   0  0  0  0  0  0
  -17.5073  -31.6277   24.5118 H   0  0  0  0  0  0
  -15.5391  -30.2946   23.7752 H   0  0  0  0  0  0
  -15.8698  -28.0772   22.7171 H   0  0  0  0  0  0
  -24.5871  -30.7117   25.7559 H   0  0  0  0  0  0
  -24.8847  -32.2915   26.4680 H   0  0  0  0  0  0
  -25.7839  -30.8921   27.0130 H   0  0  0  0  0  0
  -26.3208  -29.6508   24.1534 H   0  0  0  0  0  0
  -27.4098  -29.7340   25.5164 H   0  0  0  0  0  0
  -27.9088  -30.4138   23.9873 H   0  0  0  0  0  0
  -27.2576  -33.3809   26.1815 H   0  0  0  0  0  0
  -28.3883  -32.6879   25.0326 H   0  0  0  0  0  0
  -28.0598  -31.8744   26.5578 H   0  0  0  0  0  0
  -28.2567  -38.0038   24.7544 H   0  0  0  0  0  0
  -28.1055  -36.2552   24.6327 H   0  0  0  0  0  0
  -27.2243  -37.1327   25.8899 H   0  0  0  0  0  0
  -20.9640  -29.8576   21.6505 H   0  0  0  0  0  0
  -26.0093  -38.2730   24.1521 H   0  0  0  0  0  0
  -26.5661  -17.0418   23.1756 H   0  0  0  0  0  0
  -26.0909  -19.4709   23.1799 H   0  0  0  0  0  0
  -28.2968  -16.1483   21.8468 H   0  0  0  0  0  0
  -27.2625  -20.9427   21.7743 H   0  0  0  0  0  0
  -31.9702  -20.4279   18.5322 H   0  0  0  0  0  0
  -31.5330  -19.8197   20.1260 H   0  0  0  0  0  0
  -31.6816  -21.5549   19.8392 H   0  0  0  0  0  0
  -29.5642  -19.7557   18.4937 H   0  0  0  0  0  0
  -29.7318  -21.4778   18.2630 H   0  0  0  0  0  0
  -28.5570  -22.5094   21.6826 H   0  0  0  0  0  0
  -29.9006  -22.8151   20.7144 H   0  0  0  0  0  0
  -27.0243  -23.8837   20.0059 H   0  0  0  0  0  0
  -28.3513  -24.0586   18.9296 H   0  0  0  0  0  0
  -30.6331  -17.2628   19.6631 H   0  0  0  0  0  0
  1 25  1  0  0  0
  1 30  2  0  0  0
  1 81  1  0  0  0
  2  3  1  0  0  0
  2 25  1  0  0  0
  2 83  1  0  0  0
  2 84  1  0  0  0
  3  4  1  0  0  0
  3 85  1  0  0  0
  3 86  1  0  0  0
  4  5  1  0  0  0
  4 87  1  0  0  0
  4 88  1  0  0  0
  5  6  1  0  0  0
  5 26  1  0  0  0
  5 89  1  0  0  0
  6 25  1  0  0  0
  6 90  1  0  0  0
  6 91  1  0  0  0
  7  8  2  0  0  0
  7 26  1  0  0  0
  7 29  1  0  0  0
  8  9  1  0  0  0
  8 22  1  0  0  0
  9 10  1  0  0  0
  9 27  2  0  0  0
 10 11  2  0  0  0
 10 15  1  0  0  0
 11 12  1  0  0  0
 11 92  1  0  0  0
 12 13  2  0  0  0
 12 93  1  0  0  0
 13 14  1  0  0  0
 13 31  1  0  0  0
 14 15  2  0  0  0
 14 94  1  0  0  0
 15 95  1  0  0  0
 16 17  2  0  0  0
 16 21  1  0  0  0
 16 31  1  0  0  0
 17 18  1  0  0  0
 17 96  1  0  0  0
 18 19  2  0  0  0
 18 97  1  0  0  0
 19 20  1  0  0  0
 19 24  1  0  0  0
 20 21  2  0  0  0
 20 98  1  0  0  0
 21 23  1  0  0  0
 22 28  1  0  0  0
 22 32  2  0  0  0
 26 27  1  0  0  0
 28 99  1  0  0  0
 28100  1  0  0  0
 29101  1  0  0  0
 29102  1  0  0  0
 33 34  1  0  0  0
 33 66  1  0  0  0
 33 70  2  0  0  0
 34 36  1  0  0  0
 34 59  1  0  0  0
 34103  1  0  0  0
 35 44  2  0  0  0
 35 45  1  0  0  0
 35 68  1  0  0  0
 36 56  1  0  0  0
 36104  1  0  0  0
 37 39  1  0  0  0
 37 47  1  0  0  0
 37 66  1  0  0  0
 37105  1  0  0  0
 38 43  2  0  0  0
 38 46  1  0  0  0
 38 47  1  0  0  0
 39 64  1  0  0  0
 39 67  2  0  0  0
 40 52  1  0  0  0
 40 53  2  0  0  0
 40 58  1  0  0  0
 41106  1  0  0  0
 41107  1  0  0  0
 41108  1  0  0  0
 41 48  1  0  0  0
 42 43  1  0  0  0
 42 66  1  0  0  0
 42109  1  0  0  0
 42110  1  0  0  0
 43 44  1  0  0  0
 44111  1  0  0  0
 45 46  2  0  0  0
 45112  1  0  0  0
 46113  1  0  0  0
 47114  1  0  0  0
 47115  1  0  0  0
 48 56  1  0  0  0
 48 65  1  0  0  0
 48116  1  0  0  0
 49 50  1  0  0  0
 49 53  1  0  0  0
 49 64  1  0  0  0
 49117  1  0  0  0
 50 51  1  0  0  0
 50118  1  0  0  0
 50119  1  0  0  0
 51 52  1  0  0  0
 51120  1  0  0  0
 51121  1  0  0  0
 52122  1  0  0  0
 52123  1  0  0  0
 53 54  1  0  0  0
 54 55  2  0  0  0
 54124  1  0  0  0
 55 57  1  0  0  0
 55125  1  0  0  0
 56 69  2  0  0  0
 57 58  2  0  0  0
 57126  1  0  0  0
 58127  1  0  0  0
 59 60  1  0  0  0
 59 61  1  0  0  0
 59 62  1  0  0  0
 60128  1  0  0  0
 60129  1  0  0  0
 60130  1  0  0  0
 61131  1  0  0  0
 61132  1  0  0  0
 61133  1  0  0  0
 62134  1  0  0  0
 62135  1  0  0  0
 62136  1  0  0  0
 63 65  1  0  0  0
 63137  1  0  0  0
 63138  1  0  0  0
 63139  1  0  0  0
 64140  1  0  0  0
 65141  1  0  0  0
 68 80  1  0  0  0
 71 72  2  0  0  0
 71 73  1  0  0  0
 71142  1  0  0  0
 72 74  1  0  0  0
 72143  1  0  0  0
 73 75  2  0  0  0
 73144  1  0  0  0
 74 76  2  0  0  0
 74145  1  0  0  0
 75 76  1  0  0  0
 75 81  1  0  0  0
 76 82  1  0  0  0
 77 78  1  0  0  0
 77146  1  0  0  0
 77147  1  0  0  0
 77148  1  0  0  0
 78 82  1  0  0  0
 78149  1  0  0  0
 78150  1  0  0  0
 79 80  1  0  0  0
 79 82  1  0  0  0
 79151  1  0  0  0
 79152  1  0  0  0
 80153  1  0  0  0
 80154  1  0  0  0
 81155  1  0  0  0
M  ISO  4   1 100  68 101  80 101  81 100
M  END
> <chiral flag>
0

> <version>
0

> <s_m_source_file>
/data/baiqing/PycharmProjects/Reinvent-master-3.2/result/LINK_invent/BTK/process_docking_weight1_custom_product_contain_oxygen_bond_distance_aromatic_linkinvent_7_9_3/rearranged_h_0009.sdf

> <i_m_source_file_index>
74

> <r_mmod_Potential_Energy-OPLS-2005>
1758.0234375

> <r_mmod_Stretch_Energy-OPLS-2005>
755.232421875

> <r_mmod_Bend_Energy-OPLS-2005>
657.603454589844

> <r_mmod_Torsional_Energy-OPLS-2005>
244.340881347656

> <r_mmod_Improper_Torsional_Energy-OPLS-2005>
14.9160509109497

> <r_mmod_Van_der_Waal_Energy-OPLS-2005>
135.266815185547

> <r_mmod_Electrostatic_Energy-OPLS-2005>
-408.486419677734

> <r_mmod_Solvation_Energy-OPLS-2005>
-210.631896972656

> <b_mmod_Minimization_Converged-OPLS-2005>
0

> <r_mmod_RMS_Derivative-OPLS-2005>
5.8564248085022

$$$$
74
                    3D
 Structure written by MMmdl.
151159  0  0  1  0            999 V2000
  -30.6207  -14.6404   20.5017 C   0  0  0  0  0  0
  -30.4366  -12.3919   19.4535 C   0  0  0  0  0  0
  -29.5098  -12.5192   18.2233 C   0  0  0  0  0  0
  -28.0301  -12.3614   18.6287 C   0  0  0  0  0  0
  -27.6546  -13.2197   19.8662 C   0  0  2  0  0  0
  -28.6989  -13.0661   20.9954 C   0  0  0  0  0  0
  -25.2562  -13.8176   20.5677 C   0  0  0  0  0  0
  -24.1832  -13.0437   20.9184 C   0  0  0  0  0  0
  -24.6408  -11.6909   20.8734 C   0  0  0  0  0  0
  -23.9071  -10.4294   21.0403 C   0  0  0  0  0  0
  -24.3624   -9.4210   21.9184 C   0  0  0  0  0  0
  -23.6305   -8.2243   22.0754 C   0  0  0  0  0  0
  -22.4286   -8.0284   21.3541 C   0  0  0  0  0  0
  -21.9914   -9.0260   20.4646 C   0  0  0  0  0  0
  -22.7240  -10.2138   20.3055 C   0  0  0  0  0  0
  -21.6857   -6.0737   22.5278 C   0  0  0  0  0  0
  -21.4014   -6.5640   23.8212 C   0  0  0  0  0  0
  -21.3660   -5.6793   24.9175 C   0  0  0  0  0  0
  -21.6046   -4.3057   24.7221 C   0  0  0  0  0  0
  -21.8818   -3.8145   23.4342 C   0  0  0  0  0  0
  -21.9192   -4.6963   22.3399 C   0  0  0  0  0  0
  -22.7853  -13.5234   21.1843 C   0  0  0  0  0  0
  -22.1661   -4.2148   21.0977 F   0  0  0  0  0  0
  -21.5634   -3.4541   25.7733 F   0  0  0  0  0  0
  -30.0151  -13.4116   20.4353 N   0  0  0  0  0  0
  -26.2997  -12.9363   20.3319 N   0  0  0  0  0  0
  -25.9335  -11.6512   20.5749 N   0  0  0  0  0  0
  -22.0486  -12.8240   22.0403 N   0  0  0  0  0  0
  -25.4262  -15.1899   20.4079 N   0  0  0  0  0  0
  -31.7816  -14.8007   20.1137 O   0  0  0  0  0  0
  -21.6645   -6.8881   21.4242 O   0  0  0  0  0  0
  -22.3545  -14.5541   20.6689 O   0  0  0  0  0  0
  -24.6261  -31.8609   23.2045 C   0  0  0  0  0  0
  -25.9106  -32.4786   23.8370 C   0  0  1  0  0  0
  -27.2208  -27.3184   20.1168 C   0  0  0  0  0  0
  -25.5922  -33.8588   24.2296 N   0  0  0  0  0  0
  -23.4191  -30.4865   21.5481 C   0  0  2  0  0  0
  -24.8644  -28.9431   20.1147 C   0  0  0  0  0  0
  -22.7475  -29.4631   22.4947 C   0  0  0  0  0  0
  -18.0285  -28.1384   22.8493 C   0  0  0  0  0  0
  -24.1484  -36.7305   23.2639 C   0  0  0  0  0  0
  -25.9610  -30.7917   21.3754 C   0  0  0  0  0  0
  -26.0348  -29.4188   20.7191 C   0  0  0  0  0  0
  -27.2166  -28.6186   20.7108 C   0  0  0  0  0  0
  -26.0277  -26.9035   19.4793 C   0  0  0  0  0  0
  -24.8629  -27.6902   19.4870 C   0  0  0  0  0  0
  -23.6338  -29.8253   20.1625 C   0  0  0  0  0  0
  -25.4108  -36.3093   24.0334 C   0  0  1  0  0  0
  -20.5887  -28.3687   23.1297 C   0  0  2  0  0  0
  -20.6778  -26.9412   22.5417 C   0  0  0  0  0  0
  -19.5748  -26.6383   21.5224 C   0  0  0  0  0  0
  -18.1930  -26.7927   22.1635 C   0  0  0  0  0  0
  -19.1538  -28.8852   23.2889 C   0  0  0  0  0  0
  -18.9458  -30.1459   23.8898 C   0  0  0  0  0  0
  -17.6457  -30.6586   24.0566 C   0  0  0  0  0  0
  -25.9048  -34.9459   23.5116 C   0  0  0  0  0  0
  -16.5350  -29.9089   23.6324 C   0  0  0  0  0  0
  -16.7273  -28.6507   23.0345 C   0  0  0  0  0  0
  -26.4484  -31.6584   25.0734 C   0  0  0  0  0  0
  -25.3716  -31.3731   26.1462 C   0  0  0  0  0  0
  -27.0320  -30.3006   24.6178 C   0  0  0  0  0  0
  -27.6040  -32.4319   25.7509 C   0  0  0  0  0  0
  -27.5581  -37.1809   24.8464 C   0  0  0  0  0  0
  -21.4188  -29.3042   22.3692 N   0  0  0  0  0  0
  -26.4287  -37.3788   23.9414 N   0  0  0  0  0  0
  -24.6878  -31.0628   22.0996 N   0  0  0  0  0  0
  -23.4204  -28.8162   23.3016 O   0  0  0  0  0  0
  -28.3380  -26.4663   20.1474 O   0  0  0  0  0  0
  -26.5621  -34.8920   22.4686 O   0  0  0  0  0  0
  -23.5426  -32.1409   23.7376 O   0  0  0  0  0  0
  -30.9863  -17.8445   20.1353 C   0  0  0  0  0  0
  -30.9685  -19.2641   19.9932 C   0  0  0  0  0  0
  -28.7959  -17.9532   21.1125 C   0  0  0  0  0  0
  -29.8921  -17.1406   20.7028 C   0  0  0  0  0  0
  -29.8751  -20.0780   20.4000 C   0  0  0  0  0  0
  -28.7766  -19.3749   20.9706 C   0  0  0  0  0  0
  -29.2657  -23.9632   20.2182 C   0  0  0  0  0  0
  -28.0896  -25.0186   20.3689 C   0  0  0  0  0  0
  -28.9132  -22.4303   20.4994 C   0  0  0  0  0  0
  -29.8096  -15.6840   20.8721 N   0  0  0  0  0  0
  -29.9850  -21.4758   20.2123 O   0  0  0  0  0  0
  -27.6825  -20.0505   21.3985 F   0  0  0  0  0  0
  -31.4800  -12.5130   19.1578 H   0  0  0  0  0  0
  -30.3636  -11.3933   19.8877 H   0  0  0  0  0  0
  -29.7745  -11.7737   17.4721 H   0  0  0  0  0  0
  -29.6578  -13.4925   17.7514 H   0  0  0  0  0  0
  -27.8564  -11.3069   18.8449 H   0  0  0  0  0  0
  -27.3814  -12.6100   17.7878 H   0  0  0  0  0  0
  -27.6751  -14.2577   19.5349 H   0  0  0  0  0  0
  -28.7070  -12.0412   21.3704 H   0  0  0  0  0  0
  -28.4466  -13.6905   21.8533 H   0  0  0  0  0  0
  -25.2762   -9.5698   22.4766 H   0  0  0  0  0  0
  -24.0009   -7.4636   22.7478 H   0  0  0  0  0  0
  -21.0837   -8.8783   19.8964 H   0  0  0  0  0  0
  -22.3691  -10.9683   19.6175 H   0  0  0  0  0  0
  -21.2008   -7.6150   23.9716 H   0  0  0  0  0  0
  -21.1488   -6.0523   25.9081 H   0  0  0  0  0  0
  -22.0595   -2.7607   23.2840 H   0  0  0  0  0  0
  -22.4089  -11.9910   22.4815 H   0  0  0  0  0  0
  -21.1103  -13.1286   22.2588 H   0  0  0  0  0  0
  -24.6535  -15.8392   20.5078 H   0  0  0  0  0  0
  -26.2659  -15.6258   20.0488 H   0  0  0  0  0  0
  -26.7176  -32.5454   23.1120 H   0  0  0  0  0  0
  -25.0041  -33.9736   25.0421 H   0  0  0  0  0  0
  -22.7122  -31.3072   21.4089 H   0  0  0  0  0  0
  -23.3742  -35.9641   23.3296 H   0  0  0  0  0  0
  -24.3581  -36.8930   22.2055 H   0  0  0  0  0  0
  -23.7231  -37.6505   23.6659 H   0  0  0  0  0  0
  -26.0901  -31.5536   20.6055 H   0  0  0  0  0  0
  -26.8432  -30.8433   22.0018 H   0  0  0  0  0  0
  -28.1141  -28.9809   21.1926 H   0  0  0  0  0  0
  -25.9631  -25.9651   18.9527 H   0  0  0  0  0  0
  -23.9688  -27.3238   19.0015 H   0  0  0  0  0  0
  -23.7580  -30.6052   19.4102 H   0  0  0  0  0  0
  -22.7510  -29.2610   19.8558 H   0  0  0  0  0  0
  -25.1278  -36.1954   25.0826 H   0  0  0  0  0  0
  -20.9986  -28.3259   24.1416 H   0  0  0  0  0  0
  -20.5700  -26.2292   23.3614 H   0  0  0  0  0  0
  -21.6645  -26.7453   22.1199 H   0  0  0  0  0  0
  -19.6912  -25.6297   21.1248 H   0  0  0  0  0  0
  -19.6681  -27.3198   20.6759 H   0  0  0  0  0  0
  -17.4202  -26.6681   21.4034 H   0  0  0  0  0  0
  -18.0319  -26.0066   22.9030 H   0  0  0  0  0  0
  -19.7934  -30.7281   24.2258 H   0  0  0  0  0  0
  -17.5009  -31.6264   24.5173 H   0  0  0  0  0  0
  -15.5352  -30.2993   23.7638 H   0  0  0  0  0  0
  -15.8675  -28.0836   22.7043 H   0  0  0  0  0  0
  -24.5875  -30.7096   25.7793 H   0  0  0  0  0  0
  -24.8922  -32.2904   26.4894 H   0  0  0  0  0  0
  -25.8038  -30.8898   27.0234 H   0  0  0  0  0  0
  -26.2896  -29.6772   24.1177 H   0  0  0  0  0  0
  -27.3990  -29.7243   25.4681 H   0  0  0  0  0  0
  -27.8778  -30.4287   23.9419 H   0  0  0  0  0  0
  -27.2638  -33.3610   26.2096 H   0  0  0  0  0  0
  -28.3847  -32.6897   25.0339 H   0  0  0  0  0  0
  -28.0707  -31.8436   26.5420 H   0  0  0  0  0  0
  -28.2592  -38.0112   24.7515 H   0  0  0  0  0  0
  -28.1081  -36.2644   24.6274 H   0  0  0  0  0  0
  -27.2308  -37.1443   25.8869 H   0  0  0  0  0  0
  -20.9359  -29.8783   21.6922 H   0  0  0  0  0  0
  -26.0170  -38.2865   24.1414 H   0  0  0  0  0  0
  -31.8602  -17.3082   19.7940 H   0  0  0  0  0  0
  -31.8306  -19.7434   19.5523 H   0  0  0  0  0  0
  -27.9270  -17.4854   21.5514 H   0  0  0  0  0  0
  -30.0869  -24.2585   20.8705 H   0  0  0  0  0  0
  -29.6558  -24.0408   19.2037 H   0  0  0  0  0  0
  -27.6780  -24.9194   21.3744 H   0  0  0  0  0  0
  -27.3178  -24.6505   19.6997 H   0  0  0  0  0  0
  -28.0446  -22.1532   19.9005 H   0  0  0  0  0  0
  -28.6236  -22.3281   21.5461 H   0  0  0  0  0  0
  -28.9203  -15.3590   21.2197 H   0  0  0  0  0  0
  1 25  1  0  0  0
  1 30  2  0  0  0
  1 80  1  0  0  0
  2  3  1  0  0  0
  2 25  1  0  0  0
  2 83  1  0  0  0
  2 84  1  0  0  0
  3  4  1  0  0  0
  3 85  1  0  0  0
  3 86  1  0  0  0
  4  5  1  0  0  0
  4 87  1  0  0  0
  4 88  1  0  0  0
  5  6  1  0  0  0
  5 26  1  0  0  0
  5 89  1  0  0  0
  6 25  1  0  0  0
  6 90  1  0  0  0
  6 91  1  0  0  0
  7  8  2  0  0  0
  7 26  1  0  0  0
  7 29  1  0  0  0
  8  9  1  0  0  0
  8 22  1  0  0  0
  9 10  1  0  0  0
  9 27  2  0  0  0
 10 11  2  0  0  0
 10 15  1  0  0  0
 11 12  1  0  0  0
 11 92  1  0  0  0
 12 13  2  0  0  0
 12 93  1  0  0  0
 13 14  1  0  0  0
 13 31  1  0  0  0
 14 15  2  0  0  0
 14 94  1  0  0  0
 15 95  1  0  0  0
 16 17  2  0  0  0
 16 21  1  0  0  0
 16 31  1  0  0  0
 17 18  1  0  0  0
 17 96  1  0  0  0
 18 19  2  0  0  0
 18 97  1  0  0  0
 19 20  1  0  0  0
 19 24  1  0  0  0
 20 21  2  0  0  0
 20 98  1  0  0  0
 21 23  1  0  0  0
 22 28  1  0  0  0
 22 32  2  0  0  0
 26 27  1  0  0  0
 28 99  1  0  0  0
 28100  1  0  0  0
 29101  1  0  0  0
 29102  1  0  0  0
 33 34  1  0  0  0
 33 66  1  0  0  0
 33 70  2  0  0  0
 34 36  1  0  0  0
 34 59  1  0  0  0
 34103  1  0  0  0
 35 44  2  0  0  0
 35 45  1  0  0  0
 35 68  1  0  0  0
 36 56  1  0  0  0
 36104  1  0  0  0
 37 39  1  0  0  0
 37 47  1  0  0  0
 37 66  1  0  0  0
 37105  1  0  0  0
 38 43  2  0  0  0
 38 46  1  0  0  0
 38 47  1  0  0  0
 39 64  1  0  0  0
 39 67  2  0  0  0
 40 52  1  0  0  0
 40 53  2  0  0  0
 40 58  1  0  0  0
 41106  1  0  0  0
 41107  1  0  0  0
 41108  1  0  0  0
 41 48  1  0  0  0
 42 43  1  0  0  0
 42 66  1  0  0  0
 42109  1  0  0  0
 42110  1  0  0  0
 43 44  1  0  0  0
 44111  1  0  0  0
 45 46  2  0  0  0
 45112  1  0  0  0
 46113  1  0  0  0
 47114  1  0  0  0
 47115  1  0  0  0
 48 56  1  0  0  0
 48 65  1  0  0  0
 48116  1  0  0  0
 49 50  1  0  0  0
 49 53  1  0  0  0
 49 64  1  0  0  0
 49117  1  0  0  0
 50 51  1  0  0  0
 50118  1  0  0  0
 50119  1  0  0  0
 51 52  1  0  0  0
 51120  1  0  0  0
 51121  1  0  0  0
 52122  1  0  0  0
 52123  1  0  0  0
 53 54  1  0  0  0
 54 55  2  0  0  0
 54124  1  0  0  0
 55 57  1  0  0  0
 55125  1  0  0  0
 56 69  2  0  0  0
 57 58  2  0  0  0
 57126  1  0  0  0
 58127  1  0  0  0
 59 60  1  0  0  0
 59 61  1  0  0  0
 59 62  1  0  0  0
 60128  1  0  0  0
 60129  1  0  0  0
 60130  1  0  0  0
 61131  1  0  0  0
 61132  1  0  0  0
 61133  1  0  0  0
 62134  1  0  0  0
 62135  1  0  0  0
 62136  1  0  0  0
 63 65  1  0  0  0
 63137  1  0  0  0
 63138  1  0  0  0
 63139  1  0  0  0
 64140  1  0  0  0
 65141  1  0  0  0
 68 78  1  0  0  0
 71 72  2  0  0  0
 71 74  1  0  0  0
 71142  1  0  0  0
 72 75  1  0  0  0
 72143  1  0  0  0
 73 74  2  0  0  0
 73 76  1  0  0  0
 73144  1  0  0  0
 74 80  1  0  0  0
 75 76  2  0  0  0
 75 81  1  0  0  0
 76 82  1  0  0  0
 77 78  1  0  0  0
 77 79  1  0  0  0
 77145  1  0  0  0
 77146  1  0  0  0
 78147  1  0  0  0
 78148  1  0  0  0
 79 81  1  0  0  0
 79149  1  0  0  0
 79150  1  0  0  0
 80151  1  0  0  0
M  ISO  4   1 100  68 101  78 101  80 100
M  END
> <chiral flag>
0

> <version>
0

> <s_m_source_file>
/data/baiqing/PycharmProjects/Reinvent-master-3.2/result/LINK_invent/BTK/process_docking_weight1_custom_product_contain_oxygen_bond_distance_aromatic_linkinvent_7_9_3/rearranged_h_0009.sdf

> <i_m_source_file_index>
75

> <r_mmod_Potential_Energy-OPLS-2005>
74.7860946655273

> <r_mmod_Stretch_Energy-OPLS-2005>
79.5826568603516

> <r_mmod_Bend_Energy-OPLS-2005>
147.580917358398

> <r_mmod_Torsional_Energy-OPLS-2005>
214.559097290039

> <r_mmod_Improper_Torsional_Energy-OPLS-2005>
3.90157985687256

> <r_mmod_Van_der_Waal_Energy-OPLS-2005>
146.884353637695

> <r_mmod_Electrostatic_Energy-OPLS-2005>
-358.382598876953

> <r_mmod_Solvation_Energy-OPLS-2005>
-207.118133544922

> <b_mmod_Minimization_Converged-OPLS-2005>
0

> <r_mmod_RMS_Derivative-OPLS-2005>
1.06894218921661

$$$$
75
                    3D
 Structure written by MMmdl.
156165  0  0  1  0            999 V2000
  -30.5573  -15.0512   20.3988 C   0  0  0  0  0  0
  -30.4181  -12.6638   19.4937 C   0  0  0  0  0  0
  -29.5130  -12.5415   18.2488 C   0  0  0  0  0  0
  -28.0489  -12.3243   18.6710 C   0  0  0  0  0  0
  -27.6148  -13.2676   19.8246 C   0  0  2  0  0  0
  -28.6604  -13.3722   20.9535 C   0  0  0  0  0  0
  -25.2426  -13.8250   20.5762 C   0  0  0  0  0  0
  -24.1760  -13.0435   20.9237 C   0  0  0  0  0  0
  -24.6407  -11.6936   20.8755 C   0  0  0  0  0  0
  -23.9091  -10.4295   21.0404 C   0  0  0  0  0  0
  -24.3639   -9.4209   21.9185 C   0  0  0  0  0  0
  -23.6303   -8.2243   22.0760 C   0  0  0  0  0  0
  -22.4292   -8.0278   21.3540 C   0  0  0  0  0  0
  -21.9923   -9.0258   20.4652 C   0  0  0  0  0  0
  -22.7256  -10.2135   20.3064 C   0  0  0  0  0  0
  -21.6867   -6.0722   22.5266 C   0  0  0  0  0  0
  -21.4030   -6.5632   23.8191 C   0  0  0  0  0  0
  -21.3667   -5.6789   24.9154 C   0  0  0  0  0  0
  -21.6045   -4.3048   24.7211 C   0  0  0  0  0  0
  -21.8831   -3.8139   23.4333 C   0  0  0  0  0  0
  -21.9208   -4.6952   22.3390 C   0  0  0  0  0  0
  -22.7791  -13.5198   21.1865 C   0  0  0  0  0  0
  -22.1674   -4.2135   21.0969 F   0  0  0  0  0  0
  -21.5624   -3.4537   25.7728 F   0  0  0  0  0  0
  -29.9088  -13.8088   20.3158 N   0  0  0  0  0  0
  -26.2839  -12.9505   20.3250 N   0  0  0  0  0  0
  -25.9345  -11.6618   20.5734 N   0  0  0  0  0  0
  -22.0444  -12.8187   22.0422 N   0  0  0  0  0  0
  -25.4064  -15.1978   20.4211 N   0  0  0  0  0  0
  -31.7768  -14.9500   20.3225 O   0  0  0  0  0  0
  -21.6663   -6.8872   21.4230 O   0  0  0  0  0  0
  -22.3473  -14.5491   20.6692 O   0  0  0  0  0  0
  -24.6520  -31.8368   23.1840 C   0  0  0  0  0  0
  -25.9256  -32.4660   23.8251 C   0  0  1  0  0  0
  -27.2102  -27.0536   20.1695 C   0  0  0  0  0  0
  -25.5972  -33.8471   24.2156 N   0  0  0  0  0  0
  -23.4579  -30.4554   21.5327 C   0  0  2  0  0  0
  -24.9064  -28.8669   20.1171 C   0  0  0  0  0  0
  -22.7598  -29.4528   22.4862 C   0  0  0  0  0  0
  -18.0311  -28.1396   22.8489 C   0  0  0  0  0  0
  -24.1486  -36.7221   23.2647 C   0  0  0  0  0  0
  -26.0213  -30.6842   21.3959 C   0  0  0  0  0  0
  -26.0888  -29.2889   20.7370 C   0  0  0  0  0  0
  -27.2420  -28.4032   20.7381 C   0  0  0  0  0  0
  -25.9988  -26.7550   19.5128 C   0  0  0  0  0  0
  -24.8787  -27.6152   19.4869 C   0  0  0  0  0  0
  -23.6872  -29.7788   20.1556 C   0  0  0  0  0  0
  -25.4132  -36.3016   24.0307 C   0  0  1  0  0  0
  -20.5929  -28.3738   23.1226 C   0  0  2  0  0  0
  -20.6789  -26.9435   22.5409 C   0  0  0  0  0  0
  -19.5755  -26.6384   21.5227 C   0  0  0  0  0  0
  -18.1942  -26.7935   22.1642 C   0  0  0  0  0  0
  -19.1568  -28.8891   23.2841 C   0  0  0  0  0  0
  -18.9481  -30.1491   23.8867 C   0  0  0  0  0  0
  -17.6472  -30.6596   24.0566 C   0  0  0  0  0  0
  -25.9093  -34.9390   23.5049 C   0  0  0  0  0  0
  -16.5367  -29.9084   23.6343 C   0  0  0  0  0  0
  -16.7297  -28.6494   23.0382 C   0  0  0  0  0  0
  -26.4534  -31.6567   25.0731 C   0  0  0  0  0  0
  -25.3701  -31.3771   26.1419 C   0  0  0  0  0  0
  -27.0407  -30.2951   24.6385 C   0  0  0  0  0  0
  -27.6047  -32.4361   25.7515 C   0  0  0  0  0  0
  -27.5568  -37.1776   24.8467 C   0  0  0  0  0  0
  -21.4288  -29.3048   22.3583 N   0  0  0  0  0  0
  -26.4284  -37.3737   23.9403 N   0  0  0  0  0  0
  -24.7307  -31.0146   22.0919 N   0  0  0  0  0  0
  -23.4192  -28.8090   23.3060 O   0  0  0  0  0  0
  -28.2525  -26.0312   20.2067 O   0  0  0  0  0  0
  -26.5685  -34.8904   22.4635 O   0  0  0  0  0  0
  -23.5623  -32.1281   23.7008 O   0  0  0  0  0  0
  -31.8639  -19.7538   20.1046 C   0  0  0  0  0  0
  -30.9292  -20.7853   20.2732 C   0  0  0  0  0  0
  -29.2456  -19.0581   20.3722 C   0  0  0  0  0  0
  -31.5522  -18.3712   20.0049 C   0  0  0  0  0  0
  -29.5527  -20.5450   20.3446 C   0  0  0  0  0  0
  -30.2135  -17.8852   20.2652 C   0  0  0  0  0  0
  -27.4967  -23.6086   19.1411 C   0  0  0  0  0  0
  -27.5893  -22.0577   19.4849 C   0  0  0  0  0  0
  -29.1632  -23.2805   20.6662 C   0  0  0  0  0  0
  -28.0262  -24.4524   20.3383 C   0  0  1  0  0  0
  -32.7390  -17.5290   19.5128 C   0  0  0  0  0  0
  -28.7243  -21.8124   20.3858 N   0  0  0  0  0  0
  -29.8638  -16.3351   20.3640 N   0  0  0  0  0  0
  -33.6610  -18.2773   18.9002 F   0  0  0  0  0  0
  -33.3696  -16.9406   20.5302 F   0  0  0  0  0  0
  -32.3518  -16.6677   18.5735 F   0  0  0  0  0  0
  -31.4537  -12.8008   19.1770 H   0  0  0  0  0  0
  -30.4029  -11.7365   20.0692 H   0  0  0  0  0  0
  -29.8414  -11.7177   17.6141 H   0  0  0  0  0  0
  -29.5975  -13.4476   17.6453 H   0  0  0  0  0  0
  -27.9480  -11.2846   18.9831 H   0  0  0  0  0  0
  -27.3879  -12.4481   17.8134 H   0  0  0  0  0  0
  -27.5482  -14.2556   19.3687 H   0  0  0  0  0  0
  -28.7854  -12.4222   21.4753 H   0  0  0  0  0  0
  -28.3483  -14.0989   21.7059 H   0  0  0  0  0  0
  -25.2770   -9.5681   22.4771 H   0  0  0  0  0  0
  -24.0004   -7.4644   22.7492 H   0  0  0  0  0  0
  -21.0847   -8.8779   19.8966 H   0  0  0  0  0  0
  -22.3695  -10.9682   19.6189 H   0  0  0  0  0  0
  -21.2030   -7.6145   23.9682 H   0  0  0  0  0  0
  -21.1478   -6.0525   25.9053 H   0  0  0  0  0  0
  -22.0609   -2.7602   23.2839 H   0  0  0  0  0  0
  -22.4107  -11.9864   22.4807 H   0  0  0  0  0  0
  -21.1066  -13.1197   22.2624 H   0  0  0  0  0  0
  -24.6354  -15.8472   20.5370 H   0  0  0  0  0  0
  -26.2467  -15.6438   20.0764 H   0  0  0  0  0  0
  -26.7328  -32.5215   23.0975 H   0  0  0  0  0  0
  -25.0071  -33.9576   25.0276 H   0  0  0  0  0  0
  -22.7662  -31.2852   21.3733 H   0  0  0  0  0  0
  -23.3767  -35.9532   23.3313 H   0  0  0  0  0  0
  -24.3552  -36.8858   22.2059 H   0  0  0  0  0  0
  -23.7231  -37.6409   23.6693 H   0  0  0  0  0  0
  -26.1939  -31.4344   20.6222 H   0  0  0  0  0  0
  -26.8846  -30.7287   22.0480 H   0  0  0  0  0  0
  -28.1431  -28.7271   21.2392 H   0  0  0  0  0  0
  -25.8806  -25.8100   19.0178 H   0  0  0  0  0  0
  -23.9797  -27.2873   18.9845 H   0  0  0  0  0  0
  -23.8297  -30.5496   19.3978 H   0  0  0  0  0  0
  -22.7988  -29.2258   19.8443 H   0  0  0  0  0  0
  -25.1334  -36.1831   25.0797 H   0  0  0  0  0  0
  -21.0022  -28.3338   24.1349 H   0  0  0  0  0  0
  -20.5706  -26.2356   23.3637 H   0  0  0  0  0  0
  -21.6650  -26.7440   22.1198 H   0  0  0  0  0  0
  -19.6911  -25.6290   21.1271 H   0  0  0  0  0  0
  -19.6675  -27.3185   20.6749 H   0  0  0  0  0  0
  -17.4210  -26.6711   21.4047 H   0  0  0  0  0  0
  -18.0324  -26.0076   22.9034 H   0  0  0  0  0  0
  -19.7955  -30.7326   24.2218 H   0  0  0  0  0  0
  -17.5020  -31.6274   24.5167 H   0  0  0  0  0  0
  -15.5366  -30.2975   23.7670 H   0  0  0  0  0  0
  -15.8702  -28.0791   22.7130 H   0  0  0  0  0  0
  -24.5858  -30.7159   25.7717 H   0  0  0  0  0  0
  -24.8924  -32.2965   26.4826 H   0  0  0  0  0  0
  -25.7960  -30.8930   27.0224 H   0  0  0  0  0  0
  -26.3052  -29.6667   24.1355 H   0  0  0  0  0  0
  -27.3936  -29.7262   25.4999 H   0  0  0  0  0  0
  -27.8998  -30.4152   23.9779 H   0  0  0  0  0  0
  -27.2619  -33.3676   26.2035 H   0  0  0  0  0  0
  -28.3873  -32.6919   25.0357 H   0  0  0  0  0  0
  -28.0713  -31.8549   26.5481 H   0  0  0  0  0  0
  -28.2595  -38.0065   24.7515 H   0  0  0  0  0  0
  -28.1057  -36.2597   24.6310 H   0  0  0  0  0  0
  -27.2272  -37.1442   25.8866 H   0  0  0  0  0  0
  -20.9525  -29.8710   21.6702 H   0  0  0  0  0  0
  -26.0139  -38.2797   24.1419 H   0  0  0  0  0  0
  -32.8881  -20.0761   19.9898 H   0  0  0  0  0  0
  -31.3142  -21.7932   20.2824 H   0  0  0  0  0  0
  -28.2054  -18.7935   20.4917 H   0  0  0  0  0  0
  -26.4803  -23.8541   18.8458 H   0  0  0  0  0  0
  -28.1276  -23.8139   18.2754 H   0  0  0  0  0  0
  -27.6614  -21.4641   18.5711 H   0  0  0  0  0  0
  -26.6768  -21.7421   19.9939 H   0  0  0  0  0  0
  -29.5090  -23.3681   21.6966 H   0  0  0  0  0  0
  -30.0296  -23.4860   20.0372 H   0  0  0  0  0  0
  -27.2899  -24.3660   21.1386 H   0  0  0  0  0  0
  -28.8684  -16.1790   20.3986 H   0  0  0  0  0  0
  1 25  1  0  0  0
  1 30  2  0  0  0
  1 83  1  0  0  0
  2  3  1  0  0  0
  2 25  1  0  0  0
  2 87  1  0  0  0
  2 88  1  0  0  0
  3  4  1  0  0  0
  3 89  1  0  0  0
  3 90  1  0  0  0
  4  5  1  0  0  0
  4 91  1  0  0  0
  4 92  1  0  0  0
  5  6  1  0  0  0
  5 26  1  0  0  0
  5 93  1  0  0  0
  6 25  1  0  0  0
  6 94  1  0  0  0
  6 95  1  0  0  0
  7  8  2  0  0  0
  7 26  1  0  0  0
  7 29  1  0  0  0
  8  9  1  0  0  0
  8 22  1  0  0  0
  9 10  1  0  0  0
  9 27  2  0  0  0
 10 11  2  0  0  0
 10 15  1  0  0  0
 11 12  1  0  0  0
 11 96  1  0  0  0
 12 13  2  0  0  0
 12 97  1  0  0  0
 13 14  1  0  0  0
 13 31  1  0  0  0
 14 15  2  0  0  0
 14 98  1  0  0  0
 15 99  1  0  0  0
 16 17  2  0  0  0
 16 21  1  0  0  0
 16 31  1  0  0  0
 17 18  1  0  0  0
 17100  1  0  0  0
 18 19  2  0  0  0
 18101  1  0  0  0
 19 20  1  0  0  0
 19 24  1  0  0  0
 20 21  2  0  0  0
 20102  1  0  0  0
 21 23  1  0  0  0
 22 28  1  0  0  0
 22 32  2  0  0  0
 26 27  1  0  0  0
 28103  1  0  0  0
 28104  1  0  0  0
 29105  1  0  0  0
 29106  1  0  0  0
 33 34  1  0  0  0
 33 66  1  0  0  0
 33 70  2  0  0  0
 34 36  1  0  0  0
 34 59  1  0  0  0
 34107  1  0  0  0
 35 44  2  0  0  0
 35 45  1  0  0  0
 35 68  1  0  0  0
 36 56  1  0  0  0
 36108  1  0  0  0
 37 39  1  0  0  0
 37 47  1  0  0  0
 37 66  1  0  0  0
 37109  1  0  0  0
 38 43  2  0  0  0
 38 46  1  0  0  0
 38 47  1  0  0  0
 39 64  1  0  0  0
 39 67  2  0  0  0
 40 52  1  0  0  0
 40 53  2  0  0  0
 40 58  1  0  0  0
 41110  1  0  0  0
 41111  1  0  0  0
 41112  1  0  0  0
 41 48  1  0  0  0
 42 43  1  0  0  0
 42 66  1  0  0  0
 42113  1  0  0  0
 42114  1  0  0  0
 43 44  1  0  0  0
 44115  1  0  0  0
 45 46  2  0  0  0
 45116  1  0  0  0
 46117  1  0  0  0
 47118  1  0  0  0
 47119  1  0  0  0
 48 56  1  0  0  0
 48 65  1  0  0  0
 48120  1  0  0  0
 49 50  1  0  0  0
 49 53  1  0  0  0
 49 64  1  0  0  0
 49121  1  0  0  0
 50 51  1  0  0  0
 50122  1  0  0  0
 50123  1  0  0  0
 51 52  1  0  0  0
 51124  1  0  0  0
 51125  1  0  0  0
 52126  1  0  0  0
 52127  1  0  0  0
 53 54  1  0  0  0
 54 55  2  0  0  0
 54128  1  0  0  0
 55 57  1  0  0  0
 55129  1  0  0  0
 56 69  2  0  0  0
 57 58  2  0  0  0
 57130  1  0  0  0
 58131  1  0  0  0
 59 60  1  0  0  0
 59 61  1  0  0  0
 59 62  1  0  0  0
 60132  1  0  0  0
 60133  1  0  0  0
 60134  1  0  0  0
 61135  1  0  0  0
 61136  1  0  0  0
 61137  1  0  0  0
 62138  1  0  0  0
 62139  1  0  0  0
 62140  1  0  0  0
 63 65  1  0  0  0
 63141  1  0  0  0
 63142  1  0  0  0
 63143  1  0  0  0
 64144  1  0  0  0
 65145  1  0  0  0
 68 80  1  0  0  0
 71 72  2  0  0  0
 71 74  1  0  0  0
 71146  1  0  0  0
 72 75  1  0  0  0
 72147  1  0  0  0
 73 75  2  0  0  0
 73 76  1  0  0  0
 73148  1  0  0  0
 74 76  2  0  0  0
 74 81  1  0  0  0
 75 82  1  0  0  0
 76 83  1  0  0  0
 77 78  1  0  0  0
 77 80  1  0  0  0
 77149  1  0  0  0
 77150  1  0  0  0
 78 82  1  0  0  0
 78151  1  0  0  0
 78152  1  0  0  0
 79 80  1  0  0  0
 79 82  1  0  0  0
 79153  1  0  0  0
 79154  1  0  0  0
 80155  1  0  0  0
 81 84  1  0  0  0
 81 85  1  0  0  0
 81 86  1  0  0  0
 83156  1  0  0  0
M  ISO  4   1 100  68 101  80 101  83 100
M  END
> <chiral flag>
0

> <version>
0

> <s_m_source_file>
/data/baiqing/PycharmProjects/Reinvent-master-3.2/result/LINK_invent/BTK/process_docking_weight1_custom_product_contain_oxygen_bond_distance_aromatic_linkinvent_7_9_3/rearranged_h_0009.sdf

> <i_m_source_file_index>
76

> <r_mmod_Potential_Energy-OPLS-2005>
907.504333496094

> <r_mmod_Stretch_Energy-OPLS-2005>
350.132049560547

> <r_mmod_Bend_Energy-OPLS-2005>
378.845031738281

> <r_mmod_Torsional_Energy-OPLS-2005>
281.514007568359

> <r_mmod_Improper_Torsional_Energy-OPLS-2005>
7.29180192947388

> <r_mmod_Van_der_Waal_Energy-OPLS-2005>
153.151672363281

> <r_mmod_Electrostatic_Energy-OPLS-2005>
-301.390960693359

> <r_mmod_Solvation_Energy-OPLS-2005>
-233.278411865234

> <b_mmod_Minimization_Converged-OPLS-2005>
0

> <r_mmod_RMS_Derivative-OPLS-2005>
2.85566377639771

$$$$
76
                    3D
 Structure written by MMmdl.
149157  0  0  1  0            999 V2000
  -30.5264  -15.0204   20.4024 C   0  0  0  0  0  0
  -30.4380  -12.6360   19.5041 C   0  0  0  0  0  0
  -29.5223  -12.5334   18.2621 C   0  0  0  0  0  0
  -28.0589  -12.3080   18.6840 C   0  0  0  0  0  0
  -27.6238  -13.2550   19.8324 C   0  0  2  0  0  0
  -28.6657  -13.3235   20.9689 C   0  0  0  0  0  0
  -25.2437  -13.8225   20.5723 C   0  0  0  0  0  0
  -24.1766  -13.0436   20.9237 C   0  0  0  0  0  0
  -24.6393  -11.6926   20.8759 C   0  0  0  0  0  0
  -23.9083  -10.4291   21.0410 C   0  0  0  0  0  0
  -24.3630   -9.4203   21.9187 C   0  0  0  0  0  0
  -23.6299   -8.2240   22.0754 C   0  0  0  0  0  0
  -22.4279   -8.0283   21.3545 C   0  0  0  0  0  0
  -21.9920   -9.0259   20.4647 C   0  0  0  0  0  0
  -22.7254  -10.2135   20.3058 C   0  0  0  0  0  0
  -21.6853   -6.0739   22.5280 C   0  0  0  0  0  0
  -21.4017   -6.5641   23.8215 C   0  0  0  0  0  0
  -21.3659   -5.6793   24.9176 C   0  0  0  0  0  0
  -21.6042   -4.3056   24.7226 C   0  0  0  0  0  0
  -21.8818   -3.8148   23.4347 C   0  0  0  0  0  0
  -21.9193   -4.6966   22.3403 C   0  0  0  0  0  0
  -22.7785  -13.5204   21.1889 C   0  0  0  0  0  0
  -22.1660   -4.2152   21.0980 F   0  0  0  0  0  0
  -21.5627   -3.4538   25.7738 F   0  0  0  0  0  0
  -29.9309  -13.7531   20.3592 N   0  0  0  0  0  0
  -26.2862  -12.9469   20.3237 N   0  0  0  0  0  0
  -25.9327  -11.6592   20.5740 N   0  0  0  0  0  0
  -22.0437  -12.8192   22.0446 N   0  0  0  0  0  0
  -25.4076  -15.1957   20.4154 N   0  0  0  0  0  0
  -31.7389  -15.0432   20.1609 O   0  0  0  0  0  0
  -21.6640   -6.8883   21.4243 O   0  0  0  0  0  0
  -22.3465  -14.5505   20.6728 O   0  0  0  0  0  0
  -24.6487  -31.8388   23.1833 C   0  0  0  0  0  0
  -25.9236  -32.4667   23.8241 C   0  0  1  0  0  0
  -27.2166  -27.0835   20.1598 C   0  0  0  0  0  0
  -25.5963  -33.8475   24.2157 N   0  0  0  0  0  0
  -23.4549  -30.4565   21.5298 C   0  0  2  0  0  0
  -24.9049  -28.8728   20.1108 C   0  0  0  0  0  0
  -22.7595  -29.4519   22.4837 C   0  0  0  0  0  0
  -18.0309  -28.1397   22.8474 C   0  0  0  0  0  0
  -24.1491  -36.7241   23.2643 C   0  0  0  0  0  0
  -26.0145  -30.6965   21.3889 C   0  0  0  0  0  0
  -26.0849  -29.3024   20.7310 C   0  0  0  0  0  0
  -27.2413  -28.4260   20.7336 C   0  0  0  0  0  0
  -26.0081  -26.7667   19.5015 C   0  0  0  0  0  0
  -24.8826  -27.6206   19.4787 C   0  0  0  0  0  0
  -23.6844  -29.7821   20.1508 C   0  0  0  0  0  0
  -25.4126  -36.3015   24.0311 C   0  0  1  0  0  0
  -20.5925  -28.3729   23.1219 C   0  0  2  0  0  0
  -20.6790  -26.9425   22.5402 C   0  0  0  0  0  0
  -19.5763  -26.6379   21.5210 C   0  0  0  0  0  0
  -18.1946  -26.7933   22.1623 C   0  0  0  0  0  0
  -19.1568  -28.8881   23.2838 C   0  0  0  0  0  0
  -18.9483  -30.1475   23.8867 C   0  0  0  0  0  0
  -17.6479  -30.6592   24.0556 C   0  0  0  0  0  0
  -25.9081  -34.9393   23.5046 C   0  0  0  0  0  0
  -16.5369  -29.9084   23.6337 C   0  0  0  0  0  0
  -16.7293  -28.6502   23.0358 C   0  0  0  0  0  0
  -26.4539  -31.6556   25.0708 C   0  0  0  0  0  0
  -25.3711  -31.3761   26.1394 C   0  0  0  0  0  0
  -27.0417  -30.2946   24.6328 C   0  0  0  0  0  0
  -27.6053  -32.4337   25.7503 C   0  0  0  0  0  0
  -27.5573  -37.1778   24.8467 C   0  0  0  0  0  0
  -21.4280  -29.3048   22.3588 N   0  0  0  0  0  0
  -26.4284  -37.3735   23.9410 N   0  0  0  0  0  0
  -24.7263  -31.0200   22.0888 N   0  0  0  0  0  0
  -23.4215  -28.8075   23.3012 O   0  0  0  0  0  0
  -28.2575  -26.0687   20.2291 O   0  0  0  0  0  0
  -26.5674  -34.8901   22.4629 O   0  0  0  0  0  0
  -23.5593  -32.1287   23.7023 O   0  0  0  0  0  0
  -31.8196  -19.5156   20.4379 C   0  0  0  0  0  0
  -31.4225  -18.1582   20.4637 C   0  0  0  0  0  0
  -30.9060  -20.5940   20.3882 C   0  0  0  0  0  0
  -30.0659  -17.7604   20.4433 C   0  0  0  0  0  0
  -29.5097  -20.4001   20.3585 C   0  0  0  0  0  0
  -29.1269  -18.9384   20.3919 C   0  0  0  0  0  0
  -29.0396  -23.1822   20.3461 C   0  0  0  0  0  0
  -27.9772  -24.5145   20.1207 C   0  0  0  0  0  0
  -29.7516  -16.2325   20.4954 N   0  0  0  0  0  0
  -28.6553  -21.6408   20.2938 N   0  0  0  0  0  0
  -27.8017  -18.6532   20.3729 F   0  0  0  0  0  0
  -31.4690  -12.7994   19.1867 H   0  0  0  0  0  0
  -30.4462  -11.6973   20.0604 H   0  0  0  0  0  0
  -29.8537  -11.7228   17.6117 H   0  0  0  0  0  0
  -29.5980  -13.4496   17.6744 H   0  0  0  0  0  0
  -27.9695  -11.2714   19.0109 H   0  0  0  0  0  0
  -27.3935  -12.4149   17.8266 H   0  0  0  0  0  0
  -27.5735  -14.2472   19.3833 H   0  0  0  0  0  0
  -28.7718  -12.3595   21.4686 H   0  0  0  0  0  0
  -28.3530  -14.0371   21.7329 H   0  0  0  0  0  0
  -25.2773   -9.5677   22.4764 H   0  0  0  0  0  0
  -24.0004   -7.4632   22.7475 H   0  0  0  0  0  0
  -21.0850   -8.8783   19.8956 H   0  0  0  0  0  0
  -22.3712  -10.9676   19.6170 H   0  0  0  0  0  0
  -21.2010   -7.6150   23.9720 H   0  0  0  0  0  0
  -21.1481   -6.0522   25.9079 H   0  0  0  0  0  0
  -22.0596   -2.7611   23.2846 H   0  0  0  0  0  0
  -22.4062  -11.9862   22.4842 H   0  0  0  0  0  0
  -21.1053  -13.1210   22.2652 H   0  0  0  0  0  0
  -24.6349  -15.8425   20.5306 H   0  0  0  0  0  0
  -26.2462  -15.6438   20.0703 H   0  0  0  0  0  0
  -26.7303  -32.5256   23.0964 H   0  0  0  0  0  0
  -25.0084  -33.9579   25.0288 H   0  0  0  0  0  0
  -22.7599  -31.2838   21.3710 H   0  0  0  0  0  0
  -23.3760  -35.9566   23.3288 H   0  0  0  0  0  0
  -24.3573  -36.8895   22.2061 H   0  0  0  0  0  0
  -23.7240  -37.6428   23.6696 H   0  0  0  0  0  0
  -26.1768  -31.4480   20.6150 H   0  0  0  0  0  0
  -26.8820  -30.7477   22.0352 H   0  0  0  0  0  0
  -28.1397  -28.7515   21.2390 H   0  0  0  0  0  0
  -25.8985  -25.8089   19.0161 H   0  0  0  0  0  0
  -23.9828  -27.2863   18.9808 H   0  0  0  0  0  0
  -23.8269  -30.5549   19.3945 H   0  0  0  0  0  0
  -22.7976  -29.2283   19.8378 H   0  0  0  0  0  0
  -25.1316  -36.1832   25.0803 H   0  0  0  0  0  0
  -21.0017  -28.3323   24.1341 H   0  0  0  0  0  0
  -20.5675  -26.2346   23.3628 H   0  0  0  0  0  0
  -21.6655  -26.7420   22.1205 H   0  0  0  0  0  0
  -19.6924  -25.6284   21.1258 H   0  0  0  0  0  0
  -19.6698  -27.3174   20.6726 H   0  0  0  0  0  0
  -17.4214  -26.6674   21.4028 H   0  0  0  0  0  0
  -18.0347  -26.0082   22.9026 H   0  0  0  0  0  0
  -19.7959  -30.7297   24.2225 H   0  0  0  0  0  0
  -17.5032  -31.6268   24.5164 H   0  0  0  0  0  0
  -15.5368  -30.2975   23.7677 H   0  0  0  0  0  0
  -15.8693  -28.0809   22.7090 H   0  0  0  0  0  0
  -24.5901  -30.7096   25.7716 H   0  0  0  0  0  0
  -24.8892  -32.2949   26.4746 H   0  0  0  0  0  0
  -25.7988  -30.8986   27.0220 H   0  0  0  0  0  0
  -26.3052  -29.6653   24.1320 H   0  0  0  0  0  0
  -27.3995  -29.7263   25.4925 H   0  0  0  0  0  0
  -27.8971  -30.4169   23.9680 H   0  0  0  0  0  0
  -27.2631  -33.3661   26.2006 H   0  0  0  0  0  0
  -28.3907  -32.6863   25.0367 H   0  0  0  0  0  0
  -28.0674  -31.8515   26.5485 H   0  0  0  0  0  0
  -28.2581  -38.0084   24.7513 H   0  0  0  0  0  0
  -28.1078  -36.2612   24.6294 H   0  0  0  0  0  0
  -27.2290  -37.1424   25.8870 H   0  0  0  0  0  0
  -20.9503  -29.8760   21.6758 H   0  0  0  0  0  0
  -26.0143  -38.2800   24.1415 H   0  0  0  0  0  0
  -32.8769  -19.7408   20.4579 H   0  0  0  0  0  0
  -32.2072  -17.4187   20.5088 H   0  0  0  0  0  0
  -31.3100  -21.5954   20.3710 H   0  0  0  0  0  0
  -29.5106  -23.3298   21.3188 H   0  0  0  0  0  0
  -29.8486  -23.3148   19.6267 H   0  0  0  0  0  0
  -27.1373  -24.3389   20.7934 H   0  0  0  0  0  0
  -27.5684  -24.3720   19.1208 H   0  0  0  0  0  0
  -28.7666  -16.0411   20.5959 H   0  0  0  0  0  0
  -27.6548  -21.4544   20.2814 H   0  0  0  0  0  0
  1 25  1  0  0  0
  1 30  2  0  0  0
  1 79  1  0  0  0
  2  3  1  0  0  0
  2 25  1  0  0  0
  2 82  1  0  0  0
  2 83  1  0  0  0
  3  4  1  0  0  0
  3 84  1  0  0  0
  3 85  1  0  0  0
  4  5  1  0  0  0
  4 86  1  0  0  0
  4 87  1  0  0  0
  5  6  1  0  0  0
  5 26  1  0  0  0
  5 88  1  0  0  0
  6 25  1  0  0  0
  6 89  1  0  0  0
  6 90  1  0  0  0
  7  8  2  0  0  0
  7 26  1  0  0  0
  7 29  1  0  0  0
  8  9  1  0  0  0
  8 22  1  0  0  0
  9 10  1  0  0  0
  9 27  2  0  0  0
 10 11  2  0  0  0
 10 15  1  0  0  0
 11 12  1  0  0  0
 11 91  1  0  0  0
 12 13  2  0  0  0
 12 92  1  0  0  0
 13 14  1  0  0  0
 13 31  1  0  0  0
 14 15  2  0  0  0
 14 93  1  0  0  0
 15 94  1  0  0  0
 16 17  2  0  0  0
 16 21  1  0  0  0
 16 31  1  0  0  0
 17 18  1  0  0  0
 17 95  1  0  0  0
 18 19  2  0  0  0
 18 96  1  0  0  0
 19 20  1  0  0  0
 19 24  1  0  0  0
 20 21  2  0  0  0
 20 97  1  0  0  0
 21 23  1  0  0  0
 22 28  1  0  0  0
 22 32  2  0  0  0
 26 27  1  0  0  0
 28 98  1  0  0  0
 28 99  1  0  0  0
 29100  1  0  0  0
 29101  1  0  0  0
 33 34  1  0  0  0
 33 66  1  0  0  0
 33 70  2  0  0  0
 34 36  1  0  0  0
 34 59  1  0  0  0
 34102  1  0  0  0
 35 44  2  0  0  0
 35 45  1  0  0  0
 35 68  1  0  0  0
 36 56  1  0  0  0
 36103  1  0  0  0
 37 39  1  0  0  0
 37 47  1  0  0  0
 37 66  1  0  0  0
 37104  1  0  0  0
 38 43  2  0  0  0
 38 46  1  0  0  0
 38 47  1  0  0  0
 39 64  1  0  0  0
 39 67  2  0  0  0
 40 52  1  0  0  0
 40 53  2  0  0  0
 40 58  1  0  0  0
 41105  1  0  0  0
 41106  1  0  0  0
 41107  1  0  0  0
 41 48  1  0  0  0
 42 43  1  0  0  0
 42 66  1  0  0  0
 42108  1  0  0  0
 42109  1  0  0  0
 43 44  1  0  0  0
 44110  1  0  0  0
 45 46  2  0  0  0
 45111  1  0  0  0
 46112  1  0  0  0
 47113  1  0  0  0
 47114  1  0  0  0
 48 56  1  0  0  0
 48 65  1  0  0  0
 48115  1  0  0  0
 49 50  1  0  0  0
 49 53  1  0  0  0
 49 64  1  0  0  0
 49116  1  0  0  0
 50 51  1  0  0  0
 50117  1  0  0  0
 50118  1  0  0  0
 51 52  1  0  0  0
 51119  1  0  0  0
 51120  1  0  0  0
 52121  1  0  0  0
 52122  1  0  0  0
 53 54  1  0  0  0
 54 55  2  0  0  0
 54123  1  0  0  0
 55 57  1  0  0  0
 55124  1  0  0  0
 56 69  2  0  0  0
 57 58  2  0  0  0
 57125  1  0  0  0
 58126  1  0  0  0
 59 60  1  0  0  0
 59 61  1  0  0  0
 59 62  1  0  0  0
 60127  1  0  0  0
 60128  1  0  0  0
 60129  1  0  0  0
 61130  1  0  0  0
 61131  1  0  0  0
 61132  1  0  0  0
 62133  1  0  0  0
 62134  1  0  0  0
 62135  1  0  0  0
 63 65  1  0  0  0
 63136  1  0  0  0
 63137  1  0  0  0
 63138  1  0  0  0
 64139  1  0  0  0
 65140  1  0  0  0
 68 78  1  0  0  0
 71 72  2  0  0  0
 71 73  1  0  0  0
 71141  1  0  0  0
 72 74  1  0  0  0
 72142  1  0  0  0
 73 75  2  0  0  0
 73143  1  0  0  0
 74 76  2  0  0  0
 74 79  1  0  0  0
 75 76  1  0  0  0
 75 80  1  0  0  0
 76 81  1  0  0  0
 77 78  1  0  0  0
 77 80  1  0  0  0
 77144  1  0  0  0
 77145  1  0  0  0
 78146  1  0  0  0
 78147  1  0  0  0
 79148  1  0  0  0
 80149  1  0  0  0
M  ISO  4   1 100  68 101  78 101  79 100
M  END
> <chiral flag>
0

> <version>
0

> <s_m_source_file>
/data/baiqing/PycharmProjects/Reinvent-master-3.2/result/LINK_invent/BTK/process_docking_weight1_custom_product_contain_oxygen_bond_distance_aromatic_linkinvent_7_9_3/rearranged_h_0009.sdf

> <i_m_source_file_index>
77

> <r_mmod_Potential_Energy-OPLS-2005>
630.515625

> <r_mmod_Stretch_Energy-OPLS-2005>
319.240447998047

> <r_mmod_Bend_Energy-OPLS-2005>
275.681823730469

> <r_mmod_Torsional_Energy-OPLS-2005>
201.404312133789

> <r_mmod_Improper_Torsional_Energy-OPLS-2005>
4.64533519744873

> <r_mmod_Van_der_Waal_Energy-OPLS-2005>
131.98844909668

> <r_mmod_Electrostatic_Energy-OPLS-2005>
-333.940307617188

> <r_mmod_Solvation_Energy-OPLS-2005>
-212.221054077148

> <b_mmod_Minimization_Converged-OPLS-2005>
0

> <r_mmod_RMS_Derivative-OPLS-2005>
0.353500992059708

$$$$
77
                    3D
 Structure written by MMmdl.
163173  0  0  1  0            999 V2000
  -30.4661  -15.2970   20.2638 C   0  0  0  0  0  0
  -30.4347  -12.8284   19.4756 C   0  0  0  0  0  0
  -29.5140  -12.5453   18.2649 C   0  0  0  0  0  0
  -28.0830  -12.2292   18.7339 C   0  0  0  0  0  0
  -27.5941  -13.2173   19.8163 C   0  0  2  0  0  0
  -28.6516  -13.5072   20.9077 C   0  0  0  0  0  0
  -25.2438  -13.8071   20.5866 C   0  0  0  0  0  0
  -24.1711  -13.0354   20.9329 C   0  0  0  0  0  0
  -24.6301  -11.6829   20.8851 C   0  0  0  0  0  0
  -23.8983  -10.4239   21.0451 C   0  0  0  0  0  0
  -24.3559   -9.4164   21.9208 C   0  0  0  0  0  0
  -23.6250   -8.2203   22.0759 C   0  0  0  0  0  0
  -22.4237   -8.0243   21.3542 C   0  0  0  0  0  0
  -21.9866   -9.0212   20.4644 C   0  0  0  0  0  0
  -22.7183  -10.2092   20.3069 C   0  0  0  0  0  0
  -21.6847   -6.0710   22.5273 C   0  0  0  0  0  0
  -21.4018   -6.5618   23.8205 C   0  0  0  0  0  0
  -21.3666   -5.6773   24.9171 C   0  0  0  0  0  0
  -21.6052   -4.3035   24.7221 C   0  0  0  0  0  0
  -21.8814   -3.8123   23.4343 C   0  0  0  0  0  0
  -21.9183   -4.6938   22.3395 C   0  0  0  0  0  0
  -22.7732  -13.5185   21.1900 C   0  0  0  0  0  0
  -22.1642   -4.2122   21.0970 F   0  0  0  0  0  0
  -21.5638   -3.4523   25.7735 F   0  0  0  0  0  0
  -29.8656  -14.0027   20.2272 N   0  0  0  0  0  0
  -26.2768  -12.9190   20.3399 N   0  0  0  0  0  0
  -25.9217  -11.6369   20.5861 N   0  0  0  0  0  0
  -22.0321  -12.8241   22.0458 N   0  0  0  0  0  0
  -25.4175  -15.1805   20.4315 N   0  0  0  0  0  0
  -31.7039  -15.2305   20.2592 O   0  0  0  0  0  0
  -21.6618   -6.8832   21.4233 O   0  0  0  0  0  0
  -22.3467  -14.5482   20.6677 O   0  0  0  0  0  0
  -24.6599  -31.8240   23.1709 C   0  0  0  0  0  0
  -25.9290  -32.4596   23.8169 C   0  0  1  0  0  0
  -27.2422  -26.9703   20.1663 C   0  0  0  0  0  0
  -25.5973  -33.8410   24.2089 N   0  0  0  0  0  0
  -23.4748  -30.4335   21.5174 C   0  0  2  0  0  0
  -24.9316  -28.8243   20.1102 C   0  0  0  0  0  0
  -22.7658  -29.4439   22.4780 C   0  0  0  0  0  0
  -18.0316  -28.1411   22.8473 C   0  0  0  0  0  0
  -24.1463  -36.7184   23.2651 C   0  0  0  0  0  0
  -26.0404  -30.6455   21.3935 C   0  0  0  0  0  0
  -26.1129  -29.2391   20.7368 C   0  0  0  0  0  0
  -27.2609  -28.3316   20.7401 C   0  0  0  0  0  0
  -26.0274  -26.6931   19.5019 C   0  0  0  0  0  0
  -24.9113  -27.5702   19.4756 C   0  0  0  0  0  0
  -23.7127  -29.7432   20.1442 C   0  0  0  0  0  0
  -25.4109  -36.2964   24.0305 C   0  0  1  0  0  0
  -20.5951  -28.3752   23.1188 C   0  0  2  0  0  0
  -20.6774  -26.9428   22.5406 C   0  0  0  0  0  0
  -19.5756  -26.6373   21.5214 C   0  0  0  0  0  0
  -18.1943  -26.7945   22.1632 C   0  0  0  0  0  0
  -19.1584  -28.8907   23.2811 C   0  0  0  0  0  0
  -18.9499  -30.1494   23.8845 C   0  0  0  0  0  0
  -17.6495  -30.6598   24.0567 C   0  0  0  0  0  0
  -25.9081  -34.9355   23.5015 C   0  0  0  0  0  0
  -16.5381  -29.9090   23.6354 C   0  0  0  0  0  0
  -16.7300  -28.6515   23.0367 C   0  0  0  0  0  0
  -26.4568  -31.6545   25.0691 C   0  0  0  0  0  0
  -25.3710  -31.3805   26.1362 C   0  0  0  0  0  0
  -27.0478  -30.2920   24.6416 C   0  0  0  0  0  0
  -27.6051  -32.4370   25.7491 C   0  0  0  0  0  0
  -27.5542  -37.1741   24.8478 C   0  0  0  0  0  0
  -21.4333  -29.3041   22.3536 N   0  0  0  0  0  0
  -26.4250  -37.3705   23.9431 N   0  0  0  0  0  0
  -24.7463  -30.9933   22.0821 N   0  0  0  0  0  0
  -23.4224  -28.8008   23.3003 O   0  0  0  0  0  0
  -28.2911  -25.9227   20.2416 O   0  0  0  0  0  0
  -26.5689  -34.8903   22.4600 O   0  0  0  0  0  0
  -23.5676  -32.1200   23.6828 O   0  0  0  0  0  0
  -31.1509  -20.0731   21.0902 C   0  0  0  0  0  0
  -32.3538  -19.8978   20.3739 C   0  0  0  0  0  0
  -31.2950  -18.2122   18.9978 C   0  0  0  0  0  0
  -29.9443  -19.5188   20.5904 C   0  0  0  0  0  0
  -30.2535  -18.1254   19.9542 C   0  0  0  0  0  0
  -32.3685  -19.0882   19.2290 C   0  0  0  0  0  0
  -31.2914  -17.2899   17.7823 C   0  0  0  0  0  0
  -29.9095  -16.6381   17.5215 C   0  0  0  0  0  0
  -29.5511  -23.4450   19.5028 C   0  0  0  0  0  0
  -27.7209  -23.1372   20.9516 C   0  0  0  0  0  0
  -28.9849  -16.5307   18.7662 C   0  0  0  0  0  0
  -29.4941  -21.7982   19.1902 C   0  0  0  0  0  0
  -28.5410  -21.7165   21.3062 C   0  0  0  0  0  0
  -28.2487  -24.3071   19.9481 C   0  0  0  0  0  0
  -29.7611  -16.6015   20.0106 N   0  0  0  0  0  0
  -29.0880  -20.7626   20.2417 N   0  0  0  0  0  0
  -33.4372  -19.1028   18.3969 F   0  0  0  0  0  0
  -31.4461  -13.0340   19.1210 H   0  0  0  0  0  0
  -30.5193  -11.9515   20.1186 H   0  0  0  0  0  0
  -29.9075  -11.7185   17.6718 H   0  0  0  0  0  0
  -29.4932  -13.4127   17.6055 H   0  0  0  0  0  0
  -28.0843  -11.2183   19.1438 H   0  0  0  0  0  0
  -27.3965  -12.2144   17.8871 H   0  0  0  0  0  0
  -27.4109  -14.1095   19.2516 H   0  0  0  0  0  0
  -28.8572  -12.6223   21.5103 H   0  0  0  0  0  0
  -28.2829  -14.2729   21.5903 H   0  0  0  0  0  0
  -25.2685   -9.5654   22.4790 H   0  0  0  0  0  0
  -23.9957   -7.4594   22.7471 H   0  0  0  0  0  0
  -21.0806   -8.8724   19.8951 H   0  0  0  0  0  0
  -22.3639  -10.9634   19.6187 H   0  0  0  0  0  0
  -21.2025   -7.6126   23.9714 H   0  0  0  0  0  0
  -21.1500   -6.0500   25.9083 H   0  0  0  0  0  0
  -22.0595   -2.7582   23.2846 H   0  0  0  0  0  0
  -22.3888  -11.9953   22.4972 H   0  0  0  0  0  0
  -21.0926  -13.1300   22.2554 H   0  0  0  0  0  0
  -24.6591  -15.8389   20.5708 H   0  0  0  0  0  0
  -26.2830  -15.6268   20.1569 H   0  0  0  0  0  0
  -26.7367  -32.5148   23.0898 H   0  0  0  0  0  0
  -25.0091  -33.9489   25.0227 H   0  0  0  0  0  0
  -22.7872  -31.2639   21.3423 H   0  0  0  0  0  0
  -23.3739  -35.9495   23.3303 H   0  0  0  0  0  0
  -24.3539  -36.8838   22.2067 H   0  0  0  0  0  0
  -23.7209  -37.6367   23.6709 H   0  0  0  0  0  0
  -26.2137  -31.3885   20.6141 H   0  0  0  0  0  0
  -26.9029  -30.7047   22.0456 H   0  0  0  0  0  0
  -28.1577  -28.6496   21.2538 H   0  0  0  0  0  0
  -25.9091  -25.7331   19.0218 H   0  0  0  0  0  0
  -24.0119  -27.2442   18.9718 H   0  0  0  0  0  0
  -23.8649  -30.5068   19.3813 H   0  0  0  0  0  0
  -22.8269  -29.1882   19.8308 H   0  0  0  0  0  0
  -25.1304  -36.1742   25.0792 H   0  0  0  0  0  0
  -21.0044  -28.3336   24.1310 H   0  0  0  0  0  0
  -20.5629  -26.2364   23.3645 H   0  0  0  0  0  0
  -21.6631  -26.7367   22.1230 H   0  0  0  0  0  0
  -19.6898  -25.6272   21.1266 H   0  0  0  0  0  0
  -19.6686  -27.3157   20.6728 H   0  0  0  0  0  0
  -17.4199  -26.6698   21.4038 H   0  0  0  0  0  0
  -18.0330  -26.0097   22.9042 H   0  0  0  0  0  0
  -19.7974  -30.7319   24.2177 H   0  0  0  0  0  0
  -17.5053  -31.6277   24.5169 H   0  0  0  0  0  0
  -15.5387  -30.2983   23.7694 H   0  0  0  0  0  0
  -15.8705  -28.0817   22.7110 H   0  0  0  0  0  0
  -24.5882  -30.7166   25.7689 H   0  0  0  0  0  0
  -24.8916  -32.3014   26.4682 H   0  0  0  0  0  0
  -25.7945  -30.9049   27.0211 H   0  0  0  0  0  0
  -26.3160  -29.6598   24.1375 H   0  0  0  0  0  0
  -27.3981  -29.7289   25.5075 H   0  0  0  0  0  0
  -27.9101  -30.4134   23.9858 H   0  0  0  0  0  0
  -27.2604  -33.3710   26.1941 H   0  0  0  0  0  0
  -28.3916  -32.6871   25.0361 H   0  0  0  0  0  0
  -28.0658  -31.8591   26.5517 H   0  0  0  0  0  0
  -28.2561  -38.0037   24.7500 H   0  0  0  0  0  0
  -28.1028  -36.2556   24.6308 H   0  0  0  0  0  0
  -27.2263  -37.1393   25.8887 H   0  0  0  0  0  0
  -20.9572  -29.8750   21.6692 H   0  0  0  0  0  0
  -26.0081  -38.2744   24.1487 H   0  0  0  0  0  0
  -31.1500  -20.9083   21.7725 H   0  0  0  0  0  0
  -33.2171  -20.4998   20.6139 H   0  0  0  0  0  0
  -32.0411  -16.5143   17.9320 H   0  0  0  0  0  0
  -31.6081  -17.8460   16.8989 H   0  0  0  0  0  0
  -30.0686  -15.6506   17.0866 H   0  0  0  0  0  0
  -29.3785  -17.2056   16.7546 H   0  0  0  0  0  0
  -29.9338  -23.9156   18.5980 H   0  0  0  0  0  0
  -30.3329  -23.6179   20.2441 H   0  0  0  0  0  0
  -27.5264  -23.6257   21.9052 H   0  0  0  0  0  0
  -26.7288  -22.8513   20.5965 H   0  0  0  0  0  0
  -28.3721  -15.6618   18.6578 H   0  0  0  0  0  0
  -28.2734  -17.3587   18.7594 H   0  0  0  0  0  0
  -30.4757  -21.5089   18.8144 H   0  0  0  0  0  0
  -28.8227  -21.6519   18.3431 H   0  0  0  0  0  0
  -27.8885  -21.1196   21.9440 H   0  0  0  0  0  0
  -29.3670  -22.0000   21.9579 H   0  0  0  0  0  0
  -27.5983  -24.2515   19.0745 H   0  0  0  0  0  0
  1 25  1  0  0  0
  1 30  2  0  0  0
  1 85  1  0  0  0
  2  3  1  0  0  0
  2 25  1  0  0  0
  2 88  1  0  0  0
  2 89  1  0  0  0
  3  4  1  0  0  0
  3 90  1  0  0  0
  3 91  1  0  0  0
  4  5  1  0  0  0
  4 92  1  0  0  0
  4 93  1  0  0  0
  5  6  1  0  0  0
  5 26  1  0  0  0
  5 94  1  0  0  0
  6 25  1  0  0  0
  6 95  1  0  0  0
  6 96  1  0  0  0
  7  8  2  0  0  0
  7 26  1  0  0  0
  7 29  1  0  0  0
  8  9  1  0  0  0
  8 22  1  0  0  0
  9 10  1  0  0  0
  9 27  2  0  0  0
 10 11  2  0  0  0
 10 15  1  0  0  0
 11 12  1  0  0  0
 11 97  1  0  0  0
 12 13  2  0  0  0
 12 98  1  0  0  0
 13 14  1  0  0  0
 13 31  1  0  0  0
 14 15  2  0  0  0
 14 99  1  0  0  0
 15100  1  0  0  0
 16 17  2  0  0  0
 16 21  1  0  0  0
 16 31  1  0  0  0
 17 18  1  0  0  0
 17101  1  0  0  0
 18 19  2  0  0  0
 18102  1  0  0  0
 19 20  1  0  0  0
 19 24  1  0  0  0
 20 21  2  0  0  0
 20103  1  0  0  0
 21 23  1  0  0  0
 22 28  1  0  0  0
 22 32  2  0  0  0
 26 27  1  0  0  0
 28104  1  0  0  0
 28105  1  0  0  0
 29106  1  0  0  0
 29107  1  0  0  0
 33 34  1  0  0  0
 33 66  1  0  0  0
 33 70  2  0  0  0
 34 36  1  0  0  0
 34 59  1  0  0  0
 34108  1  0  0  0
 35 44  2  0  0  0
 35 45  1  0  0  0
 35 68  1  0  0  0
 36 56  1  0  0  0
 36109  1  0  0  0
 37 39  1  0  0  0
 37 47  1  0  0  0
 37 66  1  0  0  0
 37110  1  0  0  0
 38 43  2  0  0  0
 38 46  1  0  0  0
 38 47  1  0  0  0
 39 64  1  0  0  0
 39 67  2  0  0  0
 40 52  1  0  0  0
 40 53  2  0  0  0
 40 58  1  0  0  0
 41111  1  0  0  0
 41112  1  0  0  0
 41113  1  0  0  0
 41 48  1  0  0  0
 42 43  1  0  0  0
 42 66  1  0  0  0
 42114  1  0  0  0
 42115  1  0  0  0
 43 44  1  0  0  0
 44116  1  0  0  0
 45 46  2  0  0  0
 45117  1  0  0  0
 46118  1  0  0  0
 47119  1  0  0  0
 47120  1  0  0  0
 48 56  1  0  0  0
 48 65  1  0  0  0
 48121  1  0  0  0
 49 50  1  0  0  0
 49 53  1  0  0  0
 49 64  1  0  0  0
 49122  1  0  0  0
 50 51  1  0  0  0
 50123  1  0  0  0
 50124  1  0  0  0
 51 52  1  0  0  0
 51125  1  0  0  0
 51126  1  0  0  0
 52127  1  0  0  0
 52128  1  0  0  0
 53 54  1  0  0  0
 54 55  2  0  0  0
 54129  1  0  0  0
 55 57  1  0  0  0
 55130  1  0  0  0
 56 69  2  0  0  0
 57 58  2  0  0  0
 57131  1  0  0  0
 58132  1  0  0  0
 59 60  1  0  0  0
 59 61  1  0  0  0
 59 62  1  0  0  0
 60133  1  0  0  0
 60134  1  0  0  0
 60135  1  0  0  0
 61136  1  0  0  0
 61137  1  0  0  0
 61138  1  0  0  0
 62139  1  0  0  0
 62140  1  0  0  0
 62141  1  0  0  0
 63 65  1  0  0  0
 63142  1  0  0  0
 63143  1  0  0  0
 63144  1  0  0  0
 64145  1  0  0  0
 65146  1  0  0  0
 68 84  1  0  0  0
 71 72  2  0  0  0
 71 74  1  0  0  0
 71147  1  0  0  0
 72 76  1  0  0  0
 72148  1  0  0  0
 73 75  1  0  0  0
 73 76  2  0  0  0
 73 77  1  0  0  0
 74 75  2  0  0  0
 74 86  1  0  0  0
 75 85  1  0  0  0
 76 87  1  0  0  0
 77 78  1  0  0  0
 77149  1  0  0  0
 77150  1  0  0  0
 78 81  1  0  0  0
 78151  1  0  0  0
 78152  1  0  0  0
 79 82  1  0  0  0
 79 84  1  0  0  0
 79153  1  0  0  0
 79154  1  0  0  0
 80 83  1  0  0  0
 80 84  1  0  0  0
 80155  1  0  0  0
 80156  1  0  0  0
 81 85  1  0  0  0
 81157  1  0  0  0
 81158  1  0  0  0
 82 86  1  0  0  0
 82159  1  0  0  0
 82160  1  0  0  0
 83 86  1  0  0  0
 83161  1  0  0  0
 83162  1  0  0  0
 84163  1  0  0  0
M  ISO  4   1 100  68 101  84 101  85 100
M  END
> <chiral flag>
0

> <version>
0

> <s_m_source_file>
/data/baiqing/PycharmProjects/Reinvent-master-3.2/result/LINK_invent/BTK/process_docking_weight1_custom_product_contain_oxygen_bond_distance_aromatic_linkinvent_7_9_3/rearranged_h_0009.sdf

> <i_m_source_file_index>
78

> <r_mmod_Potential_Energy-OPLS-2005>
1744.55004882812

> <r_mmod_Stretch_Energy-OPLS-2005>
493.684326171875

> <r_mmod_Bend_Energy-OPLS-2005>
537.302062988281

> <r_mmod_Torsional_Energy-OPLS-2005>
595.809509277344

> <r_mmod_Improper_Torsional_Energy-OPLS-2005>
33.8646087646484

> <r_mmod_Van_der_Waal_Energy-OPLS-2005>
162.519577026367

> <r_mmod_Electrostatic_Energy-OPLS-2005>
-326.203704833984

> <r_mmod_Solvation_Energy-OPLS-2005>
-208.938034057617

> <b_mmod_Minimization_Converged-OPLS-2005>
0

> <r_mmod_RMS_Derivative-OPLS-2005>
3.0432984828949

$$$$
78
                    3D
 Structure written by MMmdl.
148156  0  0  1  0            999 V2000
  -30.5214  -14.9152   20.4322 C   0  0  0  0  0  0
  -30.4560  -12.5613   19.4932 C   0  0  0  0  0  0
  -29.5263  -12.5225   18.2560 C   0  0  0  0  0  0
  -28.0560  -12.3176   18.6734 C   0  0  0  0  0  0
  -27.6385  -13.2396   19.8491 C   0  0  2  0  0  0
  -28.6855  -13.2218   20.9846 C   0  0  0  0  0  0
  -25.2459  -13.8158   20.5697 C   0  0  0  0  0  0
  -24.1765  -13.0390   20.9179 C   0  0  0  0  0  0
  -24.6393  -11.6885   20.8728 C   0  0  0  0  0  0
  -23.9070  -10.4267   21.0393 C   0  0  0  0  0  0
  -24.3618   -9.4189   21.9177 C   0  0  0  0  0  0
  -23.6287   -8.2227   22.0750 C   0  0  0  0  0  0
  -22.4268   -8.0269   21.3541 C   0  0  0  0  0  0
  -21.9903   -9.0243   20.4647 C   0  0  0  0  0  0
  -22.7235  -10.2117   20.3050 C   0  0  0  0  0  0
  -21.6852   -6.0726   22.5279 C   0  0  0  0  0  0
  -21.4012   -6.5629   23.8210 C   0  0  0  0  0  0
  -21.3659   -5.6784   24.9173 C   0  0  0  0  0  0
  -21.6046   -4.3046   24.7225 C   0  0  0  0  0  0
  -21.8819   -3.8139   23.4345 C   0  0  0  0  0  0
  -21.9194   -4.6956   22.3402 C   0  0  0  0  0  0
  -22.7791  -13.5179   21.1863 C   0  0  0  0  0  0
  -22.1663   -4.2144   21.0979 F   0  0  0  0  0  0
  -21.5632   -3.4530   25.7737 F   0  0  0  0  0  0
  -29.9702  -13.6372   20.3996 N   0  0  0  0  0  0
  -26.2930  -12.9409   20.3303 N   0  0  0  0  0  0
  -25.9337  -11.6539   20.5759 N   0  0  0  0  0  0
  -22.0457  -12.8183   22.0447 N   0  0  0  0  0  0
  -25.4009  -15.1882   20.4184 N   0  0  0  0  0  0
  -31.7098  -15.0488   20.1197 O   0  0  0  0  0  0
  -21.6633   -6.8868   21.4238 O   0  0  0  0  0  0
  -22.3464  -14.5487   20.6720 O   0  0  0  0  0  0
  -24.6417  -31.8452   23.1899 C   0  0  0  0  0  0
  -25.9199  -32.4701   23.8276 C   0  0  1  0  0  0
  -27.2222  -27.1526   20.1448 C   0  0  0  0  0  0
  -25.5963  -33.8506   24.2202 N   0  0  0  0  0  0
  -23.4442  -30.4662   21.5348 C   0  0  2  0  0  0
  -24.8945  -28.8965   20.1100 C   0  0  0  0  0  0
  -22.7558  -29.4553   22.4857 C   0  0  0  0  0  0
  -18.0310  -28.1394   22.8468 C   0  0  0  0  0  0
  -24.1494  -36.7248   23.2642 C   0  0  0  0  0  0
  -25.9996  -30.7246   21.3863 C   0  0  0  0  0  0
  -26.0726  -29.3379   20.7264 C   0  0  0  0  0  0
  -27.2371  -28.4831   20.7255 C   0  0  0  0  0  0
  -26.0147  -26.8095   19.4943 C   0  0  0  0  0  0
  -24.8785  -27.6452   19.4787 C   0  0  0  0  0  0
  -23.6702  -29.7971   20.1536 C   0  0  0  0  0  0
  -25.4127  -36.3035   24.0318 C   0  0  1  0  0  0
  -20.5917  -28.3714   23.1234 C   0  0  2  0  0  0
  -20.6791  -26.9415   22.5409 C   0  0  0  0  0  0
  -19.5773  -26.6381   21.5204 C   0  0  0  0  0  0
  -18.1953  -26.7936   22.1610 C   0  0  0  0  0  0
  -19.1564  -28.8872   23.2845 C   0  0  0  0  0  0
  -18.9482  -30.1470   23.8868 C   0  0  0  0  0  0
  -17.6479  -30.6588   24.0559 C   0  0  0  0  0  0
  -25.9072  -34.9408   23.5067 C   0  0  0  0  0  0
  -16.5370  -29.9079   23.6341 C   0  0  0  0  0  0
  -16.7295  -28.6502   23.0351 C   0  0  0  0  0  0
  -26.4528  -31.6562   25.0707 C   0  0  0  0  0  0
  -25.3724  -31.3763   26.1419 C   0  0  0  0  0  0
  -27.0377  -30.2957   24.6274 C   0  0  0  0  0  0
  -27.6085  -32.4306   25.7471 C   0  0  0  0  0  0
  -27.5583  -37.1777   24.8465 C   0  0  0  0  0  0
  -21.4253  -29.3042   22.3607 N   0  0  0  0  0  0
  -26.4289  -37.3751   23.9413 N   0  0  0  0  0  0
  -24.7147  -31.0326   22.0924 N   0  0  0  0  0  0
  -23.4214  -28.8101   23.2998 O   0  0  0  0  0  0
  -28.2831  -26.1774   20.2081 O   0  0  0  0  0  0
  -26.5645  -34.8904   22.4637 O   0  0  0  0  0  0
  -23.5543  -32.1321   23.7134 O   0  0  0  0  0  0
  -30.5390  -18.5592   20.3119 C   0  0  0  0  0  0
  -30.2281  -19.9961   20.2516 C   0  0  0  0  0  0
  -27.9577  -19.5005   20.6233 C   0  0  0  0  0  0
  -29.5558  -17.5246   20.5374 C   0  0  0  0  0  0
  -28.9022  -20.5492   20.4006 C   0  0  0  0  0  0
  -28.2572  -18.0929   20.6946 C   0  0  0  0  0  0
  -27.9882  -24.6555   20.0887 C   0  0  0  0  0  0
  -28.9899  -23.3140   20.2894 C   0  0  0  0  0  0
  -29.6477  -16.0010   20.6557 N   0  0  0  0  0  0
  -28.3721  -21.9139   20.3335 O   0  0  0  0  0  0
  -27.2334  -17.2380   20.9233 F   0  0  0  0  0  0
  -31.4877  -12.7311   19.1805 H   0  0  0  0  0  0
  -30.4555  -11.5990   20.0081 H   0  0  0  0  0  0
  -29.8357  -11.7251   17.5785 H   0  0  0  0  0  0
  -29.6217  -13.4538   17.6962 H   0  0  0  0  0  0
  -27.9448  -11.2745   18.9718 H   0  0  0  0  0  0
  -27.3927  -12.4619   17.8198 H   0  0  0  0  0  0
  -27.6113  -14.2499   19.4400 H   0  0  0  0  0  0
  -28.7627  -12.2279   21.4282 H   0  0  0  0  0  0
  -28.3905  -13.8918   21.7938 H   0  0  0  0  0  0
  -25.2762   -9.5668   22.4749 H   0  0  0  0  0  0
  -23.9997   -7.4619   22.7465 H   0  0  0  0  0  0
  -21.0833   -8.8763   19.8957 H   0  0  0  0  0  0
  -22.3691  -10.9656   19.6162 H   0  0  0  0  0  0
  -21.2000   -7.6137   23.9710 H   0  0  0  0  0  0
  -21.1484   -6.0514   25.9077 H   0  0  0  0  0  0
  -22.0601   -2.7602   23.2845 H   0  0  0  0  0  0
  -22.4080  -11.9854   22.4844 H   0  0  0  0  0  0
  -21.1086  -13.1224   22.2682 H   0  0  0  0  0  0
  -24.6307  -15.8255   20.5832 H   0  0  0  0  0  0
  -26.2721  -15.6785   20.2515 H   0  0  0  0  0  0
  -26.7256  -32.5313   23.0995 H   0  0  0  0  0  0
  -25.0120  -33.9624   25.0359 H   0  0  0  0  0  0
  -22.7457  -31.2916   21.3825 H   0  0  0  0  0  0
  -23.3764  -35.9569   23.3295 H   0  0  0  0  0  0
  -24.3583  -36.8891   22.2059 H   0  0  0  0  0  0
  -23.7234  -37.6438   23.6676 H   0  0  0  0  0  0
  -26.1548  -31.4813   20.6161 H   0  0  0  0  0  0
  -26.8698  -30.7733   22.0286 H   0  0  0  0  0  0
  -28.1339  -28.8182   21.2272 H   0  0  0  0  0  0
  -25.9091  -25.8553   19.0022 H   0  0  0  0  0  0
  -23.9799  -27.3022   18.9846 H   0  0  0  0  0  0
  -23.8050  -30.5726   19.3985 H   0  0  0  0  0  0
  -22.7852  -29.2385   19.8435 H   0  0  0  0  0  0
  -25.1315  -36.1864   25.0809 H   0  0  0  0  0  0
  -21.0014  -28.3306   24.1352 H   0  0  0  0  0  0
  -20.5663  -26.2325   23.3628 H   0  0  0  0  0  0
  -21.6662  -26.7413   22.1223 H   0  0  0  0  0  0
  -19.6932  -25.6283   21.1254 H   0  0  0  0  0  0
  -19.6724  -27.3171   20.6718 H   0  0  0  0  0  0
  -17.4226  -26.6676   21.4011 H   0  0  0  0  0  0
  -18.0354  -26.0083   22.9012 H   0  0  0  0  0  0
  -19.7958  -30.7294   24.2221 H   0  0  0  0  0  0
  -17.5034  -31.6265   24.5168 H   0  0  0  0  0  0
  -15.5369  -30.2970   23.7682 H   0  0  0  0  0  0
  -15.8697  -28.0816   22.7070 H   0  0  0  0  0  0
  -24.5924  -30.7070   25.7768 H   0  0  0  0  0  0
  -24.8877  -32.2943   26.4751 H   0  0  0  0  0  0
  -25.8032  -30.9027   27.0250 H   0  0  0  0  0  0
  -26.2980  -29.6682   24.1288 H   0  0  0  0  0  0
  -27.4006  -29.7261   25.4840 H   0  0  0  0  0  0
  -27.8891  -30.4196   23.9575 H   0  0  0  0  0  0
  -27.2716  -33.3639   26.1992 H   0  0  0  0  0  0
  -28.3918  -32.6809   25.0300 H   0  0  0  0  0  0
  -28.0715  -31.8450   26.5425 H   0  0  0  0  0  0
  -28.2603  -38.0072   24.7516 H   0  0  0  0  0  0
  -28.1080  -36.2606   24.6286 H   0  0  0  0  0  0
  -27.2304  -37.1424   25.8870 H   0  0  0  0  0  0
  -20.9449  -29.8759   21.6797 H   0  0  0  0  0  0
  -26.0160  -38.2818   24.1433 H   0  0  0  0  0  0
  -31.5690  -18.2594   20.1836 H   0  0  0  0  0  0
  -31.0442  -20.6817   20.0723 H   0  0  0  0  0  0
  -26.9238  -19.7840   20.7511 H   0  0  0  0  0  0
  -27.1559  -24.4881   20.7736 H   0  0  0  0  0  0
  -27.5690  -24.5159   19.0932 H   0  0  0  0  0  0
  -29.5433  -23.4398   21.2200 H   0  0  0  0  0  0
  -29.7405  -23.3184   19.4988 H   0  0  0  0  0  0
  -28.7399  -15.6306   20.8942 H   0  0  0  0  0  0
  1 25  1  0  0  0
  1 30  2  0  0  0
  1 79  1  0  0  0
  2  3  1  0  0  0
  2 25  1  0  0  0
  2 82  1  0  0  0
  2 83  1  0  0  0
  3  4  1  0  0  0
  3 84  1  0  0  0
  3 85  1  0  0  0
  4  5  1  0  0  0
  4 86  1  0  0  0
  4 87  1  0  0  0
  5  6  1  0  0  0
  5 26  1  0  0  0
  5 88  1  0  0  0
  6 25  1  0  0  0
  6 89  1  0  0  0
  6 90  1  0  0  0
  7  8  2  0  0  0
  7 26  1  0  0  0
  7 29  1  0  0  0
  8  9  1  0  0  0
  8 22  1  0  0  0
  9 10  1  0  0  0
  9 27  2  0  0  0
 10 11  2  0  0  0
 10 15  1  0  0  0
 11 12  1  0  0  0
 11 91  1  0  0  0
 12 13  2  0  0  0
 12 92  1  0  0  0
 13 14  1  0  0  0
 13 31  1  0  0  0
 14 15  2  0  0  0
 14 93  1  0  0  0
 15 94  1  0  0  0
 16 17  2  0  0  0
 16 21  1  0  0  0
 16 31  1  0  0  0
 17 18  1  0  0  0
 17 95  1  0  0  0
 18 19  2  0  0  0
 18 96  1  0  0  0
 19 20  1  0  0  0
 19 24  1  0  0  0
 20 21  2  0  0  0
 20 97  1  0  0  0
 21 23  1  0  0  0
 22 28  1  0  0  0
 22 32  2  0  0  0
 26 27  1  0  0  0
 28 98  1  0  0  0
 28 99  1  0  0  0
 29100  1  0  0  0
 29101  1  0  0  0
 33 34  1  0  0  0
 33 66  1  0  0  0
 33 70  2  0  0  0
 34 36  1  0  0  0
 34 59  1  0  0  0
 34102  1  0  0  0
 35 44  2  0  0  0
 35 45  1  0  0  0
 35 68  1  0  0  0
 36 56  1  0  0  0
 36103  1  0  0  0
 37 39  1  0  0  0
 37 47  1  0  0  0
 37 66  1  0  0  0
 37104  1  0  0  0
 38 43  2  0  0  0
 38 46  1  0  0  0
 38 47  1  0  0  0
 39 64  1  0  0  0
 39 67  2  0  0  0
 40 52  1  0  0  0
 40 53  2  0  0  0
 40 58  1  0  0  0
 41105  1  0  0  0
 41106  1  0  0  0
 41107  1  0  0  0
 41 48  1  0  0  0
 42 43  1  0  0  0
 42 66  1  0  0  0
 42108  1  0  0  0
 42109  1  0  0  0
 43 44  1  0  0  0
 44110  1  0  0  0
 45 46  2  0  0  0
 45111  1  0  0  0
 46112  1  0  0  0
 47113  1  0  0  0
 47114  1  0  0  0
 48 56  1  0  0  0
 48 65  1  0  0  0
 48115  1  0  0  0
 49 50  1  0  0  0
 49 53  1  0  0  0
 49 64  1  0  0  0
 49116  1  0  0  0
 50 51  1  0  0  0
 50117  1  0  0  0
 50118  1  0  0  0
 51 52  1  0  0  0
 51119  1  0  0  0
 51120  1  0  0  0
 52121  1  0  0  0
 52122  1  0  0  0
 53 54  1  0  0  0
 54 55  2  0  0  0
 54123  1  0  0  0
 55 57  1  0  0  0
 55124  1  0  0  0
 56 69  2  0  0  0
 57 58  2  0  0  0
 57125  1  0  0  0
 58126  1  0  0  0
 59 60  1  0  0  0
 59 61  1  0  0  0
 59 62  1  0  0  0
 60127  1  0  0  0
 60128  1  0  0  0
 60129  1  0  0  0
 61130  1  0  0  0
 61131  1  0  0  0
 61132  1  0  0  0
 62133  1  0  0  0
 62134  1  0  0  0
 62135  1  0  0  0
 63 65  1  0  0  0
 63136  1  0  0  0
 63137  1  0  0  0
 63138  1  0  0  0
 64139  1  0  0  0
 65140  1  0  0  0
 68 77  1  0  0  0
 71 72  2  0  0  0
 71 74  1  0  0  0
 71141  1  0  0  0
 72 75  1  0  0  0
 72142  1  0  0  0
 73 75  2  0  0  0
 73 76  1  0  0  0
 73143  1  0  0  0
 74 76  2  0  0  0
 74 79  1  0  0  0
 75 80  1  0  0  0
 76 81  1  0  0  0
 77 78  1  0  0  0
 77144  1  0  0  0
 77145  1  0  0  0
 78 80  1  0  0  0
 78146  1  0  0  0
 78147  1  0  0  0
 79148  1  0  0  0
M  ISO  4   1 100  68 101  77 101  79 100
M  END
> <chiral flag>
0

> <version>
0

> <s_m_source_file>
/data/baiqing/PycharmProjects/Reinvent-master-3.2/result/LINK_invent/BTK/process_docking_weight1_custom_product_contain_oxygen_bond_distance_aromatic_linkinvent_7_9_3/rearranged_h_0009.sdf

> <i_m_source_file_index>
79

> <r_mmod_Potential_Energy-OPLS-2005>
429.317779541016

> <r_mmod_Stretch_Energy-OPLS-2005>
215.171890258789

> <r_mmod_Bend_Energy-OPLS-2005>
307.654571533203

> <r_mmod_Torsional_Energy-OPLS-2005>
210.088012695312

> <r_mmod_Improper_Torsional_Energy-OPLS-2005>
3.85878729820251

> <r_mmod_Van_der_Waal_Energy-OPLS-2005>
133.190078735352

> <r_mmod_Electrostatic_Energy-OPLS-2005>
-411.460144042969

> <r_mmod_Solvation_Energy-OPLS-2005>
-203.061370849609

> <b_mmod_Minimization_Converged-OPLS-2005>
0

> <r_mmod_RMS_Derivative-OPLS-2005>
0.840658664703369

$$$$
79
                    3D
 Structure written by MMmdl.
148156  0  0  1  0            999 V2000
  -30.5173  -15.0245   20.4070 C   0  0  0  0  0  0
  -30.4305  -12.6381   19.5159 C   0  0  0  0  0  0
  -29.5242  -12.5687   18.2637 C   0  0  0  0  0  0
  -28.0615  -12.3279   18.6785 C   0  0  0  0  0  0
  -27.6257  -13.2587   19.8408 C   0  0  2  0  0  0
  -28.6602  -13.3226   20.9832 C   0  0  0  0  0  0
  -25.2432  -13.8217   20.5684 C   0  0  0  0  0  0
  -24.1769  -13.0447   20.9213 C   0  0  0  0  0  0
  -24.6390  -11.6930   20.8734 C   0  0  0  0  0  0
  -23.9063  -10.4312   21.0378 C   0  0  0  0  0  0
  -24.3624   -9.4226   21.9155 C   0  0  0  0  0  0
  -23.6319   -8.2243   22.0737 C   0  0  0  0  0  0
  -22.4282   -8.0281   21.3552 C   0  0  0  0  0  0
  -21.9919   -9.0231   20.4625 C   0  0  0  0  0  0
  -22.7227  -10.2119   20.3032 C   0  0  0  0  0  0
  -21.6866   -6.0732   22.5279 C   0  0  0  0  0  0
  -21.4022   -6.5643   23.8207 C   0  0  0  0  0  0
  -21.3659   -5.6791   24.9168 C   0  0  0  0  0  0
  -21.6056   -4.3055   24.7226 C   0  0  0  0  0  0
  -21.8814   -3.8147   23.4342 C   0  0  0  0  0  0
  -21.9196   -4.6960   22.3400 C   0  0  0  0  0  0
  -22.7793  -13.5209   21.1883 C   0  0  0  0  0  0
  -22.1664   -4.2153   21.0973 F   0  0  0  0  0  0
  -21.5628   -3.4535   25.7729 F   0  0  0  0  0  0
  -29.9297  -13.7511   20.3840 N   0  0  0  0  0  0
  -26.2868  -12.9467   20.3236 N   0  0  0  0  0  0
  -25.9327  -11.6591   20.5726 N   0  0  0  0  0  0
  -22.0456  -12.8184   22.0427 N   0  0  0  0  0  0
  -25.4092  -15.1928   20.4035 N   0  0  0  0  0  0
  -31.7277  -15.0427   20.1628 O   0  0  0  0  0  0
  -21.6661   -6.8866   21.4238 O   0  0  0  0  0  0
  -22.3477  -14.5511   20.6716 O   0  0  0  0  0  0
  -24.6479  -31.8414   23.1866 C   0  0  0  0  0  0
  -25.9227  -32.4682   23.8294 C   0  0  1  0  0  0
  -27.2096  -27.0718   20.1810 C   0  0  0  0  0  0
  -25.5947  -33.8490   24.2193 N   0  0  0  0  0  0
  -23.4583  -30.4575   21.5287 C   0  0  2  0  0  0
  -24.9092  -28.8715   20.1157 C   0  0  0  0  0  0
  -22.7604  -29.4546   22.4834 C   0  0  0  0  0  0
  -18.0311  -28.1414   22.8462 C   0  0  0  0  0  0
  -24.1496  -36.7254   23.2635 C   0  0  0  0  0  0
  -26.0177  -30.6923   21.3994 C   0  0  0  0  0  0
  -26.0861  -29.2954   20.7447 C   0  0  0  0  0  0
  -27.2391  -28.4139   20.7550 C   0  0  0  0  0  0
  -26.0134  -26.7714   19.4952 C   0  0  0  0  0  0
  -24.8898  -27.6275   19.4696 C   0  0  0  0  0  0
  -23.6926  -29.7834   20.1499 C   0  0  0  0  0  0
  -25.4125  -36.3028   24.0315 C   0  0  1  0  0  0
  -20.5928  -28.3764   23.1207 C   0  0  2  0  0  0
  -20.6794  -26.9464   22.5397 C   0  0  0  0  0  0
  -19.5778  -26.6398   21.5197 C   0  0  0  0  0  0
  -18.1951  -26.7958   22.1608 C   0  0  0  0  0  0
  -19.1566  -28.8903   23.2820 C   0  0  0  0  0  0
  -18.9475  -30.1481   23.8882 C   0  0  0  0  0  0
  -17.6468  -30.6603   24.0567 C   0  0  0  0  0  0
  -25.9077  -34.9396   23.5067 C   0  0  0  0  0  0
  -16.5359  -29.9101   23.6327 C   0  0  0  0  0  0
  -16.7286  -28.6512   23.0353 C   0  0  0  0  0  0
  -26.4519  -31.6576   25.0755 C   0  0  0  0  0  0
  -25.3661  -31.3788   26.1412 C   0  0  0  0  0  0
  -27.0366  -30.2957   24.6394 C   0  0  0  0  0  0
  -27.6068  -32.4342   25.7522 C   0  0  0  0  0  0
  -27.5593  -37.1785   24.8449 C   0  0  0  0  0  0
  -21.4292  -29.3084   22.3580 N   0  0  0  0  0  0
  -26.4285  -37.3747   23.9412 N   0  0  0  0  0  0
  -24.7270  -31.0220   22.0918 N   0  0  0  0  0  0
  -23.4224  -28.8066   23.2992 O   0  0  0  0  0  0
  -28.2412  -26.0486   20.2342 O   0  0  0  0  0  0
  -26.5668  -34.8905   22.4654 O   0  0  0  0  0  0
  -23.5571  -32.1291   23.7038 O   0  0  0  0  0  0
  -30.3359  -20.5158   19.2214 C   0  0  0  0  0  0
  -31.0773  -19.4090   18.7526 C   0  0  0  0  0  0
  -29.1535  -18.9544   20.6477 C   0  0  0  0  0  0
  -29.9264  -17.7414   20.1882 C   0  0  0  0  0  0
  -29.3260  -20.3839   20.1948 C   0  0  0  0  0  0
  -30.8865  -18.0785   19.1971 C   0  0  0  0  0  0
  -27.9313  -24.5083   20.4638 C   0  0  0  0  0  0
  -28.8668  -23.0981   20.1508 C   0  0  0  0  0  0
  -29.7452  -16.2334   20.5727 N   0  0  0  0  0  0
  -28.5955  -21.6090   20.6018 O   0  0  0  0  0  0
  -31.6233  -17.1223   18.5892 F   0  0  0  0  0  0
  -31.4669  -12.7924   19.2157 H   0  0  0  0  0  0
  -30.4127  -11.6880   20.0528 H   0  0  0  0  0  0
  -29.8599  -11.7843   17.5880 H   0  0  0  0  0  0
  -29.6000  -13.5043   17.7054 H   0  0  0  0  0  0
  -27.9734  -11.2872   18.9912 H   0  0  0  0  0  0
  -27.3941  -12.4477   17.8224 H   0  0  0  0  0  0
  -27.5766  -14.2590   19.4067 H   0  0  0  0  0  0
  -28.7594  -12.3610   21.4867 H   0  0  0  0  0  0
  -28.3423  -14.0374   21.7453 H   0  0  0  0  0  0
  -25.2751   -9.5730   22.4759 H   0  0  0  0  0  0
  -24.0027   -7.4648   22.7464 H   0  0  0  0  0  0
  -21.0846   -8.8746   19.8939 H   0  0  0  0  0  0
  -22.3659  -10.9667   19.6172 H   0  0  0  0  0  0
  -21.2020   -7.6154   23.9717 H   0  0  0  0  0  0
  -21.1489   -6.0520   25.9075 H   0  0  0  0  0  0
  -22.0594   -2.7617   23.2835 H   0  0  0  0  0  0
  -22.4087  -11.9848   22.4828 H   0  0  0  0  0  0
  -21.1085  -13.1189   22.2621 H   0  0  0  0  0  0
  -24.6318  -15.8393   20.4685 H   0  0  0  0  0  0
  -26.2445  -15.6210   20.0289 H   0  0  0  0  0  0
  -26.7288  -32.5278   23.1025 H   0  0  0  0  0  0
  -25.0101  -33.9615   25.0339 H   0  0  0  0  0  0
  -22.7620  -31.2830   21.3688 H   0  0  0  0  0  0
  -23.3782  -35.9563   23.3246 H   0  0  0  0  0  0
  -24.3594  -36.8937   22.2061 H   0  0  0  0  0  0
  -23.7213  -37.6420   23.6703 H   0  0  0  0  0  0
  -26.1836  -31.4404   20.6236 H   0  0  0  0  0  0
  -26.8825  -30.7484   22.0482 H   0  0  0  0  0  0
  -28.1351  -28.7305   21.2719 H   0  0  0  0  0  0
  -25.9141  -25.8321   18.9741 H   0  0  0  0  0  0
  -23.9978  -27.3052   18.9509 H   0  0  0  0  0  0
  -23.8470  -30.5557   19.3958 H   0  0  0  0  0  0
  -22.8057  -29.2323   19.8319 H   0  0  0  0  0  0
  -25.1317  -36.1869   25.0806 H   0  0  0  0  0  0
  -20.9996  -28.3344   24.1334 H   0  0  0  0  0  0
  -20.5661  -26.2379   23.3614 H   0  0  0  0  0  0
  -21.6653  -26.7459   22.1203 H   0  0  0  0  0  0
  -19.6939  -25.6280   21.1269 H   0  0  0  0  0  0
  -19.6712  -27.3155   20.6676 H   0  0  0  0  0  0
  -17.4217  -26.6672   21.4013 H   0  0  0  0  0  0
  -18.0378  -26.0106   22.9014 H   0  0  0  0  0  0
  -19.7936  -30.7294   24.2271 H   0  0  0  0  0  0
  -17.5016  -31.6282   24.5173 H   0  0  0  0  0  0
  -15.5355  -30.3004   23.7666 H   0  0  0  0  0  0
  -15.8681  -28.0821   22.7114 H   0  0  0  0  0  0
  -24.5885  -30.7092   25.7712 H   0  0  0  0  0  0
  -24.8767  -32.2949   26.4730 H   0  0  0  0  0  0
  -25.7880  -30.9033   27.0272 H   0  0  0  0  0  0
  -26.2972  -29.6691   24.1384 H   0  0  0  0  0  0
  -27.3896  -29.7283   25.5018 H   0  0  0  0  0  0
  -27.8941  -30.4158   23.9771 H   0  0  0  0  0  0
  -27.2710  -33.3690   26.2039 H   0  0  0  0  0  0
  -28.3906  -32.6834   25.0347 H   0  0  0  0  0  0
  -28.0719  -31.8501   26.5479 H   0  0  0  0  0  0
  -28.2568  -38.0127   24.7572 H   0  0  0  0  0  0
  -28.1149  -36.2673   24.6189 H   0  0  0  0  0  0
  -27.2341  -37.1311   25.8855 H   0  0  0  0  0  0
  -20.9510  -29.8801   21.6751 H   0  0  0  0  0  0
  -26.0166  -38.2823   24.1425 H   0  0  0  0  0  0
  -30.5553  -21.4839   18.7976 H   0  0  0  0  0  0
  -31.8170  -19.5852   17.9858 H   0  0  0  0  0  0
  -28.3839  -18.7769   21.3866 H   0  0  0  0  0  0
  -27.7102  -24.4705   21.5309 H   0  0  0  0  0  0
  -26.9665  -24.2958   20.0064 H   0  0  0  0  0  0
  -29.8730  -23.3106   20.5136 H   0  0  0  0  0  0
  -28.9635  -23.0608   19.0659 H   0  0  0  0  0  0
  -28.8235  -16.0339   20.9287 H   0  0  0  0  0  0
  1 25  1  0  0  0
  1 30  2  0  0  0
  1 79  1  0  0  0
  2  3  1  0  0  0
  2 25  1  0  0  0
  2 82  1  0  0  0
  2 83  1  0  0  0
  3  4  1  0  0  0
  3 84  1  0  0  0
  3 85  1  0  0  0
  4  5  1  0  0  0
  4 86  1  0  0  0
  4 87  1  0  0  0
  5  6  1  0  0  0
  5 26  1  0  0  0
  5 88  1  0  0  0
  6 25  1  0  0  0
  6 89  1  0  0  0
  6 90  1  0  0  0
  7  8  2  0  0  0
  7 26  1  0  0  0
  7 29  1  0  0  0
  8  9  1  0  0  0
  8 22  1  0  0  0
  9 10  1  0  0  0
  9 27  2  0  0  0
 10 11  2  0  0  0
 10 15  1  0  0  0
 11 12  1  0  0  0
 11 91  1  0  0  0
 12 13  2  0  0  0
 12 92  1  0  0  0
 13 14  1  0  0  0
 13 31  1  0  0  0
 14 15  2  0  0  0
 14 93  1  0  0  0
 15 94  1  0  0  0
 16 17  2  0  0  0
 16 21  1  0  0  0
 16 31  1  0  0  0
 17 18  1  0  0  0
 17 95  1  0  0  0
 18 19  2  0  0  0
 18 96  1  0  0  0
 19 20  1  0  0  0
 19 24  1  0  0  0
 20 21  2  0  0  0
 20 97  1  0  0  0
 21 23  1  0  0  0
 22 28  1  0  0  0
 22 32  2  0  0  0
 26 27  1  0  0  0
 28 98  1  0  0  0
 28 99  1  0  0  0
 29100  1  0  0  0
 29101  1  0  0  0
 33 34  1  0  0  0
 33 66  1  0  0  0
 33 70  2  0  0  0
 34 36  1  0  0  0
 34 59  1  0  0  0
 34102  1  0  0  0
 35 44  2  0  0  0
 35 45  1  0  0  0
 35 68  1  0  0  0
 36 56  1  0  0  0
 36103  1  0  0  0
 37 39  1  0  0  0
 37 47  1  0  0  0
 37 66  1  0  0  0
 37104  1  0  0  0
 38 43  2  0  0  0
 38 46  1  0  0  0
 38 47  1  0  0  0
 39 64  1  0  0  0
 39 67  2  0  0  0
 40 52  1  0  0  0
 40 53  2  0  0  0
 40 58  1  0  0  0
 41105  1  0  0  0
 41106  1  0  0  0
 41107  1  0  0  0
 41 48  1  0  0  0
 42 43  1  0  0  0
 42 66  1  0  0  0
 42108  1  0  0  0
 42109  1  0  0  0
 43 44  1  0  0  0
 44110  1  0  0  0
 45 46  2  0  0  0
 45111  1  0  0  0
 46112  1  0  0  0
 47113  1  0  0  0
 47114  1  0  0  0
 48 56  1  0  0  0
 48 65  1  0  0  0
 48115  1  0  0  0
 49 50  1  0  0  0
 49 53  1  0  0  0
 49 64  1  0  0  0
 49116  1  0  0  0
 50 51  1  0  0  0
 50117  1  0  0  0
 50118  1  0  0  0
 51 52  1  0  0  0
 51119  1  0  0  0
 51120  1  0  0  0
 52121  1  0  0  0
 52122  1  0  0  0
 53 54  1  0  0  0
 54 55  2  0  0  0
 54123  1  0  0  0
 55 57  1  0  0  0
 55124  1  0  0  0
 56 69  2  0  0  0
 57 58  2  0  0  0
 57125  1  0  0  0
 58126  1  0  0  0
 59 60  1  0  0  0
 59 61  1  0  0  0
 59 62  1  0  0  0
 60127  1  0  0  0
 60128  1  0  0  0
 60129  1  0  0  0
 61130  1  0  0  0
 61131  1  0  0  0
 61132  1  0  0  0
 62133  1  0  0  0
 62134  1  0  0  0
 62135  1  0  0  0
 63 65  1  0  0  0
 63136  1  0  0  0
 63137  1  0  0  0
 63138  1  0  0  0
 64139  1  0  0  0
 65140  1  0  0  0
 68 77  1  0  0  0
 71 72  2  0  0  0
 71 75  1  0  0  0
 71141  1  0  0  0
 72 76  1  0  0  0
 72142  1  0  0  0
 73 74  1  0  0  0
 73 75  2  0  0  0
 73143  1  0  0  0
 74 76  2  0  0  0
 74 79  1  0  0  0
 75 80  1  0  0  0
 76 81  1  0  0  0
 77 78  1  0  0  0
 77144  1  0  0  0
 77145  1  0  0  0
 78 80  1  0  0  0
 78146  1  0  0  0
 78147  1  0  0  0
 79148  1  0  0  0
M  ISO  4   1 100  68 101  77 101  79 100
M  END
> <chiral flag>
0

> <version>
0

> <s_m_source_file>
/data/baiqing/PycharmProjects/Reinvent-master-3.2/result/LINK_invent/BTK/process_docking_weight1_custom_product_contain_oxygen_bond_distance_aromatic_linkinvent_7_9_3/rearranged_h_0009.sdf

> <i_m_source_file_index>
80

> <r_mmod_Potential_Energy-OPLS-2005>
633.688171386719

> <r_mmod_Stretch_Energy-OPLS-2005>
333.935974121094

> <r_mmod_Bend_Energy-OPLS-2005>
284.134338378906

> <r_mmod_Torsional_Energy-OPLS-2005>
227.697479248047

> <r_mmod_Improper_Torsional_Energy-OPLS-2005>
3.42818999290466

> <r_mmod_Van_der_Waal_Energy-OPLS-2005>
136.98274230957

> <r_mmod_Electrostatic_Energy-OPLS-2005>
-381.424957275391

> <r_mmod_Solvation_Energy-OPLS-2005>
-221.292602539062

> <b_mmod_Minimization_Converged-OPLS-2005>
0

> <r_mmod_RMS_Derivative-OPLS-2005>
3.83293390274048

$$$$
80
                    3D
 Structure written by MMmdl.
156165  0  0  1  0            999 V2000
  -30.5989  -14.7579   20.4680 C   0  0  0  0  0  0
  -30.4390  -12.4706   19.4641 C   0  0  0  0  0  0
  -29.5112  -12.5081   18.2298 C   0  0  0  0  0  0
  -28.0381  -12.3271   18.6473 C   0  0  0  0  0  0
  -27.6391  -13.2316   19.8435 C   0  0  2  0  0  0
  -28.6844  -13.1671   20.9763 C   0  0  0  0  0  0
  -25.2500  -13.8184   20.5692 C   0  0  0  0  0  0
  -24.1798  -13.0426   20.9205 C   0  0  0  0  0  0
  -24.6387  -11.6904   20.8730 C   0  0  0  0  0  0
  -23.9063  -10.4283   21.0397 C   0  0  0  0  0  0
  -24.3609   -9.4198   21.9180 C   0  0  0  0  0  0
  -23.6281   -8.2235   22.0757 C   0  0  0  0  0  0
  -22.4266   -8.0269   21.3544 C   0  0  0  0  0  0
  -21.9899   -9.0241   20.4653 C   0  0  0  0  0  0
  -22.7227  -10.2119   20.3055 C   0  0  0  0  0  0
  -21.6846   -6.0725   22.5279 C   0  0  0  0  0  0
  -21.4013   -6.5633   23.8210 C   0  0  0  0  0  0
  -21.3660   -5.6790   24.9174 C   0  0  0  0  0  0
  -21.6040   -4.3051   24.7229 C   0  0  0  0  0  0
  -21.8817   -3.8140   23.4350 C   0  0  0  0  0  0
  -21.9190   -4.6954   22.3403 C   0  0  0  0  0  0
  -22.7820  -13.5214   21.1857 C   0  0  0  0  0  0
  -22.1662   -4.2139   21.0981 F   0  0  0  0  0  0
  -21.5625   -3.4536   25.7742 F   0  0  0  0  0  0
  -29.9822  -13.5291   20.3926 N   0  0  0  0  0  0
  -26.2919  -12.9395   20.3236 N   0  0  0  0  0  0
  -25.9314  -11.6533   20.5709 N   0  0  0  0  0  0
  -22.0453  -12.8228   22.0418 N   0  0  0  0  0  0
  -25.4181  -15.1914   20.4144 N   0  0  0  0  0  0
  -31.7932  -14.8631   20.1761 O   0  0  0  0  0  0
  -21.6632   -6.8864   21.4239 O   0  0  0  0  0  0
  -22.3506  -14.5509   20.6677 O   0  0  0  0  0  0
  -24.6320  -31.8538   23.1965 C   0  0  0  0  0  0
  -25.9140  -32.4748   23.8319 C   0  0  1  0  0  0
  -27.2244  -27.2588   20.1402 C   0  0  0  0  0  0
  -25.5936  -33.8550   24.2250 N   0  0  0  0  0  0
  -23.4297  -30.4730   21.5410 C   0  0  2  0  0  0
  -24.8777  -28.9119   20.1152 C   0  0  0  0  0  0
  -22.7505  -29.4590   22.4933 C   0  0  0  0  0  0
  -18.0291  -28.1396   22.8485 C   0  0  0  0  0  0
  -24.1487  -36.7277   23.2641 C   0  0  0  0  0  0
  -25.9742  -30.7670   21.3740 C   0  0  0  0  0  0
  -26.0487  -29.3871   20.7198 C   0  0  0  0  0  0
  -27.2278  -28.5749   20.7135 C   0  0  0  0  0  0
  -26.0317  -26.8434   19.5145 C   0  0  0  0  0  0
  -24.8739  -27.6487   19.5003 C   0  0  0  0  0  0
  -23.6483  -29.8003   20.1594 C   0  0  0  0  0  0
  -25.4118  -36.3067   24.0325 C   0  0  1  0  0  0
  -20.5892  -28.3705   23.1279 C   0  0  2  0  0  0
  -20.6783  -26.9426   22.5414 C   0  0  0  0  0  0
  -19.5760  -26.6393   21.5219 C   0  0  0  0  0  0
  -18.1938  -26.7939   22.1627 C   0  0  0  0  0  0
  -19.1543  -28.8872   23.2874 C   0  0  0  0  0  0
  -18.9463  -30.1472   23.8889 C   0  0  0  0  0  0
  -17.6460  -30.6595   24.0566 C   0  0  0  0  0  0
  -25.9059  -34.9435   23.5092 C   0  0  0  0  0  0
  -16.5352  -29.9089   23.6335 C   0  0  0  0  0  0
  -16.7276  -28.6512   23.0352 C   0  0  0  0  0  0
  -26.4503  -31.6578   25.0714 C   0  0  0  0  0  0
  -25.3723  -31.3723   26.1433 C   0  0  0  0  0  0
  -27.0359  -30.2997   24.6200 C   0  0  0  0  0  0
  -27.6056  -32.4323   25.7488 C   0  0  0  0  0  0
  -27.5577  -37.1796   24.8467 C   0  0  0  0  0  0
  -21.4214  -29.3039   22.3667 N   0  0  0  0  0  0
  -26.4292  -37.3768   23.9407 N   0  0  0  0  0  0
  -24.6979  -31.0500   22.0937 N   0  0  0  0  0  0
  -23.4196  -28.8143   23.3052 O   0  0  0  0  0  0
  -28.3314  -26.3827   20.1543 O   0  0  0  0  0  0
  -26.5633  -34.8911   22.4660 O   0  0  0  0  0  0
  -23.5470  -32.1362   23.7262 O   0  0  0  0  0  0
  -28.2913  -19.4268   18.2258 C   0  0  0  0  0  0
  -28.8526  -18.3586   18.9539 C   0  0  0  0  0  0
  -28.3279  -20.7554   18.7039 C   0  0  0  0  0  0
  -29.4834  -18.5813   20.1917 C   0  0  0  0  0  0
  -28.9125  -21.0927   19.9467 C   0  0  0  0  0  0
  -29.4960  -19.9624   20.6773 C   0  0  0  0  0  0
  -29.1710  -24.5306   21.6428 C   0  0  0  0  0  0
  -29.1994  -22.9749   21.6914 C   0  0  0  0  0  0
  -28.3813  -23.6975   19.5741 C   0  0  0  0  0  0
  -28.1595  -24.9391   20.5559 C   0  0  2  0  0  0
  -30.2027  -17.3494   20.9113 C   0  0  0  0  0  0
  -28.8787  -22.5017   20.3494 N   0  0  0  0  0  0
  -29.8120  -15.8811   20.6879 N   0  0  0  0  0  0
  -30.1041  -20.1992   21.8653 F   0  0  0  0  0  0
  -31.4761  -12.6140   19.1547 H   0  0  0  0  0  0
  -30.4026  -11.4944   19.9504 H   0  0  0  0  0  0
  -29.7964  -11.7304   17.5193 H   0  0  0  0  0  0
  -29.6333  -13.4576   17.7068 H   0  0  0  0  0  0
  -27.9028  -11.2801   18.9205 H   0  0  0  0  0  0
  -27.3790  -12.5074   17.7975 H   0  0  0  0  0  0
  -27.6314  -14.2517   19.4584 H   0  0  0  0  0  0
  -28.7240  -12.1664   21.4083 H   0  0  0  0  0  0
  -28.4160  -13.8423   21.7904 H   0  0  0  0  0  0
  -25.2750   -9.5668   22.4767 H   0  0  0  0  0  0
  -23.9977   -7.4625   22.7483 H   0  0  0  0  0  0
  -21.0822   -8.8755   19.8975 H   0  0  0  0  0  0
  -22.3670  -10.9653   19.6171 H   0  0  0  0  0  0
  -21.2012   -7.6143   23.9708 H   0  0  0  0  0  0
  -21.1486   -6.0524   25.9073 H   0  0  0  0  0  0
  -22.0599   -2.7601   23.2852 H   0  0  0  0  0  0
  -22.4058  -11.9910   22.4854 H   0  0  0  0  0  0
  -21.1068  -13.1267   22.2598 H   0  0  0  0  0  0
  -24.6453  -15.8393   20.5247 H   0  0  0  0  0  0
  -26.2565  -15.6353   20.0638 H   0  0  0  0  0  0
  -26.7209  -32.5401   23.1065 H   0  0  0  0  0  0
  -25.0087  -33.9681   25.0399 H   0  0  0  0  0  0
  -22.7266  -31.2950   21.3910 H   0  0  0  0  0  0
  -23.3750  -35.9608   23.3310 H   0  0  0  0  0  0
  -24.3580  -36.8895   22.2055 H   0  0  0  0  0  0
  -23.7232  -37.6475   23.6663 H   0  0  0  0  0  0
  -26.1116  -31.5256   20.6025 H   0  0  0  0  0  0
  -26.8523  -30.8194   22.0062 H   0  0  0  0  0  0
  -28.1297  -28.9362   21.1869 H   0  0  0  0  0  0
  -25.9896  -25.8729   19.0404 H   0  0  0  0  0  0
  -23.9776  -27.2787   19.0220 H   0  0  0  0  0  0
  -23.7737  -30.5725   19.3997 H   0  0  0  0  0  0
  -22.7668  -29.2319   19.8576 H   0  0  0  0  0  0
  -25.1298  -36.1915   25.0817 H   0  0  0  0  0  0
  -20.9983  -28.3286   24.1402 H   0  0  0  0  0  0
  -20.5702  -26.2313   23.3617 H   0  0  0  0  0  0
  -21.6650  -26.7462   22.1198 H   0  0  0  0  0  0
  -19.6922  -25.6304   21.1255 H   0  0  0  0  0  0
  -19.6697  -27.3200   20.6747 H   0  0  0  0  0  0
  -17.4209  -26.6688   21.4027 H   0  0  0  0  0  0
  -18.0331  -26.0084   22.9027 H   0  0  0  0  0  0
  -19.7936  -30.7297   24.2253 H   0  0  0  0  0  0
  -17.5010  -31.6272   24.5174 H   0  0  0  0  0  0
  -15.5352  -30.2987   23.7671 H   0  0  0  0  0  0
  -15.8676  -28.0831   22.7067 H   0  0  0  0  0  0
  -24.5905  -30.7068   25.7752 H   0  0  0  0  0  0
  -24.8908  -32.2891   26.4846 H   0  0  0  0  0  0
  -25.8040  -30.8905   27.0215 H   0  0  0  0  0  0
  -26.2947  -29.6738   24.1218 H   0  0  0  0  0  0
  -27.4038  -29.7266   25.4721 H   0  0  0  0  0  0
  -27.8820  -30.4276   23.9446 H   0  0  0  0  0  0
  -27.2661  -33.3625   26.2055 H   0  0  0  0  0  0
  -28.3867  -32.6884   25.0318 H   0  0  0  0  0  0
  -28.0723  -31.8458   26.5413 H   0  0  0  0  0  0
  -28.2598  -38.0091   24.7513 H   0  0  0  0  0  0
  -28.1072  -36.2622   24.6297 H   0  0  0  0  0  0
  -27.2300  -37.1447   25.8873 H   0  0  0  0  0  0
  -20.9420  -29.8727   21.6827 H   0  0  0  0  0  0
  -26.0170  -38.2842   24.1407 H   0  0  0  0  0  0
  -27.8311  -19.2243   17.2687 H   0  0  0  0  0  0
  -28.8211  -17.3617   18.5369 H   0  0  0  0  0  0
  -27.8858  -21.5203   18.0835 H   0  0  0  0  0  0
  -30.1598  -24.8937   21.3592 H   0  0  0  0  0  0
  -28.9374  -24.9671   22.6144 H   0  0  0  0  0  0
  -28.4462  -22.6025   22.3882 H   0  0  0  0  0  0
  -30.1728  -22.6160   22.0288 H   0  0  0  0  0  0
  -27.4550  -23.4740   19.0442 H   0  0  0  0  0  0
  -29.1281  -23.9547   18.8216 H   0  0  0  0  0  0
  -27.1692  -24.8232   21.0002 H   0  0  0  0  0  0
  -30.1233  -17.5294   21.9847 H   0  0  0  0  0  0
  -31.2657  -17.4472   20.6884 H   0  0  0  0  0  0
  -28.8362  -15.6799   20.8438 H   0  0  0  0  0  0
  1 25  1  0  0  0
  1 30  2  0  0  0
  1 83  1  0  0  0
  2  3  1  0  0  0
  2 25  1  0  0  0
  2 85  1  0  0  0
  2 86  1  0  0  0
  3  4  1  0  0  0
  3 87  1  0  0  0
  3 88  1  0  0  0
  4  5  1  0  0  0
  4 89  1  0  0  0
  4 90  1  0  0  0
  5  6  1  0  0  0
  5 26  1  0  0  0
  5 91  1  0  0  0
  6 25  1  0  0  0
  6 92  1  0  0  0
  6 93  1  0  0  0
  7  8  2  0  0  0
  7 26  1  0  0  0
  7 29  1  0  0  0
  8  9  1  0  0  0
  8 22  1  0  0  0
  9 10  1  0  0  0
  9 27  2  0  0  0
 10 11  2  0  0  0
 10 15  1  0  0  0
 11 12  1  0  0  0
 11 94  1  0  0  0
 12 13  2  0  0  0
 12 95  1  0  0  0
 13 14  1  0  0  0
 13 31  1  0  0  0
 14 15  2  0  0  0
 14 96  1  0  0  0
 15 97  1  0  0  0
 16 17  2  0  0  0
 16 21  1  0  0  0
 16 31  1  0  0  0
 17 18  1  0  0  0
 17 98  1  0  0  0
 18 19  2  0  0  0
 18 99  1  0  0  0
 19 20  1  0  0  0
 19 24  1  0  0  0
 20 21  2  0  0  0
 20100  1  0  0  0
 21 23  1  0  0  0
 22 28  1  0  0  0
 22 32  2  0  0  0
 26 27  1  0  0  0
 28101  1  0  0  0
 28102  1  0  0  0
 29103  1  0  0  0
 29104  1  0  0  0
 33 34  1  0  0  0
 33 66  1  0  0  0
 33 70  2  0  0  0
 34 36  1  0  0  0
 34 59  1  0  0  0
 34105  1  0  0  0
 35 44  2  0  0  0
 35 45  1  0  0  0
 35 68  1  0  0  0
 36 56  1  0  0  0
 36106  1  0  0  0
 37 39  1  0  0  0
 37 47  1  0  0  0
 37 66  1  0  0  0
 37107  1  0  0  0
 38 43  2  0  0  0
 38 46  1  0  0  0
 38 47  1  0  0  0
 39 64  1  0  0  0
 39 67  2  0  0  0
 40 52  1  0  0  0
 40 53  2  0  0  0
 40 58  1  0  0  0
 41108  1  0  0  0
 41109  1  0  0  0
 41110  1  0  0  0
 41 48  1  0  0  0
 42 43  1  0  0  0
 42 66  1  0  0  0
 42111  1  0  0  0
 42112  1  0  0  0
 43 44  1  0  0  0
 44113  1  0  0  0
 45 46  2  0  0  0
 45114  1  0  0  0
 46115  1  0  0  0
 47116  1  0  0  0
 47117  1  0  0  0
 48 56  1  0  0  0
 48 65  1  0  0  0
 48118  1  0  0  0
 49 50  1  0  0  0
 49 53  1  0  0  0
 49 64  1  0  0  0
 49119  1  0  0  0
 50 51  1  0  0  0
 50120  1  0  0  0
 50121  1  0  0  0
 51 52  1  0  0  0
 51122  1  0  0  0
 51123  1  0  0  0
 52124  1  0  0  0
 52125  1  0  0  0
 53 54  1  0  0  0
 54 55  2  0  0  0
 54126  1  0  0  0
 55 57  1  0  0  0
 55127  1  0  0  0
 56 69  2  0  0  0
 57 58  2  0  0  0
 57128  1  0  0  0
 58129  1  0  0  0
 59 60  1  0  0  0
 59 61  1  0  0  0
 59 62  1  0  0  0
 60130  1  0  0  0
 60131  1  0  0  0
 60132  1  0  0  0
 61133  1  0  0  0
 61134  1  0  0  0
 61135  1  0  0  0
 62136  1  0  0  0
 62137  1  0  0  0
 62138  1  0  0  0
 63 65  1  0  0  0
 63139  1  0  0  0
 63140  1  0  0  0
 63141  1  0  0  0
 64142  1  0  0  0
 65143  1  0  0  0
 68 80  1  0  0  0
 71 72  2  0  0  0
 71 73  1  0  0  0
 71144  1  0  0  0
 72 74  1  0  0  0
 72145  1  0  0  0
 73 75  2  0  0  0
 73146  1  0  0  0
 74 76  2  0  0  0
 74 81  1  0  0  0
 75 76  1  0  0  0
 75 82  1  0  0  0
 76 84  1  0  0  0
 77 78  1  0  0  0
 77 80  1  0  0  0
 77147  1  0  0  0
 77148  1  0  0  0
 78 82  1  0  0  0
 78149  1  0  0  0
 78150  1  0  0  0
 79 80  1  0  0  0
 79 82  1  0  0  0
 79151  1  0  0  0
 79152  1  0  0  0
 80153  1  0  0  0
 81 83  1  0  0  0
 81154  1  0  0  0
 81155  1  0  0  0
 83156  1  0  0  0
M  ISO  4   1 100  68 101  80 101  83 100
M  END
> <chiral flag>
0

> <version>
0

> <s_m_source_file>
/data/baiqing/PycharmProjects/Reinvent-master-3.2/result/LINK_invent/BTK/process_docking_weight1_custom_product_contain_oxygen_bond_distance_aromatic_linkinvent_7_9_3/rearranged_h_0009.sdf

> <i_m_source_file_index>
81

> <r_mmod_Potential_Energy-OPLS-2005>
234.925384521484

> <r_mmod_Stretch_Energy-OPLS-2005>
122.806732177734

> <r_mmod_Bend_Energy-OPLS-2005>
209.213333129883

> <r_mmod_Torsional_Energy-OPLS-2005>
257.256561279297

> <r_mmod_Improper_Torsional_Energy-OPLS-2005>
4.48975849151611

> <r_mmod_Van_der_Waal_Energy-OPLS-2005>
130.774307250977

> <r_mmod_Electrostatic_Energy-OPLS-2005>
-351.848999023438

> <r_mmod_Solvation_Energy-OPLS-2005>
-225.77214050293

> <b_mmod_Minimization_Converged-OPLS-2005>
0

> <r_mmod_RMS_Derivative-OPLS-2005>
1.11645686626434

$$$$
81
                    3D
 Structure written by MMmdl.
161170  0  0  1  0            999 V2000
  -30.5648  -14.7889   20.4479 C   0  0  0  0  0  0
  -30.4409  -12.4848   19.4642 C   0  0  0  0  0  0
  -29.5146  -12.5127   18.2280 C   0  0  0  0  0  0
  -28.0402  -12.3267   18.6432 C   0  0  0  0  0  0
  -27.6376  -13.2288   19.8409 C   0  0  2  0  0  0
  -28.6828  -13.1691   20.9741 C   0  0  0  0  0  0
  -25.2503  -13.8183   20.5675 C   0  0  0  0  0  0
  -24.1799  -13.0432   20.9211 C   0  0  0  0  0  0
  -24.6386  -11.6908   20.8735 C   0  0  0  0  0  0
  -23.9055  -10.4289   21.0406 C   0  0  0  0  0  0
  -24.3613   -9.4206   21.9181 C   0  0  0  0  0  0
  -23.6288   -8.2240   22.0751 C   0  0  0  0  0  0
  -22.4266   -8.0278   21.3546 C   0  0  0  0  0  0
  -21.9900   -9.0251   20.4652 C   0  0  0  0  0  0
  -22.7224  -10.2131   20.3059 C   0  0  0  0  0  0
  -21.6853   -6.0727   22.5275 C   0  0  0  0  0  0
  -21.4019   -6.5635   23.8207 C   0  0  0  0  0  0
  -21.3661   -5.6790   24.9171 C   0  0  0  0  0  0
  -21.6042   -4.3052   24.7226 C   0  0  0  0  0  0
  -21.8818   -3.8141   23.4350 C   0  0  0  0  0  0
  -21.9196   -4.6955   22.3404 C   0  0  0  0  0  0
  -22.7827  -13.5226   21.1870 C   0  0  0  0  0  0
  -22.1661   -4.2147   21.0980 F   0  0  0  0  0  0
  -21.5631   -3.4535   25.7734 F   0  0  0  0  0  0
  -29.9741  -13.5447   20.3863 N   0  0  0  0  0  0
  -26.2911  -12.9375   20.3208 N   0  0  0  0  0  0
  -25.9309  -11.6522   20.5705 N   0  0  0  0  0  0
  -22.0460  -12.8226   22.0429 N   0  0  0  0  0  0
  -25.4187  -15.1909   20.4077 N   0  0  0  0  0  0
  -31.7672  -14.9086   20.1923 O   0  0  0  0  0  0
  -21.6637   -6.8871   21.4235 O   0  0  0  0  0  0
  -22.3519  -14.5529   20.6707 O   0  0  0  0  0  0
  -24.6328  -31.8536   23.1942 C   0  0  0  0  0  0
  -25.9160  -32.4731   23.8282 C   0  0  1  0  0  0
  -27.2110  -27.2375   20.1452 C   0  0  0  0  0  0
  -25.5966  -33.8524   24.2230 N   0  0  0  0  0  0
  -23.4288  -30.4737   21.5402 C   0  0  2  0  0  0
  -24.8754  -28.9118   20.1142 C   0  0  0  0  0  0
  -22.7505  -29.4589   22.4913 C   0  0  0  0  0  0
  -18.0308  -28.1363   22.8476 C   0  0  0  0  0  0
  -24.1505  -36.7255   23.2624 C   0  0  0  0  0  0
  -25.9753  -30.7595   21.3751 C   0  0  0  0  0  0
  -26.0478  -29.3774   20.7231 C   0  0  0  0  0  0
  -27.2229  -28.5556   20.7198 C   0  0  0  0  0  0
  -26.0189  -26.8408   19.5059 C   0  0  0  0  0  0
  -24.8677  -27.6523   19.4926 C   0  0  0  0  0  0
  -23.6463  -29.8000   20.1587 C   0  0  0  0  0  0
  -25.4132  -36.3043   24.0315 C   0  0  1  0  0  0
  -20.5908  -28.3682   23.1270 C   0  0  2  0  0  0
  -20.6791  -26.9395   22.5408 C   0  0  0  0  0  0
  -19.5771  -26.6371   21.5203 C   0  0  0  0  0  0
  -18.1954  -26.7903   22.1617 C   0  0  0  0  0  0
  -19.1553  -28.8845   23.2863 C   0  0  0  0  0  0
  -18.9467  -30.1449   23.8874 C   0  0  0  0  0  0
  -17.6462  -30.6559   24.0566 C   0  0  0  0  0  0
  -25.9078  -34.9419   23.5076 C   0  0  0  0  0  0
  -16.5359  -29.9054   23.6334 C   0  0  0  0  0  0
  -16.7296  -28.6475   23.0353 C   0  0  0  0  0  0
  -26.4536  -31.6534   25.0659 C   0  0  0  0  0  0
  -25.3760  -31.3678   26.1383 C   0  0  0  0  0  0
  -27.0363  -30.2937   24.6136 C   0  0  0  0  0  0
  -27.6102  -32.4253   25.7439 C   0  0  0  0  0  0
  -27.5593  -37.1771   24.8451 C   0  0  0  0  0  0
  -21.4213  -29.3017   22.3646 N   0  0  0  0  0  0
  -26.4293  -37.3756   23.9412 N   0  0  0  0  0  0
  -24.6980  -31.0482   22.0929 N   0  0  0  0  0  0
  -23.4203  -28.8152   23.3035 O   0  0  0  0  0  0
  -28.2946  -26.3278   20.1545 O   0  0  0  0  0  0
  -26.5636  -34.8908   22.4638 O   0  0  0  0  0  0
  -23.5480  -32.1373   23.7235 O   0  0  0  0  0  0
  -27.7433  -20.9237   22.6978 C   0  0  0  0  0  0
  -30.2651  -18.3854   19.6423 C   0  0  0  0  0  0
  -27.4433  -21.8624   21.4983 C   0  0  0  0  0  0
  -28.9979  -20.9261   19.7821 C   0  0  0  0  0  0
  -27.3091  -19.4462   22.5489 C   0  0  0  0  0  0
  -29.6075  -19.5767   20.4641 C   0  0  1  0  0  0
  -30.0189  -17.3964   20.8367 C   0  0  1  0  0  0
  -28.7801  -18.3630   21.0291 C   0  0  1  0  0  0
  -28.4871  -23.5403   19.8891 C   0  0  0  0  0  0
  -28.0990  -24.9218   20.6888 C   0  0  0  0  0  0
  -29.7382  -15.9008   20.5998 N   0  0  0  0  0  0
  -28.6229  -22.1672   20.6347 N   0  3  1  0  0  0
  -28.4093  -18.5527   22.3826 O   0  0  0  0  0  0
  -31.4790  -12.6343   19.1618 H   0  0  0  0  0  0
  -30.4064  -11.5097   19.9522 H   0  0  0  0  0  0
  -29.8061  -11.7362   17.5187 H   0  0  0  0  0  0
  -29.6297  -13.4638   17.7046 H   0  0  0  0  0  0
  -27.9038  -11.2779   18.9093 H   0  0  0  0  0  0
  -27.3826  -12.5117   17.7926 H   0  0  0  0  0  0
  -27.6264  -14.2469   19.4509 H   0  0  0  0  0  0
  -28.7326  -12.1698   21.4080 H   0  0  0  0  0  0
  -28.4104  -13.8418   21.7884 H   0  0  0  0  0  0
  -25.2761   -9.5690   22.4750 H   0  0  0  0  0  0
  -24.0003   -7.4638   22.7466 H   0  0  0  0  0  0
  -21.0832   -8.8770   19.8966 H   0  0  0  0  0  0
  -22.3676  -10.9671   19.6174 H   0  0  0  0  0  0
  -21.2009   -7.6141   23.9711 H   0  0  0  0  0  0
  -21.1484   -6.0519   25.9076 H   0  0  0  0  0  0
  -22.0596   -2.7604   23.2842 H   0  0  0  0  0  0
  -22.4065  -11.9896   22.4842 H   0  0  0  0  0  0
  -21.1080  -13.1272   22.2614 H   0  0  0  0  0  0
  -24.6413  -15.8341   20.5060 H   0  0  0  0  0  0
  -26.2478  -15.6284   20.0299 H   0  0  0  0  0  0
  -26.7207  -32.5389   23.0998 H   0  0  0  0  0  0
  -25.0162  -33.9649   25.0411 H   0  0  0  0  0  0
  -22.7250  -31.2954   21.3915 H   0  0  0  0  0  0
  -23.3783  -35.9563   23.3245 H   0  0  0  0  0  0
  -24.3597  -36.8927   22.2043 H   0  0  0  0  0  0
  -23.7232  -37.6432   23.6680 H   0  0  0  0  0  0
  -26.1150  -31.5163   20.6019 H   0  0  0  0  0  0
  -26.8518  -30.8101   22.0093 H   0  0  0  0  0  0
  -28.1247  -28.9105   21.1994 H   0  0  0  0  0  0
  -25.9692  -25.8738   19.0254 H   0  0  0  0  0  0
  -23.9711  -27.2944   19.0048 H   0  0  0  0  0  0
  -23.7616  -30.5713   19.3962 H   0  0  0  0  0  0
  -22.7651  -29.2267   19.8631 H   0  0  0  0  0  0
  -25.1306  -36.1877   25.0802 H   0  0  0  0  0  0
  -21.0010  -28.3261   24.1390 H   0  0  0  0  0  0
  -20.5692  -26.2278   23.3607 H   0  0  0  0  0  0
  -21.6666  -26.7411   22.1211 H   0  0  0  0  0  0
  -19.6945  -25.6286   21.1231 H   0  0  0  0  0  0
  -19.6726  -27.3187   20.6739 H   0  0  0  0  0  0
  -17.4235  -26.6657   21.4018 H   0  0  0  0  0  0
  -18.0361  -26.0027   22.8994 H   0  0  0  0  0  0
  -19.7938  -30.7280   24.2215 H   0  0  0  0  0  0
  -17.5012  -31.6240   24.5164 H   0  0  0  0  0  0
  -15.5354  -30.2953   23.7651 H   0  0  0  0  0  0
  -15.8699  -28.0795   22.7066 H   0  0  0  0  0  0
  -24.5984  -30.6970   25.7714 H   0  0  0  0  0  0
  -24.8895  -32.2838   26.4736 H   0  0  0  0  0  0
  -25.8090  -30.8921   27.0192 H   0  0  0  0  0  0
  -26.2917  -29.6682   24.1203 H   0  0  0  0  0  0
  -27.4081  -29.7198   25.4633 H   0  0  0  0  0  0
  -27.8794  -30.4168   23.9334 H   0  0  0  0  0  0
  -27.2731  -33.3570   26.1989 H   0  0  0  0  0  0
  -28.3946  -32.6774   25.0287 H   0  0  0  0  0  0
  -28.0741  -31.8381   26.5380 H   0  0  0  0  0  0
  -28.2567  -38.0113   24.7575 H   0  0  0  0  0  0
  -28.1146  -36.2650   24.6199 H   0  0  0  0  0  0
  -27.2317  -37.1314   25.8852 H   0  0  0  0  0  0
  -20.9398  -29.8675   21.6794 H   0  0  0  0  0  0
  -26.0171  -38.2825   24.1439 H   0  0  0  0  0  0
  -27.1644  -21.3158   23.5360 H   0  0  0  0  0  0
  -28.7797  -21.0001   23.0286 H   0  0  0  0  0  0
  -31.3167  -18.5391   19.3977 H   0  0  0  0  0  0
  -29.7032  -18.1250   18.7414 H   0  0  0  0  0  0
  -27.0789  -22.7909   21.9332 H   0  0  0  0  0  0
  -26.6121  -21.4907   20.8970 H   0  0  0  0  0  0
  -28.1300  -20.6608   19.1786 H   0  0  0  0  0  0
  -29.7340  -21.2808   19.0604 H   0  0  0  0  0  0
  -26.5526  -19.3140   21.7728 H   0  0  0  0  0  0
  -26.8196  -19.1416   23.4753 H   0  0  0  0  0  0
  -30.3357  -19.8795   21.2187 H   0  0  0  0  0  0
  -30.7647  -17.5509   21.6186 H   0  0  0  0  0  0
  -27.9355  -18.0839   20.3920 H   0  0  0  0  0  0
  -29.4385  -23.7177   19.3888 H   0  0  0  0  0  0
  -27.7599  -23.4104   19.0872 H   0  0  0  0  0  0
  -28.6782  -24.9111   21.6125 H   0  0  0  0  0  0
  -27.0662  -24.8353   21.0259 H   0  0  0  0  0  0
  -28.7673  -15.6495   20.7087 H   0  0  0  0  0  0
  -29.3980  -22.3066   21.2668 H   0  0  0  0  0  0
  1 25  1  0  0  0
  1 30  2  0  0  0
  1 81  1  0  0  0
  2  3  1  0  0  0
  2 25  1  0  0  0
  2 84  1  0  0  0
  2 85  1  0  0  0
  3  4  1  0  0  0
  3 86  1  0  0  0
  3 87  1  0  0  0
  4  5  1  0  0  0
  4 88  1  0  0  0
  4 89  1  0  0  0
  5  6  1  0  0  0
  5 26  1  0  0  0
  5 90  1  0  0  0
  6 25  1  0  0  0
  6 91  1  0  0  0
  6 92  1  0  0  0
  7  8  2  0  0  0
  7 26  1  0  0  0
  7 29  1  0  0  0
  8  9  1  0  0  0
  8 22  1  0  0  0
  9 10  1  0  0  0
  9 27  2  0  0  0
 10 11  2  0  0  0
 10 15  1  0  0  0
 11 12  1  0  0  0
 11 93  1  0  0  0
 12 13  2  0  0  0
 12 94  1  0  0  0
 13 14  1  0  0  0
 13 31  1  0  0  0
 14 15  2  0  0  0
 14 95  1  0  0  0
 15 96  1  0  0  0
 16 17  2  0  0  0
 16 21  1  0  0  0
 16 31  1  0  0  0
 17 18  1  0  0  0
 17 97  1  0  0  0
 18 19  2  0  0  0
 18 98  1  0  0  0
 19 20  1  0  0  0
 19 24  1  0  0  0
 20 21  2  0  0  0
 20 99  1  0  0  0
 21 23  1  0  0  0
 22 28  1  0  0  0
 22 32  2  0  0  0
 26 27  1  0  0  0
 28100  1  0  0  0
 28101  1  0  0  0
 29102  1  0  0  0
 29103  1  0  0  0
 33 34  1  0  0  0
 33 66  1  0  0  0
 33 70  2  0  0  0
 34 36  1  0  0  0
 34 59  1  0  0  0
 34104  1  0  0  0
 35 44  2  0  0  0
 35 45  1  0  0  0
 35 68  1  0  0  0
 36 56  1  0  0  0
 36105  1  0  0  0
 37 39  1  0  0  0
 37 47  1  0  0  0
 37 66  1  0  0  0
 37106  1  0  0  0
 38 43  2  0  0  0
 38 46  1  0  0  0
 38 47  1  0  0  0
 39 64  1  0  0  0
 39 67  2  0  0  0
 40 52  1  0  0  0
 40 53  2  0  0  0
 40 58  1  0  0  0
 41107  1  0  0  0
 41108  1  0  0  0
 41109  1  0  0  0
 41 48  1  0  0  0
 42 43  1  0  0  0
 42 66  1  0  0  0
 42110  1  0  0  0
 42111  1  0  0  0
 43 44  1  0  0  0
 44112  1  0  0  0
 45 46  2  0  0  0
 45113  1  0  0  0
 46114  1  0  0  0
 47115  1  0  0  0
 47116  1  0  0  0
 48 56  1  0  0  0
 48 65  1  0  0  0
 48117  1  0  0  0
 49 50  1  0  0  0
 49 53  1  0  0  0
 49 64  1  0  0  0
 49118  1  0  0  0
 50 51  1  0  0  0
 50119  1  0  0  0
 50120  1  0  0  0
 51 52  1  0  0  0
 51121  1  0  0  0
 51122  1  0  0  0
 52123  1  0  0  0
 52124  1  0  0  0
 53 54  1  0  0  0
 54 55  2  0  0  0
 54125  1  0  0  0
 55 57  1  0  0  0
 55126  1  0  0  0
 56 69  2  0  0  0
 57 58  2  0  0  0
 57127  1  0  0  0
 58128  1  0  0  0
 59 60  1  0  0  0
 59 61  1  0  0  0
 59 62  1  0  0  0
 60129  1  0  0  0
 60130  1  0  0  0
 60131  1  0  0  0
 61132  1  0  0  0
 61133  1  0  0  0
 61134  1  0  0  0
 62135  1  0  0  0
 62136  1  0  0  0
 62137  1  0  0  0
 63 65  1  0  0  0
 63138  1  0  0  0
 63139  1  0  0  0
 63140  1  0  0  0
 64141  1  0  0  0
 65142  1  0  0  0
 68 80  1  0  0  0
 71 73  1  0  0  0
 71 75  1  0  0  0
 71143  1  0  0  0
 71144  1  0  0  0
 72 77  1  0  0  0
 72145  1  0  0  0
 72146  1  0  0  0
 72 76  1  0  0  0
 73 82  1  0  0  0
 73147  1  0  0  0
 73148  1  0  0  0
 74 76  1  0  0  0
 74 82  1  0  0  0
 74149  1  0  0  0
 74150  1  0  0  0
 75 83  1  0  0  0
 75151  1  0  0  0
 75152  1  0  0  0
 76 78  1  0  0  0
 76153  1  0  0  0
 77 78  1  0  0  0
 77 81  1  0  0  0
 77154  1  0  0  0
 78 83  1  0  0  0
 78155  1  0  0  0
 79 80  1  0  0  0
 79156  1  0  0  0
 79157  1  0  0  0
 79 82  1  0  0  0
 80158  1  0  0  0
 80159  1  0  0  0
 81160  1  0  0  0
 82161  1  0  0  0
M  CHG  1  82   1
M  ISO  4   1 100  68 101  80 101  81 100
M  END
> <chiral flag>
0

> <version>
0

> <s_m_source_file>
/data/baiqing/PycharmProjects/Reinvent-master-3.2/result/LINK_invent/BTK/process_docking_weight1_custom_product_contain_oxygen_bond_distance_aromatic_linkinvent_7_9_3/rearranged_h_0009.sdf

> <i_m_source_file_index>
82

> <r_mmod_Potential_Energy-OPLS-2005>
168.811859130859

> <r_mmod_Stretch_Energy-OPLS-2005>
143.925582885742

> <r_mmod_Bend_Energy-OPLS-2005>
222.67724609375

> <r_mmod_Torsional_Energy-OPLS-2005>
281.912017822266

> <r_mmod_Improper_Torsional_Energy-OPLS-2005>
4.70352172851562

> <r_mmod_Van_der_Waal_Energy-OPLS-2005>
118.289237976074

> <r_mmod_Electrostatic_Energy-OPLS-2005>
-261.003356933594

> <r_mmod_Solvation_Energy-OPLS-2005>
-446.252563476562

> <b_mmod_Minimization_Converged-OPLS-2005>
0

> <r_mmod_RMS_Derivative-OPLS-2005>
2.06228542327881

$$$$
82
                    3D
 Structure written by MMmdl.
154162  0  0  1  0            999 V2000
  -30.6213  -14.6271   20.5098 C   0  0  0  0  0  0
  -30.4410  -12.3855   19.4486 C   0  0  0  0  0  0
  -29.5075  -12.5077   18.2227 C   0  0  0  0  0  0
  -28.0303  -12.3466   18.6352 C   0  0  0  0  0  0
  -27.6565  -13.2129   19.8671 C   0  0  2  0  0  0
  -28.7011  -13.0517   20.9952 C   0  0  0  0  0  0
  -25.2580  -13.8165   20.5688 C   0  0  0  0  0  0
  -24.1839  -13.0439   20.9194 C   0  0  0  0  0  0
  -24.6398  -11.6906   20.8746 C   0  0  0  0  0  0
  -23.9063  -10.4293   21.0411 C   0  0  0  0  0  0
  -24.3618   -9.4207   21.9186 C   0  0  0  0  0  0
  -23.6294   -8.2242   22.0753 C   0  0  0  0  0  0
  -22.4275   -8.0283   21.3546 C   0  0  0  0  0  0
  -21.9911   -9.0255   20.4647 C   0  0  0  0  0  0
  -22.7238  -10.2135   20.3057 C   0  0  0  0  0  0
  -21.6851   -6.0738   22.5280 C   0  0  0  0  0  0
  -21.4012   -6.5643   23.8214 C   0  0  0  0  0  0
  -21.3659   -5.6793   24.9176 C   0  0  0  0  0  0
  -21.6043   -4.3056   24.7225 C   0  0  0  0  0  0
  -21.8820   -3.8150   23.4345 C   0  0  0  0  0  0
  -21.9193   -4.6967   22.3403 C   0  0  0  0  0  0
  -22.7861  -13.5236   21.1856 C   0  0  0  0  0  0
  -22.1662   -4.2154   21.0980 F   0  0  0  0  0  0
  -21.5629   -3.4538   25.7736 F   0  0  0  0  0  0
  -30.0190  -13.3978   20.4368 N   0  0  0  0  0  0
  -26.3007  -12.9337   20.3335 N   0  0  0  0  0  0
  -25.9327  -11.6495   20.5765 N   0  0  0  0  0  0
  -22.0499  -12.8228   22.0411 N   0  0  0  0  0  0
  -25.4303  -15.1882   20.4089 N   0  0  0  0  0  0
  -31.7757  -14.8014   20.1079 O   0  0  0  0  0  0
  -21.6638   -6.8879   21.4242 O   0  0  0  0  0  0
  -22.3550  -14.5545   20.6706 O   0  0  0  0  0  0
  -24.6246  -31.8612   23.2045 C   0  0  0  0  0  0
  -25.9097  -32.4787   23.8370 C   0  0  1  0  0  0
  -27.2223  -27.3283   20.1153 C   0  0  0  0  0  0
  -25.5925  -33.8589   24.2300 N   0  0  0  0  0  0
  -23.4182  -30.4863   21.5461 C   0  0  2  0  0  0
  -24.8646  -28.9443   20.1119 C   0  0  0  0  0  0
  -22.7472  -29.4635   22.4937 C   0  0  0  0  0  0
  -18.0292  -28.1377   22.8484 C   0  0  0  0  0  0
  -24.1491  -36.7289   23.2640 C   0  0  0  0  0  0
  -25.9593  -30.7936   21.3767 C   0  0  0  0  0  0
  -26.0332  -29.4222   20.7189 C   0  0  0  0  0  0
  -27.2160  -28.6253   20.7125 C   0  0  0  0  0  0
  -26.0357  -26.9115   19.4696 C   0  0  0  0  0  0
  -24.8674  -27.6936   19.4782 C   0  0  0  0  0  0
  -23.6327  -29.8234   20.1607 C   0  0  0  0  0  0
  -25.4115  -36.3087   24.0336 C   0  0  1  0  0  0
  -20.5892  -28.3681   23.1278 C   0  0  2  0  0  0
  -20.6782  -26.9407   22.5403 C   0  0  0  0  0  0
  -19.5760  -26.6377   21.5203 C   0  0  0  0  0  0
  -18.1940  -26.7923   22.1614 C   0  0  0  0  0  0
  -19.1545  -28.8843   23.2878 C   0  0  0  0  0  0
  -18.9469  -30.1446   23.8891 C   0  0  0  0  0  0
  -17.6470  -30.6580   24.0560 C   0  0  0  0  0  0
  -25.9046  -34.9455   23.5115 C   0  0  0  0  0  0
  -16.5359  -29.9080   23.6328 C   0  0  0  0  0  0
  -16.7279  -28.6498   23.0347 C   0  0  0  0  0  0
  -26.4489  -31.6593   25.0733 C   0  0  0  0  0  0
  -25.3729  -31.3724   26.1464 C   0  0  0  0  0  0
  -27.0341  -30.3027   24.6173 C   0  0  0  0  0  0
  -27.6055  -32.4320   25.7495 C   0  0  0  0  0  0
  -27.5581  -37.1802   24.8468 C   0  0  0  0  0  0
  -21.4187  -29.3042   22.3677 N   0  0  0  0  0  0
  -26.4294  -37.3779   23.9410 N   0  0  0  0  0  0
  -24.6859  -31.0637   22.0991 N   0  0  0  0  0  0
  -23.4201  -28.8175   23.3011 O   0  0  0  0  0  0
  -28.3375  -26.4783   20.1418 O   0  0  0  0  0  0
  -26.5607  -34.8918   22.4675 O   0  0  0  0  0  0
  -23.5411  -32.1405   23.7378 O   0  0  0  0  0  0
  -30.9266  -17.8507   20.2018 C   0  0  0  0  0  0
  -30.8488  -19.2686   20.0680 C   0  0  0  0  0  0
  -28.7210  -17.8673   21.1405 C   0  0  0  0  0  0
  -28.6320  -19.2897   21.0079 C   0  0  0  0  0  0
  -29.8522  -17.1053   20.7449 C   0  0  0  0  0  0
  -29.7188  -20.0427   20.4550 C   0  0  0  0  0  0
  -27.3362  -19.9310   21.4781 C   0  0  0  0  0  0
  -29.1941  -23.9568   20.1819 C   0  0  0  0  0  0
  -28.0922  -25.0573   20.4854 C   0  0  0  0  0  0
  -28.8155  -22.4519   20.5453 C   0  0  0  0  0  0
  -29.8099  -15.6526   20.9151 N   0  0  0  0  0  0
  -29.8276  -21.4398   20.2390 O   0  0  0  0  0  0
  -31.4815  -12.5139   19.1453 H   0  0  0  0  0  0
  -30.3785  -11.3860   19.8816 H   0  0  0  0  0  0
  -29.7692  -11.7590   17.4739 H   0  0  0  0  0  0
  -29.6508  -13.4788   17.7459 H   0  0  0  0  0  0
  -27.8651  -11.2928   18.8626 H   0  0  0  0  0  0
  -27.3747  -12.5806   17.7956 H   0  0  0  0  0  0
  -27.6800  -14.2507   19.5341 H   0  0  0  0  0  0
  -28.7101  -12.0245   21.3627 H   0  0  0  0  0  0
  -28.4455  -13.6688   21.8577 H   0  0  0  0  0  0
  -25.2763   -9.5681   22.4761 H   0  0  0  0  0  0
  -24.0005   -7.4629   22.7468 H   0  0  0  0  0  0
  -21.0844   -8.8773   19.8950 H   0  0  0  0  0  0
  -22.3699  -10.9675   19.6168 H   0  0  0  0  0  0
  -21.2003   -7.6150   23.9720 H   0  0  0  0  0  0
  -21.1480   -6.0522   25.9078 H   0  0  0  0  0  0
  -22.0600   -2.7612   23.2842 H   0  0  0  0  0  0
  -22.4112  -11.9886   22.4794 H   0  0  0  0  0  0
  -21.1118  -13.1256   22.2617 H   0  0  0  0  0  0
  -24.6594  -15.8400   20.5062 H   0  0  0  0  0  0
  -26.2712  -15.6219   20.0503 H   0  0  0  0  0  0
  -26.7164  -32.5458   23.1119 H   0  0  0  0  0  0
  -25.0103  -33.9745   25.0467 H   0  0  0  0  0  0
  -22.7117  -31.3069   21.4049 H   0  0  0  0  0  0
  -23.3755  -35.9618   23.3302 H   0  0  0  0  0  0
  -24.3591  -36.8901   22.2055 H   0  0  0  0  0  0
  -23.7241  -37.6493   23.6654 H   0  0  0  0  0  0
  -26.0941  -31.5591   20.6113 H   0  0  0  0  0  0
  -26.8383  -30.8390   22.0077 H   0  0  0  0  0  0
  -28.1124  -28.9870   21.1967 H   0  0  0  0  0  0
  -25.9883  -25.9730   18.9389 H   0  0  0  0  0  0
  -23.9766  -27.3278   18.9858 H   0  0  0  0  0  0
  -23.7523  -30.6005   19.4048 H   0  0  0  0  0  0
  -22.7524  -29.2533   19.8571 H   0  0  0  0  0  0
  -25.1298  -36.1939   25.0830 H   0  0  0  0  0  0
  -20.9986  -28.3245   24.1396 H   0  0  0  0  0  0
  -20.5679  -26.2292   23.3602 H   0  0  0  0  0  0
  -21.6653  -26.7436   22.1199 H   0  0  0  0  0  0
  -19.6923  -25.6287   21.1234 H   0  0  0  0  0  0
  -19.6693  -27.3186   20.6732 H   0  0  0  0  0  0
  -17.4213  -26.6659   21.4016 H   0  0  0  0  0  0
  -18.0343  -26.0069   22.9014 H   0  0  0  0  0  0
  -19.7948  -30.7262   24.2252 H   0  0  0  0  0  0
  -17.5030  -31.6263   24.5158 H   0  0  0  0  0  0
  -15.5362  -30.2980   23.7661 H   0  0  0  0  0  0
  -15.8679  -28.0817   22.7058 H   0  0  0  0  0  0
  -24.5904  -30.7072   25.7796 H   0  0  0  0  0  0
  -24.8919  -32.2888   26.4891 H   0  0  0  0  0  0
  -25.8060  -30.8905   27.0238 H   0  0  0  0  0  0
  -26.2924  -29.6768   24.1201 H   0  0  0  0  0  0
  -27.4069  -29.7286   25.4664 H   0  0  0  0  0  0
  -27.8773  -30.4336   23.9388 H   0  0  0  0  0  0
  -27.2679  -33.3623   26.2074 H   0  0  0  0  0  0
  -28.3861  -32.6867   25.0315 H   0  0  0  0  0  0
  -28.0724  -31.8442   26.5408 H   0  0  0  0  0  0
  -28.2599  -38.0098   24.7517 H   0  0  0  0  0  0
  -28.1079  -36.2632   24.6293 H   0  0  0  0  0  0
  -27.2303  -37.1449   25.8872 H   0  0  0  0  0  0
  -20.9357  -29.8775   21.6902 H   0  0  0  0  0  0
  -26.0174  -38.2854   24.1407 H   0  0  0  0  0  0
  -31.8272  -17.3502   19.8760 H   0  0  0  0  0  0
  -31.6993  -19.7836   19.6447 H   0  0  0  0  0  0
  -27.8769  -17.3384   21.5610 H   0  0  0  0  0  0
  -26.6440  -19.1860   21.8713 H   0  0  0  0  0  0
  -26.8213  -20.4256   20.6561 H   0  0  0  0  0  0
  -27.5159  -20.6403   22.2842 H   0  0  0  0  0  0
  -30.1099  -24.2260   20.7081 H   0  0  0  0  0  0
  -29.4370  -24.0011   19.1203 H   0  0  0  0  0  0
  -27.8834  -25.0333   21.5555 H   0  0  0  0  0  0
  -27.1846  -24.6847   20.0185 H   0  0  0  0  0  0
  -27.9017  -22.2050   20.0075 H   0  0  0  0  0  0
  -28.5972  -22.4168   21.6113 H   0  0  0  0  0  0
  -28.9350  -15.3089   21.2800 H   0  0  0  0  0  0
  1 25  1  0  0  0
  1 30  2  0  0  0
  1 81  1  0  0  0
  2  3  1  0  0  0
  2 25  1  0  0  0
  2 83  1  0  0  0
  2 84  1  0  0  0
  3  4  1  0  0  0
  3 85  1  0  0  0
  3 86  1  0  0  0
  4  5  1  0  0  0
  4 87  1  0  0  0
  4 88  1  0  0  0
  5  6  1  0  0  0
  5 26  1  0  0  0
  5 89  1  0  0  0
  6 25  1  0  0  0
  6 90  1  0  0  0
  6 91  1  0  0  0
  7  8  2  0  0  0
  7 26  1  0  0  0
  7 29  1  0  0  0
  8  9  1  0  0  0
  8 22  1  0  0  0
  9 10  1  0  0  0
  9 27  2  0  0  0
 10 11  2  0  0  0
 10 15  1  0  0  0
 11 12  1  0  0  0
 11 92  1  0  0  0
 12 13  2  0  0  0
 12 93  1  0  0  0
 13 14  1  0  0  0
 13 31  1  0  0  0
 14 15  2  0  0  0
 14 94  1  0  0  0
 15 95  1  0  0  0
 16 17  2  0  0  0
 16 21  1  0  0  0
 16 31  1  0  0  0
 17 18  1  0  0  0
 17 96  1  0  0  0
 18 19  2  0  0  0
 18 97  1  0  0  0
 19 20  1  0  0  0
 19 24  1  0  0  0
 20 21  2  0  0  0
 20 98  1  0  0  0
 21 23  1  0  0  0
 22 28  1  0  0  0
 22 32  2  0  0  0
 26 27  1  0  0  0
 28 99  1  0  0  0
 28100  1  0  0  0
 29101  1  0  0  0
 29102  1  0  0  0
 33 34  1  0  0  0
 33 66  1  0  0  0
 33 70  2  0  0  0
 34 36  1  0  0  0
 34 59  1  0  0  0
 34103  1  0  0  0
 35 44  2  0  0  0
 35 45  1  0  0  0
 35 68  1  0  0  0
 36 56  1  0  0  0
 36104  1  0  0  0
 37 39  1  0  0  0
 37 47  1  0  0  0
 37 66  1  0  0  0
 37105  1  0  0  0
 38 43  2  0  0  0
 38 46  1  0  0  0
 38 47  1  0  0  0
 39 64  1  0  0  0
 39 67  2  0  0  0
 40 52  1  0  0  0
 40 53  2  0  0  0
 40 58  1  0  0  0
 41106  1  0  0  0
 41107  1  0  0  0
 41108  1  0  0  0
 41 48  1  0  0  0
 42 43  1  0  0  0
 42 66  1  0  0  0
 42109  1  0  0  0
 42110  1  0  0  0
 43 44  1  0  0  0
 44111  1  0  0  0
 45 46  2  0  0  0
 45112  1  0  0  0
 46113  1  0  0  0
 47114  1  0  0  0
 47115  1  0  0  0
 48 56  1  0  0  0
 48 65  1  0  0  0
 48116  1  0  0  0
 49 50  1  0  0  0
 49 53  1  0  0  0
 49 64  1  0  0  0
 49117  1  0  0  0
 50 51  1  0  0  0
 50118  1  0  0  0
 50119  1  0  0  0
 51 52  1  0  0  0
 51120  1  0  0  0
 51121  1  0  0  0
 52122  1  0  0  0
 52123  1  0  0  0
 53 54  1  0  0  0
 54 55  2  0  0  0
 54124  1  0  0  0
 55 57  1  0  0  0
 55125  1  0  0  0
 56 69  2  0  0  0
 57 58  2  0  0  0
 57126  1  0  0  0
 58127  1  0  0  0
 59 60  1  0  0  0
 59 61  1  0  0  0
 59 62  1  0  0  0
 60128  1  0  0  0
 60129  1  0  0  0
 60130  1  0  0  0
 61131  1  0  0  0
 61132  1  0  0  0
 61133  1  0  0  0
 62134  1  0  0  0
 62135  1  0  0  0
 62136  1  0  0  0
 63 65  1  0  0  0
 63137  1  0  0  0
 63138  1  0  0  0
 63139  1  0  0  0
 64140  1  0  0  0
 65141  1  0  0  0
 68 79  1  0  0  0
 71 72  2  0  0  0
 71 75  1  0  0  0
 71142  1  0  0  0
 72 76  1  0  0  0
 72143  1  0  0  0
 73 74  1  0  0  0
 73 75  2  0  0  0
 73144  1  0  0  0
 74 76  2  0  0  0
 74 77  1  0  0  0
 75 81  1  0  0  0
 76 82  1  0  0  0
 77145  1  0  0  0
 77146  1  0  0  0
 77147  1  0  0  0
 78 79  1  0  0  0
 78 80  1  0  0  0
 78148  1  0  0  0
 78149  1  0  0  0
 79150  1  0  0  0
 79151  1  0  0  0
 80 82  1  0  0  0
 80152  1  0  0  0
 80153  1  0  0  0
 81154  1  0  0  0
M  ISO  4   1 100  68 101  79 101  81 100
M  END
> <chiral flag>
0

> <version>
0

> <s_m_source_file>
/data/baiqing/PycharmProjects/Reinvent-master-3.2/result/LINK_invent/BTK/process_docking_weight1_custom_product_contain_oxygen_bond_distance_aromatic_linkinvent_7_9_3/rearranged_h_0009.sdf

> <i_m_source_file_index>
83

> <r_mmod_Potential_Energy-OPLS-2005>
50.58642578125

> <r_mmod_Stretch_Energy-OPLS-2005>
77.116455078125

> <r_mmod_Bend_Energy-OPLS-2005>
161.402847290039

> <r_mmod_Torsional_Energy-OPLS-2005>
217.915832519531

> <r_mmod_Improper_Torsional_Energy-OPLS-2005>
3.7882080078125

> <r_mmod_Van_der_Waal_Energy-OPLS-2005>
149.665542602539

> <r_mmod_Electrostatic_Energy-OPLS-2005>
-391.825958251953

> <r_mmod_Solvation_Energy-OPLS-2005>
-211.656326293945

> <b_mmod_Minimization_Converged-OPLS-2005>
0

> <r_mmod_RMS_Derivative-OPLS-2005>
0.548246562480927

$$$$
83
                    3D
 Structure written by MMmdl.
163172  0  0  1  0            999 V2000
  -30.6795  -14.7319   20.4714 C   0  0  0  0  0  0
  -30.4157  -12.4676   19.4482 C   0  0  0  0  0  0
  -29.4893  -12.5070   18.2172 C   0  0  0  0  0  0
  -28.0189  -12.3369   18.6439 C   0  0  0  0  0  0
  -27.6367  -13.2338   19.8533 C   0  0  2  0  0  0
  -28.6961  -13.1542   20.9746 C   0  0  0  0  0  0
  -25.2482  -13.8203   20.5722 C   0  0  0  0  0  0
  -24.1780  -13.0440   20.9224 C   0  0  0  0  0  0
  -24.6382  -11.6921   20.8773 C   0  0  0  0  0  0
  -23.9066  -10.4293   21.0417 C   0  0  0  0  0  0
  -24.3618   -9.4205   21.9190 C   0  0  0  0  0  0
  -23.6294   -8.2239   22.0755 C   0  0  0  0  0  0
  -22.4277   -8.0279   21.3543 C   0  0  0  0  0  0
  -21.9914   -9.0254   20.4646 C   0  0  0  0  0  0
  -22.7241  -10.2134   20.3061 C   0  0  0  0  0  0
  -21.6853   -6.0735   22.5279 C   0  0  0  0  0  0
  -21.4014   -6.5640   23.8212 C   0  0  0  0  0  0
  -21.3660   -5.6792   24.9175 C   0  0  0  0  0  0
  -21.6045   -4.3055   24.7226 C   0  0  0  0  0  0
  -21.8819   -3.8147   23.4347 C   0  0  0  0  0  0
  -21.9192   -4.6963   22.3402 C   0  0  0  0  0  0
  -22.7801  -13.5217   21.1870 C   0  0  0  0  0  0
  -22.1661   -4.2149   21.0980 F   0  0  0  0  0  0
  -21.5630   -3.4539   25.7738 F   0  0  0  0  0  0
  -29.9691  -13.5506   20.3616 N   0  0  0  0  0  0
  -26.2922  -12.9419   20.3359 N   0  0  0  0  0  0
  -25.9319  -11.6557   20.5812 N   0  0  0  0  0  0
  -22.0448  -12.8208   22.0426 N   0  0  0  0  0  0
  -25.4143  -15.1923   20.4105 N   0  0  0  0  0  0
  -31.8886  -14.6766   20.2248 O   0  0  0  0  0  0
  -21.6640   -6.8877   21.4240 O   0  0  0  0  0  0
  -22.3486  -14.5521   20.6714 O   0  0  0  0  0  0
  -24.6308  -31.8568   23.2002 C   0  0  0  0  0  0
  -25.9138  -32.4762   23.8342 C   0  0  1  0  0  0
  -27.2119  -27.2709   20.1209 C   0  0  0  0  0  0
  -25.5937  -33.8564   24.2264 N   0  0  0  0  0  0
  -23.4260  -30.4817   21.5443 C   0  0  2  0  0  0
  -24.8704  -28.9336   20.1097 C   0  0  0  0  0  0
  -22.7499  -29.4613   22.4919 C   0  0  0  0  0  0
  -18.0291  -28.1388   22.8485 C   0  0  0  0  0  0
  -24.1490  -36.7285   23.2640 C   0  0  0  0  0  0
  -25.9725  -30.7728   21.3788 C   0  0  0  0  0  0
  -26.0438  -29.3977   20.7176 C   0  0  0  0  0  0
  -27.2187  -28.5797   20.7109 C   0  0  0  0  0  0
  -26.0133  -26.8766   19.4819 C   0  0  0  0  0  0
  -24.8602  -27.6812   19.4813 C   0  0  0  0  0  0
  -23.6423  -29.8200   20.1591 C   0  0  0  0  0  0
  -25.4117  -36.3074   24.0326 C   0  0  1  0  0  0
  -20.5895  -28.3698   23.1271 C   0  0  2  0  0  0
  -20.6780  -26.9417   22.5407 C   0  0  0  0  0  0
  -19.5754  -26.6385   21.5213 C   0  0  0  0  0  0
  -18.1935  -26.7930   22.1626 C   0  0  0  0  0  0
  -19.1545  -28.8860   23.2873 C   0  0  0  0  0  0
  -18.9466  -30.1461   23.8891 C   0  0  0  0  0  0
  -17.6464  -30.6588   24.0563 C   0  0  0  0  0  0
  -25.9058  -34.9444   23.5097 C   0  0  0  0  0  0
  -16.5356  -29.9085   23.6332 C   0  0  0  0  0  0
  -16.7278  -28.6503   23.0353 C   0  0  0  0  0  0
  -26.4504  -31.6585   25.0729 C   0  0  0  0  0  0
  -25.3724  -31.3733   26.1447 C   0  0  0  0  0  0
  -27.0354  -30.3001   24.6217 C   0  0  0  0  0  0
  -27.6055  -32.4328   25.7504 C   0  0  0  0  0  0
  -27.5579  -37.1801   24.8466 C   0  0  0  0  0  0
  -21.4208  -29.3047   22.3662 N   0  0  0  0  0  0
  -26.4292  -37.3772   23.9407 N   0  0  0  0  0  0
  -24.6957  -31.0544   22.0974 N   0  0  0  0  0  0
  -23.4207  -28.8147   23.3008 O   0  0  0  0  0  0
  -28.3030  -26.3738   20.1801 O   0  0  0  0  0  0
  -26.5629  -34.8915   22.4665 O   0  0  0  0  0  0
  -23.5461  -32.1386   23.7303 O   0  0  0  0  0  0
  -30.2765  -18.5003   19.6061 C   0  0  0  0  0  0
  -28.1759  -17.7832   20.6012 C   0  0  0  0  0  0
  -28.1797  -20.0607   19.3871 C   0  0  0  0  0  0
  -29.2932  -19.9636   21.5790 C   0  0  0  0  0  0
  -30.9407  -17.2247   20.2547 C   0  0  0  0  0  0
  -28.8818  -16.5018   21.2066 C   0  0  0  0  0  0
  -28.6454  -21.5625   19.2247 C   0  0  0  0  0  0
  -29.7146  -21.4768   21.3630 C   0  0  0  0  0  0
  -29.0141  -19.0869   20.3077 C   0  0  0  0  0  0
  -29.1516  -23.8035   20.4298 C   0  0  0  0  0  0
  -28.0287  -24.8985   20.0665 C   0  0  0  0  0  0
  -30.0809  -16.0107   20.4768 N   0  0  0  0  0  0
  -28.7786  -22.3017   20.5189 N   0  3  0  0  0  0
  -31.4524  -12.5758   19.1257 H   0  0  0  0  0  0
  -30.3657  -11.4955   19.9413 H   0  0  0  0  0  0
  -29.7665  -11.7260   17.5078 H   0  0  0  0  0  0
  -29.6128  -13.4561   17.6930 H   0  0  0  0  0  0
  -27.8749  -11.2876   18.9042 H   0  0  0  0  0  0
  -27.3546  -12.5335   17.8016 H   0  0  0  0  0  0
  -27.6299  -14.2566   19.4761 H   0  0  0  0  0  0
  -28.7572  -12.1368   21.3640 H   0  0  0  0  0  0
  -28.4487  -13.7662   21.8394 H   0  0  0  0  0  0
  -25.2760   -9.5683   22.4770 H   0  0  0  0  0  0
  -24.0003   -7.4630   22.7473 H   0  0  0  0  0  0
  -21.0845   -8.8774   19.8951 H   0  0  0  0  0  0
  -22.3698  -10.9676   19.6173 H   0  0  0  0  0  0
  -21.2006   -7.6148   23.9716 H   0  0  0  0  0  0
  -21.1482   -6.0522   25.9078 H   0  0  0  0  0  0
  -22.0598   -2.7609   23.2847 H   0  0  0  0  0  0
  -22.4068  -11.9871   22.4816 H   0  0  0  0  0  0
  -21.1064  -13.1229   22.2630 H   0  0  0  0  0  0
  -24.6463  -15.8447   20.5228 H   0  0  0  0  0  0
  -26.2672  -15.6335   20.0933 H   0  0  0  0  0  0
  -26.7204  -32.5411   23.1083 H   0  0  0  0  0  0
  -25.0079  -33.9703   25.0406 H   0  0  0  0  0  0
  -22.7220  -31.3041   21.4014 H   0  0  0  0  0  0
  -23.3753  -35.9617   23.3303 H   0  0  0  0  0  0
  -24.3579  -36.8908   22.2054 H   0  0  0  0  0  0
  -23.7242  -37.6486   23.6664 H   0  0  0  0  0  0
  -26.1127  -31.5359   20.6119 H   0  0  0  0  0  0
  -26.8497  -30.8181   22.0127 H   0  0  0  0  0  0
  -28.1166  -28.9297   21.2008 H   0  0  0  0  0  0
  -25.9273  -25.9238   18.9829 H   0  0  0  0  0  0
  -23.9621  -27.3223   18.9974 H   0  0  0  0  0  0
  -23.7670  -30.5984   19.4054 H   0  0  0  0  0  0
  -22.7599  -29.2551   19.8530 H   0  0  0  0  0  0
  -25.1299  -36.1923   25.0819 H   0  0  0  0  0  0
  -20.9987  -28.3275   24.1392 H   0  0  0  0  0  0
  -20.5685  -26.2307   23.3611 H   0  0  0  0  0  0
  -21.6647  -26.7445   22.1197 H   0  0  0  0  0  0
  -19.6916  -25.6295   21.1244 H   0  0  0  0  0  0
  -19.6690  -27.3194   20.6741 H   0  0  0  0  0  0
  -17.4204  -26.6676   21.4029 H   0  0  0  0  0  0
  -18.0336  -26.0073   22.9024 H   0  0  0  0  0  0
  -19.7941  -30.7280   24.2257 H   0  0  0  0  0  0
  -17.5018  -31.6267   24.5166 H   0  0  0  0  0  0
  -15.5356  -30.2985   23.7660 H   0  0  0  0  0  0
  -15.8678  -28.0821   22.7071 H   0  0  0  0  0  0
  -24.5903  -30.7080   25.7773 H   0  0  0  0  0  0
  -24.8911  -32.2902   26.4860 H   0  0  0  0  0  0
  -25.8038  -30.8919   27.0232 H   0  0  0  0  0  0
  -26.2942  -29.6746   24.1230 H   0  0  0  0  0  0
  -27.4022  -29.7268   25.4741 H   0  0  0  0  0  0
  -27.8825  -30.4276   23.9473 H   0  0  0  0  0  0
  -27.2659  -33.3632   26.2069 H   0  0  0  0  0  0
  -28.3872  -32.6884   25.0338 H   0  0  0  0  0  0
  -28.0716  -31.8464   26.5432 H   0  0  0  0  0  0
  -28.2597  -38.0097   24.7509 H   0  0  0  0  0  0
  -28.1074  -36.2627   24.6298 H   0  0  0  0  0  0
  -27.2295  -37.1456   25.8869 H   0  0  0  0  0  0
  -20.9391  -29.8775   21.6873 H   0  0  0  0  0  0
  -26.0172  -38.2846   24.1404 H   0  0  0  0  0  0
  -30.0092  -18.2323   18.5827 H   0  0  0  0  0  0
  -31.0292  -19.2833   19.5059 H   0  0  0  0  0  0
  -27.3261  -18.0400   21.2354 H   0  0  0  0  0  0
  -27.7266  -17.4654   19.6587 H   0  0  0  0  0  0
  -28.0854  -19.6214   18.3932 H   0  0  0  0  0  0
  -27.1586  -20.0905   19.7702 H   0  0  0  0  0  0
  -28.3909  -19.9706   22.1918 H   0  0  0  0  0  0
  -30.0449  -19.4704   22.1960 H   0  0  0  0  0  0
  -31.3791  -17.5007   21.2149 H   0  0  0  0  0  0
  -31.7886  -16.9815   19.6126 H   0  0  0  0  0  0
  -28.1197  -15.7342   21.2608 H   0  0  0  0  0  0
  -29.1736  -16.7033   22.2383 H   0  0  0  0  0  0
  -27.9319  -22.0904   18.5912 H   0  0  0  0  0  0
  -29.5987  -21.5911   18.6949 H   0  0  0  0  0  0
  -30.7103  -21.5106   20.9182 H   0  0  0  0  0  0
  -29.8110  -21.9491   22.3412 H   0  0  0  0  0  0
  -29.5373  -24.0912   21.4079 H   0  0  0  0  0  0
  -29.9934  -23.9147   19.7460 H   0  0  0  0  0  0
  -27.1630  -24.6830   20.6943 H   0  0  0  0  0  0
  -27.7206  -24.6964   19.0406 H   0  0  0  0  0  0
  -27.8806  -22.2600   20.9799 H   0  0  0  0  0  0
  1 25  1  0  0  0
  1 30  2  0  0  0
  1 82  1  0  0  0
  2  3  1  0  0  0
  2 25  1  0  0  0
  2 84  1  0  0  0
  2 85  1  0  0  0
  3  4  1  0  0  0
  3 86  1  0  0  0
  3 87  1  0  0  0
  4  5  1  0  0  0
  4 88  1  0  0  0
  4 89  1  0  0  0
  5  6  1  0  0  0
  5 26  1  0  0  0
  5 90  1  0  0  0
  6 25  1  0  0  0
  6 91  1  0  0  0
  6 92  1  0  0  0
  7  8  2  0  0  0
  7 26  1  0  0  0
  7 29  1  0  0  0
  8  9  1  0  0  0
  8 22  1  0  0  0
  9 10  1  0  0  0
  9 27  2  0  0  0
 10 11  2  0  0  0
 10 15  1  0  0  0
 11 12  1  0  0  0
 11 93  1  0  0  0
 12 13  2  0  0  0
 12 94  1  0  0  0
 13 14  1  0  0  0
 13 31  1  0  0  0
 14 15  2  0  0  0
 14 95  1  0  0  0
 15 96  1  0  0  0
 16 17  2  0  0  0
 16 21  1  0  0  0
 16 31  1  0  0  0
 17 18  1  0  0  0
 17 97  1  0  0  0
 18 19  2  0  0  0
 18 98  1  0  0  0
 19 20  1  0  0  0
 19 24  1  0  0  0
 20 21  2  0  0  0
 20 99  1  0  0  0
 21 23  1  0  0  0
 22 28  1  0  0  0
 22 32  2  0  0  0
 26 27  1  0  0  0
 28100  1  0  0  0
 28101  1  0  0  0
 29102  1  0  0  0
 29103  1  0  0  0
 33 34  1  0  0  0
 33 66  1  0  0  0
 33 70  2  0  0  0
 34 36  1  0  0  0
 34 59  1  0  0  0
 34104  1  0  0  0
 35 44  2  0  0  0
 35 45  1  0  0  0
 35 68  1  0  0  0
 36 56  1  0  0  0
 36105  1  0  0  0
 37 39  1  0  0  0
 37 47  1  0  0  0
 37 66  1  0  0  0
 37106  1  0  0  0
 38 43  2  0  0  0
 38 46  1  0  0  0
 38 47  1  0  0  0
 39 64  1  0  0  0
 39 67  2  0  0  0
 40 52  1  0  0  0
 40 53  2  0  0  0
 40 58  1  0  0  0
 41107  1  0  0  0
 41108  1  0  0  0
 41109  1  0  0  0
 41 48  1  0  0  0
 42 43  1  0  0  0
 42 66  1  0  0  0
 42110  1  0  0  0
 42111  1  0  0  0
 43 44  1  0  0  0
 44112  1  0  0  0
 45 46  2  0  0  0
 45113  1  0  0  0
 46114  1  0  0  0
 47115  1  0  0  0
 47116  1  0  0  0
 48 56  1  0  0  0
 48 65  1  0  0  0
 48117  1  0  0  0
 49 50  1  0  0  0
 49 53  1  0  0  0
 49 64  1  0  0  0
 49118  1  0  0  0
 50 51  1  0  0  0
 50119  1  0  0  0
 50120  1  0  0  0
 51 52  1  0  0  0
 51121  1  0  0  0
 51122  1  0  0  0
 52123  1  0  0  0
 52124  1  0  0  0
 53 54  1  0  0  0
 54 55  2  0  0  0
 54125  1  0  0  0
 55 57  1  0  0  0
 55126  1  0  0  0
 56 69  2  0  0  0
 57 58  2  0  0  0
 57127  1  0  0  0
 58128  1  0  0  0
 59 60  1  0  0  0
 59 61  1  0  0  0
 59 62  1  0  0  0
 60129  1  0  0  0
 60130  1  0  0  0
 60131  1  0  0  0
 61132  1  0  0  0
 61133  1  0  0  0
 61134  1  0  0  0
 62135  1  0  0  0
 62136  1  0  0  0
 62137  1  0  0  0
 63 65  1  0  0  0
 63138  1  0  0  0
 63139  1  0  0  0
 63140  1  0  0  0
 64141  1  0  0  0
 65142  1  0  0  0
 68 81  1  0  0  0
 71 75  1  0  0  0
 71143  1  0  0  0
 71144  1  0  0  0
 71 79  1  0  0  0
 72 76  1  0  0  0
 72 79  1  0  0  0
 72145  1  0  0  0
 72146  1  0  0  0
 73 77  1  0  0  0
 73 79  1  0  0  0
 73147  1  0  0  0
 73148  1  0  0  0
 74 78  1  0  0  0
 74 79  1  0  0  0
 74149  1  0  0  0
 74150  1  0  0  0
 75 82  1  0  0  0
 75151  1  0  0  0
 75152  1  0  0  0
 76 82  1  0  0  0
 76153  1  0  0  0
 76154  1  0  0  0
 77 83  1  0  0  0
 77155  1  0  0  0
 77156  1  0  0  0
 78 83  1  0  0  0
 78157  1  0  0  0
 78158  1  0  0  0
 80 81  1  0  0  0
 80159  1  0  0  0
 80160  1  0  0  0
 80 83  1  0  0  0
 81161  1  0  0  0
 81162  1  0  0  0
 83163  1  0  0  0
M  CHG  1  83   1
M  ISO  4   1 100  68 101  81 101  82 100
M  END
> <chiral flag>
0

> <version>
0

> <s_m_source_file>
/data/baiqing/PycharmProjects/Reinvent-master-3.2/result/LINK_invent/BTK/process_docking_weight1_custom_product_contain_oxygen_bond_distance_aromatic_linkinvent_7_9_3/rearranged_h_0009.sdf

> <i_m_source_file_index>
84

> <r_mmod_Potential_Energy-OPLS-2005>
340.579406738281

> <r_mmod_Stretch_Energy-OPLS-2005>
114.526351928711

> <r_mmod_Bend_Energy-OPLS-2005>
211.32292175293

> <r_mmod_Torsional_Energy-OPLS-2005>
345.194122314453

> <r_mmod_Improper_Torsional_Energy-OPLS-2005>
11.9003200531006

> <r_mmod_Van_der_Waal_Energy-OPLS-2005>
138.781845092773

> <r_mmod_Electrostatic_Energy-OPLS-2005>
-142.654190063477

> <r_mmod_Solvation_Energy-OPLS-2005>
-421.931793212891

> <b_mmod_Minimization_Converged-OPLS-2005>
0

> <r_mmod_RMS_Derivative-OPLS-2005>
0.132576197385788

$$$$
84
                    3D
 Structure written by MMmdl.
160169  0  0  1  0            999 V2000
  -30.6310  -14.6272   20.4782 C   0  0  0  0  0  0
  -30.4377  -12.3850   19.4383 C   0  0  0  0  0  0
  -29.4996  -12.5112   18.2172 C   0  0  0  0  0  0
  -28.0296  -12.3298   18.6457 C   0  0  0  0  0  0
  -27.6557  -13.2094   19.8684 C   0  0  2  0  0  0
  -28.7076  -13.0658   20.9941 C   0  0  0  0  0  0
  -25.2601  -13.8152   20.5732 C   0  0  0  0  0  0
  -24.1853  -13.0431   20.9241 C   0  0  0  0  0  0
  -24.6410  -11.6899   20.8786 C   0  0  0  0  0  0
  -23.9063  -10.4291   21.0436 C   0  0  0  0  0  0
  -24.3608   -9.4200   21.9209 C   0  0  0  0  0  0
  -23.6290   -8.2235   22.0760 C   0  0  0  0  0  0
  -22.4277   -8.0289   21.3552 C   0  0  0  0  0  0
  -21.9915   -9.0259   20.4652 C   0  0  0  0  0  0
  -22.7237  -10.2141   20.3075 C   0  0  0  0  0  0
  -21.6855   -6.0747   22.5298 C   0  0  0  0  0  0
  -21.4008   -6.5645   23.8235 C   0  0  0  0  0  0
  -21.3652   -5.6789   24.9190 C   0  0  0  0  0  0
  -21.6055   -4.3061   24.7234 C   0  0  0  0  0  0
  -21.8807   -3.8158   23.4349 C   0  0  0  0  0  0
  -21.9187   -4.6978   22.3411 C   0  0  0  0  0  0
  -22.7876  -13.5250   21.1860 C   0  0  0  0  0  0
  -22.1665   -4.2170   21.0993 F   0  0  0  0  0  0
  -21.5615   -3.4544   25.7744 F   0  0  0  0  0  0
  -30.0216  -13.4035   20.4208 N   0  0  0  0  0  0
  -26.3023  -12.9315   20.3391 N   0  0  0  0  0  0
  -25.9338  -11.6485   20.5811 N   0  0  0  0  0  0
  -22.0478  -12.8262   22.0406 N   0  0  0  0  0  0
  -25.4306  -15.1849   20.4073 N   0  0  0  0  0  0
  -31.7994  -14.7868   20.1158 O   0  0  0  0  0  0
  -21.6638   -6.8890   21.4259 O   0  0  0  0  0  0
  -22.3594  -14.5576   20.6713 O   0  0  0  0  0  0
  -24.6261  -31.8616   23.2077 C   0  0  0  0  0  0
  -25.9124  -32.4784   23.8407 C   0  0  1  0  0  0
  -27.2169  -27.3207   20.1118 C   0  0  0  0  0  0
  -25.5968  -33.8591   24.2338 N   0  0  0  0  0  0
  -23.4183  -30.4906   21.5467 C   0  0  2  0  0  0
  -24.8634  -28.9491   20.1106 C   0  0  0  0  0  0
  -22.7465  -29.4644   22.4911 C   0  0  0  0  0  0
  -18.0289  -28.1371   22.8493 C   0  0  0  0  0  0
  -24.1485  -36.7268   23.2640 C   0  0  0  0  0  0
  -25.9644  -30.7883   21.3852 C   0  0  0  0  0  0
  -26.0339  -29.4214   20.7169 C   0  0  0  0  0  0
  -27.2121  -28.6181   20.7111 C   0  0  0  0  0  0
  -26.0229  -26.9063   19.4755 C   0  0  0  0  0  0
  -24.8586  -27.6942   19.4863 C   0  0  0  0  0  0
  -23.6338  -29.8337   20.1597 C   0  0  0  0  0  0
  -25.4109  -36.3093   24.0348 C   0  0  1  0  0  0
  -20.5898  -28.3672   23.1266 C   0  0  2  0  0  0
  -20.6789  -26.9400   22.5376 C   0  0  0  0  0  0
  -19.5769  -26.6397   21.5180 C   0  0  0  0  0  0
  -18.1943  -26.7935   22.1592 C   0  0  0  0  0  0
  -19.1545  -28.8841   23.2882 C   0  0  0  0  0  0
  -18.9470  -30.1446   23.8906 C   0  0  0  0  0  0
  -17.6477  -30.6588   24.0564 C   0  0  0  0  0  0
  -25.9057  -34.9455   23.5134 C   0  0  0  0  0  0
  -16.5365  -29.9076   23.6351 C   0  0  0  0  0  0
  -16.7277  -28.6483   23.0393 C   0  0  0  0  0  0
  -26.4523  -31.6601   25.0783 C   0  0  0  0  0  0
  -25.3769  -31.3717   26.1514 C   0  0  0  0  0  0
  -27.0402  -30.3044   24.6254 C   0  0  0  0  0  0
  -27.6099  -32.4352   25.7517 C   0  0  0  0  0  0
  -27.5575  -37.1791   24.8478 C   0  0  0  0  0  0
  -21.4183  -29.3018   22.3643 N   0  0  0  0  0  0
  -26.4293  -37.3785   23.9419 N   0  0  0  0  0  0
  -24.6876  -31.0647   22.1014 N   0  0  0  0  0  0
  -23.4192  -28.8174   23.2983 O   0  0  0  0  0  0
  -28.3320  -26.4689   20.1669 O   0  0  0  0  0  0
  -26.5593  -34.8903   22.4682 O   0  0  0  0  0  0
  -23.5432  -32.1392   23.7415 O   0  0  0  0  0  0
  -30.9304  -19.3271   20.9606 C   0  0  0  0  0  0
  -28.9330  -17.8003   19.7657 C   0  0  0  0  0  0
  -29.9240  -20.0261   20.2356 C   0  0  0  0  0  0
  -29.9327  -17.1065   20.5014 C   0  0  0  0  0  0
  -30.9447  -17.9056   21.0907 C   0  0  0  0  0  0
  -28.9345  -19.2198   19.6190 C   0  0  0  0  0  0
  -28.1216  -23.2608   22.6097 C   0  0  0  0  0  0
  -29.2457  -24.1587   22.0964 C   0  0  0  0  0  0
  -28.1017  -22.0811   21.6282 C   0  0  0  0  0  0
  -29.1707  -23.9864   20.5734 C   0  0  2  0  0  0
  -30.0065  -21.5927   20.0586 C   0  0  0  0  0  0
  -28.1181  -25.0155   19.9605 C   0  0  0  0  0  0
  -29.7960  -15.6743   20.7401 N   0  0  0  0  0  0
  -28.8364  -22.5033   20.4028 N   0  3  1  0  0  0
  -31.9149  -17.3206   21.8320 F   0  0  0  0  0  0
  -27.9657  -19.8117   18.8785 F   0  0  0  0  0  0
  -31.4766  -12.5084   19.1300 H   0  0  0  0  0  0
  -30.3677  -11.3867   19.8752 H   0  0  0  0  0  0
  -29.7620  -11.7719   17.4593 H   0  0  0  0  0  0
  -29.6278  -13.4876   17.7468 H   0  0  0  0  0  0
  -27.8916  -11.2761   18.8957 H   0  0  0  0  0  0
  -27.3584  -12.5356   17.8108 H   0  0  0  0  0  0
  -27.6710  -14.2430   19.5218 H   0  0  0  0  0  0
  -28.7257  -12.0441   21.3769 H   0  0  0  0  0  0
  -28.4614  -13.6984   21.8486 H   0  0  0  0  0  0
  -25.2728   -9.5692   22.4812 H   0  0  0  0  0  0
  -24.0008   -7.4622   22.7464 H   0  0  0  0  0  0
  -21.0859   -8.8775   19.8949 H   0  0  0  0  0  0
  -22.3693  -10.9692   19.6207 H   0  0  0  0  0  0
  -21.2008   -7.6159   23.9751 H   0  0  0  0  0  0
  -21.1483   -6.0519   25.9095 H   0  0  0  0  0  0
  -22.0591   -2.7624   23.2845 H   0  0  0  0  0  0
  -22.4042  -11.9910   22.4809 H   0  0  0  0  0  0
  -21.1098  -13.1325   22.2576 H   0  0  0  0  0  0
  -24.6541  -15.8307   20.4942 H   0  0  0  0  0  0
  -26.2624  -15.6185   20.0298 H   0  0  0  0  0  0
  -26.7184  -32.5439   23.1136 H   0  0  0  0  0  0
  -25.0256  -33.9780   25.0583 H   0  0  0  0  0  0
  -22.7108  -31.3116   21.4079 H   0  0  0  0  0  0
  -23.3779  -35.9575   23.3332 H   0  0  0  0  0  0
  -24.3567  -36.8848   22.2046 H   0  0  0  0  0  0
  -23.7193  -37.6462   23.6633 H   0  0  0  0  0  0
  -26.1224  -31.5610   20.6321 H   0  0  0  0  0  0
  -26.8345  -30.8127   22.0289 H   0  0  0  0  0  0
  -28.1074  -28.9740   21.2019 H   0  0  0  0  0  0
  -25.9531  -25.9592   18.9642 H   0  0  0  0  0  0
  -23.9593  -27.3236   19.0157 H   0  0  0  0  0  0
  -23.7586  -30.6160   19.4093 H   0  0  0  0  0  0
  -22.7504  -29.2698   19.8547 H   0  0  0  0  0  0
  -25.1277  -36.1959   25.0842 H   0  0  0  0  0  0
  -21.0014  -28.3250   24.1383 H   0  0  0  0  0  0
  -20.5710  -26.2264   23.3554 H   0  0  0  0  0  0
  -21.6658  -26.7450   22.1159 H   0  0  0  0  0  0
  -19.6940  -25.6317   21.1198 H   0  0  0  0  0  0
  -19.6744  -27.3219   20.6729 H   0  0  0  0  0  0
  -17.4221  -26.6714   21.3973 H   0  0  0  0  0  0
  -18.0342  -26.0040   22.8957 H   0  0  0  0  0  0
  -19.7945  -30.7258   24.2285 H   0  0  0  0  0  0
  -17.5030  -31.6277   24.5136 H   0  0  0  0  0  0
  -15.5375  -30.2987   23.7670 H   0  0  0  0  0  0
  -15.8663  -28.0793   22.7148 H   0  0  0  0  0  0
  -24.5980  -30.7012   25.7859 H   0  0  0  0  0  0
  -24.8935  -32.2867   26.4954 H   0  0  0  0  0  0
  -25.8139  -30.8911   27.0275 H   0  0  0  0  0  0
  -26.3004  -29.6760   24.1293 H   0  0  0  0  0  0
  -27.4103  -29.7320   25.4765 H   0  0  0  0  0  0
  -27.8860  -30.4348   23.9503 H   0  0  0  0  0  0
  -27.2751  -33.3672   26.2061 H   0  0  0  0  0  0
  -28.3913  -32.6876   25.0347 H   0  0  0  0  0  0
  -28.0760  -31.8505   26.5447 H   0  0  0  0  0  0
  -28.2615  -38.0070   24.7549 H   0  0  0  0  0  0
  -28.1059  -36.2609   24.6309 H   0  0  0  0  0  0
  -27.2301  -37.1451   25.8886 H   0  0  0  0  0  0
  -20.9343  -29.8696   21.6832 H   0  0  0  0  0  0
  -26.0184  -38.2862   24.1446 H   0  0  0  0  0  0
  -31.7256  -19.8860   21.4337 H   0  0  0  0  0  0
  -28.1428  -17.2356   19.2941 H   0  0  0  0  0  0
  -27.1723  -23.7960   22.5860 H   0  0  0  0  0  0
  -28.2765  -22.9385   23.6402 H   0  0  0  0  0  0
  -30.1980  -23.7782   22.4673 H   0  0  0  0  0  0
  -29.1583  -25.1957   22.4242 H   0  0  0  0  0  0
  -27.0789  -21.7982   21.3732 H   0  0  0  0  0  0
  -28.5576  -21.2115   22.1028 H   0  0  0  0  0  0
  -30.1401  -24.2028   20.1227 H   0  0  0  0  0  0
  -30.3062  -21.7978   19.0306 H   0  0  0  0  0  0
  -30.8494  -21.9244   20.6642 H   0  0  0  0  0  0
  -27.1473  -24.7427   20.3772 H   0  0  0  0  0  0
  -28.0449  -24.8394   18.8859 H   0  0  0  0  0  0
  -28.8592  -15.3734   20.9544 H   0  0  0  0  0  0
  -28.1979  -22.4126   19.6261 H   0  0  0  0  0  0
  1 25  1  0  0  0
  1 30  2  0  0  0
  1 83  1  0  0  0
  2  3  1  0  0  0
  2 25  1  0  0  0
  2 87  1  0  0  0
  2 88  1  0  0  0
  3  4  1  0  0  0
  3 89  1  0  0  0
  3 90  1  0  0  0
  4  5  1  0  0  0
  4 91  1  0  0  0
  4 92  1  0  0  0
  5  6  1  0  0  0
  5 26  1  0  0  0
  5 93  1  0  0  0
  6 25  1  0  0  0
  6 94  1  0  0  0
  6 95  1  0  0  0
  7  8  2  0  0  0
  7 26  1  0  0  0
  7 29  1  0  0  0
  8  9  1  0  0  0
  8 22  1  0  0  0
  9 10  1  0  0  0
  9 27  2  0  0  0
 10 11  2  0  0  0
 10 15  1  0  0  0
 11 12  1  0  0  0
 11 96  1  0  0  0
 12 13  2  0  0  0
 12 97  1  0  0  0
 13 14  1  0  0  0
 13 31  1  0  0  0
 14 15  2  0  0  0
 14 98  1  0  0  0
 15 99  1  0  0  0
 16 17  2  0  0  0
 16 21  1  0  0  0
 16 31  1  0  0  0
 17 18  1  0  0  0
 17100  1  0  0  0
 18 19  2  0  0  0
 18101  1  0  0  0
 19 20  1  0  0  0
 19 24  1  0  0  0
 20 21  2  0  0  0
 20102  1  0  0  0
 21 23  1  0  0  0
 22 28  1  0  0  0
 22 32  2  0  0  0
 26 27  1  0  0  0
 28103  1  0  0  0
 28104  1  0  0  0
 29105  1  0  0  0
 29106  1  0  0  0
 33 34  1  0  0  0
 33 66  1  0  0  0
 33 70  2  0  0  0
 34 36  1  0  0  0
 34 59  1  0  0  0
 34107  1  0  0  0
 35 44  2  0  0  0
 35 45  1  0  0  0
 35 68  1  0  0  0
 36 56  1  0  0  0
 36108  1  0  0  0
 37 39  1  0  0  0
 37 47  1  0  0  0
 37 66  1  0  0  0
 37109  1  0  0  0
 38 43  2  0  0  0
 38 46  1  0  0  0
 38 47  1  0  0  0
 39 64  1  0  0  0
 39 67  2  0  0  0
 40 52  1  0  0  0
 40 53  2  0  0  0
 40 58  1  0  0  0
 41110  1  0  0  0
 41111  1  0  0  0
 41112  1  0  0  0
 41 48  1  0  0  0
 42 43  1  0  0  0
 42 66  1  0  0  0
 42113  1  0  0  0
 42114  1  0  0  0
 43 44  1  0  0  0
 44115  1  0  0  0
 45 46  2  0  0  0
 45116  1  0  0  0
 46117  1  0  0  0
 47118  1  0  0  0
 47119  1  0  0  0
 48 56  1  0  0  0
 48 65  1  0  0  0
 48120  1  0  0  0
 49 50  1  0  0  0
 49 53  1  0  0  0
 49 64  1  0  0  0
 49121  1  0  0  0
 50 51  1  0  0  0
 50122  1  0  0  0
 50123  1  0  0  0
 51 52  1  0  0  0
 51124  1  0  0  0
 51125  1  0  0  0
 52126  1  0  0  0
 52127  1  0  0  0
 53 54  1  0  0  0
 54 55  2  0  0  0
 54128  1  0  0  0
 55 57  1  0  0  0
 55129  1  0  0  0
 56 69  2  0  0  0
 57 58  2  0  0  0
 57130  1  0  0  0
 58131  1  0  0  0
 59 60  1  0  0  0
 59 61  1  0  0  0
 59 62  1  0  0  0
 60132  1  0  0  0
 60133  1  0  0  0
 60134  1  0  0  0
 61135  1  0  0  0
 61136  1  0  0  0
 61137  1  0  0  0
 62138  1  0  0  0
 62139  1  0  0  0
 62140  1  0  0  0
 63 65  1  0  0  0
 63141  1  0  0  0
 63142  1  0  0  0
 63143  1  0  0  0
 64144  1  0  0  0
 65145  1  0  0  0
 68 82  1  0  0  0
 71 73  2  0  0  0
 71 75  1  0  0  0
 71146  1  0  0  0
 72 74  1  0  0  0
 72 76  2  0  0  0
 72147  1  0  0  0
 73 76  1  0  0  0
 73 81  1  0  0  0
 74 75  2  0  0  0
 74 83  1  0  0  0
 75 85  1  0  0  0
 76 86  1  0  0  0
 77 78  1  0  0  0
 77 79  1  0  0  0
 77148  1  0  0  0
 77149  1  0  0  0
 78 80  1  0  0  0
 78150  1  0  0  0
 78151  1  0  0  0
 79 84  1  0  0  0
 79152  1  0  0  0
 79153  1  0  0  0
 80 82  1  0  0  0
 80 84  1  0  0  0
 80154  1  0  0  0
 81155  1  0  0  0
 81156  1  0  0  0
 81 84  1  0  0  0
 82157  1  0  0  0
 82158  1  0  0  0
 83159  1  0  0  0
 84160  1  0  0  0
M  CHG  1  84   1
M  ISO  4   1 100  68 101  82 101  83 100
M  END
> <chiral flag>
0

> <version>
0

> <s_m_source_file>
/data/baiqing/PycharmProjects/Reinvent-master-3.2/result/LINK_invent/BTK/process_docking_weight1_custom_product_contain_oxygen_bond_distance_aromatic_linkinvent_7_9_3/rearranged_h_0009.sdf

> <i_m_source_file_index>
85

> <r_mmod_Potential_Energy-OPLS-2005>
11.1685724258423

> <r_mmod_Stretch_Energy-OPLS-2005>
77.8861694335938

> <r_mmod_Bend_Energy-OPLS-2005>
152.520004272461

> <r_mmod_Torsional_Energy-OPLS-2005>
295.402465820312

> <r_mmod_Improper_Torsional_Energy-OPLS-2005>
6.81465721130371

> <r_mmod_Van_der_Waal_Energy-OPLS-2005>
140.636322021484

> <r_mmod_Electrostatic_Energy-OPLS-2005>
-269.454864501953

> <r_mmod_Solvation_Energy-OPLS-2005>
-440.39794921875

> <b_mmod_Minimization_Converged-OPLS-2005>
0

> <r_mmod_RMS_Derivative-OPLS-2005>
3.29145956039429

$$$$
85
                    3D
 Structure written by MMmdl.
158167  0  0  1  0            999 V2000
  -30.5224  -15.0593   20.3368 C   0  0  0  0  0  0
  -30.4491  -12.6595   19.5072 C   0  0  0  0  0  0
  -29.5335  -12.4984   18.2754 C   0  0  0  0  0  0
  -28.0751  -12.2640   18.7081 C   0  0  0  0  0  0
  -27.6243  -13.2470   19.8184 C   0  0  2  0  0  0
  -28.6638  -13.3792   20.9509 C   0  0  0  0  0  0
  -25.2464  -13.8224   20.5701 C   0  0  0  0  0  0
  -24.1789  -13.0450   20.9235 C   0  0  0  0  0  0
  -24.6393  -11.6920   20.8738 C   0  0  0  0  0  0
  -23.9065  -10.4275   21.0351 C   0  0  0  0  0  0
  -24.3603   -9.4196   21.9152 C   0  0  0  0  0  0
  -23.6263   -8.2243   22.0750 C   0  0  0  0  0  0
  -22.4261   -8.0261   21.3520 C   0  0  0  0  0  0
  -21.9891   -9.0237   20.4651 C   0  0  0  0  0  0
  -22.7204  -10.2124   20.3035 C   0  0  0  0  0  0
  -21.6851   -6.0724   22.5263 C   0  0  0  0  0  0
  -21.4009   -6.5624   23.8191 C   0  0  0  0  0  0
  -21.3656   -5.6786   24.9157 C   0  0  0  0  0  0
  -21.6046   -4.3044   24.7230 C   0  0  0  0  0  0
  -21.8830   -3.8131   23.4349 C   0  0  0  0  0  0
  -21.9193   -4.6952   22.3396 C   0  0  0  0  0  0
  -22.7810  -13.5218   21.1840 C   0  0  0  0  0  0
  -22.1669   -4.2115   21.0985 F   0  0  0  0  0  0
  -21.5623   -3.4545   25.7749 F   0  0  0  0  0  0
  -29.9262  -13.7927   20.3286 N   0  0  0  0  0  0
  -26.2875  -12.9451   20.3211 N   0  0  0  0  0  0
  -25.9329  -11.6587   20.5739 N   0  0  0  0  0  0
  -22.0442  -12.8231   22.0413 N   0  0  0  0  0  0
  -25.4174  -15.1959   20.4223 N   0  0  0  0  0  0
  -31.7379  -15.0762   20.1237 O   0  0  0  0  0  0
  -21.6640   -6.8848   21.4202 O   0  0  0  0  0  0
  -22.3500  -14.5488   20.6636 O   0  0  0  0  0  0
  -24.6476  -31.8403   23.1799 C   0  0  0  0  0  0
  -25.9201  -32.4714   23.8295 C   0  0  1  0  0  0
  -27.2496  -27.0985   20.1961 C   0  0  0  0  0  0
  -25.5923  -33.8507   24.2186 N   0  0  0  0  0  0
  -23.4633  -30.4515   21.5261 C   0  0  2  0  0  0
  -24.9251  -28.8657   20.1233 C   0  0  0  0  0  0
  -22.7637  -29.4492   22.4833 C   0  0  0  0  0  0
  -18.0305  -28.1414   22.8479 C   0  0  0  0  0  0
  -24.1499  -36.7242   23.2650 C   0  0  0  0  0  0
  -26.0185  -30.7137   21.3814 C   0  0  0  0  0  0
  -26.0972  -29.3105   20.7450 C   0  0  0  0  0  0
  -27.2562  -28.4381   20.7664 C   0  0  0  0  0  0
  -26.0498  -26.7639   19.5319 C   0  0  0  0  0  0
  -24.9129  -27.6058   19.5049 C   0  0  0  0  0  0
  -23.6992  -29.7684   20.1506 C   0  0  0  0  0  0
  -25.4126  -36.3001   24.0319 C   0  0  1  0  0  0
  -20.5934  -28.3732   23.1213 C   0  0  2  0  0  0
  -20.6809  -26.9436   22.5372 C   0  0  0  0  0  0
  -19.5759  -26.6390   21.5212 C   0  0  0  0  0  0
  -18.1951  -26.7946   22.1640 C   0  0  0  0  0  0
  -19.1562  -28.8888   23.2846 C   0  0  0  0  0  0
  -18.9455  -30.1481   23.8895 C   0  0  0  0  0  0
  -17.6444  -30.6611   24.0542 C   0  0  0  0  0  0
  -25.9074  -34.9394   23.5058 C   0  0  0  0  0  0
  -16.5350  -29.9102   23.6308 C   0  0  0  0  0  0
  -16.7266  -28.6507   23.0352 C   0  0  0  0  0  0
  -26.4520  -31.6567   25.0713 C   0  0  0  0  0  0
  -25.3696  -31.3798   26.1393 C   0  0  0  0  0  0
  -27.0388  -30.2980   24.6244 C   0  0  0  0  0  0
  -27.6061  -32.4331   25.7507 C   0  0  0  0  0  0
  -27.5556  -37.1773   24.8453 C   0  0  0  0  0  0
  -21.4316  -29.3041   22.3604 N   0  0  0  0  0  0
  -26.4277  -37.3710   23.9402 N   0  0  0  0  0  0
  -24.7302  -31.0265   22.0831 N   0  0  0  0  0  0
  -23.4233  -28.8047   23.3002 O   0  0  0  0  0  0
  -28.3197  -26.1097   20.2431 O   0  0  0  0  0  0
  -26.5652  -34.8870   22.4631 O   0  0  0  0  0  0
  -23.5587  -32.1237   23.6988 O   0  0  0  0  0  0
  -28.8254  -25.3594   23.8540 C   0  0  0  0  0  0
  -28.1355  -24.9850   22.9189 C   0  0  0  0  0  0
  -28.1178  -20.5459   17.9834 C   0  0  0  0  0  0
  -28.1716  -21.7584   18.7078 C   0  0  0  0  0  0
  -29.4559  -20.5677   20.4141 C   0  0  0  0  0  0
  -28.7222  -19.3629   18.4663 C   0  0  0  0  0  0
  -29.3526  -19.2394   19.7163 C   0  0  0  0  0  0
  -28.8713  -21.8722   19.9243 C   0  0  0  0  0  0
  -28.9819  -18.1879   17.5714 C   0  0  0  0  0  0
  -30.2004  -17.4978   18.2196 C   0  0  0  0  0  0
  -30.1537  -17.7515   19.7639 C   0  0  2  0  0  0
  -27.3131  -24.4603   21.7961 C   0  0  0  0  0  0
  -29.0742  -23.4509   20.4297 C   0  0  0  0  0  0
  -29.7675  -16.2909   20.3181 N   0  0  0  0  0  0
  -27.9373  -24.5504   20.4713 N   0  0  0  0  0  0
  -31.4704  -12.8441   19.1705 H   0  0  0  0  0  0
  -30.4919  -11.7433   20.0998 H   0  0  0  0  0  0
  -29.8822  -11.6642   17.6660 H   0  0  0  0  0  0
  -29.5941  -13.3884   17.6494 H   0  0  0  0  0  0
  -28.0229  -11.2463   19.0972 H   0  0  0  0  0  0
  -27.4005  -12.2969   17.8511 H   0  0  0  0  0  0
  -27.5567  -14.2173   19.3276 H   0  0  0  0  0  0
  -28.7808  -12.4488   21.5046 H   0  0  0  0  0  0
  -28.3429  -14.1362   21.6688 H   0  0  0  0  0  0
  -25.2744   -9.5732   22.4734 H   0  0  0  0  0  0
  -23.9962   -7.4687   22.7531 H   0  0  0  0  0  0
  -21.0797   -8.8747   19.9017 H   0  0  0  0  0  0
  -22.3582  -10.9659   19.6172 H   0  0  0  0  0  0
  -21.1985   -7.6131   23.9668 H   0  0  0  0  0  0
  -21.1468   -6.0528   25.9050 H   0  0  0  0  0  0
  -22.0610   -2.7592   23.2868 H   0  0  0  0  0  0
  -22.4069  -11.9920   22.4844 H   0  0  0  0  0  0
  -21.1065  -13.1287   22.2582 H   0  0  0  0  0  0
  -24.6582  -15.8535   20.5642 H   0  0  0  0  0  0
  -26.2638  -15.6359   20.0897 H   0  0  0  0  0  0
  -26.7307  -32.5354   23.1100 H   0  0  0  0  0  0
  -25.0078  -33.9724   25.0334 H   0  0  0  0  0  0
  -22.7676  -31.2767   21.3607 H   0  0  0  0  0  0
  -23.3728  -35.9599   23.3282 H   0  0  0  0  0  0
  -24.3599  -36.8883   22.2061 H   0  0  0  0  0  0
  -23.7284  -37.6456   23.6693 H   0  0  0  0  0  0
  -26.1550  -31.4509   20.5893 H   0  0  0  0  0  0
  -26.8998  -30.8028   22.0058 H   0  0  0  0  0  0
  -28.1559  -28.7663   21.2643 H   0  0  0  0  0  0
  -25.9687  -25.7950   19.0650 H   0  0  0  0  0  0
  -24.0154  -27.2533   19.0179 H   0  0  0  0  0  0
  -23.8339  -30.5339   19.3864 H   0  0  0  0  0  0
  -22.8218  -29.1986   19.8436 H   0  0  0  0  0  0
  -25.1317  -36.1839   25.0816 H   0  0  0  0  0  0
  -21.0017  -28.3297   24.1330 H   0  0  0  0  0  0
  -20.5706  -26.2351   23.3598 H   0  0  0  0  0  0
  -21.6680  -26.7450   22.1157 H   0  0  0  0  0  0
  -19.6924  -25.6282   21.1284 H   0  0  0  0  0  0
  -19.6703  -27.3157   20.6710 H   0  0  0  0  0  0
  -17.4205  -26.6595   21.4074 H   0  0  0  0  0  0
  -18.0398  -26.0154   22.9099 H   0  0  0  0  0  0
  -19.7917  -30.7298   24.2300 H   0  0  0  0  0  0
  -17.4980  -31.6293   24.5125 H   0  0  0  0  0  0
  -15.5339  -30.2993   23.7640 H   0  0  0  0  0  0
  -15.8674  -28.0814   22.7098 H   0  0  0  0  0  0
  -24.5865  -30.7195   25.7640 H   0  0  0  0  0  0
  -24.8929  -32.3034   26.4698 H   0  0  0  0  0  0
  -25.7946  -30.9000   27.0223 H   0  0  0  0  0  0
  -26.2990  -29.6753   24.1206 H   0  0  0  0  0  0
  -27.3990  -29.7237   25.4779 H   0  0  0  0  0  0
  -27.8910  -30.4236   23.9562 H   0  0  0  0  0  0
  -27.2647  -33.3648   26.2056 H   0  0  0  0  0  0
  -28.3910  -32.6882   25.0358 H   0  0  0  0  0  0
  -28.0715  -31.8482   26.5460 H   0  0  0  0  0  0
  -28.2541  -38.0084   24.7461 H   0  0  0  0  0  0
  -28.1095  -36.2609   24.6324 H   0  0  0  0  0  0
  -27.2309  -37.1456   25.8870 H   0  0  0  0  0  0
  -20.9526  -29.8804   21.6834 H   0  0  0  0  0  0
  -26.0121  -38.2783   24.1388 H   0  0  0  0  0  0
  -29.4271  -25.6698   24.6857 H   0  0  0  0  0  0
  -27.6944  -20.5560   16.9890 H   0  0  0  0  0  0
  -27.7453  -22.6517   18.2626 H   0  0  0  0  0  0
  -30.0741  -20.6112   21.3040 H   0  0  0  0  0  0
  -29.1940  -18.5028   16.5443 H   0  0  0  0  0  0
  -28.0964  -17.5540   17.5569 H   0  0  0  0  0  0
  -31.0922  -17.9874   17.8198 H   0  0  0  0  0  0
  -30.2642  -16.4530   17.9096 H   0  0  0  0  0  0
  -31.1651  -17.9519   20.1198 H   0  0  0  0  0  0
  -26.3476  -24.9703   21.8135 H   0  0  0  0  0  0
  -27.1009  -23.4152   22.0232 H   0  0  0  0  0  0
  -29.8718  -23.8613   19.8126 H   0  0  0  0  0  0
  -29.5368  -23.3863   21.4146 H   0  0  0  0  0  0
  -28.7835  -16.1575   20.4884 H   0  0  0  0  0  0
  1 25  1  0  0  0
  1 30  2  0  0  0
  1 84  1  0  0  0
  2  3  1  0  0  0
  2 25  1  0  0  0
  2 86  1  0  0  0
  2 87  1  0  0  0
  3  4  1  0  0  0
  3 88  1  0  0  0
  3 89  1  0  0  0
  4  5  1  0  0  0
  4 90  1  0  0  0
  4 91  1  0  0  0
  5  6  1  0  0  0
  5 26  1  0  0  0
  5 92  1  0  0  0
  6 25  1  0  0  0
  6 93  1  0  0  0
  6 94  1  0  0  0
  7  8  2  0  0  0
  7 26  1  0  0  0
  7 29  1  0  0  0
  8  9  1  0  0  0
  8 22  1  0  0  0
  9 10  1  0  0  0
  9 27  2  0  0  0
 10 11  2  0  0  0
 10 15  1  0  0  0
 11 12  1  0  0  0
 11 95  1  0  0  0
 12 13  2  0  0  0
 12 96  1  0  0  0
 13 14  1  0  0  0
 13 31  1  0  0  0
 14 15  2  0  0  0
 14 97  1  0  0  0
 15 98  1  0  0  0
 16 17  2  0  0  0
 16 21  1  0  0  0
 16 31  1  0  0  0
 17 18  1  0  0  0
 17 99  1  0  0  0
 18 19  2  0  0  0
 18100  1  0  0  0
 19 20  1  0  0  0
 19 24  1  0  0  0
 20 21  2  0  0  0
 20101  1  0  0  0
 21 23  1  0  0  0
 22 28  1  0  0  0
 22 32  2  0  0  0
 26 27  1  0  0  0
 28102  1  0  0  0
 28103  1  0  0  0
 29104  1  0  0  0
 29105  1  0  0  0
 33 34  1  0  0  0
 33 66  1  0  0  0
 33 70  2  0  0  0
 34 36  1  0  0  0
 34 59  1  0  0  0
 34106  1  0  0  0
 35 44  2  0  0  0
 35 45  1  0  0  0
 35 68  1  0  0  0
 36 56  1  0  0  0
 36107  1  0  0  0
 37 39  1  0  0  0
 37 47  1  0  0  0
 37 66  1  0  0  0
 37108  1  0  0  0
 38 43  2  0  0  0
 38 46  1  0  0  0
 38 47  1  0  0  0
 39 64  1  0  0  0
 39 67  2  0  0  0
 40 52  1  0  0  0
 40 53  2  0  0  0
 40 58  1  0  0  0
 41109  1  0  0  0
 41110  1  0  0  0
 41111  1  0  0  0
 41 48  1  0  0  0
 42 43  1  0  0  0
 42 66  1  0  0  0
 42112  1  0  0  0
 42113  1  0  0  0
 43 44  1  0  0  0
 44114  1  0  0  0
 45 46  2  0  0  0
 45115  1  0  0  0
 46116  1  0  0  0
 47117  1  0  0  0
 47118  1  0  0  0
 48 56  1  0  0  0
 48 65  1  0  0  0
 48119  1  0  0  0
 49 50  1  0  0  0
 49 53  1  0  0  0
 49 64  1  0  0  0
 49120  1  0  0  0
 50 51  1  0  0  0
 50121  1  0  0  0
 50122  1  0  0  0
 51 52  1  0  0  0
 51123  1  0  0  0
 51124  1  0  0  0
 52125  1  0  0  0
 52126  1  0  0  0
 53 54  1  0  0  0
 54 55  2  0  0  0
 54127  1  0  0  0
 55 57  1  0  0  0
 55128  1  0  0  0
 56 69  2  0  0  0
 57 58  2  0  0  0
 57129  1  0  0  0
 58130  1  0  0  0
 59 60  1  0  0  0
 59 61  1  0  0  0
 59 62  1  0  0  0
 60131  1  0  0  0
 60132  1  0  0  0
 60133  1  0  0  0
 61134  1  0  0  0
 61135  1  0  0  0
 61136  1  0  0  0
 62137  1  0  0  0
 62138  1  0  0  0
 62139  1  0  0  0
 63 65  1  0  0  0
 63140  1  0  0  0
 63141  1  0  0  0
 63142  1  0  0  0
 64143  1  0  0  0
 65144  1  0  0  0
 68 85  1  0  0  0
 71 72  3  0  0  0
 71145  1  0  0  0
 72 82  1  0  0  0
 73 74  2  0  0  0
 73 76  1  0  0  0
 73146  1  0  0  0
 74 78  1  0  0  0
 74147  1  0  0  0
 75 77  1  0  0  0
 75 78  2  0  0  0
 75148  1  0  0  0
 76 77  2  0  0  0
 76 79  1  0  0  0
 77 81  1  0  0  0
 78 83  1  0  0  0
 79 80  1  0  0  0
 79149  1  0  0  0
 79150  1  0  0  0
 80 81  1  0  0  0
 80151  1  0  0  0
 80152  1  0  0  0
 81 84  1  0  0  0
 81153  1  0  0  0
 82 85  1  0  0  0
 82154  1  0  0  0
 82155  1  0  0  0
 83 85  1  0  0  0
 83156  1  0  0  0
 83157  1  0  0  0
 84158  1  0  0  0
M  ISO  4   1 100  68 101  84 100  85 101
M  END
> <chiral flag>
0

> <version>
0

> <s_m_source_file>
/data/baiqing/PycharmProjects/Reinvent-master-3.2/result/LINK_invent/BTK/process_docking_weight1_custom_product_contain_oxygen_bond_distance_aromatic_linkinvent_7_9_3/rearranged_h_0009.sdf

> <i_m_source_file_index>
86

> <r_mmod_Potential_Energy-OPLS-2005>
713.741943359375

> <r_mmod_Stretch_Energy-OPLS-2005>
329.134918212891

> <r_mmod_Bend_Energy-OPLS-2005>
351.650573730469

> <r_mmod_Torsional_Energy-OPLS-2005>
248.955718994141

> <r_mmod_Improper_Torsional_Energy-OPLS-2005>
13.8310174942017

> <r_mmod_Van_der_Waal_Energy-OPLS-2005>
124.962173461914

> <r_mmod_Electrostatic_Energy-OPLS-2005>
-398.952178955078

> <r_mmod_Solvation_Energy-OPLS-2005>
-217.242095947266

> <b_mmod_Minimization_Converged-OPLS-2005>
0

> <r_mmod_RMS_Derivative-OPLS-2005>
8.56687545776367

$$$$
86
                    3D
 Structure written by MMmdl.
163171  0  0  1  0            999 V2000
  -30.6000  -14.6329   20.4363 C   0  0  0  0  0  0
  -30.4601  -12.3918   19.4381 C   0  0  0  0  0  0
  -29.4998  -12.4686   18.2290 C   0  0  0  0  0  0
  -28.0386  -12.2696   18.6620 C   0  0  0  0  0  0
  -27.6536  -13.1668   19.8652 C   0  0  2  0  0  0
  -28.7117  -13.0600   20.9934 C   0  0  0  0  0  0
  -25.2572  -13.7996   20.5629 C   0  0  0  0  0  0
  -24.1753  -13.0466   20.9279 C   0  0  0  0  0  0
  -24.6259  -11.6861   20.8900 C   0  0  0  0  0  0
  -23.8959  -10.4261   21.0571 C   0  0  0  0  0  0
  -24.3598   -9.4128   21.9253 C   0  0  0  0  0  0
  -23.6215   -8.2212   22.0764 C   0  0  0  0  0  0
  -22.4196   -8.0266   21.3568 C   0  0  0  0  0  0
  -21.9841   -9.0169   20.4641 C   0  0  0  0  0  0
  -22.7177  -10.2081   20.3118 C   0  0  0  0  0  0
  -21.6749   -6.0768   22.5267 C   0  0  0  0  0  0
  -21.3872   -6.5544   23.8268 C   0  0  0  0  0  0
  -21.3657   -5.6692   24.9183 C   0  0  0  0  0  0
  -21.6145   -4.3008   24.7258 C   0  0  0  0  0  0
  -21.8775   -3.8117   23.4321 C   0  0  0  0  0  0
  -21.9116   -4.6973   22.3377 C   0  0  0  0  0  0
  -22.7799  -13.5349   21.2079 C   0  0  0  0  0  0
  -22.1583   -4.2158   21.1015 F   0  0  0  0  0  0
  -21.5778   -3.4499   25.7787 F   0  0  0  0  0  0
  -30.0130  -13.4027   20.4060 N   0  0  0  0  0  0
  -26.2908  -12.9066   20.3238 N   0  0  0  0  0  0
  -25.9139  -11.6292   20.5808 N   0  0  0  0  0  0
  -22.0295  -12.8318   22.0423 N   0  0  0  0  0  0
  -25.4324  -15.1716   20.3908 N   0  0  0  0  0  0
  -31.7934  -14.8007   20.1909 O   0  0  0  0  0  0
  -21.6497   -6.8948   21.4244 O   0  0  0  0  0  0
  -22.3614  -14.5819   20.7147 O   0  0  0  0  0  0
  -24.6194  -31.8631   23.2093 C   0  0  0  0  0  0
  -25.9066  -32.4810   23.8406 C   0  0  1  0  0  0
  -27.2408  -27.3842   20.0740 C   0  0  0  0  0  0
  -25.5916  -33.8622   24.2324 N   0  0  0  0  0  0
  -23.4111  -30.4846   21.5440 C   0  0  2  0  0  0
  -24.8606  -28.9505   20.1004 C   0  0  0  0  0  0
  -22.7456  -29.4606   22.4907 C   0  0  0  0  0  0
  -18.0264  -28.1410   22.8441 C   0  0  0  0  0  0
  -24.1480  -36.7336   23.2637 C   0  0  0  0  0  0
  -25.9430  -30.8059   21.3726 C   0  0  0  0  0  0
  -26.0210  -29.4371   20.7177 C   0  0  0  0  0  0
  -27.2185  -28.6657   20.6944 C   0  0  0  0  0  0
  -26.0666  -26.9352   19.4315 C   0  0  0  0  0  0
  -24.8925  -27.7069   19.4460 C   0  0  0  0  0  0
  -23.6252  -29.8267   20.1528 C   0  0  0  0  0  0
  -25.4111  -36.3119   24.0321 C   0  0  1  0  0  0
  -20.5850  -28.3706   23.1301 C   0  0  2  0  0  0
  -20.6755  -26.9437   22.5415 C   0  0  0  0  0  0
  -19.5764  -26.6403   21.5188 C   0  0  0  0  0  0
  -18.1929  -26.7947   22.1576 C   0  0  0  0  0  0
  -19.1508  -28.8873   23.2866 C   0  0  0  0  0  0
  -18.9441  -30.1465   23.8903 C   0  0  0  0  0  0
  -17.6447  -30.6608   24.0569 C   0  0  0  0  0  0
  -25.9046  -34.9481   23.5131 C   0  0  0  0  0  0
  -16.5341  -29.9120   23.6309 C   0  0  0  0  0  0
  -16.7246  -28.6532   23.0327 C   0  0  0  0  0  0
  -26.4510  -31.6583   25.0729 C   0  0  0  0  0  0
  -25.3755  -31.3696   26.1461 C   0  0  0  0  0  0
  -27.0360  -30.3030   24.6097 C   0  0  0  0  0  0
  -27.6086  -32.4301   25.7514 C   0  0  0  0  0  0
  -27.5580  -37.1832   24.8455 C   0  0  0  0  0  0
  -21.4146  -29.3082   22.3723 N   0  0  0  0  0  0
  -26.4286  -37.3811   23.9397 N   0  0  0  0  0  0
  -24.6741  -31.0704   22.1002 N   0  0  0  0  0  0
  -23.4214  -28.8171   23.2962 O   0  0  0  0  0  0
  -28.3944  -26.6045   20.0418 O   0  0  0  0  0  0
  -26.5611  -34.8924   22.4688 O   0  0  0  0  0  0
  -23.5371  -32.1423   23.7428 O   0  0  0  0  0  0
  -27.9370  -20.0848   20.0113 C   0  0  0  0  0  0
  -27.8903  -16.9756   18.0606 C   0  0  0  0  0  0
  -29.3580  -17.3606   18.0447 C   0  0  0  0  0  0
  -27.2017  -18.0390   18.9115 C   0  0  0  0  0  0
  -29.5547  -18.1096   19.3709 C   0  0  2  0  0  0
  -26.5072  -22.8358   19.4973 C   0  0  0  0  0  0
  -28.6148  -21.4089   19.4889 C   0  0  0  0  0  0
  -29.9340  -17.1492   20.6007 C   0  0  0  0  0  0
  -28.6680  -24.0235   19.5579 C   0  0  0  0  0  0
  -28.2950  -25.2308   20.5207 C   0  0  0  0  0  0
  -28.2620  -18.8299   19.5560 N   0  0  0  0  0  0
  -29.7215  -15.6712   20.4961 N   0  0  0  0  0  0
  -27.9483  -22.7219   19.9027 N   0  3  1  0  0  0
  -26.9484  -20.1959   20.7436 O   0  0  0  0  0  0
  -31.4805  -12.5663   19.0733 H   0  0  0  0  0  0
  -30.4609  -11.4010   19.9032 H   0  0  0  0  0  0
  -29.7679  -11.6957   17.5106 H   0  0  0  0  0  0
  -29.6379  -13.4317   17.7322 H   0  0  0  0  0  0
  -27.9356  -11.2285   18.9398 H   0  0  0  0  0  0
  -27.3643  -12.4393   17.8257 H   0  0  0  0  0  0
  -27.6677  -14.1798   19.5050 H   0  0  0  0  0  0
  -28.7443  -12.0368   21.3787 H   0  0  0  0  0  0
  -28.4599  -13.6977   21.8459 H   0  0  0  0  0  0
  -25.2858   -9.5363   22.4735 H   0  0  0  0  0  0
  -23.9940   -7.4523   22.7398 H   0  0  0  0  0  0
  -21.0833   -8.8774   19.8902 H   0  0  0  0  0  0
  -22.3801  -10.9669   19.6156 H   0  0  0  0  0  0
  -21.1704   -7.6067   23.9764 H   0  0  0  0  0  0
  -21.1530   -6.0414   25.9099 H   0  0  0  0  0  0
  -22.0543   -2.7600   23.2818 H   0  0  0  0  0  0
  -22.3612  -12.0062   22.5210 H   0  0  0  0  0  0
  -21.0869  -13.1502   22.2088 H   0  0  0  0  0  0
  -24.6694  -15.8290   20.5460 H   0  0  0  0  0  0
  -26.2716  -15.5955   20.0266 H   0  0  0  0  0  0
  -26.7104  -32.5488   23.1145 H   0  0  0  0  0  0
  -25.0157  -33.9782   25.0532 H   0  0  0  0  0  0
  -22.6945  -31.2971   21.4107 H   0  0  0  0  0  0
  -23.3714  -35.9699   23.3324 H   0  0  0  0  0  0
  -24.3580  -36.8930   22.2044 H   0  0  0  0  0  0
  -23.7231  -37.6548   23.6649 H   0  0  0  0  0  0
  -26.0479  -31.5579   20.5887 H   0  0  0  0  0  0
  -26.8386  -30.8749   21.9786 H   0  0  0  0  0  0
  -28.1241  -29.0411   21.1551 H   0  0  0  0  0  0
  -26.0640  -26.0026   18.8788 H   0  0  0  0  0  0
  -24.0227  -27.3607   18.9090 H   0  0  0  0  0  0
  -23.7277  -30.6091   19.3989 H   0  0  0  0  0  0
  -22.7430  -29.2567   19.8591 H   0  0  0  0  0  0
  -25.1266  -36.2010   25.0805 H   0  0  0  0  0  0
  -20.9890  -28.3288   24.1447 H   0  0  0  0  0  0
  -20.5643  -26.2332   23.3622 H   0  0  0  0  0  0
  -21.6643  -26.7512   22.1247 H   0  0  0  0  0  0
  -19.6972  -25.6304   21.1262 H   0  0  0  0  0  0
  -19.6732  -27.3164   20.6676 H   0  0  0  0  0  0
  -17.4210  -26.6632   21.3974 H   0  0  0  0  0  0
  -18.0375  -26.0106   22.8990 H   0  0  0  0  0  0
  -19.7925  -30.7246   24.2300 H   0  0  0  0  0  0
  -17.5025  -31.6274   24.5205 H   0  0  0  0  0  0
  -15.5352  -30.3061   23.7640 H   0  0  0  0  0  0
  -15.8616  -28.0879   22.7064 H   0  0  0  0  0  0
  -24.5945  -30.7031   25.7777 H   0  0  0  0  0  0
  -24.8949  -32.2863   26.4895 H   0  0  0  0  0  0
  -25.8104  -30.8870   27.0220 H   0  0  0  0  0  0
  -26.2907  -29.6764   24.1190 H   0  0  0  0  0  0
  -27.4174  -29.7296   25.4546 H   0  0  0  0  0  0
  -27.8723  -30.4359   23.9235 H   0  0  0  0  0  0
  -27.2725  -33.3589   26.2157 H   0  0  0  0  0  0
  -28.3933  -32.6869   25.0374 H   0  0  0  0  0  0
  -28.0754  -31.8378   26.5395 H   0  0  0  0  0  0
  -28.2589  -38.0139   24.7513 H   0  0  0  0  0  0
  -28.1081  -36.2661   24.6270 H   0  0  0  0  0  0
  -27.2323  -37.1484   25.8869 H   0  0  0  0  0  0
  -20.9313  -29.8849   21.6969 H   0  0  0  0  0  0
  -26.0170  -38.2883   24.1407 H   0  0  0  0  0  0
  -27.7924  -16.0256   18.5589 H   0  0  0  0  0  0
  -27.4585  -16.8659   17.0632 H   0  0  0  0  0  0
  -29.5299  -18.0377   17.2061 H   0  0  0  0  0  0
  -30.0349  -16.5187   17.9131 H   0  0  0  0  0  0
  -26.5223  -17.5905   19.6344 H   0  0  0  0  0  0
  -26.5944  -18.6817   18.2663 H   0  0  0  0  0  0
  -30.3470  -18.8541   19.2516 H   0  0  0  0  0  0
  -25.8259  -22.3594   20.1976 H   0  0  0  0  0  0
  -26.3276  -22.4341   18.4975 H   0  0  0  0  0  0
  -26.1678  -23.8684   19.4962 H   0  0  0  0  0  0
  -28.6476  -21.3615   18.3968 H   0  0  0  0  0  0
  -29.6479  -21.4232   19.8183 H   0  0  0  0  0  0
  -30.9763  -17.3140   20.8802 H   0  0  0  0  0  0
  -29.3586  -17.4681   21.4710 H   0  0  0  0  0  0
  -29.7494  -23.8845   19.5825 H   0  0  0  0  0  0
  -28.4344  -24.3065   18.5263 H   0  0  0  0  0  0
  -28.9339  -25.2017   21.4055 H   0  0  0  0  0  0
  -27.2994  -25.0657   20.9273 H   0  0  0  0  0  0
  -28.7615  -15.3763   20.5810 H   0  0  0  0  0  0
  -27.9374  -22.6756   20.9139 H   0  0  0  0  0  0
  1 25  1  0  0  0
  1 30  2  0  0  0
  1 82  1  0  0  0
  2  3  1  0  0  0
  2 25  1  0  0  0
  2 85  1  0  0  0
  2 86  1  0  0  0
  3  4  1  0  0  0
  3 87  1  0  0  0
  3 88  1  0  0  0
  4  5  1  0  0  0
  4 89  1  0  0  0
  4 90  1  0  0  0
  5  6  1  0  0  0
  5 26  1  0  0  0
  5 91  1  0  0  0
  6 25  1  0  0  0
  6 92  1  0  0  0
  6 93  1  0  0  0
  7  8  2  0  0  0
  7 26  1  0  0  0
  7 29  1  0  0  0
  8  9  1  0  0  0
  8 22  1  0  0  0
  9 10  1  0  0  0
  9 27  2  0  0  0
 10 11  2  0  0  0
 10 15  1  0  0  0
 11 12  1  0  0  0
 11 94  1  0  0  0
 12 13  2  0  0  0
 12 95  1  0  0  0
 13 14  1  0  0  0
 13 31  1  0  0  0
 14 15  2  0  0  0
 14 96  1  0  0  0
 15 97  1  0  0  0
 16 17  2  0  0  0
 16 21  1  0  0  0
 16 31  1  0  0  0
 17 18  1  0  0  0
 17 98  1  0  0  0
 18 19  2  0  0  0
 18 99  1  0  0  0
 19 20  1  0  0  0
 19 24  1  0  0  0
 20 21  2  0  0  0
 20100  1  0  0  0
 21 23  1  0  0  0
 22 28  1  0  0  0
 22 32  2  0  0  0
 26 27  1  0  0  0
 28101  1  0  0  0
 28102  1  0  0  0
 29103  1  0  0  0
 29104  1  0  0  0
 33 34  1  0  0  0
 33 66  1  0  0  0
 33 70  2  0  0  0
 34 36  1  0  0  0
 34 59  1  0  0  0
 34105  1  0  0  0
 35 44  2  0  0  0
 35 45  1  0  0  0
 35 68  1  0  0  0
 36 56  1  0  0  0
 36106  1  0  0  0
 37 39  1  0  0  0
 37 47  1  0  0  0
 37 66  1  0  0  0
 37107  1  0  0  0
 38 43  2  0  0  0
 38 46  1  0  0  0
 38 47  1  0  0  0
 39 64  1  0  0  0
 39 67  2  0  0  0
 40 52  1  0  0  0
 40 53  2  0  0  0
 40 58  1  0  0  0
 41108  1  0  0  0
 41109  1  0  0  0
 41110  1  0  0  0
 41 48  1  0  0  0
 42 43  1  0  0  0
 42 66  1  0  0  0
 42111  1  0  0  0
 42112  1  0  0  0
 43 44  1  0  0  0
 44113  1  0  0  0
 45 46  2  0  0  0
 45114  1  0  0  0
 46115  1  0  0  0
 47116  1  0  0  0
 47117  1  0  0  0
 48 56  1  0  0  0
 48 65  1  0  0  0
 48118  1  0  0  0
 49 50  1  0  0  0
 49 53  1  0  0  0
 49 64  1  0  0  0
 49119  1  0  0  0
 50 51  1  0  0  0
 50120  1  0  0  0
 50121  1  0  0  0
 51 52  1  0  0  0
 51122  1  0  0  0
 51123  1  0  0  0
 52124  1  0  0  0
 52125  1  0  0  0
 53 54  1  0  0  0
 54 55  2  0  0  0
 54126  1  0  0  0
 55 57  1  0  0  0
 55127  1  0  0  0
 56 69  2  0  0  0
 57 58  2  0  0  0
 57128  1  0  0  0
 58129  1  0  0  0
 59 60  1  0  0  0
 59 61  1  0  0  0
 59 62  1  0  0  0
 60130  1  0  0  0
 60131  1  0  0  0
 60132  1  0  0  0
 61133  1  0  0  0
 61134  1  0  0  0
 61135  1  0  0  0
 62136  1  0  0  0
 62137  1  0  0  0
 62138  1  0  0  0
 63 65  1  0  0  0
 63139  1  0  0  0
 63140  1  0  0  0
 63141  1  0  0  0
 64142  1  0  0  0
 65143  1  0  0  0
 68 80  1  0  0  0
 71 77  1  0  0  0
 71 81  1  0  0  0
 71 84  2  0  0  0
 72 73  1  0  0  0
 72 74  1  0  0  0
 72144  1  0  0  0
 72145  1  0  0  0
 73 75  1  0  0  0
 73146  1  0  0  0
 73147  1  0  0  0
 74 81  1  0  0  0
 74148  1  0  0  0
 74149  1  0  0  0
 75 78  1  0  0  0
 75 81  1  0  0  0
 75150  1  0  0  0
 76151  1  0  0  0
 76152  1  0  0  0
 76153  1  0  0  0
 76 83  1  0  0  0
 77 83  1  0  0  0
 77154  1  0  0  0
 77155  1  0  0  0
 78 82  1  0  0  0
 78156  1  0  0  0
 78157  1  0  0  0
 79 80  1  0  0  0
 79 83  1  0  0  0
 79158  1  0  0  0
 79159  1  0  0  0
 80160  1  0  0  0
 80161  1  0  0  0
 82162  1  0  0  0
 83163  1  0  0  0
M  CHG  1  83   1
M  ISO  4   1 100  68 101  80 101  82 100
M  END
> <chiral flag>
0

> <version>
0

> <s_m_source_file>
/data/baiqing/PycharmProjects/Reinvent-master-3.2/result/LINK_invent/BTK/process_docking_weight1_custom_product_contain_oxygen_bond_distance_aromatic_linkinvent_7_9_3/rearranged_h_0009.sdf

> <i_m_source_file_index>
87

> <r_mmod_Potential_Energy-OPLS-2005>
45.5269393920898

> <r_mmod_Stretch_Energy-OPLS-2005>
75.2648239135742

> <r_mmod_Bend_Energy-OPLS-2005>
169.357025146484

> <r_mmod_Torsional_Energy-OPLS-2005>
405.131744384766

> <r_mmod_Improper_Torsional_Energy-OPLS-2005>
8.87808227539062

> <r_mmod_Van_der_Waal_Energy-OPLS-2005>
120.383979797363

> <r_mmod_Electrostatic_Energy-OPLS-2005>
-332.174835205078

> <r_mmod_Solvation_Energy-OPLS-2005>
-444.961944580078

> <b_mmod_Minimization_Converged-OPLS-2005>
0

> <r_mmod_RMS_Derivative-OPLS-2005>
14.6380863189697

$$$$
87
                    3D
 Structure written by MMmdl.
159167  0  0  1  0            999 V2000
  -30.6126  -14.7071   20.4849 C   0  0  0  0  0  0
  -30.4351  -12.4299   19.4883 C   0  0  0  0  0  0
  -29.5185  -12.5150   18.2466 C   0  0  0  0  0  0
  -28.0383  -12.3534   18.6425 C   0  0  0  0  0  0
  -27.6495  -13.2296   19.8617 C   0  0  2  0  0  0
  -28.6847  -13.1236   21.0042 C   0  0  0  0  0  0
  -25.2512  -13.8223   20.5661 C   0  0  0  0  0  0
  -24.1792  -13.0478   20.9166 C   0  0  0  0  0  0
  -24.6361  -11.6947   20.8682 C   0  0  0  0  0  0
  -23.9023  -10.4316   21.0361 C   0  0  0  0  0  0
  -24.3588   -9.4245   21.9144 C   0  0  0  0  0  0
  -23.6295   -8.2264   22.0726 C   0  0  0  0  0  0
  -22.4270   -8.0274   21.3527 C   0  0  0  0  0  0
  -21.9887   -9.0225   20.4622 C   0  0  0  0  0  0
  -22.7180  -10.2133   20.3017 C   0  0  0  0  0  0
  -21.6864   -6.0723   22.5262 C   0  0  0  0  0  0
  -21.4025   -6.5620   23.8194 C   0  0  0  0  0  0
  -21.3655   -5.6761   24.9146 C   0  0  0  0  0  0
  -21.6053   -4.3030   24.7194 C   0  0  0  0  0  0
  -21.8821   -3.8133   23.4313 C   0  0  0  0  0  0
  -21.9197   -4.6954   22.3369 C   0  0  0  0  0  0
  -22.7795  -13.5261   21.1842 C   0  0  0  0  0  0
  -22.1660   -4.2136   21.0942 F   0  0  0  0  0  0
  -21.5641   -3.4513   25.7709 F   0  0  0  0  0  0
  -30.0012  -13.4732   20.4485 N   0  0  0  0  0  0
  -26.2950  -12.9420   20.3279 N   0  0  0  0  0  0
  -25.9299  -11.6565   20.5696 N   0  0  0  0  0  0
  -22.0459  -12.8214   22.0391 N   0  0  0  0  0  0
  -25.4256  -15.1943   20.4101 N   0  0  0  0  0  0
  -31.7613  -14.8410   20.0525 O   0  0  0  0  0  0
  -21.6642   -6.8869   21.4221 O   0  0  0  0  0  0
  -22.3453  -14.5565   20.6721 O   0  0  0  0  0  0
  -24.6324  -31.8544   23.2035 C   0  0  0  0  0  0
  -25.9159  -32.4757   23.8352 C   0  0  1  0  0  0
  -27.2174  -27.2691   20.1076 C   0  0  0  0  0  0
  -25.5976  -33.8553   24.2285 N   0  0  0  0  0  0
  -23.4291  -30.4824   21.5436 C   0  0  2  0  0  0
  -24.8737  -28.9353   20.1049 C   0  0  0  0  0  0
  -22.7512  -29.4601   22.4875 C   0  0  0  0  0  0
  -18.0302  -28.1387   22.8467 C   0  0  0  0  0  0
  -24.1492  -36.7255   23.2632 C   0  0  0  0  0  0
  -25.9744  -30.7660   21.3861 C   0  0  0  0  0  0
  -26.0438  -29.3919   20.7231 C   0  0  0  0  0  0
  -27.2166  -28.5687   20.7197 C   0  0  0  0  0  0
  -26.0286  -26.8961   19.4384 C   0  0  0  0  0  0
  -24.8708  -27.6958   19.4522 C   0  0  0  0  0  0
  -23.6481  -29.8259   20.1553 C   0  0  0  0  0  0
  -25.4117  -36.3070   24.0331 C   0  0  1  0  0  0
  -20.5907  -28.3689   23.1259 C   0  0  2  0  0  0
  -20.6788  -26.9400   22.5407 C   0  0  0  0  0  0
  -19.5758  -26.6381   21.5204 C   0  0  0  0  0  0
  -18.1942  -26.7933   22.1609 C   0  0  0  0  0  0
  -19.1557  -28.8852   23.2862 C   0  0  0  0  0  0
  -18.9482  -30.1458   23.8873 C   0  0  0  0  0  0
  -17.6481  -30.6581   24.0567 C   0  0  0  0  0  0
  -25.9053  -34.9437   23.5099 C   0  0  0  0  0  0
  -16.5369  -29.9084   23.6329 C   0  0  0  0  0  0
  -16.7296  -28.6507   23.0340 C   0  0  0  0  0  0
  -26.4530  -31.6575   25.0722 C   0  0  0  0  0  0
  -25.3778  -31.3731   26.1466 C   0  0  0  0  0  0
  -27.0369  -30.3014   24.6173 C   0  0  0  0  0  0
  -27.6097  -32.4310   25.7484 C   0  0  0  0  0  0
  -27.5585  -37.1785   24.8461 C   0  0  0  0  0  0
  -21.4217  -29.3042   22.3650 N   0  0  0  0  0  0
  -26.4278  -37.3789   23.9432 N   0  0  0  0  0  0
  -24.6976  -31.0532   22.0987 N   0  0  0  0  0  0
  -23.4221  -28.8099   23.2953 O   0  0  0  0  0  0
  -28.3126  -26.3717   20.1777 O   0  0  0  0  0  0
  -26.5584  -34.8907   22.4646 O   0  0  0  0  0  0
  -23.5479  -32.1335   23.7337 O   0  0  0  0  0  0
  -28.6139  -19.3709   18.7843 C   0  0  0  0  0  0
  -29.6694  -18.4120   20.7503 C   0  0  0  0  0  0
  -29.0675  -16.9599   18.8944 C   0  0  0  0  0  0
  -29.2073  -19.6029   20.0484 C   0  0  0  0  0  0
  -28.5708  -18.0849   18.1986 C   0  0  0  0  0  0
  -29.6029  -17.0683   20.1940 C   0  0  0  0  0  0
  -29.9298  -22.3904   18.5900 C   0  0  0  0  0  0
  -29.2864  -21.0907   20.6408 C   0  0  0  0  0  0
  -29.0138  -23.7291   20.4575 C   0  0  0  0  0  0
  -28.1403  -24.9223   19.7990 C   0  0  0  0  0  0
  -27.9619  -17.9220   16.8091 C   0  0  0  0  0  0
  -29.8900  -15.8069   20.9128 N   0  0  0  0  0  0
  -29.0197  -22.3403   19.7677 N   0  3  1  0  0  0
  -28.5238  -18.7883   15.9648 F   0  0  0  0  0  0
  -28.1378  -16.6914   16.3232 F   0  0  0  0  0  0
  -26.6543  -18.1704   16.8646 F   0  0  0  0  0  0
  -31.4795  -12.5480   19.1914 H   0  0  0  0  0  0
  -30.3735  -11.4427   19.9515 H   0  0  0  0  0  0
  -29.7995  -11.7478   17.5251 H   0  0  0  0  0  0
  -29.6599  -13.4756   17.7472 H   0  0  0  0  0  0
  -27.8663  -11.3023   18.8758 H   0  0  0  0  0  0
  -27.3961  -12.5831   17.7908 H   0  0  0  0  0  0
  -27.6583  -14.2605   19.5092 H   0  0  0  0  0  0
  -28.7018  -12.1138   21.4170 H   0  0  0  0  0  0
  -28.4100  -13.7787   21.8321 H   0  0  0  0  0  0
  -25.2757   -9.5750   22.4680 H   0  0  0  0  0  0
  -24.0037   -7.4657   22.7436 H   0  0  0  0  0  0
  -21.0825   -8.8707   19.8917 H   0  0  0  0  0  0
  -22.3624  -10.9640   19.6097 H   0  0  0  0  0  0
  -21.2026   -7.6133   23.9681 H   0  0  0  0  0  0
  -21.1477   -6.0492   25.9041 H   0  0  0  0  0  0
  -22.0623   -2.7602   23.2779 H   0  0  0  0  0  0
  -22.4143  -11.9912   22.4795 H   0  0  0  0  0  0
  -21.1060  -13.1187   22.2604 H   0  0  0  0  0  0
  -24.6678  -15.8580   20.5298 H   0  0  0  0  0  0
  -26.2801  -15.6256   20.0840 H   0  0  0  0  0  0
  -26.7209  -32.5418   23.1067 H   0  0  0  0  0  0
  -25.0246  -33.9689   25.0527 H   0  0  0  0  0  0
  -22.7262  -31.3068   21.4050 H   0  0  0  0  0  0
  -23.3785  -35.9555   23.3266 H   0  0  0  0  0  0
  -24.3596  -36.8905   22.2054 H   0  0  0  0  0  0
  -23.7198  -37.6431   23.6659 H   0  0  0  0  0  0
  -26.1222  -31.5331   20.6249 H   0  0  0  0  0  0
  -26.8506  -30.8088   22.0211 H   0  0  0  0  0  0
  -28.1084  -28.9106   21.2248 H   0  0  0  0  0  0
  -25.9545  -25.9706   18.8896 H   0  0  0  0  0  0
  -23.9822  -27.3514   18.9413 H   0  0  0  0  0  0
  -23.7890  -30.6097   19.4098 H   0  0  0  0  0  0
  -22.7630  -29.2703   19.8407 H   0  0  0  0  0  0
  -25.1308  -36.1899   25.0823 H   0  0  0  0  0  0
  -21.0018  -28.3270   24.1374 H   0  0  0  0  0  0
  -20.5684  -26.2293   23.3616 H   0  0  0  0  0  0
  -21.6659  -26.7422   22.1211 H   0  0  0  0  0  0
  -19.6916  -25.6295   21.1236 H   0  0  0  0  0  0
  -19.6715  -27.3183   20.6731 H   0  0  0  0  0  0
  -17.4228  -26.6681   21.3999 H   0  0  0  0  0  0
  -18.0335  -26.0090   22.9016 H   0  0  0  0  0  0
  -19.7963  -30.7280   24.2225 H   0  0  0  0  0  0
  -17.5044  -31.6253   24.5182 H   0  0  0  0  0  0
  -15.5373  -30.2984   23.7660 H   0  0  0  0  0  0
  -15.8699  -28.0842   22.7029 H   0  0  0  0  0  0
  -24.5952  -30.7056   25.7835 H   0  0  0  0  0  0
  -24.8950  -32.2889   26.4883 H   0  0  0  0  0  0
  -25.8139  -30.8944   27.0241 H   0  0  0  0  0  0
  -26.2920  -29.6759   24.1228 H   0  0  0  0  0  0
  -27.4122  -29.7290   25.4660 H   0  0  0  0  0  0
  -27.8791  -30.4333   23.9376 H   0  0  0  0  0  0
  -27.2736  -33.3644   26.2015 H   0  0  0  0  0  0
  -28.3933  -32.6801   25.0313 H   0  0  0  0  0  0
  -28.0715  -31.8434   26.5428 H   0  0  0  0  0  0
  -28.2590  -38.0098   24.7588 H   0  0  0  0  0  0
  -28.1103  -36.2645   24.6217 H   0  0  0  0  0  0
  -27.2308  -37.1359   25.8859 H   0  0  0  0  0  0
  -20.9363  -29.8844   21.6947 H   0  0  0  0  0  0
  -26.0150  -38.2851   24.1495 H   0  0  0  0  0  0
  -28.1776  -20.1810   18.2186 H   0  0  0  0  0  0
  -30.0662  -18.5317   21.7490 H   0  0  0  0  0  0
  -28.9854  -15.9876   18.4302 H   0  0  0  0  0  0
  -29.9551  -21.4674   18.0149 H   0  0  0  0  0  0
  -30.9548  -22.5902   18.9041 H   0  0  0  0  0  0
  -29.6372  -23.1814   17.8991 H   0  0  0  0  0  0
  -30.2772  -21.2005   21.0818 H   0  0  0  0  0  0
  -28.5955  -21.1249   21.4837 H   0  0  0  0  0  0
  -28.6676  -23.5982   21.4829 H   0  0  0  0  0  0
  -30.0474  -24.0682   20.5420 H   0  0  0  0  0  0
  -27.1141  -24.6147   19.9915 H   0  0  0  0  0  0
  -28.2626  -24.8806   18.7158 H   0  0  0  0  0  0
  -29.1703  -15.5608   21.5768 H   0  0  0  0  0  0
  -28.0821  -22.2045   19.4181 H   0  0  0  0  0  0
  1 25  1  0  0  0
  1 30  2  0  0  0
  1 82  1  0  0  0
  2  3  1  0  0  0
  2 25  1  0  0  0
  2 87  1  0  0  0
  2 88  1  0  0  0
  3  4  1  0  0  0
  3 89  1  0  0  0
  3 90  1  0  0  0
  4  5  1  0  0  0
  4 91  1  0  0  0
  4 92  1  0  0  0
  5  6  1  0  0  0
  5 26  1  0  0  0
  5 93  1  0  0  0
  6 25  1  0  0  0
  6 94  1  0  0  0
  6 95  1  0  0  0
  7  8  2  0  0  0
  7 26  1  0  0  0
  7 29  1  0  0  0
  8  9  1  0  0  0
  8 22  1  0  0  0
  9 10  1  0  0  0
  9 27  2  0  0  0
 10 11  2  0  0  0
 10 15  1  0  0  0
 11 12  1  0  0  0
 11 96  1  0  0  0
 12 13  2  0  0  0
 12 97  1  0  0  0
 13 14  1  0  0  0
 13 31  1  0  0  0
 14 15  2  0  0  0
 14 98  1  0  0  0
 15 99  1  0  0  0
 16 17  2  0  0  0
 16 21  1  0  0  0
 16 31  1  0  0  0
 17 18  1  0  0  0
 17100  1  0  0  0
 18 19  2  0  0  0
 18101  1  0  0  0
 19 20  1  0  0  0
 19 24  1  0  0  0
 20 21  2  0  0  0
 20102  1  0  0  0
 21 23  1  0  0  0
 22 28  1  0  0  0
 22 32  2  0  0  0
 26 27  1  0  0  0
 28103  1  0  0  0
 28104  1  0  0  0
 29105  1  0  0  0
 29106  1  0  0  0
 33 34  1  0  0  0
 33 66  1  0  0  0
 33 70  2  0  0  0
 34 36  1  0  0  0
 34 59  1  0  0  0
 34107  1  0  0  0
 35 44  2  0  0  0
 35 45  1  0  0  0
 35 68  1  0  0  0
 36 56  1  0  0  0
 36108  1  0  0  0
 37 39  1  0  0  0
 37 47  1  0  0  0
 37 66  1  0  0  0
 37109  1  0  0  0
 38 43  2  0  0  0
 38 46  1  0  0  0
 38 47  1  0  0  0
 39 64  1  0  0  0
 39 67  2  0  0  0
 40 52  1  0  0  0
 40 53  2  0  0  0
 40 58  1  0  0  0
 41110  1  0  0  0
 41111  1  0  0  0
 41112  1  0  0  0
 41 48  1  0  0  0
 42 43  1  0  0  0
 42 66  1  0  0  0
 42113  1  0  0  0
 42114  1  0  0  0
 43 44  1  0  0  0
 44115  1  0  0  0
 45 46  2  0  0  0
 45116  1  0  0  0
 46117  1  0  0  0
 47118  1  0  0  0
 47119  1  0  0  0
 48 56  1  0  0  0
 48 65  1  0  0  0
 48120  1  0  0  0
 49 50  1  0  0  0
 49 53  1  0  0  0
 49 64  1  0  0  0
 49121  1  0  0  0
 50 51  1  0  0  0
 50122  1  0  0  0
 50123  1  0  0  0
 51 52  1  0  0  0
 51124  1  0  0  0
 51125  1  0  0  0
 52126  1  0  0  0
 52127  1  0  0  0
 53 54  1  0  0  0
 54 55  2  0  0  0
 54128  1  0  0  0
 55 57  1  0  0  0
 55129  1  0  0  0
 56 69  2  0  0  0
 57 58  2  0  0  0
 57130  1  0  0  0
 58131  1  0  0  0
 59 60  1  0  0  0
 59 61  1  0  0  0
 59 62  1  0  0  0
 60132  1  0  0  0
 60133  1  0  0  0
 60134  1  0  0  0
 61135  1  0  0  0
 61136  1  0  0  0
 61137  1  0  0  0
 62138  1  0  0  0
 62139  1  0  0  0
 62140  1  0  0  0
 63 65  1  0  0  0
 63141  1  0  0  0
 63142  1  0  0  0
 63143  1  0  0  0
 64144  1  0  0  0
 65145  1  0  0  0
 68 80  1  0  0  0
 71 74  2  0  0  0
 71 75  1  0  0  0
 71146  1  0  0  0
 72 74  1  0  0  0
 72 76  2  0  0  0
 72147  1  0  0  0
 73 75  2  0  0  0
 73 76  1  0  0  0
 73148  1  0  0  0
 74 78  1  0  0  0
 75 81  1  0  0  0
 76 82  1  0  0  0
 77149  1  0  0  0
 77150  1  0  0  0
 77151  1  0  0  0
 77 83  1  0  0  0
 78 83  1  0  0  0
 78152  1  0  0  0
 78153  1  0  0  0
 79 80  1  0  0  0
 79 83  1  0  0  0
 79154  1  0  0  0
 79155  1  0  0  0
 80156  1  0  0  0
 80157  1  0  0  0
 81 84  1  0  0  0
 81 85  1  0  0  0
 81 86  1  0  0  0
 82158  1  0  0  0
 83159  1  0  0  0
M  CHG  1  83   1
M  ISO  4   1 100  68 101  80 101  82 100
M  END
> <chiral flag>
0

> <version>
0

> <s_m_source_file>
/data/baiqing/PycharmProjects/Reinvent-master-3.2/result/LINK_invent/BTK/process_docking_weight1_custom_product_contain_oxygen_bond_distance_aromatic_linkinvent_7_9_3/rearranged_h_0009.sdf

> <i_m_source_file_index>
88

> <r_mmod_Potential_Energy-OPLS-2005>
84.2890701293945

> <r_mmod_Stretch_Energy-OPLS-2005>
123.974578857422

> <r_mmod_Bend_Energy-OPLS-2005>
161.128753662109

> <r_mmod_Torsional_Energy-OPLS-2005>
254.620391845703

> <r_mmod_Improper_Torsional_Energy-OPLS-2005>
5.35021591186523

> <r_mmod_Van_der_Waal_Energy-OPLS-2005>
141.29899597168

> <r_mmod_Electrostatic_Energy-OPLS-2005>
-216.326736450195

> <r_mmod_Solvation_Energy-OPLS-2005>
-460.640441894531

> <b_mmod_Minimization_Converged-OPLS-2005>
0

> <r_mmod_RMS_Derivative-OPLS-2005>
3.40496587753296

$$$$
88
                    3D
 Structure written by MMmdl.
151160  0  0  1  0            999 V2000
  -30.4923  -15.2372   20.3456 C   0  0  0  0  0  0
  -30.4236  -12.7794   19.5449 C   0  0  0  0  0  0
  -29.5326  -12.5628   18.2972 C   0  0  0  0  0  0
  -28.0822  -12.2849   18.7210 C   0  0  0  0  0  0
  -27.6044  -13.2711   19.8131 C   0  0  2  0  0  0
  -28.6292  -13.4840   20.9473 C   0  0  0  0  0  0
  -25.2382  -13.8236   20.5771 C   0  0  0  0  0  0
  -24.1728  -13.0432   20.9266 C   0  0  0  0  0  0
  -24.6377  -11.6930   20.8763 C   0  0  0  0  0  0
  -23.9074  -10.4290   21.0419 C   0  0  0  0  0  0
  -24.3630   -9.4205   21.9190 C   0  0  0  0  0  0
  -23.6310   -8.2237   22.0748 C   0  0  0  0  0  0
  -22.4285   -8.0273   21.3544 C   0  0  0  0  0  0
  -21.9924   -9.0246   20.4641 C   0  0  0  0  0  0
  -22.7250  -10.2130   20.3063 C   0  0  0  0  0  0
  -21.6854   -6.0739   22.5282 C   0  0  0  0  0  0
  -21.4013   -6.5647   23.8218 C   0  0  0  0  0  0
  -21.3662   -5.6801   24.9178 C   0  0  0  0  0  0
  -21.6051   -4.3061   24.7228 C   0  0  0  0  0  0
  -21.8817   -3.8149   23.4352 C   0  0  0  0  0  0
  -21.9193   -4.6969   22.3405 C   0  0  0  0  0  0
  -22.7752  -13.5185   21.1919 C   0  0  0  0  0  0
  -22.1665   -4.2154   21.0985 F   0  0  0  0  0  0
  -21.5627   -3.4543   25.7741 F   0  0  0  0  0  0
  -29.8811  -13.9505   20.3334 N   0  0  0  0  0  0
  -26.2778  -12.9501   20.3177 N   0  0  0  0  0  0
  -25.9305  -11.6615   20.5704 N   0  0  0  0  0  0
  -22.0424  -12.8155   22.0478 N   0  0  0  0  0  0
  -25.4039  -15.1959   20.4285 N   0  0  0  0  0  0
  -31.7157  -15.1479   20.1579 O   0  0  0  0  0  0
  -21.6641   -6.8876   21.4240 O   0  0  0  0  0  0
  -22.3421  -14.5480   20.6758 O   0  0  0  0  0  0
  -24.6620  -31.8265   23.1740 C   0  0  0  0  0  0
  -25.9317  -32.4601   23.8191 C   0  0  1  0  0  0
  -27.2125  -26.9544   20.1818 C   0  0  0  0  0  0
  -25.5999  -33.8410   24.2109 N   0  0  0  0  0  0
  -23.4728  -30.4411   21.5236 C   0  0  2  0  0  0
  -24.9226  -28.8328   20.1167 C   0  0  0  0  0  0
  -22.7658  -29.4452   22.4807 C   0  0  0  0  0  0
  -18.0319  -28.1402   22.8469 C   0  0  0  0  0  0
  -24.1487  -36.7209   23.2650 C   0  0  0  0  0  0
  -26.0407  -30.6437   21.3980 C   0  0  0  0  0  0
  -26.1083  -29.2358   20.7438 C   0  0  0  0  0  0
  -27.2497  -28.3186   20.7484 C   0  0  0  0  0  0
  -25.9956  -26.6970   19.5151 C   0  0  0  0  0  0
  -24.8893  -27.5818   19.4838 C   0  0  0  0  0  0
  -23.7099  -29.7600   20.1491 C   0  0  0  0  0  0
  -25.4127  -36.2967   24.0304 C   0  0  1  0  0  0
  -20.5944  -28.3737   23.1195 C   0  0  2  0  0  0
  -20.6799  -26.9422   22.5398 C   0  0  0  0  0  0
  -19.5764  -26.6370   21.5214 C   0  0  0  0  0  0
  -18.1947  -26.7935   22.1621 C   0  0  0  0  0  0
  -19.1583  -28.8893   23.2818 C   0  0  0  0  0  0
  -18.9489  -30.1490   23.8839 C   0  0  0  0  0  0
  -17.6480  -30.6593   24.0551 C   0  0  0  0  0  0
  -25.9085  -34.9349   23.5014 C   0  0  0  0  0  0
  -16.5373  -29.9070   23.6349 C   0  0  0  0  0  0
  -16.7302  -28.6497   23.0356 C   0  0  0  0  0  0
  -26.4577  -31.6527   25.0698 C   0  0  0  0  0  0
  -25.3724  -31.3774   26.1377 C   0  0  0  0  0  0
  -27.0471  -30.2898   24.6404 C   0  0  0  0  0  0
  -27.6071  -32.4337   25.7496 C   0  0  0  0  0  0
  -27.5549  -37.1773   24.8480 C   0  0  0  0  0  0
  -21.4333  -29.3034   22.3553 N   0  0  0  0  0  0
  -26.4277  -37.3693   23.9393 N   0  0  0  0  0  0
  -24.7465  -30.9964   22.0856 N   0  0  0  0  0  0
  -23.4220  -28.8022   23.3037 O   0  0  0  0  0  0
  -28.2365  -25.8787   20.2263 O   0  0  0  0  0  0
  -26.5673  -34.8877   22.4596 O   0  0  0  0  0  0
  -23.5697  -32.1216   23.6855 O   0  0  0  0  0  0
  -30.6978  -17.9786   20.8289 C   0  0  0  0  0  0
  -30.3333  -19.4216   20.7861 C   0  0  0  0  0  0
  -28.2969  -18.8404   19.9149 C   0  0  0  0  0  0
  -29.9019  -16.8135   20.4357 C   0  0  0  0  0  0
  -29.0902  -20.0072   20.3089 C   0  0  0  0  0  0
  -28.6496  -17.3915   19.9613 C   0  0  0  0  0  0
  -27.5061  -23.4612   19.0555 C   0  0  0  0  0  0
  -27.5076  -21.8927   19.3545 C   0  0  0  0  0  0
  -29.0942  -22.9453   20.6542 C   0  0  0  0  0  0
  -28.0240  -24.2477   20.2942 C   0  0  1  0  0  0
  -28.6606  -21.4971   20.1852 N   0  0  0  0  0  0
  -27.7151  -16.5372   19.4883 F   0  0  0  0  0  0
  -31.4526  -12.9394   19.2211 H   0  0  0  0  0  0
  -30.4533  -11.8782   20.1601 H   0  0  0  0  0  0
  -29.9122  -11.7381   17.6931 H   0  0  0  0  0  0
  -29.5660  -13.4513   17.6652 H   0  0  0  0  0  0
  -28.0431  -11.2641   19.1047 H   0  0  0  0  0  0
  -27.4155  -12.3148   17.8580 H   0  0  0  0  0  0
  -27.5079  -14.2172   19.2861 H   0  0  0  0  0  0
  -28.7792  -12.5728   21.5286 H   0  0  0  0  0  0
  -28.2666  -14.2430   21.6427 H   0  0  0  0  0  0
  -25.2778   -9.5684   22.4759 H   0  0  0  0  0  0
  -24.0029   -7.4624   22.7460 H   0  0  0  0  0  0
  -21.0857   -8.8759   19.8945 H   0  0  0  0  0  0
  -22.3703  -10.9669   19.6172 H   0  0  0  0  0  0
  -21.2005   -7.6156   23.9717 H   0  0  0  0  0  0
  -21.1487   -6.0534   25.9080 H   0  0  0  0  0  0
  -22.0593   -2.7610   23.2845 H   0  0  0  0  0  0
  -22.4077  -11.9835   22.4876 H   0  0  0  0  0  0
  -21.1021  -13.1126   22.2679 H   0  0  0  0  0  0
  -24.6412  -15.8504   20.5575 H   0  0  0  0  0  0
  -26.2598  -15.6407   20.1064 H   0  0  0  0  0  0
  -26.7385  -32.5150   23.0909 H   0  0  0  0  0  0
  -25.0165  -33.9493   25.0277 H   0  0  0  0  0  0
  -22.7840  -31.2725   21.3576 H   0  0  0  0  0  0
  -23.3728  -35.9566   23.3349 H   0  0  0  0  0  0
  -24.3548  -36.8811   22.2055 H   0  0  0  0  0  0
  -23.7283  -37.6427   23.6678 H   0  0  0  0  0  0
  -26.2141  -31.3838   20.6155 H   0  0  0  0  0  0
  -26.9044  -30.7021   22.0489 H   0  0  0  0  0  0
  -28.1507  -28.6282   21.2590 H   0  0  0  0  0  0
  -25.8615  -25.7499   19.0221 H   0  0  0  0  0  0
  -23.9868  -27.2636   18.9805 H   0  0  0  0  0  0
  -23.8667  -30.5296   19.3918 H   0  0  0  0  0  0
  -22.8188  -29.2170   19.8309 H   0  0  0  0  0  0
  -25.1329  -36.1770   25.0796 H   0  0  0  0  0  0
  -21.0027  -28.3333   24.1317 H   0  0  0  0  0  0
  -20.5685  -26.2348   23.3630 H   0  0  0  0  0  0
  -21.6659  -26.7407   22.1196 H   0  0  0  0  0  0
  -19.6916  -25.6270   21.1261 H   0  0  0  0  0  0
  -19.6701  -27.3166   20.6734 H   0  0  0  0  0  0
  -17.4221  -26.6687   21.4023 H   0  0  0  0  0  0
  -18.0335  -26.0088   22.9027 H   0  0  0  0  0  0
  -19.7966  -30.7328   24.2164 H   0  0  0  0  0  0
  -17.5032  -31.6264   24.5163 H   0  0  0  0  0  0
  -15.5368  -30.2946   23.7713 H   0  0  0  0  0  0
  -15.8707  -28.0802   22.7085 H   0  0  0  0  0  0
  -24.5870  -30.7167   25.7694 H   0  0  0  0  0  0
  -24.8961  -32.2977   26.4755 H   0  0  0  0  0  0
  -25.7967  -30.8950   27.0194 H   0  0  0  0  0  0
  -26.3135  -29.6578   24.1386 H   0  0  0  0  0  0
  -27.3998  -29.7253   25.5050 H   0  0  0  0  0  0
  -27.9080  -30.4102   23.9827 H   0  0  0  0  0  0
  -27.2644  -33.3679   26.1965 H   0  0  0  0  0  0
  -28.3936  -32.6840   25.0359 H   0  0  0  0  0  0
  -28.0688  -31.8536   26.5497 H   0  0  0  0  0  0
  -28.2610  -38.0023   24.7426 H   0  0  0  0  0  0
  -28.0995  -36.2539   24.6437 H   0  0  0  0  0  0
  -27.2245  -37.1585   25.8881 H   0  0  0  0  0  0
  -20.9574  -29.8748   21.6710 H   0  0  0  0  0  0
  -26.0123  -38.2760   24.1350 H   0  0  0  0  0  0
  -31.6988  -17.7622   21.1745 H   0  0  0  0  0  0
  -31.0934  -20.1143   21.1184 H   0  0  0  0  0  0
  -27.3141  -19.0529   19.5215 H   0  0  0  0  0  0
  -26.5111  -23.7702   18.7439 H   0  0  0  0  0  0
  -28.1687  -23.6637   18.2137 H   0  0  0  0  0  0
  -27.4978  -21.3306   18.4193 H   0  0  0  0  0  0
  -26.5956  -21.6271   19.8917 H   0  0  0  0  0  0
  -29.3046  -22.9320   21.7240 H   0  0  0  0  0  0
  -30.0489  -23.1549   20.1706 H   0  0  0  0  0  0
  -27.2370  -24.1593   21.0438 H   0  0  0  0  0  0
  1 25  1  0  0  0
  1 30  2  0  0  0
  1 74  1  0  0  0
  2  3  1  0  0  0
  2 25  1  0  0  0
  2 83  1  0  0  0
  2 84  1  0  0  0
  3  4  1  0  0  0
  3 85  1  0  0  0
  3 86  1  0  0  0
  4  5  1  0  0  0
  4 87  1  0  0  0
  4 88  1  0  0  0
  5  6  1  0  0  0
  5 26  1  0  0  0
  5 89  1  0  0  0
  6 25  1  0  0  0
  6 90  1  0  0  0
  6 91  1  0  0  0
  7  8  2  0  0  0
  7 26  1  0  0  0
  7 29  1  0  0  0
  8  9  1  0  0  0
  8 22  1  0  0  0
  9 10  1  0  0  0
  9 27  2  0  0  0
 10 11  2  0  0  0
 10 15  1  0  0  0
 11 12  1  0  0  0
 11 92  1  0  0  0
 12 13  2  0  0  0
 12 93  1  0  0  0
 13 14  1  0  0  0
 13 31  1  0  0  0
 14 15  2  0  0  0
 14 94  1  0  0  0
 15 95  1  0  0  0
 16 17  2  0  0  0
 16 21  1  0  0  0
 16 31  1  0  0  0
 17 18  1  0  0  0
 17 96  1  0  0  0
 18 19  2  0  0  0
 18 97  1  0  0  0
 19 20  1  0  0  0
 19 24  1  0  0  0
 20 21  2  0  0  0
 20 98  1  0  0  0
 21 23  1  0  0  0
 22 28  1  0  0  0
 22 32  2  0  0  0
 26 27  1  0  0  0
 28 99  1  0  0  0
 28100  1  0  0  0
 29101  1  0  0  0
 29102  1  0  0  0
 33 34  1  0  0  0
 33 66  1  0  0  0
 33 70  2  0  0  0
 34 36  1  0  0  0
 34 59  1  0  0  0
 34103  1  0  0  0
 35 44  2  0  0  0
 35 45  1  0  0  0
 35 68  1  0  0  0
 36 56  1  0  0  0
 36104  1  0  0  0
 37 39  1  0  0  0
 37 47  1  0  0  0
 37 66  1  0  0  0
 37105  1  0  0  0
 38 43  2  0  0  0
 38 46  1  0  0  0
 38 47  1  0  0  0
 39 64  1  0  0  0
 39 67  2  0  0  0
 40 52  1  0  0  0
 40 53  2  0  0  0
 40 58  1  0  0  0
 41106  1  0  0  0
 41107  1  0  0  0
 41108  1  0  0  0
 41 48  1  0  0  0
 42 43  1  0  0  0
 42 66  1  0  0  0
 42109  1  0  0  0
 42110  1  0  0  0
 43 44  1  0  0  0
 44111  1  0  0  0
 45 46  2  0  0  0
 45112  1  0  0  0
 46113  1  0  0  0
 47114  1  0  0  0
 47115  1  0  0  0
 48 56  1  0  0  0
 48 65  1  0  0  0
 48116  1  0  0  0
 49 50  1  0  0  0
 49 53  1  0  0  0
 49 64  1  0  0  0
 49117  1  0  0  0
 50 51  1  0  0  0
 50118  1  0  0  0
 50119  1  0  0  0
 51 52  1  0  0  0
 51120  1  0  0  0
 51121  1  0  0  0
 52122  1  0  0  0
 52123  1  0  0  0
 53 54  1  0  0  0
 54 55  2  0  0  0
 54124  1  0  0  0
 55 57  1  0  0  0
 55125  1  0  0  0
 56 69  2  0  0  0
 57 58  2  0  0  0
 57126  1  0  0  0
 58127  1  0  0  0
 59 60  1  0  0  0
 59 61  1  0  0  0
 59 62  1  0  0  0
 60128  1  0  0  0
 60129  1  0  0  0
 60130  1  0  0  0
 61131  1  0  0  0
 61132  1  0  0  0
 61133  1  0  0  0
 62134  1  0  0  0
 62135  1  0  0  0
 62136  1  0  0  0
 63 65  1  0  0  0
 63137  1  0  0  0
 63138  1  0  0  0
 63139  1  0  0  0
 64140  1  0  0  0
 65141  1  0  0  0
 68 80  1  0  0  0
 71 72  2  0  0  0
 71 74  1  0  0  0
 71142  1  0  0  0
 72 75  1  0  0  0
 72143  1  0  0  0
 73 75  2  0  0  0
 73 76  1  0  0  0
 73144  1  0  0  0
 74 76  2  0  0  0
 75 81  1  0  0  0
 76 82  1  0  0  0
 77 78  1  0  0  0
 77 80  1  0  0  0
 77145  1  0  0  0
 77146  1  0  0  0
 78 81  1  0  0  0
 78147  1  0  0  0
 78148  1  0  0  0
 79 80  1  0  0  0
 79 81  1  0  0  0
 79149  1  0  0  0
 79150  1  0  0  0
 80151  1  0  0  0
M  ISO  4   1 100  68 101  74 100  80 101
M  END
> <chiral flag>
0

> <version>
0

> <s_m_source_file>
/data/baiqing/PycharmProjects/Reinvent-master-3.2/result/LINK_invent/BTK/process_docking_weight1_custom_product_contain_oxygen_bond_distance_aromatic_linkinvent_7_9_3/rearranged_h_0009.sdf

> <i_m_source_file_index>
89

> <r_mmod_Potential_Energy-OPLS-2005>
1198.67272949219

> <r_mmod_Stretch_Energy-OPLS-2005>
436.693237304688

> <r_mmod_Bend_Energy-OPLS-2005>
480.946044921875

> <r_mmod_Torsional_Energy-OPLS-2005>
236.732727050781

> <r_mmod_Improper_Torsional_Energy-OPLS-2005>
3.27524447441101

> <r_mmod_Van_der_Waal_Energy-OPLS-2005>
129.252792358398

> <r_mmod_Electrostatic_Energy-OPLS-2005>
-299.551055908203

> <r_mmod_Solvation_Energy-OPLS-2005>
-205.415466308594

> <b_mmod_Minimization_Converged-OPLS-2005>
0

> <r_mmod_RMS_Derivative-OPLS-2005>
1.55861139297485

$$$$
89
                    3D
 Structure written by MMmdl.
159168  0  0  1  0            999 V2000
  -30.6569  -14.6781   20.4982 C   0  0  0  0  0  0
  -30.4179  -12.4234   19.4621 C   0  0  0  0  0  0
  -29.4985  -12.5058   18.2265 C   0  0  0  0  0  0
  -28.0259  -12.3350   18.6432 C   0  0  0  0  0  0
  -27.6398  -13.2288   19.8518 C   0  0  2  0  0  0
  -28.6831  -13.1481   20.9865 C   0  0  0  0  0  0
  -25.2491  -13.8192   20.5689 C   0  0  0  0  0  0
  -24.1788  -13.0437   20.9213 C   0  0  0  0  0  0
  -24.6382  -11.6917   20.8757 C   0  0  0  0  0  0
  -23.9064  -10.4293   21.0413 C   0  0  0  0  0  0
  -24.3617   -9.4208   21.9188 C   0  0  0  0  0  0
  -23.6293   -8.2242   22.0755 C   0  0  0  0  0  0
  -22.4275   -8.0281   21.3544 C   0  0  0  0  0  0
  -21.9912   -9.0255   20.4646 C   0  0  0  0  0  0
  -22.7239  -10.2134   20.3059 C   0  0  0  0  0  0
  -21.6852   -6.0737   22.5279 C   0  0  0  0  0  0
  -21.4013   -6.5640   23.8213 C   0  0  0  0  0  0
  -21.3659   -5.6792   24.9174 C   0  0  0  0  0  0
  -21.6044   -4.3055   24.7225 C   0  0  0  0  0  0
  -21.8819   -3.8149   23.4345 C   0  0  0  0  0  0
  -21.9192   -4.6965   22.3402 C   0  0  0  0  0  0
  -22.7810  -13.5220   21.1870 C   0  0  0  0  0  0
  -22.1661   -4.2152   21.0979 F   0  0  0  0  0  0
  -21.5629   -3.4539   25.7737 F   0  0  0  0  0  0
  -29.9894  -13.4800   20.4064 N   0  0  0  0  0  0
  -26.2919  -12.9399   20.3289 N   0  0  0  0  0  0
  -25.9310  -11.6544   20.5764 N   0  0  0  0  0  0
  -22.0458  -12.8209   22.0426 N   0  0  0  0  0  0
  -25.4150  -15.1913   20.4077 N   0  0  0  0  0  0
  -31.8295  -14.7562   20.1166 O   0  0  0  0  0  0
  -21.6637   -6.8880   21.4241 O   0  0  0  0  0  0
  -22.3497  -14.5526   20.6716 O   0  0  0  0  0  0
  -24.6260  -31.8563   23.1975 C   0  0  0  0  0  0
  -25.9104  -32.4755   23.8313 C   0  0  1  0  0  0
  -27.2296  -27.3013   20.1212 C   0  0  0  0  0  0
  -25.5917  -33.8557   24.2246 N   0  0  0  0  0  0
  -23.4196  -30.4757   21.5404 C   0  0  2  0  0  0
  -24.8648  -28.9175   20.1111 C   0  0  0  0  0  0
  -22.7467  -29.4600   22.4934 C   0  0  0  0  0  0
  -18.0282  -28.1379   22.8485 C   0  0  0  0  0  0
  -24.1488  -36.7285   23.2641 C   0  0  0  0  0  0
  -25.9580  -30.7832   21.3654 C   0  0  0  0  0  0
  -26.0306  -29.4067   20.7103 C   0  0  0  0  0  0
  -27.2108  -28.6098   20.7004 C   0  0  0  0  0  0
  -26.0358  -26.8488   19.5226 C   0  0  0  0  0  0
  -24.8696  -27.6455   19.5102 C   0  0  0  0  0  0
  -23.6335  -29.8012   20.1577 C   0  0  0  0  0  0
  -25.4114  -36.3069   24.0326 C   0  0  1  0  0  0
  -20.5880  -28.3680   23.1290 C   0  0  2  0  0  0
  -20.6769  -26.9403   22.5416 C   0  0  0  0  0  0
  -19.5749  -26.6380   21.5212 C   0  0  0  0  0  0
  -18.1926  -26.7923   22.1620 C   0  0  0  0  0  0
  -19.1534  -28.8847   23.2882 C   0  0  0  0  0  0
  -18.9460  -30.1449   23.8897 C   0  0  0  0  0  0
  -17.6461  -30.6583   24.0561 C   0  0  0  0  0  0
  -25.9054  -34.9440   23.5092 C   0  0  0  0  0  0
  -16.5351  -29.9084   23.6329 C   0  0  0  0  0  0
  -16.7270  -28.6501   23.0351 C   0  0  0  0  0  0
  -26.4493  -31.6578   25.0694 C   0  0  0  0  0  0
  -25.3729  -31.3716   26.1424 C   0  0  0  0  0  0
  -27.0343  -30.3007   24.6149 C   0  0  0  0  0  0
  -27.6048  -32.4321   25.7468 C   0  0  0  0  0  0
  -27.5578  -37.1792   24.8463 C   0  0  0  0  0  0
  -21.4181  -29.3030   22.3684 N   0  0  0  0  0  0
  -26.4287  -37.3770   23.9411 N   0  0  0  0  0  0
  -24.6869  -31.0562   22.0920 N   0  0  0  0  0  0
  -23.4188  -28.8156   23.3030 O   0  0  0  0  0  0
  -28.3985  -26.5299   20.1893 O   0  0  0  0  0  0
  -26.5633  -34.8917   22.4665 O   0  0  0  0  0  0
  -23.5426  -32.1368   23.7307 O   0  0  0  0  0  0
  -28.5877  -19.1262   21.2066 C   0  0  0  0  0  0
  -28.4474  -20.5497   21.0537 C   0  0  0  0  0  0
  -29.4573  -20.3948   18.8949 C   0  0  0  0  0  0
  -29.1540  -18.2899   20.1981 C   0  0  0  0  0  0
  -28.8488  -21.2378   19.8724 C   0  0  0  0  0  0
  -29.6057  -18.9830   19.0449 C   0  0  0  0  0  0
  -28.4496  -24.7067   18.3085 C   0  0  0  0  0  0
  -28.8839  -23.2202   18.2892 C   0  0  0  0  0  0
  -28.2477  -23.7784   20.5306 C   0  0  0  0  0  0
  -28.6281  -25.1180   19.7702 C   0  0  2  0  0  0
  -30.7152  -16.5234   22.0758 C   0  0  0  0  0  0
  -29.0890  -16.6975   20.2207 C   0  0  0  0  0  0
  -28.6467  -22.6562   19.6239 N   0  0  0  0  0  0
  -30.0225  -15.8013   21.0075 N   0  0  0  0  0  0
  -30.1510  -18.2770   18.0251 F   0  0  0  0  0  0
  -31.4610  -12.5271   19.1590 H   0  0  0  0  0  0
  -30.3437  -11.4423   19.9340 H   0  0  0  0  0  0
  -29.7725  -11.7401   17.4992 H   0  0  0  0  0  0
  -29.6323  -13.4665   17.7267 H   0  0  0  0  0  0
  -27.8779  -11.2852   18.8992 H   0  0  0  0  0  0
  -27.3668  -12.5362   17.7978 H   0  0  0  0  0  0
  -27.6382  -14.2520   19.4784 H   0  0  0  0  0  0
  -28.7053  -12.1497   21.4255 H   0  0  0  0  0  0
  -28.4233  -13.8323   21.7958 H   0  0  0  0  0  0
  -25.2761   -9.5686   22.4763 H   0  0  0  0  0  0
  -24.0003   -7.4634   22.7474 H   0  0  0  0  0  0
  -21.0844   -8.8774   19.8949 H   0  0  0  0  0  0
  -22.3699  -10.9675   19.6169 H   0  0  0  0  0  0
  -21.2005   -7.6148   23.9718 H   0  0  0  0  0  0
  -21.1481   -6.0521   25.9077 H   0  0  0  0  0  0
  -22.0598   -2.7611   23.2844 H   0  0  0  0  0  0
  -22.4078  -11.9872   22.4813 H   0  0  0  0  0  0
  -21.1075  -13.1232   22.2631 H   0  0  0  0  0  0
  -24.6423  -15.8398   20.5130 H   0  0  0  0  0  0
  -26.2551  -15.6311   20.0581 H   0  0  0  0  0  0
  -26.7166  -32.5416   23.1053 H   0  0  0  0  0  0
  -25.0055  -33.9696   25.0385 H   0  0  0  0  0  0
  -22.7138  -31.2957   21.3932 H   0  0  0  0  0  0
  -23.3752  -35.9613   23.3293 H   0  0  0  0  0  0
  -24.3579  -36.8923   22.2057 H   0  0  0  0  0  0
  -23.7239  -37.6479   23.6678 H   0  0  0  0  0  0
  -26.0868  -31.5445   20.5948 H   0  0  0  0  0  0
  -26.8395  -30.8356   21.9932 H   0  0  0  0  0  0
  -28.1099  -28.9851   21.1689 H   0  0  0  0  0  0
  -25.9754  -25.8646   19.0889 H   0  0  0  0  0  0
  -23.9695  -27.2592   19.0522 H   0  0  0  0  0  0
  -23.7530  -30.5735   19.3969 H   0  0  0  0  0  0
  -22.7526  -29.2302   19.8587 H   0  0  0  0  0  0
  -25.1294  -36.1913   25.0817 H   0  0  0  0  0  0
  -20.9968  -28.3255   24.1412 H   0  0  0  0  0  0
  -20.5666  -26.2287   23.3614 H   0  0  0  0  0  0
  -21.6639  -26.7431   22.1214 H   0  0  0  0  0  0
  -19.6913  -25.6293   21.1239 H   0  0  0  0  0  0
  -19.6690  -27.3193   20.6743 H   0  0  0  0  0  0
  -17.4198  -26.6673   21.4020 H   0  0  0  0  0  0
  -18.0324  -26.0061   22.9013 H   0  0  0  0  0  0
  -19.7936  -30.7263   24.2270 H   0  0  0  0  0  0
  -17.5017  -31.6266   24.5160 H   0  0  0  0  0  0
  -15.5354  -30.2987   23.7654 H   0  0  0  0  0  0
  -15.8668  -28.0824   22.7065 H   0  0  0  0  0  0
  -24.5909  -30.7057   25.7758 H   0  0  0  0  0  0
  -24.8911  -32.2878   26.4845 H   0  0  0  0  0  0
  -25.8056  -30.8902   27.0203 H   0  0  0  0  0  0
  -26.2912  -29.6744   24.1196 H   0  0  0  0  0  0
  -27.4075  -29.7275   25.4646 H   0  0  0  0  0  0
  -27.8760  -30.4299   23.9342 H   0  0  0  0  0  0
  -27.2659  -33.3632   26.2021 H   0  0  0  0  0  0
  -28.3870  -32.6864   25.0304 H   0  0  0  0  0  0
  -28.0699  -31.8460   26.5405 H   0  0  0  0  0  0
  -28.2582  -38.0102   24.7526 H   0  0  0  0  0  0
  -28.1088  -36.2634   24.6268 H   0  0  0  0  0  0
  -27.2299  -37.1416   25.8866 H   0  0  0  0  0  0
  -20.9362  -29.8746   21.6886 H   0  0  0  0  0  0
  -26.0163  -38.2839   24.1427 H   0  0  0  0  0  0
  -28.1987  -18.6668   22.1040 H   0  0  0  0  0  0
  -27.9777  -21.1078   21.8513 H   0  0  0  0  0  0
  -29.8107  -20.8151   17.9663 H   0  0  0  0  0  0
  -27.4120  -24.7812   17.9921 H   0  0  0  0  0  0
  -29.0457  -25.3146   17.6271 H   0  0  0  0  0  0
  -29.9493  -23.1526   18.0611 H   0  0  0  0  0  0
  -28.3437  -22.6692   17.5173 H   0  0  0  0  0  0
  -27.1742  -23.7340   20.7187 H   0  0  0  0  0  0
  -28.7596  -23.7097   21.4915 H   0  0  0  0  0  0
  -29.7141  -25.1230   19.8816 H   0  0  0  0  0  0
  -30.0035  -17.0509   22.7107 H   0  0  0  0  0  0
  -31.4142  -17.2508   21.6606 H   0  0  0  0  0  0
  -31.2797  -15.8474   22.7209 H   0  0  0  0  0  0
  -29.1019  -16.3583   19.1834 H   0  0  0  0  0  0
  -28.0881  -16.4511   20.5731 H   0  0  0  0  0  0
  1 25  1  0  0  0
  1 30  2  0  0  0
  1 84  1  0  0  0
  2  3  1  0  0  0
  2 25  1  0  0  0
  2 86  1  0  0  0
  2 87  1  0  0  0
  3  4  1  0  0  0
  3 88  1  0  0  0
  3 89  1  0  0  0
  4  5  1  0  0  0
  4 90  1  0  0  0
  4 91  1  0  0  0
  5  6  1  0  0  0
  5 26  1  0  0  0
  5 92  1  0  0  0
  6 25  1  0  0  0
  6 93  1  0  0  0
  6 94  1  0  0  0
  7  8  2  0  0  0
  7 26  1  0  0  0
  7 29  1  0  0  0
  8  9  1  0  0  0
  8 22  1  0  0  0
  9 10  1  0  0  0
  9 27  2  0  0  0
 10 11  2  0  0  0
 10 15  1  0  0  0
 11 12  1  0  0  0
 11 95  1  0  0  0
 12 13  2  0  0  0
 12 96  1  0  0  0
 13 14  1  0  0  0
 13 31  1  0  0  0
 14 15  2  0  0  0
 14 97  1  0  0  0
 15 98  1  0  0  0
 16 17  2  0  0  0
 16 21  1  0  0  0
 16 31  1  0  0  0
 17 18  1  0  0  0
 17 99  1  0  0  0
 18 19  2  0  0  0
 18100  1  0  0  0
 19 20  1  0  0  0
 19 24  1  0  0  0
 20 21  2  0  0  0
 20101  1  0  0  0
 21 23  1  0  0  0
 22 28  1  0  0  0
 22 32  2  0  0  0
 26 27  1  0  0  0
 28102  1  0  0  0
 28103  1  0  0  0
 29104  1  0  0  0
 29105  1  0  0  0
 33 34  1  0  0  0
 33 66  1  0  0  0
 33 70  2  0  0  0
 34 36  1  0  0  0
 34 59  1  0  0  0
 34106  1  0  0  0
 35 44  2  0  0  0
 35 45  1  0  0  0
 35 68  1  0  0  0
 36 56  1  0  0  0
 36107  1  0  0  0
 37 39  1  0  0  0
 37 47  1  0  0  0
 37 66  1  0  0  0
 37108  1  0  0  0
 38 43  2  0  0  0
 38 46  1  0  0  0
 38 47  1  0  0  0
 39 64  1  0  0  0
 39 67  2  0  0  0
 40 52  1  0  0  0
 40 53  2  0  0  0
 40 58  1  0  0  0
 41109  1  0  0  0
 41110  1  0  0  0
 41111  1  0  0  0
 41 48  1  0  0  0
 42 43  1  0  0  0
 42 66  1  0  0  0
 42112  1  0  0  0
 42113  1  0  0  0
 43 44  1  0  0  0
 44114  1  0  0  0
 45 46  2  0  0  0
 45115  1  0  0  0
 46116  1  0  0  0
 47117  1  0  0  0
 47118  1  0  0  0
 48 56  1  0  0  0
 48 65  1  0  0  0
 48119  1  0  0  0
 49 50  1  0  0  0
 49 53  1  0  0  0
 49 64  1  0  0  0
 49120  1  0  0  0
 50 51  1  0  0  0
 50121  1  0  0  0
 50122  1  0  0  0
 51 52  1  0  0  0
 51123  1  0  0  0
 51124  1  0  0  0
 52125  1  0  0  0
 52126  1  0  0  0
 53 54  1  0  0  0
 54 55  2  0  0  0
 54127  1  0  0  0
 55 57  1  0  0  0
 55128  1  0  0  0
 56 69  2  0  0  0
 57 58  2  0  0  0
 57129  1  0  0  0
 58130  1  0  0  0
 59 60  1  0  0  0
 59 61  1  0  0  0
 59 62  1  0  0  0
 60131  1  0  0  0
 60132  1  0  0  0
 60133  1  0  0  0
 61134  1  0  0  0
 61135  1  0  0  0
 61136  1  0  0  0
 62137  1  0  0  0
 62138  1  0  0  0
 62139  1  0  0  0
 63 65  1  0  0  0
 63140  1  0  0  0
 63141  1  0  0  0
 63142  1  0  0  0
 64143  1  0  0  0
 65144  1  0  0  0
 68 80  1  0  0  0
 71 72  2  0  0  0
 71 74  1  0  0  0
 71145  1  0  0  0
 72 75  1  0  0  0
 72146  1  0  0  0
 73 75  2  0  0  0
 73 76  1  0  0  0
 73147  1  0  0  0
 74 76  2  0  0  0
 74 82  1  0  0  0
 75 83  1  0  0  0
 76 85  1  0  0  0
 77 78  1  0  0  0
 77 80  1  0  0  0
 77148  1  0  0  0
 77149  1  0  0  0
 78 83  1  0  0  0
 78150  1  0  0  0
 78151  1  0  0  0
 79 80  1  0  0  0
 79 83  1  0  0  0
 79152  1  0  0  0
 79153  1  0  0  0
 80154  1  0  0  0
 81 84  1  0  0  0
 81155  1  0  0  0
 81156  1  0  0  0
 81157  1  0  0  0
 82 84  1  0  0  0
 82158  1  0  0  0
 82159  1  0  0  0
M  ISO  4   1 100  68 101  80 101  84 100
M  END
> <chiral flag>
0

> <version>
0

> <s_m_source_file>
/data/baiqing/PycharmProjects/Reinvent-master-3.2/result/LINK_invent/BTK/process_docking_weight1_custom_product_contain_oxygen_bond_distance_aromatic_linkinvent_7_9_3/rearranged_h_0009.sdf

> <i_m_source_file_index>
90

> <r_mmod_Potential_Energy-OPLS-2005>
349.136810302734

> <r_mmod_Stretch_Energy-OPLS-2005>
93.2546920776367

> <r_mmod_Bend_Energy-OPLS-2005>
265.135345458984

> <r_mmod_Torsional_Energy-OPLS-2005>
305.751708984375

> <r_mmod_Improper_Torsional_Energy-OPLS-2005>
4.97612810134888

> <r_mmod_Van_der_Waal_Energy-OPLS-2005>
134.080780029297

> <r_mmod_Electrostatic_Energy-OPLS-2005>
-296.380828857422

> <r_mmod_Solvation_Energy-OPLS-2005>
-214.413299560547

> <b_mmod_Minimization_Converged-OPLS-2005>
0

> <r_mmod_RMS_Derivative-OPLS-2005>
0.283560037612915

$$$$
90
                    3D
 Structure written by MMmdl.
154162  0  0  1  0            999 V2000
  -30.5067  -14.9617   20.3991 C   0  0  0  0  0  0
  -30.4411  -12.5918   19.4961 C   0  0  0  0  0  0
  -29.5274  -12.5273   18.2496 C   0  0  0  0  0  0
  -28.0519  -12.3301   18.6566 C   0  0  0  0  0  0
  -27.6284  -13.2492   19.8356 C   0  0  2  0  0  0
  -28.6712  -13.2675   20.9742 C   0  0  0  0  0  0
  -25.2466  -13.8214   20.5719 C   0  0  0  0  0  0
  -24.1788  -13.0437   20.9273 C   0  0  0  0  0  0
  -24.6387  -11.6921   20.8748 C   0  0  0  0  0  0
  -23.9063  -10.4289   21.0396 C   0  0  0  0  0  0
  -24.3611   -9.4216   21.9196 C   0  0  0  0  0  0
  -23.6291   -8.2252   22.0759 C   0  0  0  0  0  0
  -22.4276   -8.0299   21.3550 C   0  0  0  0  0  0
  -21.9910   -9.0259   20.4651 C   0  0  0  0  0  0
  -22.7219  -10.2142   20.3059 C   0  0  0  0  0  0
  -21.6855   -6.0757   22.5284 C   0  0  0  0  0  0
  -21.4005   -6.5658   23.8217 C   0  0  0  0  0  0
  -21.3662   -5.6804   24.9184 C   0  0  0  0  0  0
  -21.6045   -4.3061   24.7220 C   0  0  0  0  0  0
  -21.8814   -3.8164   23.4332 C   0  0  0  0  0  0
  -21.9186   -4.6988   22.3396 C   0  0  0  0  0  0
  -22.7805  -13.5213   21.1892 C   0  0  0  0  0  0
  -22.1646   -4.2193   21.0962 F   0  0  0  0  0  0
  -21.5638   -3.4528   25.7719 F   0  0  0  0  0  0
  -29.9377  -13.6886   20.3729 N   0  0  0  0  0  0
  -26.2887  -12.9440   20.3215 N   0  0  0  0  0  0
  -25.9327  -11.6568   20.5728 N   0  0  0  0  0  0
  -22.0433  -12.8238   22.0445 N   0  0  0  0  0  0
  -25.4074  -15.1958   20.4075 N   0  0  0  0  0  0
  -31.7114  -15.0397   20.1405 O   0  0  0  0  0  0
  -21.6644   -6.8897   21.4244 O   0  0  0  0  0  0
  -22.3504  -14.5510   20.6714 O   0  0  0  0  0  0
  -24.6498  -31.8390   23.1864 C   0  0  0  0  0  0
  -25.9254  -32.4658   23.8285 C   0  0  1  0  0  0
  -27.2089  -27.1088   20.1404 C   0  0  0  0  0  0
  -25.5994  -33.8480   24.2203 N   0  0  0  0  0  0
  -23.4535  -30.4540   21.5336 C   0  0  2  0  0  0
  -24.8991  -28.8725   20.1193 C   0  0  0  0  0  0
  -22.7598  -29.4511   22.4876 C   0  0  0  0  0  0
  -18.0301  -28.1393   22.8450 C   0  0  0  0  0  0
  -24.1494  -36.7238   23.2633 C   0  0  0  0  0  0
  -26.0127  -30.6999   21.3889 C   0  0  0  0  0  0
  -26.0798  -29.3099   20.7308 C   0  0  0  0  0  0
  -27.2398  -28.4442   20.7218 C   0  0  0  0  0  0
  -26.0019  -26.7762   19.4946 C   0  0  0  0  0  0
  -24.8709  -27.6194   19.4904 C   0  0  0  0  0  0
  -23.6803  -29.7786   20.1565 C   0  0  0  0  0  0
  -25.4122  -36.3023   24.0322 C   0  0  1  0  0  0
  -20.5916  -28.3702   23.1233 C   0  0  2  0  0  0
  -20.6769  -26.9389   22.5420 C   0  0  0  0  0  0
  -19.5757  -26.6321   21.5213 C   0  0  0  0  0  0
  -18.1928  -26.7932   22.1579 C   0  0  0  0  0  0
  -19.1561  -28.8859   23.2832 C   0  0  0  0  0  0
  -18.9489  -30.1465   23.8830 C   0  0  0  0  0  0
  -17.6497  -30.6601   24.0534 C   0  0  0  0  0  0
  -25.9090  -34.9394   23.5076 C   0  0  0  0  0  0
  -16.5369  -29.9083   23.6360 C   0  0  0  0  0  0
  -16.7274  -28.6509   23.0376 C   0  0  0  0  0  0
  -26.4544  -31.6552   25.0755 C   0  0  0  0  0  0
  -25.3735  -31.3770   26.1456 C   0  0  0  0  0  0
  -27.0405  -30.2941   24.6395 C   0  0  0  0  0  0
  -27.6091  -32.4318   25.7515 C   0  0  0  0  0  0
  -27.5576  -37.1764   24.8455 C   0  0  0  0  0  0
  -21.4293  -29.3022   22.3611 N   0  0  0  0  0  0
  -26.4270  -37.3743   23.9432 N   0  0  0  0  0  0
  -24.7245  -31.0219   22.0898 N   0  0  0  0  0  0
  -23.4217  -28.8047   23.3035 O   0  0  0  0  0  0
  -28.2612  -26.1223   20.1413 O   0  0  0  0  0  0
  -26.5650  -34.8880   22.4638 O   0  0  0  0  0  0
  -23.5621  -32.1281   23.7076 O   0  0  0  0  0  0
  -29.3087  -20.6069   20.2851 C   0  0  0  0  0  0
  -27.1777  -22.2751   18.0712 C   0  0  0  0  0  0
  -28.3248  -23.2865   18.2034 C   0  0  0  0  0  0
  -27.1396  -21.4979   19.3939 C   0  0  0  0  0  0
  -28.7354  -23.2545   19.6842 C   0  0  1  0  0  0
  -28.9185  -18.9791   20.3727 C   0  0  0  0  0  0
  -28.0008  -24.5973   20.4117 C   0  0  0  0  0  0
  -30.0168  -17.6832   20.2892 C   0  0  0  0  0  0
  -28.4415  -21.7240   20.0220 N   0  0  0  0  0  0
  -29.6988  -16.1346   20.4907 N   0  0  0  0  0  0
  -30.4970  -20.8550   20.4975 O   0  0  0  0  0  0
  -31.4774  -12.7564   19.1912 H   0  0  0  0  0  0
  -30.4379  -11.6365   20.0251 H   0  0  0  0  0  0
  -29.8439  -11.7177   17.5890 H   0  0  0  0  0  0
  -29.6308  -13.4504   17.6745 H   0  0  0  0  0  0
  -27.9205  -11.2840   18.9346 H   0  0  0  0  0  0
  -27.3997  -12.5009   17.7999 H   0  0  0  0  0  0
  -27.5897  -14.2565   19.4209 H   0  0  0  0  0  0
  -28.7646  -12.2843   21.4382 H   0  0  0  0  0  0
  -28.3781  -13.9587   21.7652 H   0  0  0  0  0  0
  -25.2738   -9.5740   22.4792 H   0  0  0  0  0  0
  -24.0041   -7.4637   22.7455 H   0  0  0  0  0  0
  -21.0867   -8.8722   19.8936 H   0  0  0  0  0  0
  -22.3639  -10.9677   19.6183 H   0  0  0  0  0  0
  -21.1983   -7.6164   23.9750 H   0  0  0  0  0  0
  -21.1496   -6.0525   25.9100 H   0  0  0  0  0  0
  -22.0598   -2.7636   23.2801 H   0  0  0  0  0  0
  -22.3996  -11.9882   22.4830 H   0  0  0  0  0  0
  -21.1042  -13.1293   22.2561 H   0  0  0  0  0  0
  -24.6333  -15.8391   20.5271 H   0  0  0  0  0  0
  -26.2184  -15.6292   19.9855 H   0  0  0  0  0  0
  -26.7325  -32.5220   23.1006 H   0  0  0  0  0  0
  -25.0167  -33.9595   25.0367 H   0  0  0  0  0  0
  -22.7577  -31.2794   21.3724 H   0  0  0  0  0  0
  -23.3783  -35.9540   23.3256 H   0  0  0  0  0  0
  -24.3561  -36.8912   22.2049 H   0  0  0  0  0  0
  -23.7218  -37.6408   23.6687 H   0  0  0  0  0  0
  -26.1802  -31.4504   20.6138 H   0  0  0  0  0  0
  -26.8793  -30.7420   22.0373 H   0  0  0  0  0  0
  -28.1465  -28.7723   21.2088 H   0  0  0  0  0  0
  -25.9084  -25.8224   18.9961 H   0  0  0  0  0  0
  -23.9676  -27.2808   19.0046 H   0  0  0  0  0  0
  -23.8236  -30.5426   19.3938 H   0  0  0  0  0  0
  -22.7960  -29.2204   19.8449 H   0  0  0  0  0  0
  -25.1298  -36.1823   25.0807 H   0  0  0  0  0  0
  -20.9966  -28.3243   24.1369 H   0  0  0  0  0  0
  -20.5662  -26.2298   23.3658 H   0  0  0  0  0  0
  -21.6643  -26.7362   22.1257 H   0  0  0  0  0  0
  -19.6922  -25.6208   21.1291 H   0  0  0  0  0  0
  -19.6713  -27.3067   20.6700 H   0  0  0  0  0  0
  -17.4224  -26.6685   21.3940 H   0  0  0  0  0  0
  -18.0298  -26.0063   22.8975 H   0  0  0  0  0  0
  -19.7984  -30.7290   24.2132 H   0  0  0  0  0  0
  -17.5060  -31.6272   24.5127 H   0  0  0  0  0  0
  -15.5381  -30.2975   23.7748 H   0  0  0  0  0  0
  -15.8651  -28.0831   22.7129 H   0  0  0  0  0  0
  -24.5943  -30.7050   25.7803 H   0  0  0  0  0  0
  -24.8881  -32.2965   26.4768 H   0  0  0  0  0  0
  -25.8031  -30.9045   27.0313 H   0  0  0  0  0  0
  -26.3041  -29.6654   24.1377 H   0  0  0  0  0  0
  -27.3941  -29.7230   25.4991 H   0  0  0  0  0  0
  -27.8974  -30.4125   23.9767 H   0  0  0  0  0  0
  -27.2706  -33.3649   26.2034 H   0  0  0  0  0  0
  -28.3923  -32.6853   25.0351 H   0  0  0  0  0  0
  -28.0758  -31.8504   26.5479 H   0  0  0  0  0  0
  -28.2580  -38.0082   24.7541 H   0  0  0  0  0  0
  -28.1109  -36.2618   24.6233 H   0  0  0  0  0  0
  -27.2312  -37.1332   25.8864 H   0  0  0  0  0  0
  -20.9511  -29.8805   21.6846 H   0  0  0  0  0  0
  -26.0145  -38.2808   24.1463 H   0  0  0  0  0  0
  -27.3539  -21.6027   17.2308 H   0  0  0  0  0  0
  -26.2200  -22.7670   17.8906 H   0  0  0  0  0  0
  -28.0336  -24.2821   17.8592 H   0  0  0  0  0  0
  -29.1631  -22.9707   17.5826 H   0  0  0  0  0  0
  -26.8780  -20.4559   19.2143 H   0  0  0  0  0  0
  -26.3641  -21.9049   20.0435 H   0  0  0  0  0  0
  -29.8125  -23.4030   19.7475 H   0  0  0  0  0  0
  -28.1468  -18.7792   19.6319 H   0  0  0  0  0  0
  -28.4100  -18.8761   21.3303 H   0  0  0  0  0  0
  -28.2036  -24.4907   21.4772 H   0  0  0  0  0  0
  -26.9290  -24.4254   20.3449 H   0  0  0  0  0  0
  -30.8287  -17.9074   20.9797 H   0  0  0  0  0  0
  -30.4736  -17.7462   19.3016 H   0  0  0  0  0  0
  -28.7255  -15.9264   20.6581 H   0  0  0  0  0  0
  1 25  1  0  0  0
  1 30  2  0  0  0
  1 80  1  0  0  0
  2  3  1  0  0  0
  2 25  1  0  0  0
  2 82  1  0  0  0
  2 83  1  0  0  0
  3  4  1  0  0  0
  3 84  1  0  0  0
  3 85  1  0  0  0
  4  5  1  0  0  0
  4 86  1  0  0  0
  4 87  1  0  0  0
  5  6  1  0  0  0
  5 26  1  0  0  0
  5 88  1  0  0  0
  6 25  1  0  0  0
  6 89  1  0  0  0
  6 90  1  0  0  0
  7  8  2  0  0  0
  7 26  1  0  0  0
  7 29  1  0  0  0
  8  9  1  0  0  0
  8 22  1  0  0  0
  9 10  1  0  0  0
  9 27  2  0  0  0
 10 11  2  0  0  0
 10 15  1  0  0  0
 11 12  1  0  0  0
 11 91  1  0  0  0
 12 13  2  0  0  0
 12 92  1  0  0  0
 13 14  1  0  0  0
 13 31  1  0  0  0
 14 15  2  0  0  0
 14 93  1  0  0  0
 15 94  1  0  0  0
 16 17  2  0  0  0
 16 21  1  0  0  0
 16 31  1  0  0  0
 17 18  1  0  0  0
 17 95  1  0  0  0
 18 19  2  0  0  0
 18 96  1  0  0  0
 19 20  1  0  0  0
 19 24  1  0  0  0
 20 21  2  0  0  0
 20 97  1  0  0  0
 21 23  1  0  0  0
 22 28  1  0  0  0
 22 32  2  0  0  0
 26 27  1  0  0  0
 28 98  1  0  0  0
 28 99  1  0  0  0
 29100  1  0  0  0
 29101  1  0  0  0
 33 34  1  0  0  0
 33 66  1  0  0  0
 33 70  2  0  0  0
 34 36  1  0  0  0
 34 59  1  0  0  0
 34102  1  0  0  0
 35 44  2  0  0  0
 35 45  1  0  0  0
 35 68  1  0  0  0
 36 56  1  0  0  0
 36103  1  0  0  0
 37 39  1  0  0  0
 37 47  1  0  0  0
 37 66  1  0  0  0
 37104  1  0  0  0
 38 43  2  0  0  0
 38 46  1  0  0  0
 38 47  1  0  0  0
 39 64  1  0  0  0
 39 67  2  0  0  0
 40 52  1  0  0  0
 40 53  2  0  0  0
 40 58  1  0  0  0
 41105  1  0  0  0
 41106  1  0  0  0
 41107  1  0  0  0
 41 48  1  0  0  0
 42 43  1  0  0  0
 42 66  1  0  0  0
 42108  1  0  0  0
 42109  1  0  0  0
 43 44  1  0  0  0
 44110  1  0  0  0
 45 46  2  0  0  0
 45111  1  0  0  0
 46112  1  0  0  0
 47113  1  0  0  0
 47114  1  0  0  0
 48 56  1  0  0  0
 48 65  1  0  0  0
 48115  1  0  0  0
 49 50  1  0  0  0
 49 53  1  0  0  0
 49 64  1  0  0  0
 49116  1  0  0  0
 50 51  1  0  0  0
 50117  1  0  0  0
 50118  1  0  0  0
 51 52  1  0  0  0
 51119  1  0  0  0
 51120  1  0  0  0
 52121  1  0  0  0
 52122  1  0  0  0
 53 54  1  0  0  0
 54 55  2  0  0  0
 54123  1  0  0  0
 55 57  1  0  0  0
 55124  1  0  0  0
 56 69  2  0  0  0
 57 58  2  0  0  0
 57125  1  0  0  0
 58126  1  0  0  0
 59 60  1  0  0  0
 59 61  1  0  0  0
 59 62  1  0  0  0
 60127  1  0  0  0
 60128  1  0  0  0
 60129  1  0  0  0
 61130  1  0  0  0
 61131  1  0  0  0
 61132  1  0  0  0
 62133  1  0  0  0
 62134  1  0  0  0
 62135  1  0  0  0
 63 65  1  0  0  0
 63136  1  0  0  0
 63137  1  0  0  0
 63138  1  0  0  0
 64139  1  0  0  0
 65140  1  0  0  0
 68 77  1  0  0  0
 71 76  1  0  0  0
 71 79  1  0  0  0
 71 81  2  0  0  0
 72 73  1  0  0  0
 72 74  1  0  0  0
 72141  1  0  0  0
 72142  1  0  0  0
 73 75  1  0  0  0
 73143  1  0  0  0
 73144  1  0  0  0
 74 79  1  0  0  0
 74145  1  0  0  0
 74146  1  0  0  0
 75 77  1  0  0  0
 75 79  1  0  0  0
 75147  1  0  0  0
 76 78  1  0  0  0
 76148  1  0  0  0
 76149  1  0  0  0
 77150  1  0  0  0
 77151  1  0  0  0
 78 80  1  0  0  0
 78152  1  0  0  0
 78153  1  0  0  0
 80154  1  0  0  0
M  ISO  4   1 100  68 101  77 101  80 100
M  END
> <chiral flag>
0

> <version>
0

> <s_m_source_file>
/data/baiqing/PycharmProjects/Reinvent-master-3.2/result/LINK_invent/BTK/process_docking_weight1_custom_product_contain_oxygen_bond_distance_aromatic_linkinvent_7_9_3/rearranged_h_0009.sdf

> <i_m_source_file_index>
91

> <r_mmod_Potential_Energy-OPLS-2005>
653.621765136719

> <r_mmod_Stretch_Energy-OPLS-2005>
292.431793212891

> <r_mmod_Bend_Energy-OPLS-2005>
296.529815673828

> <r_mmod_Torsional_Energy-OPLS-2005>
317.037963867188

> <r_mmod_Improper_Torsional_Energy-OPLS-2005>
7.38179588317871

> <r_mmod_Van_der_Waal_Energy-OPLS-2005>
108.862045288086

> <r_mmod_Electrostatic_Energy-OPLS-2005>
-332.828125

> <r_mmod_Solvation_Energy-OPLS-2005>
-243.190444946289

> <b_mmod_Minimization_Converged-OPLS-2005>
0

> <r_mmod_RMS_Derivative-OPLS-2005>
4.82798910140991

$$$$
91
                    3D
 Structure written by MMmdl.
153162  0  0  1  0            999 V2000
  -30.5011  -14.9501   20.4203 C   0  0  0  0  0  0
  -30.4530  -12.5884   19.4893 C   0  0  0  0  0  0
  -29.5251  -12.5277   18.2517 C   0  0  0  0  0  0
  -28.0575  -12.3110   18.6714 C   0  0  0  0  0  0
  -27.6331  -13.2385   19.8397 C   0  0  2  0  0  0
  -28.6776  -13.2460   20.9761 C   0  0  0  0  0  0
  -25.2477  -13.8187   20.5677 C   0  0  0  0  0  0
  -24.1791  -13.0427   20.9230 C   0  0  0  0  0  0
  -24.6398  -11.6911   20.8769 C   0  0  0  0  0  0
  -23.9076  -10.4287   21.0422 C   0  0  0  0  0  0
  -24.3628   -9.4201   21.9197 C   0  0  0  0  0  0
  -23.6300   -8.2239   22.0761 C   0  0  0  0  0  0
  -22.4281   -8.0283   21.3548 C   0  0  0  0  0  0
  -21.9920   -9.0255   20.4648 C   0  0  0  0  0  0
  -22.7253  -10.2132   20.3065 C   0  0  0  0  0  0
  -21.6850   -6.0743   22.5281 C   0  0  0  0  0  0
  -21.4010   -6.5646   23.8215 C   0  0  0  0  0  0
  -21.3659   -5.6795   24.9173 C   0  0  0  0  0  0
  -21.6042   -4.3058   24.7219 C   0  0  0  0  0  0
  -21.8820   -3.8151   23.4342 C   0  0  0  0  0  0
  -21.9191   -4.6971   22.3401 C   0  0  0  0  0  0
  -22.7810  -13.5208   21.1884 C   0  0  0  0  0  0
  -22.1661   -4.2158   21.0980 F   0  0  0  0  0  0
  -21.5629   -3.4540   25.7732 F   0  0  0  0  0  0
  -29.9521  -13.6702   20.3811 N   0  0  0  0  0  0
  -26.2901  -12.9402   20.3235 N   0  0  0  0  0  0
  -25.9327  -11.6542   20.5746 N   0  0  0  0  0  0
  -22.0455  -12.8198   22.0431 N   0  0  0  0  0  0
  -25.4114  -15.1914   20.4036 N   0  0  0  0  0  0
  -31.7072  -15.0665   20.1732 O   0  0  0  0  0  0
  -21.6642   -6.8885   21.4244 O   0  0  0  0  0  0
  -22.3504  -14.5521   20.6734 O   0  0  0  0  0  0
  -24.6432  -31.8435   23.1855 C   0  0  0  0  0  0
  -25.9197  -32.4696   23.8254 C   0  0  1  0  0  0
  -27.2229  -27.1404   20.1613 C   0  0  0  0  0  0
  -25.5949  -33.8501   24.2183 N   0  0  0  0  0  0
  -23.4469  -30.4603   21.5316 C   0  0  2  0  0  0
  -24.8964  -28.8774   20.1176 C   0  0  0  0  0  0
  -22.7559  -29.4548   22.4862 C   0  0  0  0  0  0
  -18.0299  -28.1400   22.8484 C   0  0  0  0  0  0
  -24.1489  -36.7251   23.2640 C   0  0  0  0  0  0
  -26.0008  -30.7199   21.3795 C   0  0  0  0  0  0
  -26.0737  -29.3282   20.7284 C   0  0  0  0  0  0
  -27.2411  -28.4780   20.7251 C   0  0  0  0  0  0
  -26.0180  -26.7780   19.5255 C   0  0  0  0  0  0
  -24.8797  -27.6154   19.5013 C   0  0  0  0  0  0
  -23.6729  -29.7806   20.1544 C   0  0  0  0  0  0
  -25.4120  -36.3033   24.0317 C   0  0  1  0  0  0
  -20.5916  -28.3722   23.1243 C   0  0  2  0  0  0
  -20.6787  -26.9423   22.5409 C   0  0  0  0  0  0
  -19.5760  -26.6387   21.5218 C   0  0  0  0  0  0
  -18.1940  -26.7944   22.1626 C   0  0  0  0  0  0
  -19.1557  -28.8878   23.2861 C   0  0  0  0  0  0
  -18.9477  -30.1476   23.8884 C   0  0  0  0  0  0
  -17.6474  -30.6600   24.0565 C   0  0  0  0  0  0
  -25.9068  -34.9408   23.5059 C   0  0  0  0  0  0
  -16.5361  -29.9097   23.6339 C   0  0  0  0  0  0
  -16.7283  -28.6512   23.0362 C   0  0  0  0  0  0
  -26.4508  -31.6559   25.0697 C   0  0  0  0  0  0
  -25.3698  -31.3813   26.1415 C   0  0  0  0  0  0
  -27.0303  -30.2927   24.6268 C   0  0  0  0  0  0
  -27.6084  -32.4275   25.7463 C   0  0  0  0  0  0
  -27.5576  -37.1780   24.8465 C   0  0  0  0  0  0
  -21.4251  -29.3050   22.3614 N   0  0  0  0  0  0
  -26.4283  -37.3748   23.9414 N   0  0  0  0  0  0
  -24.7170  -31.0295   22.0881 N   0  0  0  0  0  0
  -23.4200  -28.8098   23.3017 O   0  0  0  0  0  0
  -28.3026  -26.1907   20.1578 O   0  0  0  0  0  0
  -26.5654  -34.8910   22.4638 O   0  0  0  0  0  0
  -23.5549  -32.1295   23.7082 O   0  0  0  0  0  0
  -30.1427  -19.9397   21.3229 C   0  0  0  0  0  0
  -28.5452  -19.7942   19.6124 C   0  0  0  0  0  0
  -30.3499  -18.4954   21.2873 C   0  0  0  0  0  0
  -28.7245  -18.3453   19.5989 C   0  0  0  0  0  0
  -29.2234  -20.6946   20.5007 C   0  0  0  0  0  0
  -29.6367  -17.5955   20.4284 C   0  0  0  0  0  0
  -29.1146  -24.3827   21.7327 C   0  0  0  0  0  0
  -29.1946  -22.8331   21.9267 C   0  0  0  0  0  0
  -28.4721  -23.3054   19.7362 C   0  0  0  0  0  0
  -28.1508  -24.6972   20.5732 C   0  0  2  0  0  0
  -29.0037  -22.1726   20.6318 N   0  0  0  0  0  0
  -29.6152  -16.0593   20.5055 N   0  0  0  0  0  0
  -31.4814  -12.7721   19.1743 H   0  0  0  0  0  0
  -30.4663  -11.6321   20.0142 H   0  0  0  0  0  0
  -29.8446  -11.7305   17.5790 H   0  0  0  0  0  0
  -29.6087  -13.4565   17.6854 H   0  0  0  0  0  0
  -27.9547  -11.2689   18.9764 H   0  0  0  0  0  0
  -27.3923  -12.4445   17.8173 H   0  0  0  0  0  0
  -27.6001  -14.2428   19.4174 H   0  0  0  0  0  0
  -28.7672  -12.2606   21.4366 H   0  0  0  0  0  0
  -28.3766  -13.9301   21.7718 H   0  0  0  0  0  0
  -25.2772   -9.5677   22.4773 H   0  0  0  0  0  0
  -24.0006   -7.4627   22.7478 H   0  0  0  0  0  0
  -21.0852   -8.8776   19.8948 H   0  0  0  0  0  0
  -22.3718  -10.9675   19.6173 H   0  0  0  0  0  0
  -21.2002   -7.6155   23.9720 H   0  0  0  0  0  0
  -21.1479   -6.0525   25.9076 H   0  0  0  0  0  0
  -22.0600   -2.7613   23.2835 H   0  0  0  0  0  0
  -22.4068  -11.9851   22.4808 H   0  0  0  0  0  0
  -21.1071  -13.1225   22.2634 H   0  0  0  0  0  0
  -24.6289  -15.8305   20.4959 H   0  0  0  0  0  0
  -26.2282  -15.6289   19.9990 H   0  0  0  0  0  0
  -26.7269  -32.5304   23.0989 H   0  0  0  0  0  0
  -25.0087  -33.9612   25.0328 H   0  0  0  0  0  0
  -22.7506  -31.2867   21.3731 H   0  0  0  0  0  0
  -23.3773  -35.9559   23.3256 H   0  0  0  0  0  0
  -24.3585  -36.8916   22.2062 H   0  0  0  0  0  0
  -23.7205  -37.6422   23.6692 H   0  0  0  0  0  0
  -26.1490  -31.4697   20.6011 H   0  0  0  0  0  0
  -26.8747  -30.7783   22.0165 H   0  0  0  0  0  0
  -28.1466  -28.8255   21.2021 H   0  0  0  0  0  0
  -25.9483  -25.8090   19.0513 H   0  0  0  0  0  0
  -23.9782  -27.2644   19.0178 H   0  0  0  0  0  0
  -23.8097  -30.5496   19.3934 H   0  0  0  0  0  0
  -22.7882  -29.2198   19.8469 H   0  0  0  0  0  0
  -25.1305  -36.1857   25.0808 H   0  0  0  0  0  0
  -21.0011  -28.3307   24.1363 H   0  0  0  0  0  0
  -20.5673  -26.2333   23.3628 H   0  0  0  0  0  0
  -21.6650  -26.7427   22.1208 H   0  0  0  0  0  0
  -19.6922  -25.6294   21.1251 H   0  0  0  0  0  0
  -19.6703  -27.3199   20.6751 H   0  0  0  0  0  0
  -17.4208  -26.6684   21.4030 H   0  0  0  0  0  0
  -18.0342  -26.0094   22.9031 H   0  0  0  0  0  0
  -19.7951  -30.7300   24.2239 H   0  0  0  0  0  0
  -17.5028  -31.6280   24.5170 H   0  0  0  0  0  0
  -15.5363  -30.3000   23.7677 H   0  0  0  0  0  0
  -15.8678  -28.0830   22.7090 H   0  0  0  0  0  0
  -24.5830  -30.7208   25.7754 H   0  0  0  0  0  0
  -24.8957  -32.3036   26.4786 H   0  0  0  0  0  0
  -25.7969  -30.9002   27.0224 H   0  0  0  0  0  0
  -26.2874  -29.6698   24.1275 H   0  0  0  0  0  0
  -27.3884  -29.7193   25.4828 H   0  0  0  0  0  0
  -27.8816  -30.4116   23.9566 H   0  0  0  0  0  0
  -27.2774  -33.3700   26.1836 H   0  0  0  0  0  0
  -28.4015  -32.6591   25.0342 H   0  0  0  0  0  0
  -28.0583  -31.8481   26.5534 H   0  0  0  0  0  0
  -28.2586  -38.0084   24.7515 H   0  0  0  0  0  0
  -28.1075  -36.2612   24.6280 H   0  0  0  0  0  0
  -27.2300  -37.1416   25.8869 H   0  0  0  0  0  0
  -20.9453  -29.8756   21.6792 H   0  0  0  0  0  0
  -26.0148  -38.2812   24.1433 H   0  0  0  0  0  0
  -30.7354  -20.4797   22.0459 H   0  0  0  0  0  0
  -27.8115  -20.2111   18.9372 H   0  0  0  0  0  0
  -31.0500  -18.0717   21.9936 H   0  0  0  0  0  0
  -28.0961  -17.7890   18.9180 H   0  0  0  0  0  0
  -30.1064  -24.7516   21.4683 H   0  0  0  0  0  0
  -28.8263  -24.8931   22.6526 H   0  0  0  0  0  0
  -28.4038  -22.5049   22.6032 H   0  0  0  0  0  0
  -30.1454  -22.5639   22.3871 H   0  0  0  0  0  0
  -29.2327  -23.5138   18.9827 H   0  0  0  0  0  0
  -27.5843  -22.9767   19.1936 H   0  0  0  0  0  0
  -27.1394  -24.5886   20.9679 H   0  0  0  0  0  0
  -28.6724  -15.7064   20.5518 H   0  0  0  0  0  0
  1 25  1  0  0  0
  1 30  2  0  0  0
  1 82  1  0  0  0
  2  3  1  0  0  0
  2 25  1  0  0  0
  2 83  1  0  0  0
  2 84  1  0  0  0
  3  4  1  0  0  0
  3 85  1  0  0  0
  3 86  1  0  0  0
  4  5  1  0  0  0
  4 87  1  0  0  0
  4 88  1  0  0  0
  5  6  1  0  0  0
  5 26  1  0  0  0
  5 89  1  0  0  0
  6 25  1  0  0  0
  6 90  1  0  0  0
  6 91  1  0  0  0
  7  8  2  0  0  0
  7 26  1  0  0  0
  7 29  1  0  0  0
  8  9  1  0  0  0
  8 22  1  0  0  0
  9 10  1  0  0  0
  9 27  2  0  0  0
 10 11  2  0  0  0
 10 15  1  0  0  0
 11 12  1  0  0  0
 11 92  1  0  0  0
 12 13  2  0  0  0
 12 93  1  0  0  0
 13 14  1  0  0  0
 13 31  1  0  0  0
 14 15  2  0  0  0
 14 94  1  0  0  0
 15 95  1  0  0  0
 16 17  2  0  0  0
 16 21  1  0  0  0
 16 31  1  0  0  0
 17 18  1  0  0  0
 17 96  1  0  0  0
 18 19  2  0  0  0
 18 97  1  0  0  0
 19 20  1  0  0  0
 19 24  1  0  0  0
 20 21  2  0  0  0
 20 98  1  0  0  0
 21 23  1  0  0  0
 22 28  1  0  0  0
 22 32  2  0  0  0
 26 27  1  0  0  0
 28 99  1  0  0  0
 28100  1  0  0  0
 29101  1  0  0  0
 29102  1  0  0  0
 33 34  1  0  0  0
 33 66  1  0  0  0
 33 70  2  0  0  0
 34 36  1  0  0  0
 34 59  1  0  0  0
 34103  1  0  0  0
 35 44  2  0  0  0
 35 45  1  0  0  0
 35 68  1  0  0  0
 36 56  1  0  0  0
 36104  1  0  0  0
 37 39  1  0  0  0
 37 47  1  0  0  0
 37 66  1  0  0  0
 37105  1  0  0  0
 38 43  2  0  0  0
 38 46  1  0  0  0
 38 47  1  0  0  0
 39 64  1  0  0  0
 39 67  2  0  0  0
 40 52  1  0  0  0
 40 53  2  0  0  0
 40 58  1  0  0  0
 41106  1  0  0  0
 41107  1  0  0  0
 41108  1  0  0  0
 41 48  1  0  0  0
 42 43  1  0  0  0
 42 66  1  0  0  0
 42109  1  0  0  0
 42110  1  0  0  0
 43 44  1  0  0  0
 44111  1  0  0  0
 45 46  2  0  0  0
 45112  1  0  0  0
 46113  1  0  0  0
 47114  1  0  0  0
 47115  1  0  0  0
 48 56  1  0  0  0
 48 65  1  0  0  0
 48116  1  0  0  0
 49 50  1  0  0  0
 49 53  1  0  0  0
 49 64  1  0  0  0
 49117  1  0  0  0
 50 51  1  0  0  0
 50118  1  0  0  0
 50119  1  0  0  0
 51 52  1  0  0  0
 51120  1  0  0  0
 51121  1  0  0  0
 52122  1  0  0  0
 52123  1  0  0  0
 53 54  1  0  0  0
 54 55  2  0  0  0
 54124  1  0  0  0
 55 57  1  0  0  0
 55125  1  0  0  0
 56 69  2  0  0  0
 57 58  2  0  0  0
 57126  1  0  0  0
 58127  1  0  0  0
 59 60  1  0  0  0
 59 61  1  0  0  0
 59 62  1  0  0  0
 60128  1  0  0  0
 60129  1  0  0  0
 60130  1  0  0  0
 61131  1  0  0  0
 61132  1  0  0  0
 61133  1  0  0  0
 62134  1  0  0  0
 62135  1  0  0  0
 62136  1  0  0  0
 63 65  1  0  0  0
 63137  1  0  0  0
 63138  1  0  0  0
 63139  1  0  0  0
 64140  1  0  0  0
 65141  1  0  0  0
 68 80  1  0  0  0
 71 73  2  0  0  0
 71 75  1  0  0  0
 71142  1  0  0  0
 72 74  1  0  0  0
 72 75  2  0  0  0
 72143  1  0  0  0
 73 76  1  0  0  0
 73144  1  0  0  0
 74 76  2  0  0  0
 74145  1  0  0  0
 75 81  1  0  0  0
 76 82  1  0  0  0
 77 78  1  0  0  0
 77 80  1  0  0  0
 77146  1  0  0  0
 77147  1  0  0  0
 78 81  1  0  0  0
 78148  1  0  0  0
 78149  1  0  0  0
 79 80  1  0  0  0
 79 81  1  0  0  0
 79150  1  0  0  0
 79151  1  0  0  0
 80152  1  0  0  0
 82153  1  0  0  0
M  ISO  4   1 100  68 101  80 101  82 100
M  END
> <chiral flag>
0

> <version>
0

> <s_m_source_file>
/data/baiqing/PycharmProjects/Reinvent-master-3.2/result/LINK_invent/BTK/process_docking_weight1_custom_product_contain_oxygen_bond_distance_aromatic_linkinvent_7_9_3/rearranged_h_0009.sdf

> <i_m_source_file_index>
92

> <r_mmod_Potential_Energy-OPLS-2005>
525.946105957031

> <r_mmod_Stretch_Energy-OPLS-2005>
213.858779907227

> <r_mmod_Bend_Energy-OPLS-2005>
307.925323486328

> <r_mmod_Torsional_Energy-OPLS-2005>
299.310577392578

> <r_mmod_Improper_Torsional_Energy-OPLS-2005>
7.30253410339355

> <r_mmod_Van_der_Waal_Energy-OPLS-2005>
124.300971984863

> <r_mmod_Electrostatic_Energy-OPLS-2005>
-383.096618652344

> <r_mmod_Solvation_Energy-OPLS-2005>
-232.282287597656

> <b_mmod_Minimization_Converged-OPLS-2005>
0

> <r_mmod_RMS_Derivative-OPLS-2005>
0.949168264865875

$$$$
92
                    3D
 Structure written by MMmdl.
171180  0  0  1  0            999 V2000
  -30.7769  -14.3829   20.6788 C   0  0  0  0  0  0
  -30.4179  -12.2954   19.4076 C   0  0  0  0  0  0
  -29.4894  -12.5290   18.2015 C   0  0  0  0  0  0
  -28.0141  -12.3797   18.6160 C   0  0  0  0  0  0
  -27.6673  -13.2070   19.8818 C   0  0  2  0  0  0
  -28.7061  -12.9644   21.0011 C   0  0  0  0  0  0
  -25.2596  -13.8168   20.5674 C   0  0  0  0  0  0
  -24.1843  -13.0447   20.9172 C   0  0  0  0  0  0
  -24.6396  -11.6917   20.8725 C   0  0  0  0  0  0
  -23.9052  -10.4307   21.0400 C   0  0  0  0  0  0
  -24.3608   -9.4223   21.9183 C   0  0  0  0  0  0
  -23.6297   -8.2248   22.0753 C   0  0  0  0  0  0
  -22.4275   -8.0281   21.3547 C   0  0  0  0  0  0
  -21.9911   -9.0251   20.4648 C   0  0  0  0  0  0
  -22.7228  -10.2138   20.3055 C   0  0  0  0  0  0
  -21.6852   -6.0737   22.5276 C   0  0  0  0  0  0
  -21.4003   -6.5641   23.8211 C   0  0  0  0  0  0
  -21.3667   -5.6789   24.9176 C   0  0  0  0  0  0
  -21.6047   -4.3051   24.7216 C   0  0  0  0  0  0
  -21.8823   -3.8149   23.4339 C   0  0  0  0  0  0
  -21.9191   -4.6965   22.3398 C   0  0  0  0  0  0
  -22.7863  -13.5247   21.1830 C   0  0  0  0  0  0
  -22.1665   -4.2155   21.0976 F   0  0  0  0  0  0
  -21.5640   -3.4531   25.7731 F   0  0  0  0  0  0
  -30.0520  -13.2515   20.4658 N   0  0  0  0  0  0
  -26.3052  -12.9343   20.3389 N   0  0  0  0  0  0
  -25.9326  -11.6499   20.5764 N   0  0  0  0  0  0
  -22.0487  -12.8247   22.0379 N   0  0  0  0  0  0
  -25.4322  -15.1884   20.4099 N   0  0  0  0  0  0
  -31.8056  -14.6323   20.0442 O   0  0  0  0  0  0
  -21.6641   -6.8877   21.4241 O   0  0  0  0  0  0
  -22.3556  -14.5562   20.6688 O   0  0  0  0  0  0
  -24.6113  -31.8710   23.2135 C   0  0  0  0  0  0
  -25.9030  -32.4832   23.8414 C   0  0  1  0  0  0
  -27.2406  -27.4679   20.0963 C   0  0  0  0  0  0
  -25.5923  -33.8632   24.2358 N   0  0  0  0  0  0
  -23.3980  -30.4926   21.5532 C   0  0  2  0  0  0
  -24.8476  -28.9553   20.1236 C   0  0  0  0  0  0
  -22.7393  -29.4655   22.5017 C   0  0  0  0  0  0
  -18.0269  -28.1354   22.8482 C   0  0  0  0  0  0
  -24.1490  -36.7309   23.2634 C   0  0  0  0  0  0
  -25.9233  -30.8407   21.3663 C   0  0  0  0  0  0
  -26.0022  -29.4724   20.7262 C   0  0  0  0  0  0
  -27.2020  -28.7308   20.7215 C   0  0  0  0  0  0
  -26.0780  -26.9543   19.4892 C   0  0  0  0  0  0
  -24.8770  -27.6907   19.5067 C   0  0  0  0  0  0
  -23.6078  -29.8212   20.1691 C   0  0  0  0  0  0
  -25.4107  -36.3122   24.0345 C   0  0  1  0  0  0
  -20.5856  -28.3633   23.1329 C   0  0  2  0  0  0
  -20.6753  -26.9371   22.5421 C   0  0  0  0  0  0
  -19.5747  -26.6367   21.5200 C   0  0  0  0  0  0
  -18.1916  -26.7910   22.1593 C   0  0  0  0  0  0
  -19.1514  -28.8815   23.2898 C   0  0  0  0  0  0
  -18.9446  -30.1429   23.8892 C   0  0  0  0  0  0
  -17.6447  -30.6564   24.0551 C   0  0  0  0  0  0
  -25.9035  -34.9485   23.5147 C   0  0  0  0  0  0
  -16.5337  -29.9060   23.6323 C   0  0  0  0  0  0
  -16.7261  -28.6481   23.0335 C   0  0  0  0  0  0
  -26.4475  -31.6574   25.0714 C   0  0  0  0  0  0
  -25.3751  -31.3665   26.1471 C   0  0  0  0  0  0
  -27.0275  -30.3010   24.6050 C   0  0  0  0  0  0
  -27.6079  -32.4257   25.7479 C   0  0  0  0  0  0
  -27.5585  -37.1810   24.8465 C   0  0  0  0  0  0
  -21.4126  -29.3010   22.3749 N   0  0  0  0  0  0
  -26.4295  -37.3799   23.9420 N   0  0  0  0  0  0
  -24.6619  -31.0821   22.1036 N   0  0  0  0  0  0
  -23.4182  -28.8197   23.3038 O   0  0  0  0  0  0
  -28.4078  -26.7571   19.9999 O   0  0  0  0  0  0
  -26.5565  -34.8937   22.4687 O   0  0  0  0  0  0
  -23.5314  -32.1457   23.7543 O   0  0  0  0  0  0
  -32.1520  -18.4797   21.9587 C   0  0  0  0  0  0
  -31.7508  -17.2288   21.4557 C   0  0  0  0  0  0
  -30.5917  -18.2383   23.8044 C   0  0  0  0  0  0
  -31.5650  -19.0028   23.1278 C   0  0  0  0  0  0
  -30.1970  -16.9716   23.3154 C   0  0  0  0  0  0
  -30.7713  -16.4522   22.1264 C   0  0  0  0  0  0
  -30.1750  -23.5736   24.4023 C   0  0  0  0  0  0
  -29.1262  -23.9263   23.3251 C   0  0  0  0  0  0
  -29.6082  -22.4683   21.4799 C   0  0  0  0  0  0
  -31.4034  -22.7472   23.9796 C   0  0  0  0  0  0
  -30.8823  -21.6827   21.8422 C   0  0  0  0  0  0
  -29.1533  -16.1775   24.0870 C   0  0  0  0  0  0
  -31.9901  -20.3748   23.6526 C   0  0  0  0  0  0
  -28.7265  -24.6365   21.0613 C   0  0  0  0  0  0
  -28.8830  -26.1653   21.2037 C   0  0  0  0  0  0
  -29.6204  -23.8666   21.9422 N   0  0  0  0  0  0
  -30.3098  -15.1823   21.6565 N   0  0  0  0  0  0
  -31.0465  -21.4722   23.3039 N   0  3  1  0  0  0
  -31.4626  -12.3853   19.1026 H   0  0  0  0  0  0
  -30.3090  -11.2764   19.7809 H   0  0  0  0  0  0
  -29.7283  -11.8301   17.3991 H   0  0  0  0  0  0
  -29.6571  -13.5281   17.7960 H   0  0  0  0  0  0
  -27.8238  -11.3217   18.8001 H   0  0  0  0  0  0
  -27.3608  -12.6648   17.7908 H   0  0  0  0  0  0
  -27.7215  -14.2594   19.6006 H   0  0  0  0  0  0
  -28.6689  -11.9257   21.3325 H   0  0  0  0  0  0
  -28.4499  -13.5540   21.8813 H   0  0  0  0  0  0
  -25.2761   -9.5703   22.4737 H   0  0  0  0  0  0
  -24.0017   -7.4645   22.7475 H   0  0  0  0  0  0
  -21.0836   -8.8765   19.8959 H   0  0  0  0  0  0
  -22.3689  -10.9666   19.6146 H   0  0  0  0  0  0
  -21.1981   -7.6148   23.9713 H   0  0  0  0  0  0
  -21.1489   -6.0520   25.9081 H   0  0  0  0  0  0
  -22.0591   -2.7610   23.2828 H   0  0  0  0  0  0
  -22.4074  -11.9902   22.4777 H   0  0  0  0  0  0
  -21.1111  -13.1288   22.2576 H   0  0  0  0  0  0
  -24.6658  -15.8448   20.5188 H   0  0  0  0  0  0
  -26.2910  -15.6276   20.1021 H   0  0  0  0  0  0
  -26.7085  -32.5587   23.1172 H   0  0  0  0  0  0
  -25.0158  -33.9789   25.0560 H   0  0  0  0  0  0
  -22.6854  -31.3080   21.4141 H   0  0  0  0  0  0
  -23.3774  -35.9621   23.3285 H   0  0  0  0  0  0
  -24.3591  -36.8922   22.2053 H   0  0  0  0  0  0
  -23.7214  -37.6506   23.6633 H   0  0  0  0  0  0
  -26.0319  -31.6026   20.5936 H   0  0  0  0  0  0
  -26.8128  -30.8984   21.9820 H   0  0  0  0  0  0
  -28.0986  -29.1323   21.1740 H   0  0  0  0  0  0
  -26.1089  -25.9924   18.9963 H   0  0  0  0  0  0
  -23.9925  -27.2876   19.0338 H   0  0  0  0  0  0
  -23.7173  -30.5963   19.4099 H   0  0  0  0  0  0
  -22.7328  -29.2403   19.8729 H   0  0  0  0  0  0
  -25.1276  -36.1992   25.0835 H   0  0  0  0  0  0
  -20.9946  -28.3189   24.1450 H   0  0  0  0  0  0
  -20.5643  -26.2234   23.3594 H   0  0  0  0  0  0
  -21.6630  -26.7409   22.1225 H   0  0  0  0  0  0
  -19.6921  -25.6286   21.1209 H   0  0  0  0  0  0
  -19.6713  -27.3191   20.6742 H   0  0  0  0  0  0
  -17.4204  -26.6682   21.3968 H   0  0  0  0  0  0
  -18.0299  -26.0022   22.8963 H   0  0  0  0  0  0
  -19.7932  -30.7233   24.2253 H   0  0  0  0  0  0
  -17.5014  -31.6250   24.5142 H   0  0  0  0  0  0
  -15.5342  -30.2961   23.7642 H   0  0  0  0  0  0
  -15.8662  -28.0811   22.7025 H   0  0  0  0  0  0
  -24.6023  -30.6869   25.7852 H   0  0  0  0  0  0
  -24.8812  -32.2790   26.4819 H   0  0  0  0  0  0
  -25.8150  -30.8979   27.0284 H   0  0  0  0  0  0
  -26.2794  -29.6816   24.1088 H   0  0  0  0  0  0
  -27.4026  -29.7196   25.4481 H   0  0  0  0  0  0
  -27.8645  -30.4323   23.9191 H   0  0  0  0  0  0
  -27.2745  -33.3576   26.2060 H   0  0  0  0  0  0
  -28.3909  -32.6762   25.0307 H   0  0  0  0  0  0
  -28.0716  -31.8353   26.5395 H   0  0  0  0  0  0
  -28.2604  -38.0108   24.7519 H   0  0  0  0  0  0
  -28.1072  -36.2637   24.6273 H   0  0  0  0  0  0
  -27.2306  -37.1448   25.8868 H   0  0  0  0  0  0
  -20.9275  -29.8734   21.6983 H   0  0  0  0  0  0
  -26.0196  -38.2885   24.1407 H   0  0  0  0  0  0
  -32.9090  -19.0409   21.4275 H   0  0  0  0  0  0
  -32.2164  -16.8993   20.5404 H   0  0  0  0  0  0
  -30.1454  -18.6249   24.7109 H   0  0  0  0  0  0
  -29.6690  -23.0753   25.2305 H   0  0  0  0  0  0
  -30.5484  -24.5068   24.8276 H   0  0  0  0  0  0
  -28.7703  -24.9297   23.5606 H   0  0  0  0  0  0
  -28.2470  -23.2883   23.4380 H   0  0  0  0  0  0
  -28.7090  -21.9414   21.8043 H   0  0  0  0  0  0
  -29.5685  -22.4480   20.3898 H   0  0  0  0  0  0
  -31.9855  -22.5499   24.8803 H   0  0  0  0  0  0
  -32.0589  -23.3477   23.3462 H   0  0  0  0  0  0
  -31.7674  -22.1558   21.4158 H   0  0  0  0  0  0
  -30.7944  -20.7246   21.3342 H   0  0  0  0  0  0
  -28.8593  -16.6866   25.0053 H   0  0  0  0  0  0
  -29.5418  -15.1978   24.3671 H   0  0  0  0  0  0
  -28.2547  -16.0339   23.4869 H   0  0  0  0  0  0
  -32.9900  -20.6187   23.2903 H   0  0  0  0  0  0
  -32.0737  -20.2966   24.7382 H   0  0  0  0  0  0
  -28.9733  -24.4026   20.0239 H   0  0  0  0  0  0
  -27.6832  -24.3447   21.1962 H   0  0  0  0  0  0
  -29.9352  -26.4315   21.3095 H   0  0  0  0  0  0
  -28.3652  -26.5399   22.0887 H   0  0  0  0  0  0
  -29.5022  -14.8130   22.1323 H   0  0  0  0  0  0
  -30.1540  -21.1797   23.6665 H   0  0  0  0  0  0
  1 25  1  0  0  0
  1 30  2  0  0  0
  1 87  1  0  0  0
  2  3  1  0  0  0
  2 25  1  0  0  0
  2 89  1  0  0  0
  2 90  1  0  0  0
  3  4  1  0  0  0
  3 91  1  0  0  0
  3 92  1  0  0  0
  4  5  1  0  0  0
  4 93  1  0  0  0
  4 94  1  0  0  0
  5  6  1  0  0  0
  5 26  1  0  0  0
  5 95  1  0  0  0
  6 25  1  0  0  0
  6 96  1  0  0  0
  6 97  1  0  0  0
  7  8  2  0  0  0
  7 26  1  0  0  0
  7 29  1  0  0  0
  8  9  1  0  0  0
  8 22  1  0  0  0
  9 10  1  0  0  0
  9 27  2  0  0  0
 10 11  2  0  0  0
 10 15  1  0  0  0
 11 12  1  0  0  0
 11 98  1  0  0  0
 12 13  2  0  0  0
 12 99  1  0  0  0
 13 14  1  0  0  0
 13 31  1  0  0  0
 14 15  2  0  0  0
 14100  1  0  0  0
 15101  1  0  0  0
 16 17  2  0  0  0
 16 21  1  0  0  0
 16 31  1  0  0  0
 17 18  1  0  0  0
 17102  1  0  0  0
 18 19  2  0  0  0
 18103  1  0  0  0
 19 20  1  0  0  0
 19 24  1  0  0  0
 20 21  2  0  0  0
 20104  1  0  0  0
 21 23  1  0  0  0
 22 28  1  0  0  0
 22 32  2  0  0  0
 26 27  1  0  0  0
 28105  1  0  0  0
 28106  1  0  0  0
 29107  1  0  0  0
 29108  1  0  0  0
 33 34  1  0  0  0
 33 66  1  0  0  0
 33 70  2  0  0  0
 34 36  1  0  0  0
 34 59  1  0  0  0
 34109  1  0  0  0
 35 44  2  0  0  0
 35 45  1  0  0  0
 35 68  1  0  0  0
 36 56  1  0  0  0
 36110  1  0  0  0
 37 39  1  0  0  0
 37 47  1  0  0  0
 37 66  1  0  0  0
 37111  1  0  0  0
 38 43  2  0  0  0
 38 46  1  0  0  0
 38 47  1  0  0  0
 39 64  1  0  0  0
 39 67  2  0  0  0
 40 52  1  0  0  0
 40 53  2  0  0  0
 40 58  1  0  0  0
 41112  1  0  0  0
 41113  1  0  0  0
 41114  1  0  0  0
 41 48  1  0  0  0
 42 43  1  0  0  0
 42 66  1  0  0  0
 42115  1  0  0  0
 42116  1  0  0  0
 43 44  1  0  0  0
 44117  1  0  0  0
 45 46  2  0  0  0
 45118  1  0  0  0
 46119  1  0  0  0
 47120  1  0  0  0
 47121  1  0  0  0
 48 56  1  0  0  0
 48 65  1  0  0  0
 48122  1  0  0  0
 49 50  1  0  0  0
 49 53  1  0  0  0
 49 64  1  0  0  0
 49123  1  0  0  0
 50 51  1  0  0  0
 50124  1  0  0  0
 50125  1  0  0  0
 51 52  1  0  0  0
 51126  1  0  0  0
 51127  1  0  0  0
 52128  1  0  0  0
 52129  1  0  0  0
 53 54  1  0  0  0
 54 55  2  0  0  0
 54130  1  0  0  0
 55 57  1  0  0  0
 55131  1  0  0  0
 56 69  2  0  0  0
 57 58  2  0  0  0
 57132  1  0  0  0
 58133  1  0  0  0
 59 60  1  0  0  0
 59 61  1  0  0  0
 59 62  1  0  0  0
 60134  1  0  0  0
 60135  1  0  0  0
 60136  1  0  0  0
 61137  1  0  0  0
 61138  1  0  0  0
 61139  1  0  0  0
 62140  1  0  0  0
 62141  1  0  0  0
 62142  1  0  0  0
 63 65  1  0  0  0
 63143  1  0  0  0
 63144  1  0  0  0
 63145  1  0  0  0
 64146  1  0  0  0
 65147  1  0  0  0
 68 85  1  0  0  0
 71 72  2  0  0  0
 71 74  1  0  0  0
 71148  1  0  0  0
 72 76  1  0  0  0
 72149  1  0  0  0
 73 74  2  0  0  0
 73 75  1  0  0  0
 73150  1  0  0  0
 74 83  1  0  0  0
 75 76  2  0  0  0
 75 82  1  0  0  0
 76 87  1  0  0  0
 77 78  1  0  0  0
 77 80  1  0  0  0
 77151  1  0  0  0
 77152  1  0  0  0
 78 86  1  0  0  0
 78153  1  0  0  0
 78154  1  0  0  0
 79 81  1  0  0  0
 79 86  1  0  0  0
 79155  1  0  0  0
 79156  1  0  0  0
 80 88  1  0  0  0
 80157  1  0  0  0
 80158  1  0  0  0
 81 88  1  0  0  0
 81159  1  0  0  0
 81160  1  0  0  0
 82161  1  0  0  0
 82162  1  0  0  0
 82163  1  0  0  0
 83164  1  0  0  0
 83165  1  0  0  0
 83 88  1  0  0  0
 84 85  1  0  0  0
 84 86  1  0  0  0
 84166  1  0  0  0
 84167  1  0  0  0
 85168  1  0  0  0
 85169  1  0  0  0
 87170  1  0  0  0
 88171  1  0  0  0
M  CHG  1  88   1
M  ISO  4   1 100  68 101  85 101  87 100
M  END
> <chiral flag>
0

> <version>
0

> <s_m_source_file>
/data/baiqing/PycharmProjects/Reinvent-master-3.2/result/LINK_invent/BTK/process_docking_weight1_custom_product_contain_oxygen_bond_distance_aromatic_linkinvent_7_9_3/rearranged_h_0009.sdf

> <i_m_source_file_index>
93

> <r_mmod_Potential_Energy-OPLS-2005>
-117.478904724121

> <r_mmod_Stretch_Energy-OPLS-2005>
38.0252723693848

> <r_mmod_Bend_Energy-OPLS-2005>
112.14330291748

> <r_mmod_Torsional_Energy-OPLS-2005>
261.671417236328

> <r_mmod_Improper_Torsional_Energy-OPLS-2005>
1.92995965480804

> <r_mmod_Van_der_Waal_Energy-OPLS-2005>
172.116729736328

> <r_mmod_Electrostatic_Energy-OPLS-2005>
-278.554260253906

> <r_mmod_Solvation_Energy-OPLS-2005>
-431.442413330078

> <b_mmod_Minimization_Converged-OPLS-2005>
0

> <r_mmod_RMS_Derivative-OPLS-2005>
1.84620213508606

$$$$
93
                    3D
 Structure written by MMmdl.
155164  0  0  1  0            999 V2000
  -30.5508  -14.6477   20.5284 C   0  0  0  0  0  0
  -30.4495  -12.4033   19.4457 C   0  0  0  0  0  0
  -29.5062  -12.5081   18.2256 C   0  0  0  0  0  0
  -28.0311  -12.3367   18.6382 C   0  0  0  0  0  0
  -27.6525  -13.1967   19.8697 C   0  0  2  0  0  0
  -28.6932  -13.0105   20.9958 C   0  0  0  0  0  0
  -25.2537  -13.8092   20.5633 C   0  0  0  0  0  0
  -24.1825  -13.0380   20.9227 C   0  0  0  0  0  0
  -24.6378  -11.6859   20.8746 C   0  0  0  0  0  0
  -23.9046  -10.4258   21.0421 C   0  0  0  0  0  0
  -24.3612   -9.4179   21.9201 C   0  0  0  0  0  0
  -23.6270   -8.2221   22.0773 C   0  0  0  0  0  0
  -22.4261   -8.0266   21.3538 C   0  0  0  0  0  0
  -21.9901   -9.0248   20.4655 C   0  0  0  0  0  0
  -22.7233  -10.2117   20.3063 C   0  0  0  0  0  0
  -21.6844   -6.0728   22.5280 C   0  0  0  0  0  0
  -21.4016   -6.5638   23.8210 C   0  0  0  0  0  0
  -21.3644   -5.6799   24.9179 C   0  0  0  0  0  0
  -21.6041   -4.3058   24.7244 C   0  0  0  0  0  0
  -21.8814   -3.8144   23.4362 C   0  0  0  0  0  0
  -21.9193   -4.6959   22.3408 C   0  0  0  0  0  0
  -22.7851  -13.5198   21.1871 C   0  0  0  0  0  0
  -22.1661   -4.2143   21.0974 F   0  0  0  0  0  0
  -21.5628   -3.4540   25.7770 F   0  0  0  0  0  0
  -30.0042  -13.3931   20.4486 N   0  0  0  0  0  0
  -26.2965  -12.9240   20.3314 N   0  0  0  0  0  0
  -25.9289  -11.6432   20.5760 N   0  0  0  0  0  0
  -22.0486  -12.8194   22.0427 N   0  0  0  0  0  0
  -25.4163  -15.1780   20.3893 N   0  0  0  0  0  0
  -31.6989  -14.8760   20.1285 O   0  0  0  0  0  0
  -21.6602   -6.8879   21.4257 O   0  0  0  0  0  0
  -22.3547  -14.5492   20.6706 O   0  0  0  0  0  0
  -24.6269  -31.8605   23.2065 C   0  0  0  0  0  0
  -25.9123  -32.4779   23.8346 C   0  0  1  0  0  0
  -27.1575  -27.2795   20.1220 C   0  0  0  0  0  0
  -25.5941  -33.8574   24.2277 N   0  0  0  0  0  0
  -23.4154  -30.4964   21.5496 C   0  0  2  0  0  0
  -24.8540  -28.9697   20.0920 C   0  0  0  0  0  0
  -22.7452  -29.4622   22.4871 C   0  0  0  0  0  0
  -18.0273  -28.1367   22.8408 C   0  0  0  0  0  0
  -24.1484  -36.7313   23.2625 C   0  0  0  0  0  0
  -25.9607  -30.7806   21.3833 C   0  0  0  0  0  0
  -26.0252  -29.4080   20.7247 C   0  0  0  0  0  0
  -27.1838  -28.5719   20.7425 C   0  0  0  0  0  0
  -25.9951  -26.9481   19.3951 C   0  0  0  0  0  0
  -24.8445  -27.7469   19.4119 C   0  0  0  0  0  0
  -23.6299  -29.8594   20.1538 C   0  0  0  0  0  0
  -25.4102  -36.3083   24.0323 C   0  0  1  0  0  0
  -20.5865  -28.3663   23.1252 C   0  0  2  0  0  0
  -20.6761  -26.9387   22.5398 C   0  0  0  0  0  0
  -19.5777  -26.6345   21.5179 C   0  0  0  0  0  0
  -18.1931  -26.7898   22.1552 C   0  0  0  0  0  0
  -19.1523  -28.8824   23.2805 C   0  0  0  0  0  0
  -18.9489  -30.1419   23.8853 C   0  0  0  0  0  0
  -17.6500  -30.6571   24.0536 C   0  0  0  0  0  0
  -25.9036  -34.9453   23.5102 C   0  0  0  0  0  0
  -16.5375  -29.9085   23.6311 C   0  0  0  0  0  0
  -16.7274  -28.6505   23.0305 C   0  0  0  0  0  0
  -26.4503  -31.6578   25.0708 C   0  0  0  0  0  0
  -25.3712  -31.3804   26.1437 C   0  0  0  0  0  0
  -27.0286  -30.2957   24.6173 C   0  0  0  0  0  0
  -27.6095  -32.4264   25.7459 C   0  0  0  0  0  0
  -27.5583  -37.1775   24.8420 C   0  0  0  0  0  0
  -21.4151  -29.3051   22.3661 N   0  0  0  0  0  0
  -26.4264  -37.3795   23.9425 N   0  0  0  0  0  0
  -24.6870  -31.0603   22.1036 N   0  0  0  0  0  0
  -23.4189  -28.8080   23.2876 O   0  0  0  0  0  0
  -28.1901  -26.3324   20.2222 O   0  0  0  0  0  0
  -26.5602  -34.8937   22.4659 O   0  0  0  0  0  0
  -23.5437  -32.1452   23.7400 O   0  0  0  0  0  0
  -28.0562  -18.9867   20.0982 C   0  0  0  0  0  0
  -30.4082  -19.3726   20.3895 C   0  0  0  0  0  0
  -28.2583  -17.6044   20.3950 C   0  0  0  0  0  0
  -30.6189  -17.9845   20.6658 C   0  0  0  0  0  0
  -29.1330  -19.9098   20.0616 C   0  0  0  0  0  0
  -29.5482  -17.0522   20.6488 C   0  0  0  0  0  0
  -28.5007  -23.8346   19.5261 C   0  0  0  0  0  0
  -27.8903  -24.2261   21.7792 C   0  0  0  0  0  0
  -28.0529  -22.6980   21.4915 C   0  0  0  0  0  0
  -27.7726  -24.8956   20.3973 C   0  0  1  0  0  0
  -28.9967  -21.3394   19.4146 C   0  0  0  0  0  0
  -28.5533  -22.6047   20.1181 N   0  0  0  0  0  0
  -29.6772  -15.6234   20.9451 N   0  0  0  0  0  0
  -28.9159  -24.0868   18.3919 O   0  0  0  0  0  0
  -31.4823  -12.5671   19.1363 H   0  0  0  0  0  0
  -30.4238  -11.3998   19.8717 H   0  0  0  0  0  0
  -29.7723  -11.7584   17.4795 H   0  0  0  0  0  0
  -29.6380  -13.4777   17.7436 H   0  0  0  0  0  0
  -27.8738  -11.2825   18.8678 H   0  0  0  0  0  0
  -27.3764  -12.5700   17.7995 H   0  0  0  0  0  0
  -27.6836  -14.2348   19.5465 H   0  0  0  0  0  0
  -28.7167  -11.9701   21.3228 H   0  0  0  0  0  0
  -28.4368  -13.5872   21.8862 H   0  0  0  0  0  0
  -25.2763   -9.5636   22.4788 H   0  0  0  0  0  0
  -23.9979   -7.4611   22.7488 H   0  0  0  0  0  0
  -21.0847   -8.8760   19.8953 H   0  0  0  0  0  0
  -22.3697  -10.9668   19.6175 H   0  0  0  0  0  0
  -21.2002   -7.6153   23.9721 H   0  0  0  0  0  0
  -21.1471   -6.0526   25.9078 H   0  0  0  0  0  0
  -22.0604   -2.7611   23.2875 H   0  0  0  0  0  0
  -22.4095  -11.9816   22.4751 H   0  0  0  0  0  0
  -21.1112  -13.1223   22.2666 H   0  0  0  0  0  0
  -24.6298  -15.8147   20.4608 H   0  0  0  0  0  0
  -26.2028  -15.5748   19.8923 H   0  0  0  0  0  0
  -26.7187  -32.5446   23.1076 H   0  0  0  0  0  0
  -25.0048  -33.9689   25.0403 H   0  0  0  0  0  0
  -22.7066  -31.3180   21.4186 H   0  0  0  0  0  0
  -23.3782  -35.9591   23.3164 H   0  0  0  0  0  0
  -24.3624  -36.9094   22.2066 H   0  0  0  0  0  0
  -23.7169  -37.6443   23.6767 H   0  0  0  0  0  0
  -26.0831  -31.5394   20.6104 H   0  0  0  0  0  0
  -26.8459  -30.8366   22.0050 H   0  0  0  0  0  0
  -28.0675  -28.8816   21.2826 H   0  0  0  0  0  0
  -25.9371  -26.0453   18.8051 H   0  0  0  0  0  0
  -23.9604  -27.4316   18.8784 H   0  0  0  0  0  0
  -23.7551  -30.6517   19.4158 H   0  0  0  0  0  0
  -22.7415  -29.3093   19.8386 H   0  0  0  0  0  0
  -25.1253  -36.1931   25.0799 H   0  0  0  0  0  0
  -20.9931  -28.3291   24.1387 H   0  0  0  0  0  0
  -20.5676  -26.2264   23.3585 H   0  0  0  0  0  0
  -21.6646  -26.7411   22.1243 H   0  0  0  0  0  0
  -19.6960  -25.6251   21.1240 H   0  0  0  0  0  0
  -19.6765  -27.3110   20.6673 H   0  0  0  0  0  0
  -17.4190  -26.6581   21.3960 H   0  0  0  0  0  0
  -18.0359  -26.0045   22.8951 H   0  0  0  0  0  0
  -19.7989  -30.7183   24.2253 H   0  0  0  0  0  0
  -17.5099  -31.6271   24.5110 H   0  0  0  0  0  0
  -15.5415  -30.3000   23.7690 H   0  0  0  0  0  0
  -15.8631  -28.0883   22.7033 H   0  0  0  0  0  0
  -24.5847  -30.7173   25.7800 H   0  0  0  0  0  0
  -24.8936  -32.3008   26.4791 H   0  0  0  0  0  0
  -25.7988  -30.9014   27.0248 H   0  0  0  0  0  0
  -26.2823  -29.6698   24.1231 H   0  0  0  0  0  0
  -27.3987  -29.7221   25.4679 H   0  0  0  0  0  0
  -27.8719  -30.4177   23.9369 H   0  0  0  0  0  0
  -27.2846  -33.3723   26.1814 H   0  0  0  0  0  0
  -28.4053  -32.6515   25.0344 H   0  0  0  0  0  0
  -28.0556  -31.8441   26.5547 H   0  0  0  0  0  0
  -28.2506  -38.0162   24.7620 H   0  0  0  0  0  0
  -28.1204  -36.2697   24.6085 H   0  0  0  0  0  0
  -27.2323  -37.1250   25.8827 H   0  0  0  0  0  0
  -20.9300  -29.8888   21.6976 H   0  0  0  0  0  0
  -26.0145  -38.2842   24.1580 H   0  0  0  0  0  0
  -27.0630  -19.3226   19.8313 H   0  0  0  0  0  0
  -31.2640  -20.0316   20.3743 H   0  0  0  0  0  0
  -27.3933  -16.9598   20.3795 H   0  0  0  0  0  0
  -31.6216  -17.6412   20.8835 H   0  0  0  0  0  0
  -28.7533  -24.6126   22.3209 H   0  0  0  0  0  0
  -27.0063  -24.4154   22.3902 H   0  0  0  0  0  0
  -27.0895  -22.1851   21.5700 H   0  0  0  0  0  0
  -28.7429  -22.2220   22.1912 H   0  0  0  0  0  0
  -26.7273  -24.7394   20.1481 H   0  0  0  0  0  0
  -28.3315  -21.2100   18.5548 H   0  0  0  0  0  0
  -29.9657  -21.5676   18.9606 H   0  0  0  0  0  0
  -28.8272  -15.2070   21.2911 H   0  0  0  0  0  0
  1 25  1  0  0  0
  1 30  2  0  0  0
  1 83  1  0  0  0
  2  3  1  0  0  0
  2 25  1  0  0  0
  2 85  1  0  0  0
  2 86  1  0  0  0
  3  4  1  0  0  0
  3 87  1  0  0  0
  3 88  1  0  0  0
  4  5  1  0  0  0
  4 89  1  0  0  0
  4 90  1  0  0  0
  5  6  1  0  0  0
  5 26  1  0  0  0
  5 91  1  0  0  0
  6 25  1  0  0  0
  6 92  1  0  0  0
  6 93  1  0  0  0
  7  8  2  0  0  0
  7 26  1  0  0  0
  7 29  1  0  0  0
  8  9  1  0  0  0
  8 22  1  0  0  0
  9 10  1  0  0  0
  9 27  2  0  0  0
 10 11  2  0  0  0
 10 15  1  0  0  0
 11 12  1  0  0  0
 11 94  1  0  0  0
 12 13  2  0  0  0
 12 95  1  0  0  0
 13 14  1  0  0  0
 13 31  1  0  0  0
 14 15  2  0  0  0
 14 96  1  0  0  0
 15 97  1  0  0  0
 16 17  2  0  0  0
 16 21  1  0  0  0
 16 31  1  0  0  0
 17 18  1  0  0  0
 17 98  1  0  0  0
 18 19  2  0  0  0
 18 99  1  0  0  0
 19 20  1  0  0  0
 19 24  1  0  0  0
 20 21  2  0  0  0
 20100  1  0  0  0
 21 23  1  0  0  0
 22 28  1  0  0  0
 22 32  2  0  0  0
 26 27  1  0  0  0
 28101  1  0  0  0
 28102  1  0  0  0
 29103  1  0  0  0
 29104  1  0  0  0
 33 34  1  0  0  0
 33 66  1  0  0  0
 33 70  2  0  0  0
 34 36  1  0  0  0
 34 59  1  0  0  0
 34105  1  0  0  0
 35 44  2  0  0  0
 35 45  1  0  0  0
 35 68  1  0  0  0
 36 56  1  0  0  0
 36106  1  0  0  0
 37 39  1  0  0  0
 37 47  1  0  0  0
 37 66  1  0  0  0
 37107  1  0  0  0
 38 43  2  0  0  0
 38 46  1  0  0  0
 38 47  1  0  0  0
 39 64  1  0  0  0
 39 67  2  0  0  0
 40 52  1  0  0  0
 40 53  2  0  0  0
 40 58  1  0  0  0
 41108  1  0  0  0
 41109  1  0  0  0
 41110  1  0  0  0
 41 48  1  0  0  0
 42 43  1  0  0  0
 42 66  1  0  0  0
 42111  1  0  0  0
 42112  1  0  0  0
 43 44  1  0  0  0
 44113  1  0  0  0
 45 46  2  0  0  0
 45114  1  0  0  0
 46115  1  0  0  0
 47116  1  0  0  0
 47117  1  0  0  0
 48 56  1  0  0  0
 48 65  1  0  0  0
 48118  1  0  0  0
 49 50  1  0  0  0
 49 53  1  0  0  0
 49 64  1  0  0  0
 49119  1  0  0  0
 50 51  1  0  0  0
 50120  1  0  0  0
 50121  1  0  0  0
 51 52  1  0  0  0
 51122  1  0  0  0
 51123  1  0  0  0
 52124  1  0  0  0
 52125  1  0  0  0
 53 54  1  0  0  0
 54 55  2  0  0  0
 54126  1  0  0  0
 55 57  1  0  0  0
 55127  1  0  0  0
 56 69  2  0  0  0
 57 58  2  0  0  0
 57128  1  0  0  0
 58129  1  0  0  0
 59 60  1  0  0  0
 59 61  1  0  0  0
 59 62  1  0  0  0
 60130  1  0  0  0
 60131  1  0  0  0
 60132  1  0  0  0
 61133  1  0  0  0
 61134  1  0  0  0
 61135  1  0  0  0
 62136  1  0  0  0
 62137  1  0  0  0
 62138  1  0  0  0
 63 65  1  0  0  0
 63139  1  0  0  0
 63140  1  0  0  0
 63141  1  0  0  0
 64142  1  0  0  0
 65143  1  0  0  0
 68 80  1  0  0  0
 71 73  2  0  0  0
 71 75  1  0  0  0
 71144  1  0  0  0
 72 74  1  0  0  0
 72 75  2  0  0  0
 72145  1  0  0  0
 73 76  1  0  0  0
 73146  1  0  0  0
 74 76  2  0  0  0
 74147  1  0  0  0
 75 81  1  0  0  0
 76 83  1  0  0  0
 77 80  1  0  0  0
 77 82  1  0  0  0
 77 84  2  0  0  0
 78 79  1  0  0  0
 78 80  1  0  0  0
 78148  1  0  0  0
 78149  1  0  0  0
 79 82  1  0  0  0
 79150  1  0  0  0
 79151  1  0  0  0
 80152  1  0  0  0
 81 82  1  0  0  0
 81153  1  0  0  0
 81154  1  0  0  0
 83155  1  0  0  0
M  ISO  4   1 100  68 101  80 101  83 100
M  END
> <chiral flag>
0

> <version>
0

> <s_m_source_file>
/data/baiqing/PycharmProjects/Reinvent-master-3.2/result/LINK_invent/BTK/process_docking_weight1_custom_product_contain_oxygen_bond_distance_aromatic_linkinvent_7_9_3/rearranged_h_0009.sdf

> <i_m_source_file_index>
94

> <r_mmod_Potential_Energy-OPLS-2005>
180.226959228516

> <r_mmod_Stretch_Energy-OPLS-2005>
82.5121765136719

> <r_mmod_Bend_Energy-OPLS-2005>
182.966415405273

> <r_mmod_Torsional_Energy-OPLS-2005>
274.786285400391

> <r_mmod_Improper_Torsional_Energy-OPLS-2005>
8.02795314788818

> <r_mmod_Van_der_Waal_Energy-OPLS-2005>
141.610763549805

> <r_mmod_Electrostatic_Energy-OPLS-2005>
-348.881744384766

> <r_mmod_Solvation_Energy-OPLS-2005>
-236.630828857422

> <b_mmod_Minimization_Converged-OPLS-2005>
0

> <r_mmod_RMS_Derivative-OPLS-2005>
5.5366997718811

$$$$
