0
                    3D
 Structure written by MMmdl.
152160  0  0  1  0            999 V2000
  -30.6277  -14.6294   20.4980 C   0  0  0  0  0  0
  -30.4393  -12.3863   19.4469 C   0  0  0  0  0  0
  -29.5055  -12.5053   18.2216 C   0  0  0  0  0  0
  -28.0285  -12.3459   18.6359 C   0  0  0  0  0  0
  -27.6541  -13.2160   19.8655 C   0  0  2  0  0  0
  -28.7016  -13.0646   20.9922 C   0  0  0  0  0  0
  -25.2555  -13.8160   20.5693 C   0  0  0  0  0  0
  -24.1817  -13.0421   20.9157 C   0  0  0  0  0  0
  -24.6395  -11.6897   20.8725 C   0  0  0  0  0  0
  -23.9064  -10.4284   21.0397 C   0  0  0  0  0  0
  -24.3615   -9.4204   21.9180 C   0  0  0  0  0  0
  -23.6289   -8.2240   22.0753 C   0  0  0  0  0  0
  -22.4272   -8.0276   21.3542 C   0  0  0  0  0  0
  -21.9905   -9.0249   20.4644 C   0  0  0  0  0  0
  -22.7234  -10.2127   20.3051 C   0  0  0  0  0  0
  -21.6852   -6.0733   22.5278 C   0  0  0  0  0  0
  -21.4014   -6.5638   23.8210 C   0  0  0  0  0  0
  -21.3659   -5.6792   24.9172 C   0  0  0  0  0  0
  -21.6044   -4.3054   24.7225 C   0  0  0  0  0  0
  -21.8821   -3.8146   23.4346 C   0  0  0  0  0  0
  -21.9193   -4.6961   22.3401 C   0  0  0  0  0  0
  -22.7841  -13.5216   21.1834 C   0  0  0  0  0  0
  -22.1661   -4.2147   21.0979 F   0  0  0  0  0  0
  -21.5628   -3.4539   25.7739 F   0  0  0  0  0  0
  -30.0177  -13.4048   20.4273 N   0  0  0  0  0  0
  -26.3000  -12.9352   20.3351 N   0  0  0  0  0  0
  -25.9331  -11.6503   20.5768 N   0  0  0  0  0  0
  -22.0496  -12.8212   22.0402 N   0  0  0  0  0  0
  -25.4226  -15.1887   20.4187 N   0  0  0  0  0  0
  -31.7924  -14.7913   20.1228 O   0  0  0  0  0  0
  -21.6635   -6.8875   21.4240 O   0  0  0  0  0  0
  -22.3519  -14.5526   20.6692 O   0  0  0  0  0  0
  -24.6256  -31.8613   23.2042 C   0  0  0  0  0  0
  -25.9109  -32.4785   23.8365 C   0  0  1  0  0  0
  -27.2232  -27.3290   20.1086 C   0  0  0  0  0  0
  -25.5933  -33.8586   24.2291 N   0  0  0  0  0  0
  -23.4180  -30.4863   21.5473 C   0  0  2  0  0  0
  -24.8629  -28.9457   20.1112 C   0  0  0  0  0  0
  -22.7474  -29.4628   22.4946 C   0  0  0  0  0  0
  -18.0285  -28.1374   22.8480 C   0  0  0  0  0  0
  -24.1490  -36.7293   23.2640 C   0  0  0  0  0  0
  -25.9589  -30.7951   21.3736 C   0  0  0  0  0  0
  -26.0329  -29.4238   20.7145 C   0  0  0  0  0  0
  -27.2164  -28.6275   20.7037 C   0  0  0  0  0  0
  -26.0263  -26.9047   19.4828 C   0  0  0  0  0  0
  -24.8609  -27.6905   19.4878 C   0  0  0  0  0  0
  -23.6312  -29.8251   20.1612 C   0  0  0  0  0  0
  -25.4113  -36.3087   24.0330 C   0  0  1  0  0  0
  -20.5885  -28.3682   23.1280 C   0  0  2  0  0  0
  -20.6774  -26.9406   22.5402 C   0  0  0  0  0  0
  -19.5751  -26.6379   21.5201 C   0  0  0  0  0  0
  -18.1932  -26.7917   22.1615 C   0  0  0  0  0  0
  -19.1536  -28.8844   23.2874 C   0  0  0  0  0  0
  -18.9464  -30.1446   23.8892 C   0  0  0  0  0  0
  -17.6467  -30.6582   24.0558 C   0  0  0  0  0  0
  -25.9051  -34.9457   23.5108 C   0  0  0  0  0  0
  -16.5356  -29.9082   23.6326 C   0  0  0  0  0  0
  -16.7273  -28.6496   23.0348 C   0  0  0  0  0  0
  -26.4501  -31.6587   25.0726 C   0  0  0  0  0  0
  -25.3739  -31.3713   26.1458 C   0  0  0  0  0  0
  -27.0345  -30.3016   24.6159 C   0  0  0  0  0  0
  -27.6067  -32.4318   25.7496 C   0  0  0  0  0  0
  -27.5579  -37.1803   24.8467 C   0  0  0  0  0  0
  -21.4188  -29.3043   22.3685 N   0  0  0  0  0  0
  -26.4293  -37.3780   23.9410 N   0  0  0  0  0  0
  -24.6864  -31.0636   22.0986 N   0  0  0  0  0  0
  -23.4203  -28.8165   23.3020 O   0  0  0  0  0  0
  -28.3431  -26.4819   20.1555 O   0  0  0  0  0  0
  -26.5619  -34.8922   22.4674 O   0  0  0  0  0  0
  -23.5423  -32.1409   23.7375 O   0  0  0  0  0  0
  -31.1103  -19.2766   20.4270 C   0  0  0  0  0  0
  -31.1197  -17.8533   20.5200 C   0  0  0  0  0  0
  -28.7132  -19.3054   20.6227 C   0  0  0  0  0  0
  -29.9150  -20.0452   20.4791 C   0  0  0  0  0  0
  -29.9168  -17.1190   20.6787 C   0  0  0  0  0  0
  -28.7196  -17.8819   20.7251 C   0  0  0  0  0  0
  -29.2531  -23.9849   20.3327 C   0  0  0  0  0  0
  -28.8666  -22.4388   20.2474 C   0  0  0  0  0  0
  -28.1050  -25.0290   20.0068 C   0  0  0  0  0  0
  -29.8093  -15.6712   20.8318 N   0  0  0  0  0  0
  -29.9954  -21.4759   20.4049 N   0  0  0  0  0  0
  -27.5437  -17.2241   20.8723 F   0  0  0  0  0  0
  -31.4799  -12.5120   19.1429 H   0  0  0  0  0  0
  -30.3743  -11.3902   19.8869 H   0  0  0  0  0  0
  -29.7662  -11.7539   17.4750 H   0  0  0  0  0  0
  -29.6483  -13.4750   17.7417 H   0  0  0  0  0  0
  -27.8644  -11.2928   18.8671 H   0  0  0  0  0  0
  -27.3725  -12.5775   17.7959 H   0  0  0  0  0  0
  -27.6710  -14.2517   19.5258 H   0  0  0  0  0  0
  -28.7123  -12.0412   21.3706 H   0  0  0  0  0  0
  -28.4518  -13.6935   21.8479 H   0  0  0  0  0  0
  -25.2763   -9.5681   22.4751 H   0  0  0  0  0  0
  -23.9996   -7.4636   22.7478 H   0  0  0  0  0  0
  -21.0833   -8.8769   19.8954 H   0  0  0  0  0  0
  -22.3693  -10.9665   19.6158 H   0  0  0  0  0  0
  -21.2008   -7.6149   23.9713 H   0  0  0  0  0  0
  -21.1478   -6.0523   25.9076 H   0  0  0  0  0  0
  -22.0601   -2.7609   23.2847 H   0  0  0  0  0  0
  -22.4116  -11.9870   22.4781 H   0  0  0  0  0  0
  -21.1120  -13.1242   22.2625 H   0  0  0  0  0  0
  -24.6604  -15.8384   20.5728 H   0  0  0  0  0  0
  -26.2973  -15.6603   20.2196 H   0  0  0  0  0  0
  -26.7179  -32.5458   23.1117 H   0  0  0  0  0  0
  -25.0095  -33.9729   25.0447 H   0  0  0  0  0  0
  -22.7109  -31.3064   21.4068 H   0  0  0  0  0  0
  -23.3753  -35.9627   23.3306 H   0  0  0  0  0  0
  -24.3582  -36.8908   22.2055 H   0  0  0  0  0  0
  -23.7242  -37.6495   23.6658 H   0  0  0  0  0  0
  -26.0889  -31.5599   20.6067 H   0  0  0  0  0  0
  -26.8400  -30.8430   22.0016 H   0  0  0  0  0  0
  -28.1140  -28.9900   21.1854 H   0  0  0  0  0  0
  -25.9544  -25.9489   18.9873 H   0  0  0  0  0  0
  -23.9646  -27.3180   19.0110 H   0  0  0  0  0  0
  -23.7505  -30.6036   19.4066 H   0  0  0  0  0  0
  -22.7508  -29.2556   19.8578 H   0  0  0  0  0  0
  -25.1291  -36.1944   25.0822 H   0  0  0  0  0  0
  -20.9971  -28.3255   24.1404 H   0  0  0  0  0  0
  -20.5668  -26.2296   23.3603 H   0  0  0  0  0  0
  -21.6645  -26.7435   22.1199 H   0  0  0  0  0  0
  -19.6917  -25.6290   21.1229 H   0  0  0  0  0  0
  -19.6684  -27.3194   20.6733 H   0  0  0  0  0  0
  -17.4198  -26.6658   21.4021 H   0  0  0  0  0  0
  -18.0337  -26.0057   22.9010 H   0  0  0  0  0  0
  -19.7946  -30.7253   24.2264 H   0  0  0  0  0  0
  -17.5028  -31.6262   24.5162 H   0  0  0  0  0  0
  -15.5356  -30.2986   23.7653 H   0  0  0  0  0  0
  -15.8670  -28.0816   22.7070 H   0  0  0  0  0  0
  -24.5922  -30.7050   25.7791 H   0  0  0  0  0  0
  -24.8919  -32.2874   26.4884 H   0  0  0  0  0  0
  -25.8072  -30.8897   27.0232 H   0  0  0  0  0  0
  -26.2909  -29.6764   24.1201 H   0  0  0  0  0  0
  -27.4083  -29.7271   25.4645 H   0  0  0  0  0  0
  -27.8763  -30.4318   23.9352 H   0  0  0  0  0  0
  -27.2684  -33.3624   26.2068 H   0  0  0  0  0  0
  -28.3882  -32.6867   25.0323 H   0  0  0  0  0  0
  -28.0732  -31.8443   26.5415 H   0  0  0  0  0  0
  -28.2600  -38.0099   24.7512 H   0  0  0  0  0  0
  -28.1070  -36.2628   24.6294 H   0  0  0  0  0  0
  -27.2294  -37.1454   25.8870 H   0  0  0  0  0  0
  -20.9367  -29.8783   21.6908 H   0  0  0  0  0  0
  -26.0173  -38.2855   24.1415 H   0  0  0  0  0  0
  -32.0603  -19.7811   20.3182 H   0  0  0  0  0  0
  -32.0688  -17.3390   20.4825 H   0  0  0  0  0  0
  -27.7649  -19.8187   20.6717 H   0  0  0  0  0  0
  -30.0827  -24.1818   19.6530 H   0  0  0  0  0  0
  -29.6322  -24.1934   21.3336 H   0  0  0  0  0  0
  -28.3951  -22.2470   19.2820 H   0  0  0  0  0  0
  -28.1087  -22.2219   21.0019 H   0  0  0  0  0  0
  -27.8088  -24.8426   18.9741 H   0  0  0  0  0  0
  -27.2483  -24.7622   20.6286 H   0  0  0  0  0  0
  -28.8812  -15.3714   21.0895 H   0  0  0  0  0  0
  -30.9277  -21.8702   20.2977 H   0  0  0  0  0  0
  1 25  1  0  0  0
  1 30  2  0  0  0
  1 80  1  0  0  0
  2  3  1  0  0  0
  2 25  1  0  0  0
  2 83  1  0  0  0
  2 84  1  0  0  0
  3  4  1  0  0  0
  3 85  1  0  0  0
  3 86  1  0  0  0
  4  5  1  0  0  0
  4 87  1  0  0  0
  4 88  1  0  0  0
  5  6  1  0  0  0
  5 26  1  0  0  0
  5 89  1  0  0  0
  6 25  1  0  0  0
  6 90  1  0  0  0
  6 91  1  0  0  0
  7  8  2  0  0  0
  7 26  1  0  0  0
  7 29  1  0  0  0
  8  9  1  0  0  0
  8 22  1  0  0  0
  9 10  1  0  0  0
  9 27  2  0  0  0
 10 11  2  0  0  0
 10 15  1  0  0  0
 11 12  1  0  0  0
 11 92  1  0  0  0
 12 13  2  0  0  0
 12 93  1  0  0  0
 13 14  1  0  0  0
 13 31  1  0  0  0
 14 15  2  0  0  0
 14 94  1  0  0  0
 15 95  1  0  0  0
 16 17  2  0  0  0
 16 21  1  0  0  0
 16 31  1  0  0  0
 17 18  1  0  0  0
 17 96  1  0  0  0
 18 19  2  0  0  0
 18 97  1  0  0  0
 19 20  1  0  0  0
 19 24  1  0  0  0
 20 21  2  0  0  0
 20 98  1  0  0  0
 21 23  1  0  0  0
 22 28  1  0  0  0
 22 32  2  0  0  0
 26 27  1  0  0  0
 28 99  1  0  0  0
 28100  1  0  0  0
 29101  1  0  0  0
 29102  1  0  0  0
 33 34  1  0  0  0
 33 66  1  0  0  0
 33 70  2  0  0  0
 34 36  1  0  0  0
 34 59  1  0  0  0
 34103  1  0  0  0
 35 44  2  0  0  0
 35 45  1  0  0  0
 35 68  1  0  0  0
 36 56  1  0  0  0
 36104  1  0  0  0
 37 39  1  0  0  0
 37 47  1  0  0  0
 37 66  1  0  0  0
 37105  1  0  0  0
 38 43  2  0  0  0
 38 46  1  0  0  0
 38 47  1  0  0  0
 39 64  1  0  0  0
 39 67  2  0  0  0
 40 52  1  0  0  0
 40 53  2  0  0  0
 40 58  1  0  0  0
 41106  1  0  0  0
 41107  1  0  0  0
 41108  1  0  0  0
 41 48  1  0  0  0
 42 43  1  0  0  0
 42 66  1  0  0  0
 42109  1  0  0  0
 42110  1  0  0  0
 43 44  1  0  0  0
 44111  1  0  0  0
 45 46  2  0  0  0
 45112  1  0  0  0
 46113  1  0  0  0
 47114  1  0  0  0
 47115  1  0  0  0
 48 56  1  0  0  0
 48 65  1  0  0  0
 48116  1  0  0  0
 49 50  1  0  0  0
 49 53  1  0  0  0
 49 64  1  0  0  0
 49117  1  0  0  0
 50 51  1  0  0  0
 50118  1  0  0  0
 50119  1  0  0  0
 51 52  1  0  0  0
 51120  1  0  0  0
 51121  1  0  0  0
 52122  1  0  0  0
 52123  1  0  0  0
 53 54  1  0  0  0
 54 55  2  0  0  0
 54124  1  0  0  0
 55 57  1  0  0  0
 55125  1  0  0  0
 56 69  2  0  0  0
 57 58  2  0  0  0
 57126  1  0  0  0
 58127  1  0  0  0
 59 60  1  0  0  0
 59 61  1  0  0  0
 59 62  1  0  0  0
 60128  1  0  0  0
 60129  1  0  0  0
 60130  1  0  0  0
 61131  1  0  0  0
 61132  1  0  0  0
 61133  1  0  0  0
 62134  1  0  0  0
 62135  1  0  0  0
 62136  1  0  0  0
 63 65  1  0  0  0
 63137  1  0  0  0
 63138  1  0  0  0
 63139  1  0  0  0
 64140  1  0  0  0
 65141  1  0  0  0
 68 79  1  0  0  0
 71 72  2  0  0  0
 71 74  1  0  0  0
 71142  1  0  0  0
 72 75  1  0  0  0
 72143  1  0  0  0
 73 74  2  0  0  0
 73 76  1  0  0  0
 73144  1  0  0  0
 74 81  1  0  0  0
 75 76  2  0  0  0
 75 80  1  0  0  0
 76 82  1  0  0  0
 77 78  1  0  0  0
 77 79  1  0  0  0
 77145  1  0  0  0
 77146  1  0  0  0
 78 81  1  0  0  0
 78147  1  0  0  0
 78148  1  0  0  0
 79149  1  0  0  0
 79150  1  0  0  0
 80151  1  0  0  0
 81152  1  0  0  0
M  ISO  4   1 100  68 101  79 101  80 100
M  END
> <chiral flag>
0

> <version>
0

> <s_m_source_file>
/data/baiqing/PycharmProjects/Reinvent-master-3.2/result/LINK_invent/BTK/process_docking_weight1_custom_product_contain_oxygen_bond_distance_aromatic_linkinvent_7_9_3/rearranged_h_0022.sdf

> <i_m_source_file_index>
1

> <r_mmod_Potential_Energy-OPLS-2005>
-1.59744024276733

> <r_mmod_Stretch_Energy-OPLS-2005>
71.6558456420898

> <r_mmod_Bend_Energy-OPLS-2005>
143.812271118164

> <r_mmod_Torsional_Energy-OPLS-2005>
200.10888671875

> <r_mmod_Improper_Torsional_Energy-OPLS-2005>
4.6348934173584

> <r_mmod_Van_der_Waal_Energy-OPLS-2005>
145.609085083008

> <r_mmod_Electrostatic_Energy-OPLS-2005>
-403.753173828125

> <r_mmod_Solvation_Energy-OPLS-2005>
-208.76188659668

> <b_mmod_Minimization_Converged-OPLS-2005>
0

> <r_mmod_RMS_Derivative-OPLS-2005>
0.584842085838318

$$$$
1
                    3D
 Structure written by MMmdl.
159168  0  0  1  0            999 V2000
  -30.5360  -14.8897   20.4866 C   0  0  0  0  0  0
  -30.4626  -12.5561   19.5098 C   0  0  0  0  0  0
  -29.5201  -12.5323   18.2809 C   0  0  0  0  0  0
  -28.0557  -12.3132   18.7021 C   0  0  0  0  0  0
  -27.6441  -13.2367   19.8767 C   0  0  2  0  0  0
  -28.6897  -13.2130   21.0152 C   0  0  0  0  0  0
  -25.2447  -13.8253   20.5816 C   0  0  0  0  0  0
  -24.1723  -13.0439   20.9297 C   0  0  0  0  0  0
  -24.6359  -11.6961   20.8818 C   0  0  0  0  0  0
  -23.9080  -10.4308   21.0456 C   0  0  0  0  0  0
  -24.3656   -9.4200   21.9204 C   0  0  0  0  0  0
  -23.6337   -8.2222   22.0735 C   0  0  0  0  0  0
  -22.4296   -8.0299   21.3541 C   0  0  0  0  0  0
  -21.9962   -9.0249   20.4603 C   0  0  0  0  0  0
  -22.7290  -10.2126   20.3040 C   0  0  0  0  0  0
  -21.6814   -6.0814   22.5313 C   0  0  0  0  0  0
  -21.3968   -6.5707   23.8250 C   0  0  0  0  0  0
  -21.3670   -5.6829   24.9203 C   0  0  0  0  0  0
  -21.6053   -4.3099   24.7215 C   0  0  0  0  0  0
  -21.8823   -3.8214   23.4329 C   0  0  0  0  0  0
  -21.9186   -4.7063   22.3394 C   0  0  0  0  0  0
  -22.7734  -13.5179   21.1966 C   0  0  0  0  0  0
  -22.1649   -4.2285   21.0966 F   0  0  0  0  0  0
  -21.5632   -3.4544   25.7698 F   0  0  0  0  0  0
  -29.9814  -13.6140   20.4447 N   0  0  0  0  0  0
  -26.2924  -12.9459   20.3505 N   0  0  0  0  0  0
  -25.9306  -11.6609   20.5912 N   0  0  0  0  0  0
  -22.0401  -12.8024   22.0497 N   0  0  0  0  0  0
  -25.4099  -15.1959   20.4277 N   0  0  0  0  0  0
  -31.6892  -15.0303   20.0735 O   0  0  0  0  0  0
  -21.6606   -6.8946   21.4260 O   0  0  0  0  0  0
  -22.3383  -14.5479   20.6875 O   0  0  0  0  0  0
  -24.6503  -31.8470   23.1747 C   0  0  0  0  0  0
  -25.9223  -32.4720   23.8213 C   0  0  1  0  0  0
  -27.2642  -27.1579   20.1783 C   0  0  0  0  0  0
  -25.5895  -33.8496   24.2130 N   0  0  0  0  0  0
  -23.4568  -30.4633   21.5138 C   0  0  2  0  0  0
  -24.9152  -28.8813   20.1185 C   0  0  0  0  0  0
  -22.7603  -29.4624   22.4715 C   0  0  0  0  0  0
  -18.0314  -28.1263   22.8451 C   0  0  0  0  0  0
  -24.1459  -36.7285   23.2643 C   0  0  0  0  0  0
  -26.0107  -30.7319   21.3742 C   0  0  0  0  0  0
  -26.0892  -29.3438   20.7229 C   0  0  0  0  0  0
  -27.2581  -28.4993   20.7322 C   0  0  0  0  0  0
  -26.0562  -26.7931   19.5345 C   0  0  0  0  0  0
  -24.9070  -27.6127   19.5206 C   0  0  0  0  0  0
  -23.6949  -29.7803   20.1383 C   0  0  0  0  0  0
  -25.4090  -36.3068   24.0327 C   0  0  1  0  0  0
  -20.5904  -28.3793   23.1053 C   0  0  2  0  0  0
  -20.6863  -26.9422   22.5406 C   0  0  0  0  0  0
  -19.5758  -26.6080   21.5423 C   0  0  0  0  0  0
  -18.1979  -26.7686   22.1884 C   0  0  0  0  0  0
  -19.1504  -28.8874   23.2770 C   0  0  0  0  0  0
  -18.9242  -30.1419   23.8878 C   0  0  0  0  0  0
  -17.6148  -30.6327   24.0623 C   0  0  0  0  0  0
  -25.9070  -34.9435   23.5080 C   0  0  0  0  0  0
  -16.5160  -29.8742   23.6198 C   0  0  0  0  0  0
  -16.7259  -28.6283   23.0129 C   0  0  0  0  0  0
  -26.4492  -31.6611   25.0697 C   0  0  0  0  0  0
  -25.3624  -31.3858   26.1358 C   0  0  0  0  0  0
  -27.0366  -30.2987   24.6352 C   0  0  0  0  0  0
  -27.5969  -32.4435   25.7514 C   0  0  0  0  0  0
  -27.5541  -37.1796   24.8461 C   0  0  0  0  0  0
  -21.4327  -29.2958   22.3260 N   0  0  0  0  0  0
  -26.4252  -37.3789   23.9433 N   0  0  0  0  0  0
  -24.7244  -31.0363   22.0754 N   0  0  0  0  0  0
  -23.4153  -28.8358   23.3057 O   0  0  0  0  0  0
  -28.3546  -26.2150   20.3086 O   0  0  0  0  0  0
  -26.5693  -34.8942   22.4668 O   0  0  0  0  0  0
  -23.5598  -32.1368   23.6922 O   0  0  0  0  0  0
  -28.7266  -19.7171   21.6855 C   0  0  0  0  0  0
  -28.9915  -18.2903   21.7821 C   0  0  0  0  0  0
  -29.9624  -18.2869   19.6286 C   0  0  0  0  0  0
  -29.0282  -20.5314   20.5390 C   0  0  0  0  0  0
  -29.6247  -17.4887   20.7722 C   0  0  0  0  0  0
  -29.6857  -19.7258   19.5294 C   0  0  0  0  0  0
  -26.6601  -22.8089   21.5782 C   0  0  0  0  0  0
  -28.0054  -23.2804   22.1214 C   0  0  0  0  0  0
  -27.0418  -21.9214   20.3626 C   0  0  0  0  0  0
  -28.8169  -23.3326   20.8349 C   0  0  2  0  0  0
  -30.5755  -17.5530   18.4497 C   0  0  0  0  0  0
  -28.3141  -24.6986   19.9521 C   0  0  0  0  0  0
  -28.5077  -21.9165   20.2704 N   0  0  0  0  0  0
  -29.7300  -15.9681   20.9305 N   0  0  0  0  0  0
  -30.0157  -20.3492   18.3715 F   0  0  0  0  0  0
  -31.4797  -12.7524   19.1689 H   0  0  0  0  0  0
  -30.5044  -11.5899   20.0127 H   0  0  0  0  0  0
  -29.8281  -11.7618   17.5726 H   0  0  0  0  0  0
  -29.6010  -13.4874   17.7599 H   0  0  0  0  0  0
  -27.9408  -11.2713   18.9993 H   0  0  0  0  0  0
  -27.3934  -12.4639   17.8501 H   0  0  0  0  0  0
  -27.6336  -14.2495   19.4769 H   0  0  0  0  0  0
  -28.7605  -12.2259   21.4701 H   0  0  0  0  0  0
  -28.3943  -13.8857   21.8211 H   0  0  0  0  0  0
  -25.2819   -9.5680   22.4776 H   0  0  0  0  0  0
  -24.0107   -7.4604   22.7408 H   0  0  0  0  0  0
  -21.0934   -8.8767   19.8849 H   0  0  0  0  0  0
  -22.3811  -10.9684   19.6135 H   0  0  0  0  0  0
  -21.1884   -7.6201   23.9802 H   0  0  0  0  0  0
  -21.1501   -6.0533   25.9128 H   0  0  0  0  0  0
  -22.0583   -2.7701   23.2749 H   0  0  0  0  0  0
  -22.4096  -11.9726   22.4897 H   0  0  0  0  0  0
  -21.0969  -13.0901   22.2690 H   0  0  0  0  0  0
  -24.6560  -15.8604   20.5837 H   0  0  0  0  0  0
  -26.2956  -15.6447   20.2226 H   0  0  0  0  0  0
  -26.7341  -32.5368   23.0979 H   0  0  0  0  0  0
  -24.9879  -33.9576   25.0168 H   0  0  0  0  0  0
  -22.7700  -31.2942   21.3431 H   0  0  0  0  0  0
  -23.3734  -35.9606   23.3322 H   0  0  0  0  0  0
  -24.3539  -36.8911   22.2057 H   0  0  0  0  0  0
  -23.7211  -37.6481   23.6700 H   0  0  0  0  0  0
  -26.1724  -31.4848   20.6004 H   0  0  0  0  0  0
  -26.8759  -30.7810   22.0234 H   0  0  0  0  0  0
  -28.1478  -28.8578   21.2290 H   0  0  0  0  0  0
  -25.9525  -25.8369   19.0537 H   0  0  0  0  0  0
  -24.0074  -27.2316   19.0619 H   0  0  0  0  0  0
  -23.8687  -30.5510   19.3832 H   0  0  0  0  0  0
  -22.8176  -29.2231   19.8042 H   0  0  0  0  0  0
  -25.1274  -36.1883   25.0827 H   0  0  0  0  0  0
  -21.0067  -28.3517   24.1130 H   0  0  0  0  0  0
  -20.5979  -26.2470   23.3770 H   0  0  0  0  0  0
  -21.6679  -26.7393   22.1077 H   0  0  0  0  0  0
  -19.6626  -27.2635   20.6751 H   0  0  0  0  0  0
  -19.6859  -25.5859   21.1729 H   0  0  0  0  0  0
  -17.4241  -26.6232   21.4351 H   0  0  0  0  0  0
  -18.0491  -25.9980   22.9489 H   0  0  0  0  0  0
  -19.7624  -30.7364   24.2182 H   0  0  0  0  0  0
  -17.4388  -31.5879   24.5413 H   0  0  0  0  0  0
  -15.5077  -30.2424   23.7451 H   0  0  0  0  0  0
  -15.8752  -28.0556   22.6629 H   0  0  0  0  0  0
  -24.5744  -30.7301   25.7638 H   0  0  0  0  0  0
  -24.8888  -32.3103   26.4727 H   0  0  0  0  0  0
  -25.7810  -30.9031   27.0196 H   0  0  0  0  0  0
  -26.3014  -29.6697   24.1328 H   0  0  0  0  0  0
  -27.3895  -29.7320   25.4980 H   0  0  0  0  0  0
  -27.8948  -30.4166   23.9709 H   0  0  0  0  0  0
  -27.2462  -33.3724   26.2025 H   0  0  0  0  0  0
  -28.3791  -32.7039   25.0374 H   0  0  0  0  0  0
  -28.0638  -31.8648   26.5501 H   0  0  0  0  0  0
  -28.2589  -38.0065   24.7506 H   0  0  0  0  0  0
  -28.1004  -36.2607   24.6302 H   0  0  0  0  0  0
  -27.2261  -37.1460   25.8860 H   0  0  0  0  0  0
  -20.9786  -29.8168   21.5870 H   0  0  0  0  0  0
  -26.0128  -38.2845   24.1496 H   0  0  0  0  0  0
  -28.2113  -20.1728   22.5190 H   0  0  0  0  0  0
  -28.6589  -17.7822   22.6752 H   0  0  0  0  0  0
  -26.1172  -23.6958   21.2445 H   0  0  0  0  0  0
  -26.0093  -22.3402   22.3191 H   0  0  0  0  0  0
  -28.4353  -22.5439   22.8055 H   0  0  0  0  0  0
  -27.9516  -24.2343   22.6434 H   0  0  0  0  0  0
  -26.6491  -22.3202   19.4244 H   0  0  0  0  0  0
  -26.6162  -20.9255   20.4631 H   0  0  0  0  0  0
  -29.8769  -23.3981   21.0833 H   0  0  0  0  0  0
  -29.9442  -16.7112   18.1495 H   0  0  0  0  0  0
  -31.5677  -17.1852   18.7198 H   0  0  0  0  0  0
  -30.6967  -18.1931   17.5836 H   0  0  0  0  0  0
  -27.3065  -24.4766   19.6387 H   0  0  0  0  0  0
  -28.8372  -24.6366   19.0013 H   0  0  0  0  0  0
  -28.9864  -15.6004   21.5010 H   0  0  0  0  0  0
  1 25  1  0  0  0
  1 30  2  0  0  0
  1 84  1  0  0  0
  2  3  1  0  0  0
  2 25  1  0  0  0
  2 86  1  0  0  0
  2 87  1  0  0  0
  3  4  1  0  0  0
  3 88  1  0  0  0
  3 89  1  0  0  0
  4  5  1  0  0  0
  4 90  1  0  0  0
  4 91  1  0  0  0
  5  6  1  0  0  0
  5 26  1  0  0  0
  5 92  1  0  0  0
  6 25  1  0  0  0
  6 93  1  0  0  0
  6 94  1  0  0  0
  7  8  2  0  0  0
  7 26  1  0  0  0
  7 29  1  0  0  0
  8  9  1  0  0  0
  8 22  1  0  0  0
  9 10  1  0  0  0
  9 27  2  0  0  0
 10 11  2  0  0  0
 10 15  1  0  0  0
 11 12  1  0  0  0
 11 95  1  0  0  0
 12 13  2  0  0  0
 12 96  1  0  0  0
 13 14  1  0  0  0
 13 31  1  0  0  0
 14 15  2  0  0  0
 14 97  1  0  0  0
 15 98  1  0  0  0
 16 17  2  0  0  0
 16 21  1  0  0  0
 16 31  1  0  0  0
 17 18  1  0  0  0
 17 99  1  0  0  0
 18 19  2  0  0  0
 18100  1  0  0  0
 19 20  1  0  0  0
 19 24  1  0  0  0
 20 21  2  0  0  0
 20101  1  0  0  0
 21 23  1  0  0  0
 22 28  1  0  0  0
 22 32  2  0  0  0
 26 27  1  0  0  0
 28102  1  0  0  0
 28103  1  0  0  0
 29104  1  0  0  0
 29105  1  0  0  0
 33 34  1  0  0  0
 33 66  1  0  0  0
 33 70  2  0  0  0
 34 36  1  0  0  0
 34 59  1  0  0  0
 34106  1  0  0  0
 35 44  2  0  0  0
 35 45  1  0  0  0
 35 68  1  0  0  0
 36 56  1  0  0  0
 36107  1  0  0  0
 37 39  1  0  0  0
 37 47  1  0  0  0
 37 66  1  0  0  0
 37108  1  0  0  0
 38 43  2  0  0  0
 38 46  1  0  0  0
 38 47  1  0  0  0
 39 64  1  0  0  0
 39 67  2  0  0  0
 40 52  1  0  0  0
 40 53  2  0  0  0
 40 58  1  0  0  0
 41109  1  0  0  0
 41110  1  0  0  0
 41111  1  0  0  0
 41 48  1  0  0  0
 42 43  1  0  0  0
 42 66  1  0  0  0
 42112  1  0  0  0
 42113  1  0  0  0
 43 44  1  0  0  0
 44114  1  0  0  0
 45 46  2  0  0  0
 45115  1  0  0  0
 46116  1  0  0  0
 47117  1  0  0  0
 47118  1  0  0  0
 48 56  1  0  0  0
 48 65  1  0  0  0
 48119  1  0  0  0
 49 50  1  0  0  0
 49 53  1  0  0  0
 49 64  1  0  0  0
 49120  1  0  0  0
 50 51  1  0  0  0
 50121  1  0  0  0
 50122  1  0  0  0
 51 52  1  0  0  0
 51123  1  0  0  0
 51124  1  0  0  0
 52125  1  0  0  0
 52126  1  0  0  0
 53 54  1  0  0  0
 54 55  2  0  0  0
 54127  1  0  0  0
 55 57  1  0  0  0
 55128  1  0  0  0
 56 69  2  0  0  0
 57 58  2  0  0  0
 57129  1  0  0  0
 58130  1  0  0  0
 59 60  1  0  0  0
 59 61  1  0  0  0
 59 62  1  0  0  0
 60131  1  0  0  0
 60132  1  0  0  0
 60133  1  0  0  0
 61134  1  0  0  0
 61135  1  0  0  0
 61136  1  0  0  0
 62137  1  0  0  0
 62138  1  0  0  0
 62139  1  0  0  0
 63 65  1  0  0  0
 63140  1  0  0  0
 63141  1  0  0  0
 63142  1  0  0  0
 64143  1  0  0  0
 65144  1  0  0  0
 68 82  1  0  0  0
 71 72  2  0  0  0
 71 74  1  0  0  0
 71145  1  0  0  0
 72 75  1  0  0  0
 72146  1  0  0  0
 73 75  2  0  0  0
 73 76  1  0  0  0
 73 81  1  0  0  0
 74 76  2  0  0  0
 74 83  1  0  0  0
 75 84  1  0  0  0
 76 85  1  0  0  0
 77 78  1  0  0  0
 77 79  1  0  0  0
 77147  1  0  0  0
 77148  1  0  0  0
 78 80  1  0  0  0
 78149  1  0  0  0
 78150  1  0  0  0
 79 83  1  0  0  0
 79151  1  0  0  0
 79152  1  0  0  0
 80 82  1  0  0  0
 80 83  1  0  0  0
 80153  1  0  0  0
 81154  1  0  0  0
 81155  1  0  0  0
 81156  1  0  0  0
 82157  1  0  0  0
 82158  1  0  0  0
 84159  1  0  0  0
M  ISO  4   1 100  68 101  82 101  84 100
M  END
> <chiral flag>
0

> <version>
0

> <s_m_source_file>
/data/baiqing/PycharmProjects/Reinvent-master-3.2/result/LINK_invent/BTK/process_docking_weight1_custom_product_contain_oxygen_bond_distance_aromatic_linkinvent_7_9_3/rearranged_h_0022.sdf

> <i_m_source_file_index>
2

> <r_mmod_Potential_Energy-OPLS-2005>
637.745483398438

> <r_mmod_Stretch_Energy-OPLS-2005>
236.540954589844

> <r_mmod_Bend_Energy-OPLS-2005>
325.943328857422

> <r_mmod_Torsional_Energy-OPLS-2005>
303.494720458984

> <r_mmod_Improper_Torsional_Energy-OPLS-2005>
10.1717939376831

> <r_mmod_Van_der_Waal_Energy-OPLS-2005>
141.739105224609

> <r_mmod_Electrostatic_Energy-OPLS-2005>
-330.613708496094

> <r_mmod_Solvation_Energy-OPLS-2005>
-216.840377807617

> <b_mmod_Minimization_Converged-OPLS-2005>
0

> <r_mmod_RMS_Derivative-OPLS-2005>
10.5321750640869

$$$$
2
                    3D
 Structure written by MMmdl.
169179  0  0  1  0            999 V2000
  -30.4715  -15.0340   20.4799 C   0  0  0  0  0  0
  -30.4573  -12.6546   19.5305 C   0  0  0  0  0  0
  -29.5367  -12.5552   18.2875 C   0  0  0  0  0  0
  -28.0691  -12.3219   18.6916 C   0  0  0  0  0  0
  -27.6326  -13.2394   19.8588 C   0  0  2  0  0  0
  -28.6662  -13.2840   21.0046 C   0  0  0  0  0  0
  -25.2291  -13.7549   20.5169 C   0  0  0  0  0  0
  -24.1741  -13.0021   20.9144 C   0  0  0  0  0  0
  -24.6526  -11.6588   20.8851 C   0  0  0  0  0  0
  -23.9224  -10.4042   21.0442 C   0  0  0  0  0  0
  -24.3723   -9.3972   21.9224 C   0  0  0  0  0  0
  -23.6317   -8.2072   22.0794 C   0  0  0  0  0  0
  -22.4292   -8.0216   21.3563 C   0  0  0  0  0  0
  -21.9978   -9.0209   20.4656 C   0  0  0  0  0  0
  -22.7405  -10.2012   20.3072 C   0  0  0  0  0  0
  -21.6835   -6.0742   22.5302 C   0  0  0  0  0  0
  -21.3965   -6.5637   23.8230 C   0  0  0  0  0  0
  -21.3630   -5.6782   24.9184 C   0  0  0  0  0  0
  -21.6063   -4.3050   24.7203 C   0  0  0  0  0  0
  -21.8839   -3.8157   23.4313 C   0  0  0  0  0  0
  -21.9178   -4.6983   22.3391 C   0  0  0  0  0  0
  -22.7800  -13.4952   21.1833 C   0  0  0  0  0  0
  -22.1630   -4.2189   21.0953 F   0  0  0  0  0  0
  -21.5666   -3.4520   25.7696 F   0  0  0  0  0  0
  -29.9335  -13.7408   20.4190 N   0  0  0  0  0  0
  -26.2959  -12.9093   20.3295 N   0  0  0  0  0  0
  -25.9508  -11.6257   20.5947 N   0  0  0  0  0  0
  -22.0421  -12.8144   22.0491 N   0  0  0  0  0  0
  -25.3481  -15.0896   20.2555 N   0  0  0  0  0  0
  -31.6699  -15.1333   20.1740 O   0  0  0  0  0  0
  -21.6585   -6.8892   21.4276 O   0  0  0  0  0  0
  -22.3573  -14.5295   20.6658 O   0  0  0  0  0  0
  -24.6343  -31.8467   23.1872 C   0  0  0  0  0  0
  -25.9122  -32.4711   23.8263 C   0  0  1  0  0  0
  -27.2695  -27.1869   20.1603 C   0  0  0  0  0  0
  -25.5883  -33.8511   24.2184 N   0  0  0  0  0  0
  -23.4409  -30.4537   21.5354 C   0  0  2  0  0  0
  -24.9034  -28.8791   20.1205 C   0  0  0  0  0  0
  -22.7500  -29.4533   22.4936 C   0  0  0  0  0  0
  -18.0255  -28.1418   22.8457 C   0  0  0  0  0  0
  -24.1497  -36.7237   23.2649 C   0  0  0  0  0  0
  -25.9895  -30.7350   21.3841 C   0  0  0  0  0  0
  -26.0729  -29.3454   20.7338 C   0  0  0  0  0  0
  -27.2518  -28.5163   20.7362 C   0  0  0  0  0  0
  -26.0702  -26.8048   19.5115 C   0  0  0  0  0  0
  -24.9110  -27.6168   19.4997 C   0  0  0  0  0  0
  -23.6665  -29.7657   20.1604 C   0  0  0  0  0  0
  -25.4133  -36.3023   24.0318 C   0  0  1  0  0  0
  -20.5865  -28.3694   23.1271 C   0  0  2  0  0  0
  -20.6784  -26.9416   22.5409 C   0  0  0  0  0  0
  -19.5751  -26.6392   21.5217 C   0  0  0  0  0  0
  -18.1927  -26.7950   22.1619 C   0  0  0  0  0  0
  -19.1531  -28.8887   23.2845 C   0  0  0  0  0  0
  -18.9451  -30.1502   23.8819 C   0  0  0  0  0  0
  -17.6464  -30.6610   24.0579 C   0  0  0  0  0  0
  -25.9058  -34.9402   23.5058 C   0  0  0  0  0  0
  -16.5341  -29.9098   23.6377 C   0  0  0  0  0  0
  -16.7259  -28.6548   23.0334 C   0  0  0  0  0  0
  -26.4481  -31.6539   25.0658 C   0  0  0  0  0  0
  -25.3686  -31.3729   26.1364 C   0  0  0  0  0  0
  -27.0369  -30.2933   24.6221 C   0  0  0  0  0  0
  -27.6001  -32.4315   25.7442 C   0  0  0  0  0  0
  -27.5580  -37.1775   24.8460 C   0  0  0  0  0  0
  -21.4212  -29.3003   22.3653 N   0  0  0  0  0  0
  -26.4298  -37.3722   23.9395 N   0  0  0  0  0  0
  -24.7062  -31.0351   22.0897 N   0  0  0  0  0  0
  -23.4161  -28.8129   23.3120 O   0  0  0  0  0  0
  -28.3945  -26.2899   20.1604 O   0  0  0  0  0  0
  -26.5651  -34.8889   22.4641 O   0  0  0  0  0  0
  -23.5459  -32.1334   23.7080 O   0  0  0  0  0  0
  -30.8938  -19.9946   20.7278 C   0  0  0  0  0  0
  -30.8659  -18.5366   20.6841 C   0  0  0  0  0  0
  -28.5146  -18.6433   20.5268 C   0  0  0  0  0  0
  -29.7529  -20.8623   20.5692 C   0  0  0  0  0  0
  -29.6727  -17.7359   20.6158 C   0  0  0  0  0  0
  -28.5899  -20.0999   20.3402 C   0  0  0  0  0  0
  -25.1602  -17.4833   21.9632 C   0  0  0  0  0  0
  -24.7637  -17.9688   20.5328 C   0  0  0  0  0  0
  -31.3660  -23.9504   21.2467 C   0  0  0  0  0  0
  -26.6974  -17.3295   21.9827 C   0  0  0  0  0  0
  -26.0687  -18.0743   19.7134 C   0  0  0  0  0  0
  -30.7647  -24.1676   19.8511 C   0  0  0  0  0  0
  -30.5643  -22.8026   21.8725 C   0  0  0  0  0  0
  -27.0745  -18.2561   20.8429 C   0  0  0  0  0  0
  -29.3609  -23.5724   19.9592 C   0  0  2  0  0  0
  -28.2930  -24.7751   20.4599 C   0  0  0  0  0  0
  -29.6721  -22.3267   20.8265 N   0  0  0  0  0  0
  -29.6240  -16.1722   20.7152 N   0  0  0  0  0  0
  -27.1901  -21.0720   19.9516 Cl  0  0  0  0  0  0
  -31.4808  -12.8596   19.2087 H   0  0  0  0  0  0
  -30.5047  -11.7067   20.0690 H   0  0  0  0  0  0
  -29.8712  -11.7609   17.6211 H   0  0  0  0  0  0
  -29.6135  -13.4856   17.7226 H   0  0  0  0  0  0
  -27.9664  -11.2789   18.9919 H   0  0  0  0  0  0
  -27.4037  -12.4557   17.8370 H   0  0  0  0  0  0
  -27.5851  -14.2419   19.4331 H   0  0  0  0  0  0
  -28.7800  -12.3044   21.4693 H   0  0  0  0  0  0
  -28.3440  -13.9594   21.7995 H   0  0  0  0  0  0
  -25.2853   -9.5422   22.4826 H   0  0  0  0  0  0
  -23.9969   -7.4469   22.7576 H   0  0  0  0  0  0
  -21.0862   -8.8845   19.8984 H   0  0  0  0  0  0
  -22.3920  -10.9583   19.6182 H   0  0  0  0  0  0
  -21.1920   -7.6139   23.9745 H   0  0  0  0  0  0
  -21.1425   -6.0489   25.9098 H   0  0  0  0  0  0
  -22.0649   -2.7626   23.2774 H   0  0  0  0  0  0
  -22.3862  -11.9688   22.4821 H   0  0  0  0  0  0
  -21.1028  -13.1246   22.2534 H   0  0  0  0  0  0
  -24.5471  -15.6949   20.3910 H   0  0  0  0  0  0
  -26.1908  -15.5951   20.0335 H   0  0  0  0  0  0
  -26.7205  -32.5352   23.1019 H   0  0  0  0  0  0
  -24.9985  -33.9666   25.0306 H   0  0  0  0  0  0
  -22.7406  -31.2752   21.3778 H   0  0  0  0  0  0
  -23.3745  -35.9574   23.3277 H   0  0  0  0  0  0
  -24.3592  -36.8863   22.2063 H   0  0  0  0  0  0
  -23.7258  -37.6433   23.6701 H   0  0  0  0  0  0
  -26.1358  -31.4984   20.6186 H   0  0  0  0  0  0
  -26.8619  -30.7909   22.0200 H   0  0  0  0  0  0
  -28.1472  -28.8799   21.2225 H   0  0  0  0  0  0
  -26.0276  -25.8564   18.9945 H   0  0  0  0  0  0
  -24.0199  -27.2549   19.0067 H   0  0  0  0  0  0
  -23.7793  -30.5337   19.3942 H   0  0  0  0  0  0
  -22.7908  -29.1816   19.8695 H   0  0  0  0  0  0
  -25.1348  -36.1835   25.0814 H   0  0  0  0  0  0
  -20.9957  -28.3273   24.1398 H   0  0  0  0  0  0
  -20.5719  -26.2288   23.3609 H   0  0  0  0  0  0
  -21.6665  -26.7476   22.1197 H   0  0  0  0  0  0
  -19.6915  -25.6291   21.1258 H   0  0  0  0  0  0
  -19.6723  -27.3212   20.6755 H   0  0  0  0  0  0
  -17.4224  -26.6635   21.4013 H   0  0  0  0  0  0
  -18.0335  -26.0138   22.9055 H   0  0  0  0  0  0
  -19.7943  -30.7364   24.2114 H   0  0  0  0  0  0
  -17.5021  -31.6290   24.5190 H   0  0  0  0  0  0
  -15.5349  -30.2990   23.7796 H   0  0  0  0  0  0
  -15.8638  -28.0915   22.7012 H   0  0  0  0  0  0
  -24.5842  -30.7109   25.7685 H   0  0  0  0  0  0
  -24.8937  -32.2938   26.4756 H   0  0  0  0  0  0
  -25.7989  -30.8912   27.0146 H   0  0  0  0  0  0
  -26.3004  -29.6612   24.1247 H   0  0  0  0  0  0
  -27.4006  -29.7245   25.4785 H   0  0  0  0  0  0
  -27.8887  -30.4144   23.9517 H   0  0  0  0  0  0
  -27.2565  -33.3595   26.2003 H   0  0  0  0  0  0
  -28.3819  -32.6881   25.0292 H   0  0  0  0  0  0
  -28.0653  -31.8450   26.5360 H   0  0  0  0  0  0
  -28.2598  -38.0077   24.7533 H   0  0  0  0  0  0
  -28.1087  -36.2606   24.6297 H   0  0  0  0  0  0
  -27.2290  -37.1427   25.8859 H   0  0  0  0  0  0
  -20.9409  -29.8672   21.6806 H   0  0  0  0  0  0
  -26.0126  -38.2766   24.1419 H   0  0  0  0  0  0
  -31.8586  -20.4507   20.8970 H   0  0  0  0  0  0
  -31.8187  -18.0352   20.7797 H   0  0  0  0  0  0
  -24.6724  -16.5568   22.2581 H   0  0  0  0  0  0
  -24.8518  -18.2339   22.6916 H   0  0  0  0  0  0
  -24.3153  -18.9601   20.6172 H   0  0  0  0  0  0
  -24.0180  -17.3464   20.0382 H   0  0  0  0  0  0
  -31.2499  -24.8399   21.8684 H   0  0  0  0  0  0
  -32.4279  -23.7120   21.1798 H   0  0  0  0  0  0
  -27.0015  -16.2982   21.8231 H   0  0  0  0  0  0
  -27.1247  -17.6565   22.9321 H   0  0  0  0  0  0
  -26.0349  -18.9067   19.0094 H   0  0  0  0  0  0
  -26.3000  -17.1895   19.1220 H   0  0  0  0  0  0
  -31.3405  -23.6016   19.1118 H   0  0  0  0  0  0
  -30.7789  -25.2128   19.5357 H   0  0  0  0  0  0
  -29.9539  -23.1729   22.6978 H   0  0  0  0  0  0
  -31.2084  -22.0276   22.2921 H   0  0  0  0  0  0
  -26.7403  -19.1535   21.3622 H   0  0  0  0  0  0
  -29.0688  -23.2503   18.9579 H   0  0  0  0  0  0
  -28.2384  -24.7104   21.5454 H   0  0  0  0  0  0
  -27.3086  -24.4359   20.1428 H   0  0  0  0  0  0
  -28.7049  -15.8413   20.9632 H   0  0  0  0  0  0
  1 25  1  0  0  0
  1 30  2  0  0  0
  1 88  1  0  0  0
  2  3  1  0  0  0
  2 25  1  0  0  0
  2 90  1  0  0  0
  2 91  1  0  0  0
  3  4  1  0  0  0
  3 92  1  0  0  0
  3 93  1  0  0  0
  4  5  1  0  0  0
  4 94  1  0  0  0
  4 95  1  0  0  0
  5  6  1  0  0  0
  5 26  1  0  0  0
  5 96  1  0  0  0
  6 25  1  0  0  0
  6 97  1  0  0  0
  6 98  1  0  0  0
  7  8  2  0  0  0
  7 26  1  0  0  0
  7 29  1  0  0  0
  8  9  1  0  0  0
  8 22  1  0  0  0
  9 10  1  0  0  0
  9 27  2  0  0  0
 10 11  2  0  0  0
 10 15  1  0  0  0
 11 12  1  0  0  0
 11 99  1  0  0  0
 12 13  2  0  0  0
 12100  1  0  0  0
 13 14  1  0  0  0
 13 31  1  0  0  0
 14 15  2  0  0  0
 14101  1  0  0  0
 15102  1  0  0  0
 16 17  2  0  0  0
 16 21  1  0  0  0
 16 31  1  0  0  0
 17 18  1  0  0  0
 17103  1  0  0  0
 18 19  2  0  0  0
 18104  1  0  0  0
 19 20  1  0  0  0
 19 24  1  0  0  0
 20 21  2  0  0  0
 20105  1  0  0  0
 21 23  1  0  0  0
 22 28  1  0  0  0
 22 32  2  0  0  0
 26 27  1  0  0  0
 28106  1  0  0  0
 28107  1  0  0  0
 29108  1  0  0  0
 29109  1  0  0  0
 33 34  1  0  0  0
 33 66  1  0  0  0
 33 70  2  0  0  0
 34 36  1  0  0  0
 34 59  1  0  0  0
 34110  1  0  0  0
 35 44  2  0  0  0
 35 45  1  0  0  0
 35 68  1  0  0  0
 36 56  1  0  0  0
 36111  1  0  0  0
 37 39  1  0  0  0
 37 47  1  0  0  0
 37 66  1  0  0  0
 37112  1  0  0  0
 38 43  2  0  0  0
 38 46  1  0  0  0
 38 47  1  0  0  0
 39 64  1  0  0  0
 39 67  2  0  0  0
 40 52  1  0  0  0
 40 53  2  0  0  0
 40 58  1  0  0  0
 41113  1  0  0  0
 41114  1  0  0  0
 41115  1  0  0  0
 41 48  1  0  0  0
 42 43  1  0  0  0
 42 66  1  0  0  0
 42116  1  0  0  0
 42117  1  0  0  0
 43 44  1  0  0  0
 44118  1  0  0  0
 45 46  2  0  0  0
 45119  1  0  0  0
 46120  1  0  0  0
 47121  1  0  0  0
 47122  1  0  0  0
 48 56  1  0  0  0
 48 65  1  0  0  0
 48123  1  0  0  0
 49 50  1  0  0  0
 49 53  1  0  0  0
 49 64  1  0  0  0
 49124  1  0  0  0
 50 51  1  0  0  0
 50125  1  0  0  0
 50126  1  0  0  0
 51 52  1  0  0  0
 51127  1  0  0  0
 51128  1  0  0  0
 52129  1  0  0  0
 52130  1  0  0  0
 53 54  1  0  0  0
 54 55  2  0  0  0
 54131  1  0  0  0
 55 57  1  0  0  0
 55132  1  0  0  0
 56 69  2  0  0  0
 57 58  2  0  0  0
 57133  1  0  0  0
 58134  1  0  0  0
 59 60  1  0  0  0
 59 61  1  0  0  0
 59 62  1  0  0  0
 60135  1  0  0  0
 60136  1  0  0  0
 60137  1  0  0  0
 61138  1  0  0  0
 61139  1  0  0  0
 61140  1  0  0  0
 62141  1  0  0  0
 62142  1  0  0  0
 62143  1  0  0  0
 63 65  1  0  0  0
 63144  1  0  0  0
 63145  1  0  0  0
 63146  1  0  0  0
 64147  1  0  0  0
 65148  1  0  0  0
 68 86  1  0  0  0
 71 72  2  0  0  0
 71 74  1  0  0  0
 71149  1  0  0  0
 72 75  1  0  0  0
 72150  1  0  0  0
 73 75  2  0  0  0
 73 76  1  0  0  0
 73 84  1  0  0  0
 74 76  2  0  0  0
 74 87  1  0  0  0
 75 88  1  0  0  0
 76 89  1  0  0  0
 77 78  1  0  0  0
 77 80  1  0  0  0
 77151  1  0  0  0
 77152  1  0  0  0
 78 81  1  0  0  0
 78153  1  0  0  0
 78154  1  0  0  0
 79 82  1  0  0  0
 79 83  1  0  0  0
 79155  1  0  0  0
 79156  1  0  0  0
 80 84  1  0  0  0
 80157  1  0  0  0
 80158  1  0  0  0
 81 84  1  0  0  0
 81159  1  0  0  0
 81160  1  0  0  0
 82 85  1  0  0  0
 82161  1  0  0  0
 82162  1  0  0  0
 83 87  1  0  0  0
 83163  1  0  0  0
 83164  1  0  0  0
 84165  1  0  0  0
 85 86  1  0  0  0
 85 87  1  0  0  0
 85166  1  0  0  0
 86167  1  0  0  0
 86168  1  0  0  0
 88169  1  0  0  0
M  ISO  4   1 100  68 101  86 101  88 100
M  END
> <chiral flag>
0

> <version>
0

> <s_m_source_file>
/data/baiqing/PycharmProjects/Reinvent-master-3.2/result/LINK_invent/BTK/process_docking_weight1_custom_product_contain_oxygen_bond_distance_aromatic_linkinvent_7_9_3/rearranged_h_0022.sdf

> <i_m_source_file_index>
3

> <r_mmod_Potential_Energy-OPLS-2005>
896.475463867188

> <r_mmod_Stretch_Energy-OPLS-2005>
248.363220214844

> <r_mmod_Bend_Energy-OPLS-2005>
394.449829101562

> <r_mmod_Torsional_Energy-OPLS-2005>
395.513641357422

> <r_mmod_Improper_Torsional_Energy-OPLS-2005>
8.84055519104004

> <r_mmod_Van_der_Waal_Energy-OPLS-2005>
164.135467529297

> <r_mmod_Electrostatic_Energy-OPLS-2005>
-321.112396240234

> <r_mmod_Solvation_Energy-OPLS-2005>
-200.75080871582

> <b_mmod_Minimization_Converged-OPLS-2005>
0

> <r_mmod_RMS_Derivative-OPLS-2005>
5.84384441375732

$$$$
3
                    3D
 Structure written by MMmdl.
155163  0  0  1  0            999 V2000
  -30.7258  -14.4693   20.6156 C   0  0  0  0  0  0
  -30.4235  -12.3291   19.4086 C   0  0  0  0  0  0
  -29.4870  -12.5144   18.1976 C   0  0  0  0  0  0
  -28.0141  -12.3567   18.6237 C   0  0  0  0  0  0
  -27.6593  -13.2080   19.8719 C   0  0  2  0  0  0
  -28.7028  -13.0023   20.9906 C   0  0  0  0  0  0
  -25.2581  -13.8174   20.5720 C   0  0  0  0  0  0
  -24.1833  -13.0448   20.9211 C   0  0  0  0  0  0
  -24.6401  -11.6920   20.8776 C   0  0  0  0  0  0
  -23.9059  -10.4297   21.0425 C   0  0  0  0  0  0
  -24.3609   -9.4208   21.9205 C   0  0  0  0  0  0
  -23.6292   -8.2246   22.0767 C   0  0  0  0  0  0
  -22.4272   -8.0289   21.3569 C   0  0  0  0  0  0
  -21.9902   -9.0247   20.4660 C   0  0  0  0  0  0
  -22.7227  -10.2133   20.3072 C   0  0  0  0  0  0
  -21.6830   -6.0741   22.5290 C   0  0  0  0  0  0
  -21.3992   -6.5645   23.8218 C   0  0  0  0  0  0
  -21.3664   -5.6801   24.9182 C   0  0  0  0  0  0
  -21.6048   -4.3071   24.7235 C   0  0  0  0  0  0
  -21.8810   -3.8160   23.4357 C   0  0  0  0  0  0
  -21.9182   -4.6967   22.3413 C   0  0  0  0  0  0
  -22.7857  -13.5248   21.1880 C   0  0  0  0  0  0
  -22.1666   -4.2154   21.0991 F   0  0  0  0  0  0
  -21.5624   -3.4554   25.7748 F   0  0  0  0  0  0
  -30.0323  -13.3120   20.4334 N   0  0  0  0  0  0
  -26.3014  -12.9347   20.3380 N   0  0  0  0  0  0
  -25.9318  -11.6511   20.5802 N   0  0  0  0  0  0
  -22.0494  -12.8220   22.0422 N   0  0  0  0  0  0
  -25.4310  -15.1887   20.4154 N   0  0  0  0  0  0
  -31.8274  -14.6805   20.1037 O   0  0  0  0  0  0
  -21.6644   -6.8888   21.4258 O   0  0  0  0  0  0
  -22.3551  -14.5561   20.6728 O   0  0  0  0  0  0
  -24.6175  -31.8684   23.2086 C   0  0  0  0  0  0
  -25.9071  -32.4835   23.8363 C   0  0  1  0  0  0
  -27.2383  -27.4261   20.0926 C   0  0  0  0  0  0
  -25.5908  -33.8640   24.2297 N   0  0  0  0  0  0
  -23.4044  -30.4910   21.5519 C   0  0  2  0  0  0
  -24.8489  -28.9581   20.1155 C   0  0  0  0  0  0
  -22.7422  -29.4662   22.5002 C   0  0  0  0  0  0
  -18.0267  -28.1378   22.8503 C   0  0  0  0  0  0
  -24.1486  -36.7340   23.2638 C   0  0  0  0  0  0
  -25.9353  -30.8307   21.3635 C   0  0  0  0  0  0
  -26.0123  -29.4653   20.7079 C   0  0  0  0  0  0
  -27.2091  -28.7094   20.6882 C   0  0  0  0  0  0
  -26.0483  -26.9352   19.5007 C   0  0  0  0  0  0
  -24.8629  -27.6939   19.5072 C   0  0  0  0  0  0
  -23.6092  -29.8229   20.1674 C   0  0  0  0  0  0
  -25.4108  -36.3136   24.0336 C   0  0  1  0  0  0
  -20.5859  -28.3657   23.1311 C   0  0  2  0  0  0
  -20.6751  -26.9388   22.5417 C   0  0  0  0  0  0
  -19.5721  -26.6381   21.5219 C   0  0  0  0  0  0
  -18.1905  -26.7925   22.1633 C   0  0  0  0  0  0
  -19.1518  -28.8837   23.2912 C   0  0  0  0  0  0
  -18.9446  -30.1445   23.8919 C   0  0  0  0  0  0
  -17.6444  -30.6587   24.0561 C   0  0  0  0  0  0
  -25.9049  -34.9505   23.5117 C   0  0  0  0  0  0
  -16.5338  -29.9083   23.6328 C   0  0  0  0  0  0
  -16.7253  -28.6496   23.0363 C   0  0  0  0  0  0
  -26.4521  -31.6626   25.0692 C   0  0  0  0  0  0
  -25.3764  -31.3625   26.1378 C   0  0  0  0  0  0
  -27.0466  -30.3106   24.6080 C   0  0  0  0  0  0
  -27.6004  -32.4453   25.7485 C   0  0  0  0  0  0
  -27.5578  -37.1807   24.8457 C   0  0  0  0  0  0
  -21.4152  -29.3030   22.3736 N   0  0  0  0  0  0
  -26.4300  -37.3814   23.9399 N   0  0  0  0  0  0
  -24.6712  -31.0760   22.0999 N   0  0  0  0  0  0
  -23.4190  -28.8222   23.3057 O   0  0  0  0  0  0
  -28.4150  -26.6942   20.0977 O   0  0  0  0  0  0
  -26.5608  -34.8953   22.4677 O   0  0  0  0  0  0
  -23.5369  -32.1435   23.7484 O   0  0  0  0  0  0
  -31.5711  -18.9349   21.8084 C   0  0  0  0  0  0
  -31.5215  -20.2825   21.4050 C   0  0  0  0  0  0
  -30.5935  -17.9974   21.4048 C   0  0  0  0  0  0
  -30.4839  -20.7573   20.5823 C   0  0  0  0  0  0
  -29.5435  -18.4600   20.5605 C   0  0  0  0  0  0
  -29.4974  -19.8238   20.1459 C   0  0  0  0  0  0
  -30.7323  -16.5786   22.0047 C   0  0  0  0  0  0
  -29.6181  -24.4945   20.2797 C   0  0  0  0  0  0
  -29.3751  -22.9820   20.5302 C   0  0  0  0  0  0
  -28.2808  -25.2652   20.1915 C   0  0  0  0  0  0
  -30.5266  -22.1278   20.2206 N   0  0  0  0  0  0
  -30.1167  -15.3987   21.3748 N   0  0  0  0  0  0
  -28.2838  -17.3895   20.0334 Cl  0  0  0  0  0  0
  -28.2402  -20.3164   19.0555 Cl  0  0  0  0  0  0
  -31.4645  -12.4356   19.1003 H   0  0  0  0  0  0
  -30.3359  -11.3191   19.8086 H   0  0  0  0  0  0
  -29.7321  -11.7885   17.4190 H   0  0  0  0  0  0
  -29.6342  -13.5006   17.7546 H   0  0  0  0  0  0
  -27.8433  -11.2998   18.8354 H   0  0  0  0  0  0
  -27.3508  -12.6087   17.7951 H   0  0  0  0  0  0
  -27.6973  -14.2536   19.5661 H   0  0  0  0  0  0
  -28.6846  -11.9708   21.3406 H   0  0  0  0  0  0
  -28.4479  -13.6047   21.8639 H   0  0  0  0  0  0
  -25.2740   -9.5667   22.4799 H   0  0  0  0  0  0
  -23.9989   -7.4617   22.7468 H   0  0  0  0  0  0
  -21.0842   -8.8750   19.8961 H   0  0  0  0  0  0
  -22.3684  -10.9668   19.6192 H   0  0  0  0  0  0
  -21.1976   -7.6151   23.9706 H   0  0  0  0  0  0
  -21.1507   -6.0556   25.9082 H   0  0  0  0  0  0
  -22.0586   -2.7623   23.2857 H   0  0  0  0  0  0
  -22.4083  -11.9845   22.4761 H   0  0  0  0  0  0
  -21.1119  -13.1256   22.2682 H   0  0  0  0  0  0
  -24.6642  -15.8430   20.5266 H   0  0  0  0  0  0
  -26.2943  -15.6340   20.1290 H   0  0  0  0  0  0
  -26.7135  -32.5547   23.1105 H   0  0  0  0  0  0
  -25.0045  -33.9797   25.0431 H   0  0  0  0  0  0
  -22.6923  -31.3082   21.4143 H   0  0  0  0  0  0
  -23.3745  -35.9682   23.3313 H   0  0  0  0  0  0
  -24.3553  -36.8940   22.2051 H   0  0  0  0  0  0
  -23.7224  -37.6548   23.6634 H   0  0  0  0  0  0
  -26.0450  -31.5982   20.5945 H   0  0  0  0  0  0
  -26.8264  -30.8849   21.9784 H   0  0  0  0  0  0
  -28.1066  -29.1012   21.1474 H   0  0  0  0  0  0
  -26.0062  -25.9724   19.0157 H   0  0  0  0  0  0
  -23.9683  -27.2990   19.0451 H   0  0  0  0  0  0
  -23.7061  -30.5938   19.4029 H   0  0  0  0  0  0
  -22.7326  -29.2400   19.8785 H   0  0  0  0  0  0
  -25.1291  -36.2009   25.0837 H   0  0  0  0  0  0
  -20.9952  -28.3222   24.1425 H   0  0  0  0  0  0
  -20.5661  -26.2270   23.3615 H   0  0  0  0  0  0
  -21.6619  -26.7433   22.1200 H   0  0  0  0  0  0
  -19.6887  -25.6300   21.1226 H   0  0  0  0  0  0
  -19.6654  -27.3208   20.6759 H   0  0  0  0  0  0
  -17.4176  -26.6686   21.4037 H   0  0  0  0  0  0
  -18.0301  -26.0062   22.9020 H   0  0  0  0  0  0
  -19.7928  -30.7259   24.2294 H   0  0  0  0  0  0
  -17.5000  -31.6261   24.5171 H   0  0  0  0  0  0
  -15.5344  -30.2990   23.7648 H   0  0  0  0  0  0
  -15.8651  -28.0822   22.7075 H   0  0  0  0  0  0
  -24.6370  -30.6421   25.7816 H   0  0  0  0  0  0
  -24.8445  -32.2648   26.4416 H   0  0  0  0  0  0
  -25.8191  -30.9349   27.0382 H   0  0  0  0  0  0
  -27.8913  -30.4494   23.9343 H   0  0  0  0  0  0
  -27.4152  -29.7298   25.4540 H   0  0  0  0  0  0
  -26.3115  -29.6882   24.1000 H   0  0  0  0  0  0
  -27.2393  -33.3477   26.2459 H   0  0  0  0  0  0
  -28.3584  -32.7530   25.0275 H   0  0  0  0  0  0
  -28.0990  -31.8423   26.5081 H   0  0  0  0  0  0
  -28.2606  -38.0104   24.7506 H   0  0  0  0  0  0
  -28.1059  -36.2632   24.6290 H   0  0  0  0  0  0
  -27.2276  -37.1461   25.8853 H   0  0  0  0  0  0
  -20.9330  -29.8739   21.6945 H   0  0  0  0  0  0
  -26.0205  -38.2901   24.1408 H   0  0  0  0  0  0
  -32.3750  -18.6253   22.4637 H   0  0  0  0  0  0
  -32.2936  -20.9577   21.7509 H   0  0  0  0  0  0
  -30.3146  -16.6390   23.0104 H   0  0  0  0  0  0
  -31.7942  -16.3727   22.1543 H   0  0  0  0  0  0
  -30.1634  -24.6463   19.3470 H   0  0  0  0  0  0
  -30.2406  -24.9105   21.0733 H   0  0  0  0  0  0
  -28.5222  -22.6829   19.9272 H   0  0  0  0  0  0
  -29.0834  -22.8338   21.5724 H   0  0  0  0  0  0
  -27.6724  -25.0307   21.0682 H   0  0  0  0  0  0
  -27.7583  -24.8744   19.3191 H   0  0  0  0  0  0
  -31.4188  -22.5696   20.4231 H   0  0  0  0  0  0
  -29.1891  -15.1623   21.6916 H   0  0  0  0  0  0
  1 25  1  0  0  0
  1 30  2  0  0  0
  1 82  1  0  0  0
  2  3  1  0  0  0
  2 25  1  0  0  0
  2 85  1  0  0  0
  2 86  1  0  0  0
  3  4  1  0  0  0
  3 87  1  0  0  0
  3 88  1  0  0  0
  4  5  1  0  0  0
  4 89  1  0  0  0
  4 90  1  0  0  0
  5  6  1  0  0  0
  5 26  1  0  0  0
  5 91  1  0  0  0
  6 25  1  0  0  0
  6 92  1  0  0  0
  6 93  1  0  0  0
  7  8  2  0  0  0
  7 26  1  0  0  0
  7 29  1  0  0  0
  8  9  1  0  0  0
  8 22  1  0  0  0
  9 10  1  0  0  0
  9 27  2  0  0  0
 10 11  2  0  0  0
 10 15  1  0  0  0
 11 12  1  0  0  0
 11 94  1  0  0  0
 12 13  2  0  0  0
 12 95  1  0  0  0
 13 14  1  0  0  0
 13 31  1  0  0  0
 14 15  2  0  0  0
 14 96  1  0  0  0
 15 97  1  0  0  0
 16 17  2  0  0  0
 16 21  1  0  0  0
 16 31  1  0  0  0
 17 18  1  0  0  0
 17 98  1  0  0  0
 18 19  2  0  0  0
 18 99  1  0  0  0
 19 20  1  0  0  0
 19 24  1  0  0  0
 20 21  2  0  0  0
 20100  1  0  0  0
 21 23  1  0  0  0
 22 28  1  0  0  0
 22 32  2  0  0  0
 26 27  1  0  0  0
 28101  1  0  0  0
 28102  1  0  0  0
 29103  1  0  0  0
 29104  1  0  0  0
 33 34  1  0  0  0
 33 66  1  0  0  0
 33 70  2  0  0  0
 34 36  1  0  0  0
 34 59  1  0  0  0
 34105  1  0  0  0
 35 44  2  0  0  0
 35 45  1  0  0  0
 35 68  1  0  0  0
 36 56  1  0  0  0
 36106  1  0  0  0
 37 39  1  0  0  0
 37 47  1  0  0  0
 37 66  1  0  0  0
 37107  1  0  0  0
 38 43  2  0  0  0
 38 46  1  0  0  0
 38 47  1  0  0  0
 39 64  1  0  0  0
 39 67  2  0  0  0
 40 52  1  0  0  0
 40 53  2  0  0  0
 40 58  1  0  0  0
 41108  1  0  0  0
 41109  1  0  0  0
 41110  1  0  0  0
 41 48  1  0  0  0
 42 43  1  0  0  0
 42 66  1  0  0  0
 42111  1  0  0  0
 42112  1  0  0  0
 43 44  1  0  0  0
 44113  1  0  0  0
 45 46  2  0  0  0
 45114  1  0  0  0
 46115  1  0  0  0
 47116  1  0  0  0
 47117  1  0  0  0
 48 56  1  0  0  0
 48 65  1  0  0  0
 48118  1  0  0  0
 49 50  1  0  0  0
 49 53  1  0  0  0
 49 64  1  0  0  0
 49119  1  0  0  0
 50 51  1  0  0  0
 50120  1  0  0  0
 50121  1  0  0  0
 51 52  1  0  0  0
 51122  1  0  0  0
 51123  1  0  0  0
 52124  1  0  0  0
 52125  1  0  0  0
 53 54  1  0  0  0
 54 55  2  0  0  0
 54126  1  0  0  0
 55 57  1  0  0  0
 55127  1  0  0  0
 56 69  2  0  0  0
 57 58  2  0  0  0
 57128  1  0  0  0
 58129  1  0  0  0
 59 60  1  0  0  0
 59 61  1  0  0  0
 59 62  1  0  0  0
 60130  1  0  0  0
 60131  1  0  0  0
 60132  1  0  0  0
 61133  1  0  0  0
 61134  1  0  0  0
 61135  1  0  0  0
 62136  1  0  0  0
 62137  1  0  0  0
 62138  1  0  0  0
 63 65  1  0  0  0
 63139  1  0  0  0
 63140  1  0  0  0
 63141  1  0  0  0
 64142  1  0  0  0
 65143  1  0  0  0
 68 80  1  0  0  0
 71 72  2  0  0  0
 71 73  1  0  0  0
 71144  1  0  0  0
 72 74  1  0  0  0
 72145  1  0  0  0
 73 75  2  0  0  0
 73 77  1  0  0  0
 74 76  2  0  0  0
 74 81  1  0  0  0
 75 76  1  0  0  0
 75 83  1  0  0  0
 76 84  1  0  0  0
 77 82  1  0  0  0
 77146  1  0  0  0
 77147  1  0  0  0
 78 79  1  0  0  0
 78 80  1  0  0  0
 78148  1  0  0  0
 78149  1  0  0  0
 79 81  1  0  0  0
 79150  1  0  0  0
 79151  1  0  0  0
 80152  1  0  0  0
 80153  1  0  0  0
 81154  1  0  0  0
 82155  1  0  0  0
M  ISO  4   1 100  68 101  80 101  82 100
M  END
> <chiral flag>
0

> <version>
0

> <s_m_source_file>
/data/baiqing/PycharmProjects/Reinvent-master-3.2/result/LINK_invent/BTK/process_docking_weight1_custom_product_contain_oxygen_bond_distance_aromatic_linkinvent_7_9_3/rearranged_h_0022.sdf

> <i_m_source_file_index>
4

> <r_mmod_Potential_Energy-OPLS-2005>
-0.0569981560111046

> <r_mmod_Stretch_Energy-OPLS-2005>
42.0728607177734

> <r_mmod_Bend_Energy-OPLS-2005>
115.06517791748

> <r_mmod_Torsional_Energy-OPLS-2005>
203.344940185547

> <r_mmod_Improper_Torsional_Energy-OPLS-2005>
6.15097761154175

> <r_mmod_Van_der_Waal_Energy-OPLS-2005>
157.525207519531

> <r_mmod_Electrostatic_Energy-OPLS-2005>
-319.381164550781

> <r_mmod_Solvation_Energy-OPLS-2005>
-217.41731262207

> <b_mmod_Minimization_Converged-OPLS-2005>
0

> <r_mmod_RMS_Derivative-OPLS-2005>
3.48842310905457

$$$$
4
                    3D
 Structure written by MMmdl.
159168  0  0  1  0            999 V2000
  -30.5178  -14.9027   20.4502 C   0  0  0  0  0  0
  -30.4553  -12.5575   19.4920 C   0  0  0  0  0  0
  -29.5266  -12.5353   18.2534 C   0  0  0  0  0  0
  -28.0560  -12.3265   18.6665 C   0  0  0  0  0  0
  -27.6405  -13.2377   19.8507 C   0  0  2  0  0  0
  -28.6849  -13.2043   20.9886 C   0  0  0  0  0  0
  -25.2467  -13.8170   20.5622 C   0  0  0  0  0  0
  -24.1792  -13.0417   20.9213 C   0  0  0  0  0  0
  -24.6407  -11.6904   20.8765 C   0  0  0  0  0  0
  -23.9084  -10.4282   21.0418 C   0  0  0  0  0  0
  -24.3628   -9.4194   21.9195 C   0  0  0  0  0  0
  -23.6294   -8.2234   22.0760 C   0  0  0  0  0  0
  -22.4278   -8.0279   21.3546 C   0  0  0  0  0  0
  -21.9920   -9.0257   20.4650 C   0  0  0  0  0  0
  -22.7257  -10.2131   20.3063 C   0  0  0  0  0  0
  -21.6850   -6.0736   22.5279 C   0  0  0  0  0  0
  -21.4016   -6.5640   23.8214 C   0  0  0  0  0  0
  -21.3659   -5.6792   24.9175 C   0  0  0  0  0  0
  -21.6041   -4.3055   24.7225 C   0  0  0  0  0  0
  -21.8819   -3.8147   23.4346 C   0  0  0  0  0  0
  -21.9192   -4.6964   22.3402 C   0  0  0  0  0  0
  -22.7814  -13.5201   21.1868 C   0  0  0  0  0  0
  -22.1660   -4.2149   21.0980 F   0  0  0  0  0  0
  -21.5627   -3.4539   25.7738 F   0  0  0  0  0  0
  -29.9721  -13.6231   20.4113 N   0  0  0  0  0  0
  -26.2929  -12.9404   20.3263 N   0  0  0  0  0  0
  -25.9344  -11.6545   20.5769 N   0  0  0  0  0  0
  -22.0461  -12.8201   22.0432 N   0  0  0  0  0  0
  -25.4048  -15.1876   20.3867 N   0  0  0  0  0  0
  -31.6968  -15.0493   20.1072 O   0  0  0  0  0  0
  -21.6636   -6.8880   21.4241 O   0  0  0  0  0  0
  -22.3498  -14.5505   20.6710 O   0  0  0  0  0  0
  -24.6420  -31.8461   23.1901 C   0  0  0  0  0  0
  -25.9199  -32.4706   23.8283 C   0  0  1  0  0  0
  -27.2205  -27.1562   20.1461 C   0  0  0  0  0  0
  -25.5951  -33.8511   24.2198 N   0  0  0  0  0  0
  -23.4444  -30.4666   21.5359 C   0  0  2  0  0  0
  -24.8934  -28.8965   20.1133 C   0  0  0  0  0  0
  -22.7558  -29.4561   22.4872 C   0  0  0  0  0  0
  -18.0303  -28.1398   22.8478 C   0  0  0  0  0  0
  -24.1492  -36.7263   23.2641 C   0  0  0  0  0  0
  -25.9997  -30.7261   21.3861 C   0  0  0  0  0  0
  -26.0716  -29.3391   20.7281 C   0  0  0  0  0  0
  -27.2369  -28.4861   20.7257 C   0  0  0  0  0  0
  -26.0140  -26.8120   19.4954 C   0  0  0  0  0  0
  -24.8766  -27.6451   19.4821 C   0  0  0  0  0  0
  -23.6696  -29.7967   20.1553 C   0  0  0  0  0  0
  -25.4123  -36.3038   24.0314 C   0  0  1  0  0  0
  -20.5914  -28.3723   23.1239 C   0  0  2  0  0  0
  -20.6789  -26.9428   22.5404 C   0  0  0  0  0  0
  -19.5762  -26.6385   21.5212 C   0  0  0  0  0  0
  -18.1944  -26.7936   22.1625 C   0  0  0  0  0  0
  -19.1559  -28.8878   23.2852 C   0  0  0  0  0  0
  -18.9476  -30.1474   23.8878 C   0  0  0  0  0  0
  -17.6473  -30.6594   24.0561 C   0  0  0  0  0  0
  -25.9072  -34.9413   23.5065 C   0  0  0  0  0  0
  -16.5364  -29.9087   23.6335 C   0  0  0  0  0  0
  -16.7287  -28.6506   23.0357 C   0  0  0  0  0  0
  -26.4523  -31.6568   25.0720 C   0  0  0  0  0  0
  -25.3710  -31.3749   26.1415 C   0  0  0  0  0  0
  -27.0388  -30.2966   24.6291 C   0  0  0  0  0  0
  -27.6051  -32.4334   25.7509 C   0  0  0  0  0  0
  -27.5575  -37.1788   24.8464 C   0  0  0  0  0  0
  -21.4253  -29.3053   22.3616 N   0  0  0  0  0  0
  -26.4287  -37.3749   23.9405 N   0  0  0  0  0  0
  -24.7152  -31.0334   22.0926 N   0  0  0  0  0  0
  -23.4208  -28.8108   23.3016 O   0  0  0  0  0  0
  -28.2869  -26.1893   20.1911 O   0  0  0  0  0  0
  -26.5659  -34.8907   22.4644 O   0  0  0  0  0  0
  -23.5543  -32.1330   23.7132 O   0  0  0  0  0  0
  -30.1243  -19.9307   20.0511 C   0  0  0  0  0  0
  -30.3830  -18.4847   20.0517 C   0  0  0  0  0  0
  -28.1808  -19.5606   21.3142 C   0  0  0  0  0  0
  -28.4249  -18.1381   21.3346 C   0  0  0  0  0  0
  -29.0003  -20.5606   20.6986 C   0  0  0  0  0  0
  -29.5462  -17.5017   20.6992 C   0  0  0  0  0  0
  -29.7511  -23.2602   22.6011 C   0  0  0  0  0  0
  -30.2238  -23.7489   21.2294 C   0  0  0  0  0  0
  -28.5873  -22.2999   22.3109 C   0  0  0  0  0  0
  -29.0759  -23.3740   20.2966 C   0  0  2  0  0  0
  -27.4176  -17.3120   22.1230 C   0  0  0  0  0  0
  -27.9918  -24.6671   20.2743 C   0  0  0  0  0  0
  -28.6404  -22.0007   20.8765 N   0  0  0  0  0  0
  -29.6479  -15.9742   20.7463 N   0  0  0  0  0  0
  -31.4871  -12.7301   19.1817 H   0  0  0  0  0  0
  -30.4534  -11.5892   19.9951 H   0  0  0  0  0  0
  -29.8367  -11.7509   17.5618 H   0  0  0  0  0  0
  -29.6216  -13.4766   17.7098 H   0  0  0  0  0  0
  -27.9394  -11.2802   18.9514 H   0  0  0  0  0  0
  -27.3952  -12.4853   17.8136 H   0  0  0  0  0  0
  -27.6214  -14.2525   19.4526 H   0  0  0  0  0  0
  -28.7590  -12.2041   21.4182 H   0  0  0  0  0  0
  -28.3881  -13.8614   21.8071 H   0  0  0  0  0  0
  -25.2771   -9.5664   22.4774 H   0  0  0  0  0  0
  -23.9997   -7.4623   22.7480 H   0  0  0  0  0  0
  -21.0850   -8.8784   19.8955 H   0  0  0  0  0  0
  -22.3722  -10.9674   19.6173 H   0  0  0  0  0  0
  -21.2012   -7.6149   23.9719 H   0  0  0  0  0  0
  -21.1479   -6.0521   25.9078 H   0  0  0  0  0  0
  -22.0598   -2.7609   23.2846 H   0  0  0  0  0  0
  -22.4079  -11.9868   22.4830 H   0  0  0  0  0  0
  -21.1080  -13.1230   22.2638 H   0  0  0  0  0  0
  -24.6159  -15.8202   20.4614 H   0  0  0  0  0  0
  -26.2161  -15.6186   19.9639 H   0  0  0  0  0  0
  -26.7266  -32.5318   23.1015 H   0  0  0  0  0  0
  -25.0065  -33.9626   25.0323 H   0  0  0  0  0  0
  -22.7461  -31.2922   21.3827 H   0  0  0  0  0  0
  -23.3755  -35.9594   23.3294 H   0  0  0  0  0  0
  -24.3579  -36.8907   22.2058 H   0  0  0  0  0  0
  -23.7248  -37.6456   23.6686 H   0  0  0  0  0  0
  -26.1534  -31.4811   20.6140 H   0  0  0  0  0  0
  -26.8710  -30.7756   22.0276 H   0  0  0  0  0  0
  -28.1364  -28.8228   21.2218 H   0  0  0  0  0  0
  -25.9119  -25.8651   18.9903 H   0  0  0  0  0  0
  -23.9784  -27.3021   18.9869 H   0  0  0  0  0  0
  -23.8053  -30.5714   19.3998 H   0  0  0  0  0  0
  -22.7847  -29.2384   19.8448 H   0  0  0  0  0  0
  -25.1311  -36.1866   25.0806 H   0  0  0  0  0  0
  -21.0007  -28.3313   24.1360 H   0  0  0  0  0  0
  -20.5687  -26.2336   23.3622 H   0  0  0  0  0  0
  -21.6654  -26.7439   22.1200 H   0  0  0  0  0  0
  -19.6924  -25.6290   21.1257 H   0  0  0  0  0  0
  -19.6697  -27.3182   20.6732 H   0  0  0  0  0  0
  -17.4211  -26.6678   21.4030 H   0  0  0  0  0  0
  -18.0345  -26.0083   22.9028 H   0  0  0  0  0  0
  -19.7952  -30.7295   24.2240 H   0  0  0  0  0  0
  -17.5027  -31.6271   24.5168 H   0  0  0  0  0  0
  -15.5364  -30.2984   23.7671 H   0  0  0  0  0  0
  -15.8687  -28.0818   22.7084 H   0  0  0  0  0  0
  -24.5901  -30.7083   25.7736 H   0  0  0  0  0  0
  -24.8882  -32.2927   26.4784 H   0  0  0  0  0  0
  -25.7997  -30.8964   27.0228 H   0  0  0  0  0  0
  -26.3003  -29.6691   24.1288 H   0  0  0  0  0  0
  -27.3992  -29.7261   25.4862 H   0  0  0  0  0  0
  -27.8914  -30.4204   23.9612 H   0  0  0  0  0  0
  -27.2641  -33.3649   26.2038 H   0  0  0  0  0  0
  -28.3891  -32.6871   25.0361 H   0  0  0  0  0  0
  -28.0689  -31.8492   26.5467 H   0  0  0  0  0  0
  -28.2586  -38.0090   24.7508 H   0  0  0  0  0  0
  -28.1077  -36.2619   24.6296 H   0  0  0  0  0  0
  -27.2292  -37.1442   25.8867 H   0  0  0  0  0  0
  -20.9461  -29.8762   21.6793 H   0  0  0  0  0  0
  -26.0154  -38.2817   24.1406 H   0  0  0  0  0  0
  -30.8372  -20.5674   19.5477 H   0  0  0  0  0  0
  -31.2603  -18.1332   19.5278 H   0  0  0  0  0  0
  -27.2992  -19.9053   21.8363 H   0  0  0  0  0  0
  -29.4148  -24.0870   23.2285 H   0  0  0  0  0  0
  -30.5629  -22.7570   23.1285 H   0  0  0  0  0  0
  -31.1262  -23.2099   20.9365 H   0  0  0  0  0  0
  -30.4601  -24.8139   21.2137 H   0  0  0  0  0  0
  -27.6318  -22.7714   22.5454 H   0  0  0  0  0  0
  -28.6668  -21.4285   22.9633 H   0  0  0  0  0  0
  -29.4681  -23.2351   19.2877 H   0  0  0  0  0  0
  -27.6114  -17.4150   23.1908 H   0  0  0  0  0  0
  -27.4318  -16.2509   21.8877 H   0  0  0  0  0  0
  -26.4035  -17.6659   21.9339 H   0  0  0  0  0  0
  -27.3709  -24.5757   21.1651 H   0  0  0  0  0  0
  -27.3260  -24.4193   19.4511 H   0  0  0  0  0  0
  -28.7820  -15.5736   21.0704 H   0  0  0  0  0  0
  1 25  1  0  0  0
  1 30  2  0  0  0
  1 84  1  0  0  0
  2  3  1  0  0  0
  2 25  1  0  0  0
  2 85  1  0  0  0
  2 86  1  0  0  0
  3  4  1  0  0  0
  3 87  1  0  0  0
  3 88  1  0  0  0
  4  5  1  0  0  0
  4 89  1  0  0  0
  4 90  1  0  0  0
  5  6  1  0  0  0
  5 26  1  0  0  0
  5 91  1  0  0  0
  6 25  1  0  0  0
  6 92  1  0  0  0
  6 93  1  0  0  0
  7  8  2  0  0  0
  7 26  1  0  0  0
  7 29  1  0  0  0
  8  9  1  0  0  0
  8 22  1  0  0  0
  9 10  1  0  0  0
  9 27  2  0  0  0
 10 11  2  0  0  0
 10 15  1  0  0  0
 11 12  1  0  0  0
 11 94  1  0  0  0
 12 13  2  0  0  0
 12 95  1  0  0  0
 13 14  1  0  0  0
 13 31  1  0  0  0
 14 15  2  0  0  0
 14 96  1  0  0  0
 15 97  1  0  0  0
 16 17  2  0  0  0
 16 21  1  0  0  0
 16 31  1  0  0  0
 17 18  1  0  0  0
 17 98  1  0  0  0
 18 19  2  0  0  0
 18 99  1  0  0  0
 19 20  1  0  0  0
 19 24  1  0  0  0
 20 21  2  0  0  0
 20100  1  0  0  0
 21 23  1  0  0  0
 22 28  1  0  0  0
 22 32  2  0  0  0
 26 27  1  0  0  0
 28101  1  0  0  0
 28102  1  0  0  0
 29103  1  0  0  0
 29104  1  0  0  0
 33 34  1  0  0  0
 33 66  1  0  0  0
 33 70  2  0  0  0
 34 36  1  0  0  0
 34 59  1  0  0  0
 34105  1  0  0  0
 35 44  2  0  0  0
 35 45  1  0  0  0
 35 68  1  0  0  0
 36 56  1  0  0  0
 36106  1  0  0  0
 37 39  1  0  0  0
 37 47  1  0  0  0
 37 66  1  0  0  0
 37107  1  0  0  0
 38 43  2  0  0  0
 38 46  1  0  0  0
 38 47  1  0  0  0
 39 64  1  0  0  0
 39 67  2  0  0  0
 40 52  1  0  0  0
 40 53  2  0  0  0
 40 58  1  0  0  0
 41108  1  0  0  0
 41109  1  0  0  0
 41110  1  0  0  0
 41 48  1  0  0  0
 42 43  1  0  0  0
 42 66  1  0  0  0
 42111  1  0  0  0
 42112  1  0  0  0
 43 44  1  0  0  0
 44113  1  0  0  0
 45 46  2  0  0  0
 45114  1  0  0  0
 46115  1  0  0  0
 47116  1  0  0  0
 47117  1  0  0  0
 48 56  1  0  0  0
 48 65  1  0  0  0
 48118  1  0  0  0
 49 50  1  0  0  0
 49 53  1  0  0  0
 49 64  1  0  0  0
 49119  1  0  0  0
 50 51  1  0  0  0
 50120  1  0  0  0
 50121  1  0  0  0
 51 52  1  0  0  0
 51122  1  0  0  0
 51123  1  0  0  0
 52124  1  0  0  0
 52125  1  0  0  0
 53 54  1  0  0  0
 54 55  2  0  0  0
 54126  1  0  0  0
 55 57  1  0  0  0
 55127  1  0  0  0
 56 69  2  0  0  0
 57 58  2  0  0  0
 57128  1  0  0  0
 58129  1  0  0  0
 59 60  1  0  0  0
 59 61  1  0  0  0
 59 62  1  0  0  0
 60130  1  0  0  0
 60131  1  0  0  0
 60132  1  0  0  0
 61133  1  0  0  0
 61134  1  0  0  0
 61135  1  0  0  0
 62136  1  0  0  0
 62137  1  0  0  0
 62138  1  0  0  0
 63 65  1  0  0  0
 63139  1  0  0  0
 63140  1  0  0  0
 63141  1  0  0  0
 64142  1  0  0  0
 65143  1  0  0  0
 68 82  1  0  0  0
 71 72  2  0  0  0
 71 75  1  0  0  0
 71144  1  0  0  0
 72 76  1  0  0  0
 72145  1  0  0  0
 73 74  1  0  0  0
 73 75  2  0  0  0
 73146  1  0  0  0
 74 76  2  0  0  0
 74 81  1  0  0  0
 75 83  1  0  0  0
 76 84  1  0  0  0
 77 78  1  0  0  0
 77 79  1  0  0  0
 77147  1  0  0  0
 77148  1  0  0  0
 78 80  1  0  0  0
 78149  1  0  0  0
 78150  1  0  0  0
 79 83  1  0  0  0
 79151  1  0  0  0
 79152  1  0  0  0
 80 82  1  0  0  0
 80 83  1  0  0  0
 80153  1  0  0  0
 81154  1  0  0  0
 81155  1  0  0  0
 81156  1  0  0  0
 82157  1  0  0  0
 82158  1  0  0  0
 84159  1  0  0  0
M  ISO  4   1 100  68 101  82 101  84 100
M  END
> <chiral flag>
0

> <version>
0

> <s_m_source_file>
/data/baiqing/PycharmProjects/Reinvent-master-3.2/result/LINK_invent/BTK/process_docking_weight1_custom_product_contain_oxygen_bond_distance_aromatic_linkinvent_7_9_3/rearranged_h_0022.sdf

> <i_m_source_file_index>
5

> <r_mmod_Potential_Energy-OPLS-2005>
525.8740234375

> <r_mmod_Stretch_Energy-OPLS-2005>
215.388748168945

> <r_mmod_Bend_Energy-OPLS-2005>
326.907745361328

> <r_mmod_Torsional_Energy-OPLS-2005>
288.145843505859

> <r_mmod_Improper_Torsional_Energy-OPLS-2005>
8.48526477813721

> <r_mmod_Van_der_Waal_Energy-OPLS-2005>
136.326721191406

> <r_mmod_Electrostatic_Energy-OPLS-2005>
-394.623840332031

> <r_mmod_Solvation_Energy-OPLS-2005>
-221.111541748047

> <b_mmod_Minimization_Converged-OPLS-2005>
0

> <r_mmod_RMS_Derivative-OPLS-2005>
0.334328323602676

$$$$
5
                    3D
 Structure written by MMmdl.
162171  0  0  1  0            999 V2000
  -30.6717  -14.6303   20.5169 C   0  0  0  0  0  0
  -30.4209  -12.3884   19.4585 C   0  0  0  0  0  0
  -29.4993  -12.4998   18.2245 C   0  0  0  0  0  0
  -28.0233  -12.3375   18.6360 C   0  0  0  0  0  0
  -27.6494  -13.2164   19.8592 C   0  0  2  0  0  0
  -28.6915  -13.0764   20.9890 C   0  0  0  0  0  0
  -25.2557  -13.8176   20.5675 C   0  0  0  0  0  0
  -24.1822  -13.0443   20.9180 C   0  0  0  0  0  0
  -24.6383  -11.6902   20.8739 C   0  0  0  0  0  0
  -23.9062  -10.4297   21.0395 C   0  0  0  0  0  0
  -24.3619   -9.4203   21.9173 C   0  0  0  0  0  0
  -23.6294   -8.2240   22.0751 C   0  0  0  0  0  0
  -22.4278   -8.0284   21.3542 C   0  0  0  0  0  0
  -21.9906   -9.0242   20.4636 C   0  0  0  0  0  0
  -22.7234  -10.2127   20.3036 C   0  0  0  0  0  0
  -21.6859   -6.0722   22.5278 C   0  0  0  0  0  0
  -21.4013   -6.5627   23.8203 C   0  0  0  0  0  0
  -21.3657   -5.6788   24.9167 C   0  0  0  0  0  0
  -21.6051   -4.3044   24.7233 C   0  0  0  0  0  0
  -21.8824   -3.8129   23.4349 C   0  0  0  0  0  0
  -21.9195   -4.6950   22.3402 C   0  0  0  0  0  0
  -22.7844  -13.5237   21.1834 C   0  0  0  0  0  0
  -22.1666   -4.2128   21.0987 F   0  0  0  0  0  0
  -21.5633   -3.4533   25.7739 F   0  0  0  0  0  0
  -30.0044  -13.4309   20.4252 N   0  0  0  0  0  0
  -26.2964  -12.9352   20.3310 N   0  0  0  0  0  0
  -25.9321  -11.6501   20.5751 N   0  0  0  0  0  0
  -22.0503  -12.8206   22.0393 N   0  0  0  0  0  0
  -25.4283  -15.1895   20.4096 N   0  0  0  0  0  0
  -31.8230  -14.7236   20.0792 O   0  0  0  0  0  0
  -21.6657   -6.8869   21.4232 O   0  0  0  0  0  0
  -22.3518  -14.5525   20.6672 O   0  0  0  0  0  0
  -24.6226  -31.8592   23.2030 C   0  0  0  0  0  0
  -25.9086  -32.4776   23.8360 C   0  0  1  0  0  0
  -27.2182  -27.3205   20.1374 C   0  0  0  0  0  0
  -25.5928  -33.8582   24.2267 N   0  0  0  0  0  0
  -23.4169  -30.4823   21.5460 C   0  0  2  0  0  0
  -24.8649  -28.9332   20.1125 C   0  0  0  0  0  0
  -22.7465  -29.4599   22.4944 C   0  0  0  0  0  0
  -18.0275  -28.1380   22.8500 C   0  0  0  0  0  0
  -24.1476  -36.7264   23.2634 C   0  0  0  0  0  0
  -25.9554  -30.7940   21.3712 C   0  0  0  0  0  0
  -26.0334  -29.4204   20.7135 C   0  0  0  0  0  0
  -27.2173  -28.6274   20.7108 C   0  0  0  0  0  0
  -26.0294  -26.8693   19.5298 C   0  0  0  0  0  0
  -24.8636  -27.6618   19.5131 C   0  0  0  0  0  0
  -23.6337  -29.8171   20.1599 C   0  0  0  0  0  0
  -25.4109  -36.3072   24.0330 C   0  0  1  0  0  0
  -20.5885  -28.3659   23.1306 C   0  0  2  0  0  0
  -20.6779  -26.9391   22.5430 C   0  0  0  0  0  0
  -19.5760  -26.6368   21.5231 C   0  0  0  0  0  0
  -18.1926  -26.7937   22.1616 C   0  0  0  0  0  0
  -19.1536  -28.8840   23.2900 C   0  0  0  0  0  0
  -18.9465  -30.1450   23.8893 C   0  0  0  0  0  0
  -17.6462  -30.6602   24.0575 C   0  0  0  0  0  0
  -25.9050  -34.9455   23.5083 C   0  0  0  0  0  0
  -16.5350  -29.9112   23.6350 C   0  0  0  0  0  0
  -16.7268  -28.6522   23.0357 C   0  0  0  0  0  0
  -26.4504  -31.6604   25.0727 C   0  0  0  0  0  0
  -25.3735  -31.3811   26.1463 C   0  0  0  0  0  0
  -27.0335  -30.3020   24.6175 C   0  0  0  0  0  0
  -27.6026  -32.4378   25.7518 C   0  0  0  0  0  0
  -27.5584  -37.1784   24.8456 C   0  0  0  0  0  0
  -21.4180  -29.3007   22.3690 N   0  0  0  0  0  0
  -26.4269  -37.3774   23.9439 N   0  0  0  0  0  0
  -24.6845  -31.0605   22.0987 N   0  0  0  0  0  0
  -23.4209  -28.8139   23.3016 O   0  0  0  0  0  0
  -28.3341  -26.4838   20.1386 O   0  0  0  0  0  0
  -26.5607  -34.8914   22.4644 O   0  0  0  0  0  0
  -23.5400  -32.1410   23.7365 O   0  0  0  0  0  0
  -28.5841  -19.1650   19.8136 C   0  0  0  0  0  0
  -28.4229  -20.5810   19.9460 C   0  0  0  0  0  0
  -30.6483  -19.2733   21.0318 C   0  0  0  0  0  0
  -29.7287  -18.4795   20.3079 C   0  0  0  0  0  0
  -29.3930  -21.3961   20.5942 C   0  0  0  0  0  0
  -30.4767  -20.6772   21.1906 C   0  0  0  0  0  0
  -30.1771  -23.7899   18.5702 C   0  0  0  0  0  0
  -28.6509  -23.9176   18.6263 C   0  0  0  0  0  0
  -30.5921  -23.3834   19.9889 C   0  0  0  0  0  0
  -28.3170  -23.7657   20.1100 C   0  0  2  0  0  0
  -29.4059  -16.0321   22.1097 C   0  0  0  0  0  0
  -30.0754  -17.0021   19.8795 C   0  0  0  0  0  0
  -28.2345  -25.1918   20.8548 C   0  0  0  0  0  0
  -29.3847  -22.8453   20.6160 N   0  0  0  0  0  0
  -29.9488  -15.7852   20.7706 N   0  0  0  0  0  0
  -31.4198  -21.3529   21.8937 F   0  0  0  0  0  0
  -31.4651  -12.4853   19.1551 H   0  0  0  0  0  0
  -30.3391  -11.3981   19.9093 H   0  0  0  0  0  0
  -29.7637  -11.7432   17.4840 H   0  0  0  0  0  0
  -29.6420  -13.4665   17.7397 H   0  0  0  0  0  0
  -27.8634  -11.2853   18.8748 H   0  0  0  0  0  0
  -27.3670  -12.5581   17.7939 H   0  0  0  0  0  0
  -27.6674  -14.2507   19.5155 H   0  0  0  0  0  0
  -28.7095  -12.0554   21.3726 H   0  0  0  0  0  0
  -28.4172  -13.6937   21.8397 H   0  0  0  0  0  0
  -25.2766   -9.5679   22.4729 H   0  0  0  0  0  0
  -23.9999   -7.4635   22.7464 H   0  0  0  0  0  0
  -21.0848   -8.8757   19.8943 H   0  0  0  0  0  0
  -22.3699  -10.9651   19.6135 H   0  0  0  0  0  0
  -21.2004   -7.6137   23.9697 H   0  0  0  0  0  0
  -21.1477   -6.0520   25.9068 H   0  0  0  0  0  0
  -22.0605   -2.7596   23.2863 H   0  0  0  0  0  0
  -22.4160  -11.9879   22.4753 H   0  0  0  0  0  0
  -21.1096  -13.1177   22.2570 H   0  0  0  0  0  0
  -24.6667  -15.8486   20.5217 H   0  0  0  0  0  0
  -26.2914  -15.6267   20.1101 H   0  0  0  0  0  0
  -26.7140  -32.5426   23.1102 H   0  0  0  0  0  0
  -25.0147  -33.9780   25.0464 H   0  0  0  0  0  0
  -22.7087  -31.3025   21.4055 H   0  0  0  0  0  0
  -23.3753  -35.9576   23.3286 H   0  0  0  0  0  0
  -24.3579  -36.8902   22.2045 H   0  0  0  0  0  0
  -23.7219  -37.6458   23.6671 H   0  0  0  0  0  0
  -26.0840  -31.5621   20.6088 H   0  0  0  0  0  0
  -26.8354  -30.8422   22.0016 H   0  0  0  0  0  0
  -28.1217  -28.9963   21.1770 H   0  0  0  0  0  0
  -25.9986  -25.8861   19.0800 H   0  0  0  0  0  0
  -23.9618  -27.2806   19.0553 H   0  0  0  0  0  0
  -23.7510  -30.5986   19.4077 H   0  0  0  0  0  0
  -22.7528  -29.2487   19.8556 H   0  0  0  0  0  0
  -25.1298  -36.1901   25.0825 H   0  0  0  0  0  0
  -20.9972  -28.3194   24.1431 H   0  0  0  0  0  0
  -20.5684  -26.2258   23.3619 H   0  0  0  0  0  0
  -21.6648  -26.7461   22.1201 H   0  0  0  0  0  0
  -19.6953  -25.6286   21.1251 H   0  0  0  0  0  0
  -19.6718  -27.3183   20.6772 H   0  0  0  0  0  0
  -17.4225  -26.6701   21.3976 H   0  0  0  0  0  0
  -18.0290  -26.0088   22.9003 H   0  0  0  0  0  0
  -19.7941  -30.7284   24.2218 H   0  0  0  0  0  0
  -17.5036  -31.6282   24.5183 H   0  0  0  0  0  0
  -15.5352  -30.3021   23.7704 H   0  0  0  0  0  0
  -15.8659  -28.0879   22.7050 H   0  0  0  0  0  0
  -24.5860  -30.7226   25.7811 H   0  0  0  0  0  0
  -24.8986  -32.3012   26.4847 H   0  0  0  0  0  0
  -25.8021  -30.9006   27.0261 H   0  0  0  0  0  0
  -26.2916  -29.6793   24.1153 H   0  0  0  0  0  0
  -27.4008  -29.7262   25.4681 H   0  0  0  0  0  0
  -27.8804  -30.4325   23.9435 H   0  0  0  0  0  0
  -27.2587  -33.3680   26.2062 H   0  0  0  0  0  0
  -28.3845  -32.6955   25.0362 H   0  0  0  0  0  0
  -28.0684  -31.8542   26.5472 H   0  0  0  0  0  0
  -28.2539  -38.0133   24.7557 H   0  0  0  0  0  0
  -28.1122  -36.2669   24.6177 H   0  0  0  0  0  0
  -27.2323  -37.1306   25.8856 H   0  0  0  0  0  0
  -20.9317  -29.8746   21.6948 H   0  0  0  0  0  0
  -26.0130  -38.2826   24.1501 H   0  0  0  0  0  0
  -27.8416  -18.6117   19.2547 H   0  0  0  0  0  0
  -27.5610  -21.0392   19.4839 H   0  0  0  0  0  0
  -31.5474  -18.8207   21.4221 H   0  0  0  0  0  0
  -30.6522  -24.7258   18.2762 H   0  0  0  0  0  0
  -30.4663  -23.0272   17.8457 H   0  0  0  0  0  0
  -28.1957  -23.1074   18.0554 H   0  0  0  0  0  0
  -28.2837  -24.8498   18.1992 H   0  0  0  0  0  0
  -30.9354  -24.2494   20.5586 H   0  0  0  0  0  0
  -31.4387  -22.6961   19.9465 H   0  0  0  0  0  0
  -27.3414  -23.2848   20.2078 H   0  0  0  0  0  0
  -28.3190  -15.9545   22.0940 H   0  0  0  0  0  0
  -29.6692  -17.0178   22.4914 H   0  0  0  0  0  0
  -29.7877  -15.3127   22.8372 H   0  0  0  0  0  0
  -31.1035  -17.0537   19.5179 H   0  0  0  0  0  0
  -29.4909  -16.7855   18.9850 H   0  0  0  0  0  0
  -29.0283  -25.2308   21.6016 H   0  0  0  0  0  0
  -27.3239  -25.1957   21.4554 H   0  0  0  0  0  0
  1 25  1  0  0  0
  1 30  2  0  0  0
  1 85  1  0  0  0
  2  3  1  0  0  0
  2 25  1  0  0  0
  2 87  1  0  0  0
  2 88  1  0  0  0
  3  4  1  0  0  0
  3 89  1  0  0  0
  3 90  1  0  0  0
  4  5  1  0  0  0
  4 91  1  0  0  0
  4 92  1  0  0  0
  5  6  1  0  0  0
  5 26  1  0  0  0
  5 93  1  0  0  0
  6 25  1  0  0  0
  6 94  1  0  0  0
  6 95  1  0  0  0
  7  8  2  0  0  0
  7 26  1  0  0  0
  7 29  1  0  0  0
  8  9  1  0  0  0
  8 22  1  0  0  0
  9 10  1  0  0  0
  9 27  2  0  0  0
 10 11  2  0  0  0
 10 15  1  0  0  0
 11 12  1  0  0  0
 11 96  1  0  0  0
 12 13  2  0  0  0
 12 97  1  0  0  0
 13 14  1  0  0  0
 13 31  1  0  0  0
 14 15  2  0  0  0
 14 98  1  0  0  0
 15 99  1  0  0  0
 16 17  2  0  0  0
 16 21  1  0  0  0
 16 31  1  0  0  0
 17 18  1  0  0  0
 17100  1  0  0  0
 18 19  2  0  0  0
 18101  1  0  0  0
 19 20  1  0  0  0
 19 24  1  0  0  0
 20 21  2  0  0  0
 20102  1  0  0  0
 21 23  1  0  0  0
 22 28  1  0  0  0
 22 32  2  0  0  0
 26 27  1  0  0  0
 28103  1  0  0  0
 28104  1  0  0  0
 29105  1  0  0  0
 29106  1  0  0  0
 33 34  1  0  0  0
 33 66  1  0  0  0
 33 70  2  0  0  0
 34 36  1  0  0  0
 34 59  1  0  0  0
 34107  1  0  0  0
 35 44  2  0  0  0
 35 45  1  0  0  0
 35 68  1  0  0  0
 36 56  1  0  0  0
 36108  1  0  0  0
 37 39  1  0  0  0
 37 47  1  0  0  0
 37 66  1  0  0  0
 37109  1  0  0  0
 38 43  2  0  0  0
 38 46  1  0  0  0
 38 47  1  0  0  0
 39 64  1  0  0  0
 39 67  2  0  0  0
 40 52  1  0  0  0
 40 53  2  0  0  0
 40 58  1  0  0  0
 41110  1  0  0  0
 41111  1  0  0  0
 41112  1  0  0  0
 41 48  1  0  0  0
 42 43  1  0  0  0
 42 66  1  0  0  0
 42113  1  0  0  0
 42114  1  0  0  0
 43 44  1  0  0  0
 44115  1  0  0  0
 45 46  2  0  0  0
 45116  1  0  0  0
 46117  1  0  0  0
 47118  1  0  0  0
 47119  1  0  0  0
 48 56  1  0  0  0
 48 65  1  0  0  0
 48120  1  0  0  0
 49 50  1  0  0  0
 49 53  1  0  0  0
 49 64  1  0  0  0
 49121  1  0  0  0
 50 51  1  0  0  0
 50122  1  0  0  0
 50123  1  0  0  0
 51 52  1  0  0  0
 51124  1  0  0  0
 51125  1  0  0  0
 52126  1  0  0  0
 52127  1  0  0  0
 53 54  1  0  0  0
 54 55  2  0  0  0
 54128  1  0  0  0
 55 57  1  0  0  0
 55129  1  0  0  0
 56 69  2  0  0  0
 57 58  2  0  0  0
 57130  1  0  0  0
 58131  1  0  0  0
 59 60  1  0  0  0
 59 61  1  0  0  0
 59 62  1  0  0  0
 60132  1  0  0  0
 60133  1  0  0  0
 60134  1  0  0  0
 61135  1  0  0  0
 61136  1  0  0  0
 61137  1  0  0  0
 62138  1  0  0  0
 62139  1  0  0  0
 62140  1  0  0  0
 63 65  1  0  0  0
 63141  1  0  0  0
 63142  1  0  0  0
 63143  1  0  0  0
 64144  1  0  0  0
 65145  1  0  0  0
 68 83  1  0  0  0
 71 72  2  0  0  0
 71 74  1  0  0  0
 71146  1  0  0  0
 72 75  1  0  0  0
 72147  1  0  0  0
 73 74  2  0  0  0
 73 76  1  0  0  0
 73148  1  0  0  0
 74 82  1  0  0  0
 75 76  2  0  0  0
 75 84  1  0  0  0
 76 86  1  0  0  0
 77 78  1  0  0  0
 77 79  1  0  0  0
 77149  1  0  0  0
 77150  1  0  0  0
 78 80  1  0  0  0
 78151  1  0  0  0
 78152  1  0  0  0
 79 84  1  0  0  0
 79153  1  0  0  0
 79154  1  0  0  0
 80 83  1  0  0  0
 80 84  1  0  0  0
 80155  1  0  0  0
 81 85  1  0  0  0
 81156  1  0  0  0
 81157  1  0  0  0
 81158  1  0  0  0
 82 85  1  0  0  0
 82159  1  0  0  0
 82160  1  0  0  0
 83161  1  0  0  0
 83162  1  0  0  0
M  ISO  4   1 100  68 101  83 101  85 100
M  END
> <chiral flag>
0

> <version>
0

> <s_m_source_file>
/data/baiqing/PycharmProjects/Reinvent-master-3.2/result/LINK_invent/BTK/process_docking_weight1_custom_product_contain_oxygen_bond_distance_aromatic_linkinvent_7_9_3/rearranged_h_0022.sdf

> <i_m_source_file_index>
6

> <r_mmod_Potential_Energy-OPLS-2005>
388.730621337891

> <r_mmod_Stretch_Energy-OPLS-2005>
86.7074203491211

> <r_mmod_Bend_Energy-OPLS-2005>
191.581405639648

> <r_mmod_Torsional_Energy-OPLS-2005>
379.943084716797

> <r_mmod_Improper_Torsional_Energy-OPLS-2005>
16.6393184661865

> <r_mmod_Van_der_Waal_Energy-OPLS-2005>
145.221664428711

> <r_mmod_Electrostatic_Energy-OPLS-2005>
-271.975769042969

> <r_mmod_Solvation_Energy-OPLS-2005>
-204.038726806641

> <b_mmod_Minimization_Converged-OPLS-2005>
0

> <r_mmod_RMS_Derivative-OPLS-2005>
3.67156362533569

$$$$
6
                    3D
 Structure written by MMmdl.
155163  0  0  1  0            999 V2000
  -30.6141  -14.6533   20.5046 C   0  0  0  0  0  0
  -30.4243  -12.4051   19.4551 C   0  0  0  0  0  0
  -29.5033  -12.5522   18.2240 C   0  0  0  0  0  0
  -28.0273  -12.3582   18.6232 C   0  0  0  0  0  0
  -27.6425  -13.2197   19.8567 C   0  0  2  0  0  0
  -28.6824  -13.0911   20.9928 C   0  0  0  0  0  0
  -25.2538  -13.8162   20.5708 C   0  0  0  0  0  0
  -24.1797  -13.0451   20.9194 C   0  0  0  0  0  0
  -24.6364  -11.6900   20.8723 C   0  0  0  0  0  0
  -23.9030  -10.4296   21.0381 C   0  0  0  0  0  0
  -24.3595   -9.4220   21.9168 C   0  0  0  0  0  0
  -23.6309   -8.2247   22.0720 C   0  0  0  0  0  0
  -22.4295   -8.0269   21.3521 C   0  0  0  0  0  0
  -21.9927   -9.0220   20.4614 C   0  0  0  0  0  0
  -22.7208  -10.2116   20.3029 C   0  0  0  0  0  0
  -21.6873   -6.0728   22.5266 C   0  0  0  0  0  0
  -21.4036   -6.5639   23.8205 C   0  0  0  0  0  0
  -21.3678   -5.6803   24.9181 C   0  0  0  0  0  0
  -21.6048   -4.3065   24.7247 C   0  0  0  0  0  0
  -21.8822   -3.8137   23.4375 C   0  0  0  0  0  0
  -21.9229   -4.6951   22.3415 C   0  0  0  0  0  0
  -22.7824  -13.5207   21.1899 C   0  0  0  0  0  0
  -22.1676   -4.2130   21.0994 F   0  0  0  0  0  0
  -21.5640   -3.4551   25.7760 F   0  0  0  0  0  0
  -30.0051  -13.4257   20.4351 N   0  0  0  0  0  0
  -26.2915  -12.9339   20.3282 N   0  0  0  0  0  0
  -25.9287  -11.6479   20.5689 N   0  0  0  0  0  0
  -22.0505  -12.8153   22.0429 N   0  0  0  0  0  0
  -25.4373  -15.1883   20.4108 N   0  0  0  0  0  0
  -31.7812  -14.8119   20.1361 O   0  0  0  0  0  0
  -21.6665   -6.8848   21.4218 O   0  0  0  0  0  0
  -22.3503  -14.5537   20.6795 O   0  0  0  0  0  0
  -24.6199  -31.8645   23.2017 C   0  0  0  0  0  0
  -25.9023  -32.4841   23.8379 C   0  0  1  0  0  0
  -27.2432  -27.3444   20.1332 C   0  0  0  0  0  0
  -25.5819  -33.8635   24.2296 N   0  0  0  0  0  0
  -23.4152  -30.4798   21.5527 C   0  0  2  0  0  0
  -24.8701  -28.9392   20.1153 C   0  0  0  0  0  0
  -22.7448  -29.4625   22.5046 C   0  0  0  0  0  0
  -18.0273  -28.1369   22.8523 C   0  0  0  0  0  0
  -24.1482  -36.7300   23.2650 C   0  0  0  0  0  0
  -25.9513  -30.8084   21.3698 C   0  0  0  0  0  0
  -26.0343  -29.4351   20.7133 C   0  0  0  0  0  0
  -27.2255  -28.6500   20.7111 C   0  0  0  0  0  0
  -26.0538  -26.8979   19.5112 C   0  0  0  0  0  0
  -24.8810  -27.6759   19.5067 C   0  0  0  0  0  0
  -23.6245  -29.8014   20.1713 C   0  0  0  0  0  0
  -25.4123  -36.3136   24.0346 C   0  0  1  0  0  0
  -20.5879  -28.3646   23.1348 C   0  0  2  0  0  0
  -20.6765  -26.9376   22.5457 C   0  0  0  0  0  0
  -19.5724  -26.6386   21.5258 C   0  0  0  0  0  0
  -18.1908  -26.7924   22.1657 C   0  0  0  0  0  0
  -19.1526  -28.8836   23.2921 C   0  0  0  0  0  0
  -18.9447  -30.1465   23.8891 C   0  0  0  0  0  0
  -17.6446  -30.6585   24.0563 C   0  0  0  0  0  0
  -25.9043  -34.9489   23.5149 C   0  0  0  0  0  0
  -16.5337  -29.9072   23.6347 C   0  0  0  0  0  0
  -16.7268  -28.6495   23.0357 C   0  0  0  0  0  0
  -26.4383  -31.6619   25.0725 C   0  0  0  0  0  0
  -25.3598  -31.3712   26.1428 C   0  0  0  0  0  0
  -27.0218  -30.3073   24.6134 C   0  0  0  0  0  0
  -27.5989  -32.4322   25.7473 C   0  0  0  0  0  0
  -27.5604  -37.1803   24.8467 C   0  0  0  0  0  0
  -21.4179  -29.2992   22.3748 N   0  0  0  0  0  0
  -26.4300  -37.3829   23.9418 N   0  0  0  0  0  0
  -24.6809  -31.0650   22.0983 N   0  0  0  0  0  0
  -23.4169  -28.8220   23.3153 O   0  0  0  0  0  0
  -28.3735  -26.5136   20.2020 O   0  0  0  0  0  0
  -26.5672  -34.8955   22.4756 O   0  0  0  0  0  0
  -23.5373  -32.1425   23.7360 O   0  0  0  0  0  0
  -28.7069  -17.9452   20.6341 C   0  0  0  0  0  0
  -28.7279  -19.3656   20.4939 C   0  0  0  0  0  0
  -31.1115  -17.8837   20.6166 C   0  0  0  0  0  0
  -29.8948  -17.1565   20.6812 C   0  0  0  0  0  0
  -29.9433  -20.0904   20.3880 C   0  0  0  0  0  0
  -31.1358  -19.3028   20.4687 C   0  0  0  0  0  0
  -30.6273  -21.7775   18.8312 C   0  0  0  0  0  0
  -29.3214  -24.0359   20.4808 C   0  0  0  0  0  0
  -28.9219  -22.4856   20.4889 C   0  0  0  0  0  0
  -28.1462  -25.0540   20.1731 C   0  0  0  0  0  0
  -29.7887  -15.6998   20.8330 N   0  0  0  0  0  0
  -29.9984  -21.5119   20.1287 N   0  0  0  0  0  0
  -32.3458  -19.9117   20.3923 F   0  0  0  0  0  0
  -31.4661  -12.5197   19.1585 H   0  0  0  0  0  0
  -30.3329  -11.4099   19.8881 H   0  0  0  0  0  0
  -29.7796  -11.8474   17.4351 H   0  0  0  0  0  0
  -29.6315  -13.5476   17.7941 H   0  0  0  0  0  0
  -27.8739  -11.2993   18.8373 H   0  0  0  0  0  0
  -27.3769  -12.5970   17.7804 H   0  0  0  0  0  0
  -27.6524  -14.2535   19.5159 H   0  0  0  0  0  0
  -28.6891  -12.0771   21.3952 H   0  0  0  0  0  0
  -28.4054  -13.7426   21.8254 H   0  0  0  0  0  0
  -25.2722   -9.5751   22.4731 H   0  0  0  0  0  0
  -24.0057   -7.4653   22.7421 H   0  0  0  0  0  0
  -21.0872   -8.8682   19.8904 H   0  0  0  0  0  0
  -22.3617  -10.9650   19.6129 H   0  0  0  0  0  0
  -21.1989   -7.6153   23.9681 H   0  0  0  0  0  0
  -21.1514   -6.0552   25.9070 H   0  0  0  0  0  0
  -22.0593   -2.7599   23.2884 H   0  0  0  0  0  0
  -22.4195  -11.9796   22.4748 H   0  0  0  0  0  0
  -21.1105  -13.1052   22.2635 H   0  0  0  0  0  0
  -24.6808  -15.8586   20.4721 H   0  0  0  0  0  0
  -26.2977  -15.5995   20.0724 H   0  0  0  0  0  0
  -26.7110  -32.5540   23.1167 H   0  0  0  0  0  0
  -24.9771  -33.9780   25.0306 H   0  0  0  0  0  0
  -22.7096  -31.3004   21.4085 H   0  0  0  0  0  0
  -23.3782  -35.9584   23.3293 H   0  0  0  0  0  0
  -24.3561  -36.8935   22.2059 H   0  0  0  0  0  0
  -23.7164  -37.6476   23.6677 H   0  0  0  0  0  0
  -26.0725  -31.5744   20.6029 H   0  0  0  0  0  0
  -26.8306  -30.8647   21.9969 H   0  0  0  0  0  0
  -28.1173  -29.0280   21.1920 H   0  0  0  0  0  0
  -25.9969  -25.9289   19.0387 H   0  0  0  0  0  0
  -23.9836  -27.2867   19.0452 H   0  0  0  0  0  0
  -23.7053  -30.5668   19.3990 H   0  0  0  0  0  0
  -22.7554  -29.2015   19.8976 H   0  0  0  0  0  0
  -25.1314  -36.2017   25.0842 H   0  0  0  0  0  0
  -20.9951  -28.3191   24.1470 H   0  0  0  0  0  0
  -20.5694  -26.2235   23.3628 H   0  0  0  0  0  0
  -21.6621  -26.7435   22.1222 H   0  0  0  0  0  0
  -19.6869  -25.6306   21.1243 H   0  0  0  0  0  0
  -19.6663  -27.3244   20.6813 H   0  0  0  0  0  0
  -17.4195  -26.6715   21.4037 H   0  0  0  0  0  0
  -18.0267  -26.0058   22.9033 H   0  0  0  0  0  0
  -19.7919  -30.7315   24.2215 H   0  0  0  0  0  0
  -17.4981  -31.6259   24.5151 H   0  0  0  0  0  0
  -15.5331  -30.2947   23.7676 H   0  0  0  0  0  0
  -15.8675  -28.0812   22.7042 H   0  0  0  0  0  0
  -24.5794  -30.7069   25.7686 H   0  0  0  0  0  0
  -24.8725  -32.2835   26.4883 H   0  0  0  0  0  0
  -25.7859  -30.8835   27.0193 H   0  0  0  0  0  0
  -26.2773  -29.6878   24.1115 H   0  0  0  0  0  0
  -27.3879  -29.7301   25.4626 H   0  0  0  0  0  0
  -27.8658  -30.4409   23.9368 H   0  0  0  0  0  0
  -27.2650  -33.3625   26.2086 H   0  0  0  0  0  0
  -28.3735  -32.6861   25.0223 H   0  0  0  0  0  0
  -28.0699  -31.8392   26.5323 H   0  0  0  0  0  0
  -28.2631  -38.0104   24.7601 H   0  0  0  0  0  0
  -28.1095  -36.2649   24.6211 H   0  0  0  0  0  0
  -27.2314  -37.1355   25.8864 H   0  0  0  0  0  0
  -20.9362  -29.8600   21.6851 H   0  0  0  0  0  0
  -26.0210  -38.2916   24.1414 H   0  0  0  0  0  0
  -27.7365  -17.4653   20.6830 H   0  0  0  0  0  0
  -27.7836  -19.8880   20.4303 H   0  0  0  0  0  0
  -32.0567  -17.3663   20.6755 H   0  0  0  0  0  0
  -31.5669  -22.3207   18.9593 H   0  0  0  0  0  0
  -29.9708  -22.3899   18.2088 H   0  0  0  0  0  0
  -30.8348  -20.8726   18.2571 H   0  0  0  0  0  0
  -30.1073  -24.2196   19.7482 H   0  0  0  0  0  0
  -29.7856  -24.2779   21.4409 H   0  0  0  0  0  0
  -28.1002  -22.3461   19.7854 H   0  0  0  0  0  0
  -28.5117  -22.2241   21.4688 H   0  0  0  0  0  0
  -27.3195  -24.8268   20.8513 H   0  0  0  0  0  0
  -27.8007  -24.7981   19.1718 H   0  0  0  0  0  0
  -28.8666  -15.3751   21.0809 H   0  0  0  0  0  0
  1 25  1  0  0  0
  1 30  2  0  0  0
  1 81  1  0  0  0
  2  3  1  0  0  0
  2 25  1  0  0  0
  2 84  1  0  0  0
  2 85  1  0  0  0
  3  4  1  0  0  0
  3 86  1  0  0  0
  3 87  1  0  0  0
  4  5  1  0  0  0
  4 88  1  0  0  0
  4 89  1  0  0  0
  5  6  1  0  0  0
  5 26  1  0  0  0
  5 90  1  0  0  0
  6 25  1  0  0  0
  6 91  1  0  0  0
  6 92  1  0  0  0
  7  8  2  0  0  0
  7 26  1  0  0  0
  7 29  1  0  0  0
  8  9  1  0  0  0
  8 22  1  0  0  0
  9 10  1  0  0  0
  9 27  2  0  0  0
 10 11  2  0  0  0
 10 15  1  0  0  0
 11 12  1  0  0  0
 11 93  1  0  0  0
 12 13  2  0  0  0
 12 94  1  0  0  0
 13 14  1  0  0  0
 13 31  1  0  0  0
 14 15  2  0  0  0
 14 95  1  0  0  0
 15 96  1  0  0  0
 16 17  2  0  0  0
 16 21  1  0  0  0
 16 31  1  0  0  0
 17 18  1  0  0  0
 17 97  1  0  0  0
 18 19  2  0  0  0
 18 98  1  0  0  0
 19 20  1  0  0  0
 19 24  1  0  0  0
 20 21  2  0  0  0
 20 99  1  0  0  0
 21 23  1  0  0  0
 22 28  1  0  0  0
 22 32  2  0  0  0
 26 27  1  0  0  0
 28100  1  0  0  0
 28101  1  0  0  0
 29102  1  0  0  0
 29103  1  0  0  0
 33 34  1  0  0  0
 33 66  1  0  0  0
 33 70  2  0  0  0
 34 36  1  0  0  0
 34 59  1  0  0  0
 34104  1  0  0  0
 35 44  2  0  0  0
 35 45  1  0  0  0
 35 68  1  0  0  0
 36 56  1  0  0  0
 36105  1  0  0  0
 37 39  1  0  0  0
 37 47  1  0  0  0
 37 66  1  0  0  0
 37106  1  0  0  0
 38 43  2  0  0  0
 38 46  1  0  0  0
 38 47  1  0  0  0
 39 64  1  0  0  0
 39 67  2  0  0  0
 40 52  1  0  0  0
 40 53  2  0  0  0
 40 58  1  0  0  0
 41107  1  0  0  0
 41108  1  0  0  0
 41109  1  0  0  0
 41 48  1  0  0  0
 42 43  1  0  0  0
 42 66  1  0  0  0
 42110  1  0  0  0
 42111  1  0  0  0
 43 44  1  0  0  0
 44112  1  0  0  0
 45 46  2  0  0  0
 45113  1  0  0  0
 46114  1  0  0  0
 47115  1  0  0  0
 47116  1  0  0  0
 48 56  1  0  0  0
 48 65  1  0  0  0
 48117  1  0  0  0
 49 50  1  0  0  0
 49 53  1  0  0  0
 49 64  1  0  0  0
 49118  1  0  0  0
 50 51  1  0  0  0
 50119  1  0  0  0
 50120  1  0  0  0
 51 52  1  0  0  0
 51121  1  0  0  0
 51122  1  0  0  0
 52123  1  0  0  0
 52124  1  0  0  0
 53 54  1  0  0  0
 54 55  2  0  0  0
 54125  1  0  0  0
 55 57  1  0  0  0
 55126  1  0  0  0
 56 69  2  0  0  0
 57 58  2  0  0  0
 57127  1  0  0  0
 58128  1  0  0  0
 59 60  1  0  0  0
 59 61  1  0  0  0
 59 62  1  0  0  0
 60129  1  0  0  0
 60130  1  0  0  0
 60131  1  0  0  0
 61132  1  0  0  0
 61133  1  0  0  0
 61134  1  0  0  0
 62135  1  0  0  0
 62136  1  0  0  0
 62137  1  0  0  0
 63 65  1  0  0  0
 63138  1  0  0  0
 63139  1  0  0  0
 63140  1  0  0  0
 64141  1  0  0  0
 65142  1  0  0  0
 68 80  1  0  0  0
 71 72  2  0  0  0
 71 74  1  0  0  0
 71143  1  0  0  0
 72 75  1  0  0  0
 72144  1  0  0  0
 73 74  2  0  0  0
 73 76  1  0  0  0
 73145  1  0  0  0
 74 81  1  0  0  0
 75 76  2  0  0  0
 75 82  1  0  0  0
 76 83  1  0  0  0
 77 82  1  0  0  0
 77146  1  0  0  0
 77147  1  0  0  0
 77148  1  0  0  0
 78 79  1  0  0  0
 78 80  1  0  0  0
 78149  1  0  0  0
 78150  1  0  0  0
 79 82  1  0  0  0
 79151  1  0  0  0
 79152  1  0  0  0
 80153  1  0  0  0
 80154  1  0  0  0
 81155  1  0  0  0
M  ISO  4   1 100  68 101  80 101  81 100
M  END
> <chiral flag>
0

> <version>
0

> <s_m_source_file>
/data/baiqing/PycharmProjects/Reinvent-master-3.2/result/LINK_invent/BTK/process_docking_weight1_custom_product_contain_oxygen_bond_distance_aromatic_linkinvent_7_9_3/rearranged_h_0022.sdf

> <i_m_source_file_index>
7

> <r_mmod_Potential_Energy-OPLS-2005>
110.158790588379

> <r_mmod_Stretch_Energy-OPLS-2005>
79.1269607543945

> <r_mmod_Bend_Energy-OPLS-2005>
138.864608764648

> <r_mmod_Torsional_Energy-OPLS-2005>
226.121536254883

> <r_mmod_Improper_Torsional_Energy-OPLS-2005>
8.08203792572021

> <r_mmod_Van_der_Waal_Energy-OPLS-2005>
151.491958618164

> <r_mmod_Electrostatic_Energy-OPLS-2005>
-315.649169921875

> <r_mmod_Solvation_Energy-OPLS-2005>
-225.186111450195

> <b_mmod_Minimization_Converged-OPLS-2005>
0

> <r_mmod_RMS_Derivative-OPLS-2005>
6.46886205673218

$$$$
7
                    3D
 Structure written by MMmdl.
172181  0  0  1  0            999 V2000
  -30.7599  -14.4278   20.6606 C   0  0  0  0  0  0
  -30.4119  -12.3183   19.4263 C   0  0  0  0  0  0
  -29.4922  -12.5478   18.2119 C   0  0  0  0  0  0
  -28.0150  -12.3766   18.6117 C   0  0  0  0  0  0
  -27.6557  -13.1945   19.8768 C   0  0  2  0  0  0
  -28.6943  -13.0093   21.0064 C   0  0  0  0  0  0
  -25.2597  -13.8130   20.5674 C   0  0  0  0  0  0
  -24.1826  -13.0442   20.9151 C   0  0  0  0  0  0
  -24.6364  -11.6885   20.8725 C   0  0  0  0  0  0
  -23.9030  -10.4272   21.0375 C   0  0  0  0  0  0
  -24.3599   -9.4193   21.9150 C   0  0  0  0  0  0
  -23.6280   -8.2239   22.0744 C   0  0  0  0  0  0
  -22.4258   -8.0271   21.3540 C   0  0  0  0  0  0
  -21.9882   -9.0236   20.4631 C   0  0  0  0  0  0
  -22.7205  -10.2107   20.3034 C   0  0  0  0  0  0
  -21.6857   -6.0696   22.5261 C   0  0  0  0  0  0
  -21.4019   -6.5610   23.8195 C   0  0  0  0  0  0
  -21.3664   -5.6767   24.9153 C   0  0  0  0  0  0
  -21.6055   -4.3036   24.7199 C   0  0  0  0  0  0
  -21.8837   -3.8113   23.4330 C   0  0  0  0  0  0
  -21.9204   -4.6918   22.3381 C   0  0  0  0  0  0
  -22.7844  -13.5237   21.1806 C   0  0  0  0  0  0
  -22.1662   -4.2115   21.0951 F   0  0  0  0  0  0
  -21.5633   -3.4534   25.7718 F   0  0  0  0  0  0
  -30.0367  -13.2888   20.4705 N   0  0  0  0  0  0
  -26.2987  -12.9252   20.3346 N   0  0  0  0  0  0
  -25.9286  -11.6426   20.5733 N   0  0  0  0  0  0
  -22.0497  -12.8267   22.0380 N   0  0  0  0  0  0
  -25.4382  -15.1849   20.4071 N   0  0  0  0  0  0
  -31.7812  -14.6745   20.0109 O   0  0  0  0  0  0
  -21.6630   -6.8851   21.4236 O   0  0  0  0  0  0
  -22.3539  -14.5553   20.6634 O   0  0  0  0  0  0
  -24.6198  -31.8624   23.2054 C   0  0  0  0  0  0
  -25.9078  -32.4779   23.8339 C   0  0  1  0  0  0
  -27.2327  -27.3880   20.1095 C   0  0  0  0  0  0
  -25.5906  -33.8585   24.2247 N   0  0  0  0  0  0
  -23.4058  -30.4895   21.5462 C   0  0  2  0  0  0
  -24.8543  -28.9542   20.1091 C   0  0  0  0  0  0
  -22.7438  -29.4620   22.4953 C   0  0  0  0  0  0
  -18.0274  -28.1363   22.8475 C   0  0  0  0  0  0
  -24.1499  -36.7312   23.2639 C   0  0  0  0  0  0
  -25.9429  -30.8149   21.3683 C   0  0  0  0  0  0
  -26.0165  -29.4473   20.7163 C   0  0  0  0  0  0
  -27.2041  -28.6708   20.7158 C   0  0  0  0  0  0
  -26.0504  -26.9380   19.4712 C   0  0  0  0  0  0
  -24.8683  -27.7003   19.4811 C   0  0  0  0  0  0
  -23.6171  -29.8244   20.1599 C   0  0  0  0  0  0
  -25.4117  -36.3088   24.0319 C   0  0  1  0  0  0
  -20.5881  -28.3649   23.1297 C   0  0  2  0  0  0
  -20.6774  -26.9387   22.5400 C   0  0  0  0  0  0
  -19.5747  -26.6365   21.5208 C   0  0  0  0  0  0
  -18.1924  -26.7914   22.1620 C   0  0  0  0  0  0
  -19.1534  -28.8835   23.2880 C   0  0  0  0  0  0
  -18.9467  -30.1454   23.8868 C   0  0  0  0  0  0
  -17.6472  -30.6581   24.0567 C   0  0  0  0  0  0
  -25.9051  -34.9464   23.5091 C   0  0  0  0  0  0
  -16.5367  -29.9077   23.6336 C   0  0  0  0  0  0
  -16.7266  -28.6507   23.0332 C   0  0  0  0  0  0
  -26.4484  -31.6586   25.0714 C   0  0  0  0  0  0
  -25.3751  -31.3717   26.1474 C   0  0  0  0  0  0
  -27.0317  -30.3008   24.6139 C   0  0  0  0  0  0
  -27.6028  -32.4333   25.7500 C   0  0  0  0  0  0
  -27.5571  -37.1808   24.8468 C   0  0  0  0  0  0
  -21.4171  -29.3011   22.3709 N   0  0  0  0  0  0
  -26.4276  -37.3784   23.9423 N   0  0  0  0  0  0
  -24.6735  -31.0721   22.0959 N   0  0  0  0  0  0
  -23.4214  -28.8159   23.2990 O   0  0  0  0  0  0
  -28.3848  -26.6072   20.1748 O   0  0  0  0  0  0
  -26.5625  -34.8928   22.4667 O   0  0  0  0  0  0
  -23.5378  -32.1376   23.7425 O   0  0  0  0  0  0
  -30.3261  -18.8720   22.2294 C   0  0  0  0  0  0
  -28.9310  -18.4739   20.2653 C   0  0  0  0  0  0
  -30.5331  -17.4787   22.3126 C   0  0  0  0  0  0
  -29.5060  -19.3837   21.1932 C   0  0  0  0  0  0
  -29.9981  -16.5907   21.3866 C   0  0  0  0  0  0
  -29.1871  -17.0819   20.3399 C   0  0  0  0  0  0
  -31.3301  -16.7410   23.3458 C   0  0  0  0  0  0
  -31.0535  -15.2393   23.0167 C   0  0  0  0  0  0
  -32.3700  -14.4266   23.0833 C   0  0  0  0  0  0
  -30.0722  -14.6502   24.0543 C   0  0  0  0  0  0
  -32.0510  -21.5940   18.5189 C   0  0  0  0  0  0
  -29.2198  -20.8965   21.0757 C   0  0  0  0  0  0
  -29.3392  -24.2218   20.3424 C   0  0  0  0  0  0
  -30.8117  -20.9006   19.1168 C   0  0  0  0  0  0
  -29.3399  -22.8788   19.5411 C   0  0  0  0  0  0
  -28.2898  -25.2195   19.7656 C   0  0  0  0  0  0
  -30.3829  -15.2489   21.6783 N   0  0  0  0  0  0
  -30.0845  -21.7134   20.1462 N   0  3  1  0  0  0
  -28.6561  -16.2523   19.4153 F   0  0  0  0  0  0
  -31.4584  -12.4112   19.1273 H   0  0  0  0  0  0
  -30.3015  -11.3000   19.8024 H   0  0  0  0  0  0
  -29.7386  -11.8547   17.4080 H   0  0  0  0  0  0
  -29.6585  -13.5520   17.8130 H   0  0  0  0  0  0
  -27.8325  -11.3150   18.7829 H   0  0  0  0  0  0
  -27.3648  -12.6622   17.7826 H   0  0  0  0  0  0
  -27.6768  -14.2295   19.5635 H   0  0  0  0  0  0
  -28.6600  -11.9888   21.3923 H   0  0  0  0  0  0
  -28.4325  -13.6597   21.8403 H   0  0  0  0  0  0
  -25.2744   -9.5674   22.4715 H   0  0  0  0  0  0
  -23.9967   -7.4645   22.7504 H   0  0  0  0  0  0
  -21.0800   -8.8768   19.8972 H   0  0  0  0  0  0
  -22.3658  -10.9646   19.6158 H   0  0  0  0  0  0
  -21.2018   -7.6123   23.9694 H   0  0  0  0  0  0
  -21.1480   -6.0478   25.9055 H   0  0  0  0  0  0
  -22.0622   -2.7581   23.2836 H   0  0  0  0  0  0
  -22.4064  -11.9898   22.4747 H   0  0  0  0  0  0
  -21.1143  -13.1338   22.2647 H   0  0  0  0  0  0
  -24.6844  -15.8557   20.5092 H   0  0  0  0  0  0
  -26.3050  -15.6063   20.0985 H   0  0  0  0  0  0
  -26.7166  -32.5502   23.1117 H   0  0  0  0  0  0
  -25.0091  -33.9719   25.0412 H   0  0  0  0  0  0
  -22.6991  -31.3094   21.4025 H   0  0  0  0  0  0
  -23.3722  -35.9681   23.3308 H   0  0  0  0  0  0
  -24.3563  -36.8923   22.2046 H   0  0  0  0  0  0
  -23.7274  -37.6520   23.6665 H   0  0  0  0  0  0
  -26.0736  -31.5769   20.5994 H   0  0  0  0  0  0
  -26.8264  -30.8592   21.9936 H   0  0  0  0  0  0
  -28.0963  -29.0392   21.2032 H   0  0  0  0  0  0
  -26.0039  -25.9956   18.9496 H   0  0  0  0  0  0
  -23.9854  -27.3152   18.9885 H   0  0  0  0  0  0
  -23.7321  -30.5992   19.4022 H   0  0  0  0  0  0
  -22.7396  -29.2496   19.8566 H   0  0  0  0  0  0
  -25.1283  -36.1912   25.0790 H   0  0  0  0  0  0
  -20.9981  -28.3240   24.1418 H   0  0  0  0  0  0
  -20.5679  -26.2283   23.3593 H   0  0  0  0  0  0
  -21.6643  -26.7419   22.1194 H   0  0  0  0  0  0
  -19.6928  -25.6275   21.1233 H   0  0  0  0  0  0
  -19.6692  -27.3202   20.6760 H   0  0  0  0  0  0
  -17.4191  -26.6647   21.4023 H   0  0  0  0  0  0
  -18.0325  -26.0046   22.9014 H   0  0  0  0  0  0
  -19.7961  -30.7271   24.2209 H   0  0  0  0  0  0
  -17.5036  -31.6262   24.5179 H   0  0  0  0  0  0
  -15.5366  -30.2987   23.7674 H   0  0  0  0  0  0
  -15.8660  -28.0846   22.7018 H   0  0  0  0  0  0
  -24.5908  -30.7053   25.7849 H   0  0  0  0  0  0
  -24.8970  -32.2900   26.4925 H   0  0  0  0  0  0
  -25.8114  -30.8903   27.0242 H   0  0  0  0  0  0
  -26.2862  -29.6779   24.1163 H   0  0  0  0  0  0
  -27.4030  -29.7231   25.4610 H   0  0  0  0  0  0
  -27.8751  -30.4279   23.9323 H   0  0  0  0  0  0
  -27.2567  -33.3611   26.2076 H   0  0  0  0  0  0
  -28.3852  -32.6928   25.0352 H   0  0  0  0  0  0
  -28.0694  -31.8465   26.5425 H   0  0  0  0  0  0
  -28.2583  -38.0112   24.7482 H   0  0  0  0  0  0
  -28.1043  -36.2622   24.6295 H   0  0  0  0  0  0
  -27.2286  -37.1477   25.8870 H   0  0  0  0  0  0
  -20.9332  -29.8766   21.6970 H   0  0  0  0  0  0
  -26.0145  -38.2860   24.1402 H   0  0  0  0  0  0
  -30.7786  -19.5321   22.9543 H   0  0  0  0  0  0
  -28.2896  -18.8398   19.4766 H   0  0  0  0  0  0
  -31.0326  -17.0223   24.3569 H   0  0  0  0  0  0
  -32.3800  -17.0127   23.2235 H   0  0  0  0  0  0
  -32.8000  -14.4417   24.0862 H   0  0  0  0  0  0
  -33.1233  -14.8347   22.4087 H   0  0  0  0  0  0
  -32.2241  -13.3770   22.8187 H   0  0  0  0  0  0
  -30.5241  -14.6104   25.0458 H   0  0  0  0  0  0
  -29.7728  -13.6317   23.8002 H   0  0  0  0  0  0
  -29.1683  -15.2567   24.1406 H   0  0  0  0  0  0
  -32.5556  -20.9050   17.8377 H   0  0  0  0  0  0
  -32.7767  -21.8576   19.2906 H   0  0  0  0  0  0
  -31.8097  -22.4939   17.9547 H   0  0  0  0  0  0
  -29.2686  -21.3465   22.0692 H   0  0  0  0  0  0
  -28.1716  -20.9738   20.7858 H   0  0  0  0  0  0
  -29.1130  -24.0318   21.3928 H   0  0  0  0  0  0
  -30.3333  -24.6660   20.3131 H   0  0  0  0  0  0
  -31.2185  -19.9862   19.5501 H   0  0  0  0  0  0
  -30.1163  -20.5947   18.3348 H   0  0  0  0  0  0
  -29.7615  -23.1167   18.5648 H   0  0  0  0  0  0
  -28.3114  -22.5869   19.3251 H   0  0  0  0  0  0
  -27.3325  -24.7910   20.0598 H   0  0  0  0  0  0
  -28.3360  -25.2040   18.6743 H   0  0  0  0  0  0
  -30.8132  -22.0993   20.7274 H   0  0  0  0  0  0
  1 25  1  0  0  0
  1 30  2  0  0  0
  1 87  1  0  0  0
  2  3  1  0  0  0
  2 25  1  0  0  0
  2 90  1  0  0  0
  2 91  1  0  0  0
  3  4  1  0  0  0
  3 92  1  0  0  0
  3 93  1  0  0  0
  4  5  1  0  0  0
  4 94  1  0  0  0
  4 95  1  0  0  0
  5  6  1  0  0  0
  5 26  1  0  0  0
  5 96  1  0  0  0
  6 25  1  0  0  0
  6 97  1  0  0  0
  6 98  1  0  0  0
  7  8  2  0  0  0
  7 26  1  0  0  0
  7 29  1  0  0  0
  8  9  1  0  0  0
  8 22  1  0  0  0
  9 10  1  0  0  0
  9 27  2  0  0  0
 10 11  2  0  0  0
 10 15  1  0  0  0
 11 12  1  0  0  0
 11 99  1  0  0  0
 12 13  2  0  0  0
 12100  1  0  0  0
 13 14  1  0  0  0
 13 31  1  0  0  0
 14 15  2  0  0  0
 14101  1  0  0  0
 15102  1  0  0  0
 16 17  2  0  0  0
 16 21  1  0  0  0
 16 31  1  0  0  0
 17 18  1  0  0  0
 17103  1  0  0  0
 18 19  2  0  0  0
 18104  1  0  0  0
 19 20  1  0  0  0
 19 24  1  0  0  0
 20 21  2  0  0  0
 20105  1  0  0  0
 21 23  1  0  0  0
 22 28  1  0  0  0
 22 32  2  0  0  0
 26 27  1  0  0  0
 28106  1  0  0  0
 28107  1  0  0  0
 29108  1  0  0  0
 29109  1  0  0  0
 33 34  1  0  0  0
 33 66  1  0  0  0
 33 70  2  0  0  0
 34 36  1  0  0  0
 34 59  1  0  0  0
 34110  1  0  0  0
 35 44  2  0  0  0
 35 45  1  0  0  0
 35 68  1  0  0  0
 36 56  1  0  0  0
 36111  1  0  0  0
 37 39  1  0  0  0
 37 47  1  0  0  0
 37 66  1  0  0  0
 37112  1  0  0  0
 38 43  2  0  0  0
 38 46  1  0  0  0
 38 47  1  0  0  0
 39 64  1  0  0  0
 39 67  2  0  0  0
 40 52  1  0  0  0
 40 53  2  0  0  0
 40 58  1  0  0  0
 41113  1  0  0  0
 41114  1  0  0  0
 41115  1  0  0  0
 41 48  1  0  0  0
 42 43  1  0  0  0
 42 66  1  0  0  0
 42116  1  0  0  0
 42117  1  0  0  0
 43 44  1  0  0  0
 44118  1  0  0  0
 45 46  2  0  0  0
 45119  1  0  0  0
 46120  1  0  0  0
 47121  1  0  0  0
 47122  1  0  0  0
 48 56  1  0  0  0
 48 65  1  0  0  0
 48123  1  0  0  0
 49 50  1  0  0  0
 49 53  1  0  0  0
 49 64  1  0  0  0
 49124  1  0  0  0
 50 51  1  0  0  0
 50125  1  0  0  0
 50126  1  0  0  0
 51 52  1  0  0  0
 51127  1  0  0  0
 51128  1  0  0  0
 52129  1  0  0  0
 52130  1  0  0  0
 53 54  1  0  0  0
 54 55  2  0  0  0
 54131  1  0  0  0
 55 57  1  0  0  0
 55132  1  0  0  0
 56 69  2  0  0  0
 57 58  2  0  0  0
 57133  1  0  0  0
 58134  1  0  0  0
 59 60  1  0  0  0
 59 61  1  0  0  0
 59 62  1  0  0  0
 60135  1  0  0  0
 60136  1  0  0  0
 60137  1  0  0  0
 61138  1  0  0  0
 61139  1  0  0  0
 61140  1  0  0  0
 62141  1  0  0  0
 62142  1  0  0  0
 62143  1  0  0  0
 63 65  1  0  0  0
 63144  1  0  0  0
 63145  1  0  0  0
 63146  1  0  0  0
 64147  1  0  0  0
 65148  1  0  0  0
 68 86  1  0  0  0
 71 73  2  0  0  0
 71 74  1  0  0  0
 71149  1  0  0  0
 72 74  2  0  0  0
 72 76  1  0  0  0
 72150  1  0  0  0
 73 75  1  0  0  0
 73 77  1  0  0  0
 74 82  1  0  0  0
 75 76  2  0  0  0
 75 87  1  0  0  0
 76 89  1  0  0  0
 77 78  1  0  0  0
 77151  1  0  0  0
 77152  1  0  0  0
 78 79  1  0  0  0
 78 80  1  0  0  0
 78 87  1  0  0  0
 79153  1  0  0  0
 79154  1  0  0  0
 79155  1  0  0  0
 80156  1  0  0  0
 80157  1  0  0  0
 80158  1  0  0  0
 81 84  1  0  0  0
 81159  1  0  0  0
 81160  1  0  0  0
 81161  1  0  0  0
 82162  1  0  0  0
 82163  1  0  0  0
 82 88  1  0  0  0
 83 85  1  0  0  0
 83 86  1  0  0  0
 83164  1  0  0  0
 83165  1  0  0  0
 84 88  1  0  0  0
 84166  1  0  0  0
 84167  1  0  0  0
 85 88  1  0  0  0
 85168  1  0  0  0
 85169  1  0  0  0
 86170  1  0  0  0
 86171  1  0  0  0
 88172  1  0  0  0
M  CHG  1  88   1
M  ISO  4   1 100  68 101  86 101  87 100
M  END
> <chiral flag>
0

> <version>
0

> <s_m_source_file>
/data/baiqing/PycharmProjects/Reinvent-master-3.2/result/LINK_invent/BTK/process_docking_weight1_custom_product_contain_oxygen_bond_distance_aromatic_linkinvent_7_9_3/rearranged_h_0022.sdf

> <i_m_source_file_index>
8

> <r_mmod_Potential_Energy-OPLS-2005>
79.0948486328125

> <r_mmod_Stretch_Energy-OPLS-2005>
54.6228370666504

> <r_mmod_Bend_Energy-OPLS-2005>
171.328109741211

> <r_mmod_Torsional_Energy-OPLS-2005>
278.302001953125

> <r_mmod_Improper_Torsional_Energy-OPLS-2005>
5.69539165496826

> <r_mmod_Van_der_Waal_Energy-OPLS-2005>
159.291687011719

> <r_mmod_Electrostatic_Energy-OPLS-2005>
-182.524826049805

> <r_mmod_Solvation_Energy-OPLS-2005>
-424.014038085938

> <b_mmod_Minimization_Converged-OPLS-2005>
0

> <r_mmod_RMS_Derivative-OPLS-2005>
4.89443302154541

$$$$
8
                    3D
 Structure written by MMmdl.
175185  0  0  1  0            999 V2000
  -30.6739  -14.5185   20.4451 C   0  0  0  0  0  0
  -30.4379  -12.2976   19.4324 C   0  0  0  0  0  0
  -29.5054  -12.4122   18.2129 C   0  0  0  0  0  0
  -28.0171  -12.3308   18.6235 C   0  0  0  0  0  0
  -27.6576  -13.1788   19.8786 C   0  0  2  0  0  0
  -28.7158  -13.0061   20.9857 C   0  0  0  0  0  0
  -25.2599  -13.8004   20.5704 C   0  0  0  0  0  0
  -24.1837  -13.0343   20.9227 C   0  0  0  0  0  0
  -24.6383  -11.6805   20.8808 C   0  0  0  0  0  0
  -23.9033  -10.4229   21.0432 C   0  0  0  0  0  0
  -24.3588   -9.4156   21.9197 C   0  0  0  0  0  0
  -23.6262   -8.2197   22.0755 C   0  0  0  0  0  0
  -22.4239   -8.0260   21.3536 C   0  0  0  0  0  0
  -21.9892   -9.0234   20.4644 C   0  0  0  0  0  0
  -22.7224  -10.2106   20.3048 C   0  0  0  0  0  0
  -21.6854   -6.0714   22.5282 C   0  0  0  0  0  0
  -21.4022   -6.5625   23.8216 C   0  0  0  0  0  0
  -21.3644   -5.6777   24.9187 C   0  0  0  0  0  0
  -21.6026   -4.3038   24.7251 C   0  0  0  0  0  0
  -21.8827   -3.8131   23.4381 C   0  0  0  0  0  0
  -21.9209   -4.6943   22.3420 C   0  0  0  0  0  0
  -22.7873  -13.5203   21.1850 C   0  0  0  0  0  0
  -22.1673   -4.2128   21.0996 F   0  0  0  0  0  0
  -21.5623   -3.4527   25.7766 F   0  0  0  0  0  0
  -30.0182  -13.3250   20.3912 N   0  0  0  0  0  0
  -26.3025  -12.9137   20.3469 N   0  0  0  0  0  0
  -25.9314  -11.6330   20.5897 N   0  0  0  0  0  0
  -22.0464  -12.8215   22.0376 N   0  0  0  0  0  0
  -25.4283  -15.1698   20.3985 N   0  0  0  0  0  0
  -31.8921  -14.5879   20.2771 O   0  0  0  0  0  0
  -21.6615   -6.8849   21.4239 O   0  0  0  0  0  0
  -22.3579  -14.5518   20.6697 O   0  0  0  0  0  0
  -24.6094  -31.8693   23.2125 C   0  0  0  0  0  0
  -25.9015  -32.4824   23.8397 C   0  0  1  0  0  0
  -27.2508  -27.4848   20.0751 C   0  0  0  0  0  0
  -25.5861  -33.8613   24.2332 N   0  0  0  0  0  0
  -23.3973  -30.4912   21.5494 C   0  0  2  0  0  0
  -24.8485  -28.9607   20.1128 C   0  0  0  0  0  0
  -22.7373  -29.4662   22.4999 C   0  0  0  0  0  0
  -18.0259  -28.1380   22.8500 C   0  0  0  0  0  0
  -24.1468  -36.7284   23.2634 C   0  0  0  0  0  0
  -25.9191  -30.8426   21.3658 C   0  0  0  0  0  0
  -25.9984  -29.4761   20.7227 C   0  0  0  0  0  0
  -27.1949  -28.7320   20.7269 C   0  0  0  0  0  0
  -26.0905  -26.9766   19.4497 C   0  0  0  0  0  0
  -24.8854  -27.7051   19.4807 C   0  0  0  0  0  0
  -23.6064  -29.8197   20.1639 C   0  0  0  0  0  0
  -25.4086  -36.3096   24.0341 C   0  0  1  0  0  0
  -20.5849  -28.3649   23.1326 C   0  0  2  0  0  0
  -20.6751  -26.9385   22.5421 C   0  0  0  0  0  0
  -19.5731  -26.6396   21.5205 C   0  0  0  0  0  0
  -18.1903  -26.7928   22.1625 C   0  0  0  0  0  0
  -19.1510  -28.8838   23.2916 C   0  0  0  0  0  0
  -18.9447  -30.1442   23.8933 C   0  0  0  0  0  0
  -17.6449  -30.6590   24.0580 C   0  0  0  0  0  0
  -25.9022  -34.9468   23.5137 C   0  0  0  0  0  0
  -16.5338  -29.9101   23.6321 C   0  0  0  0  0  0
  -16.7248  -28.6517   23.0344 C   0  0  0  0  0  0
  -26.4473  -31.6575   25.0695 C   0  0  0  0  0  0
  -25.3777  -31.3678   26.1477 C   0  0  0  0  0  0
  -27.0261  -30.3005   24.6032 C   0  0  0  0  0  0
  -27.6079  -32.4259   25.7438 C   0  0  0  0  0  0
  -27.5562  -37.1781   24.8461 C   0  0  0  0  0  0
  -21.4104  -29.3022   22.3737 N   0  0  0  0  0  0
  -26.4265  -37.3789   23.9431 N   0  0  0  0  0  0
  -24.6590  -31.0819   22.1016 N   0  0  0  0  0  0
  -23.4160  -28.8200   23.3029 O   0  0  0  0  0  0
  -28.4370  -26.7919   20.0715 O   0  0  0  0  0  0
  -26.5582  -34.8924   22.4700 O   0  0  0  0  0  0
  -23.5299  -32.1439   23.7536 O   0  0  0  0  0  0
  -27.5805  -18.1409   20.8811 C   0  0  0  0  0  0
  -29.8983  -18.8007   21.2122 C   0  0  0  0  0  0
  -29.5534  -24.4822   17.3037 C   0  0  0  0  0  0
  -27.2508  -19.4666   20.5352 C   0  0  0  0  0  0
  -29.5727  -20.1270   20.8507 C   0  0  0  0  0  0
  -29.6276  -23.1127   16.9778 C   0  0  0  0  0  0
  -28.4682  -23.9107   19.3919 C   0  0  0  0  0  0
  -28.9138  -17.7877   21.1763 C   0  0  0  0  0  0
  -28.9731  -24.9085   18.5193 C   0  0  0  0  0  0
  -28.2540  -20.4554   20.4700 C   0  0  0  0  0  0
  -28.5280  -22.5524   19.0761 C   0  0  0  0  0  0
  -29.1200  -22.1363   17.8588 C   0  0  0  0  0  0
  -27.8144  -24.0906   20.7298 C   0  0  0  0  0  0
  -27.4794  -22.6488   21.1398 C   0  0  0  0  0  0
  -28.3608  -17.0051   16.8730 C   0  0  0  0  0  0
  -31.1518  -16.0834   17.9743 C   0  0  0  0  0  0
  -29.3010  -16.3155   21.3655 C   0  0  0  0  0  0
  -28.9413  -26.4078   18.7969 C   0  0  0  0  0  0
  -28.5929  -16.1085   18.0939 C   0  0  0  0  0  0
  -29.9144  -16.3452   18.8719 C   0  0  1  0  0  0
  -27.9158  -21.7546   20.0628 N   0  0  0  0  0  0
  -29.8919  -15.6126   20.1914 N   0  0  0  0  0  0
  -29.2336  -20.4814   17.3971 Cl  0  0  0  0  0  0
  -31.4751  -12.4166   19.1137 H   0  0  0  0  0  0
  -30.3727  -11.3092   19.8881 H   0  0  0  0  0  0
  -29.7374  -11.6137   17.5082 H   0  0  0  0  0  0
  -29.7157  -13.3342   17.6792 H   0  0  0  0  0  0
  -27.8075  -11.2790   18.8229 H   0  0  0  0  0  0
  -27.3787  -12.6114   17.7845 H   0  0  0  0  0  0
  -27.6764  -14.2199   19.5922 H   0  0  0  0  0  0
  -28.7203  -11.9778   21.3492 H   0  0  0  0  0  0
  -28.5011  -13.6231   21.8563 H   0  0  0  0  0  0
  -25.2734   -9.5632   22.4783 H   0  0  0  0  0  0
  -23.9979   -7.4581   22.7451 H   0  0  0  0  0  0
  -21.0844   -8.8759   19.8935 H   0  0  0  0  0  0
  -22.3698  -10.9648   19.6162 H   0  0  0  0  0  0
  -21.2005   -7.6132   23.9723 H   0  0  0  0  0  0
  -21.1446   -6.0504   25.9079 H   0  0  0  0  0  0
  -22.0622   -2.7596   23.2900 H   0  0  0  0  0  0
  -22.4040  -11.9880   22.4824 H   0  0  0  0  0  0
  -21.1065  -13.1243   22.2493 H   0  0  0  0  0  0
  -24.6550  -15.8194   20.4914 H   0  0  0  0  0  0
  -26.2636  -15.5923   20.0197 H   0  0  0  0  0  0
  -26.7081  -32.5566   23.1160 H   0  0  0  0  0  0
  -25.0020  -33.9789   25.0483 H   0  0  0  0  0  0
  -22.6835  -31.3064   21.4077 H   0  0  0  0  0  0
  -23.3746  -35.9593   23.3281 H   0  0  0  0  0  0
  -24.3582  -36.8921   22.2050 H   0  0  0  0  0  0
  -23.7200  -37.6473   23.6665 H   0  0  0  0  0  0
  -26.0257  -31.6053   20.5930 H   0  0  0  0  0  0
  -26.8077  -30.9002   21.9808 H   0  0  0  0  0  0
  -28.0802  -29.1226   21.2089 H   0  0  0  0  0  0
  -26.1174  -26.0248   18.9383 H   0  0  0  0  0  0
  -24.0035  -27.3070   18.9973 H   0  0  0  0  0  0
  -23.7062  -30.5885   19.3961 H   0  0  0  0  0  0
  -22.7342  -29.2304   19.8757 H   0  0  0  0  0  0
  -25.1254  -36.1939   25.0829 H   0  0  0  0  0  0
  -20.9936  -28.3220   24.1450 H   0  0  0  0  0  0
  -20.5626  -26.2245   23.3601 H   0  0  0  0  0  0
  -21.6631  -26.7439   22.1234 H   0  0  0  0  0  0
  -19.6890  -25.6322   21.1199 H   0  0  0  0  0  0
  -19.6650  -27.3241   20.6755 H   0  0  0  0  0  0
  -17.4155  -26.6670   21.4038 H   0  0  0  0  0  0
  -18.0313  -26.0074   22.9025 H   0  0  0  0  0  0
  -19.7932  -30.7243   24.2310 H   0  0  0  0  0  0
  -17.5020  -31.6276   24.5169 H   0  0  0  0  0  0
  -15.5341  -30.3016   23.7645 H   0  0  0  0  0  0
  -15.8644  -28.0849   22.7044 H   0  0  0  0  0  0
  -24.5897  -30.7078   25.7824 H   0  0  0  0  0  0
  -24.9053  -32.2846   26.5005 H   0  0  0  0  0  0
  -25.8177  -30.8773   27.0171 H   0  0  0  0  0  0
  -26.2749  -29.6766   24.1169 H   0  0  0  0  0  0
  -27.4112  -29.7234   25.4448 H   0  0  0  0  0  0
  -27.8560  -30.4285   23.9082 H   0  0  0  0  0  0
  -27.2744  -33.3595   26.1973 H   0  0  0  0  0  0
  -28.3912  -32.6737   25.0261 H   0  0  0  0  0  0
  -28.0692  -31.8384   26.5387 H   0  0  0  0  0  0
  -28.2571  -38.0086   24.7556 H   0  0  0  0  0  0
  -28.1070  -36.2633   24.6219 H   0  0  0  0  0  0
  -27.2309  -37.1368   25.8872 H   0  0  0  0  0  0
  -20.9237  -29.8728   21.6966 H   0  0  0  0  0  0
  -26.0138  -38.2846   24.1502 H   0  0  0  0  0  0
  -26.8064  -17.3906   20.8749 H   0  0  0  0  0  0
  -30.9196  -18.5483   21.4589 H   0  0  0  0  0  0
  -29.9534  -25.2117   16.6117 H   0  0  0  0  0  0
  -26.2279  -19.7080   20.2814 H   0  0  0  0  0  0
  -30.3435  -20.8863   20.8445 H   0  0  0  0  0  0
  -30.0724  -22.8085   16.0414 H   0  0  0  0  0  0
  -26.9084  -24.6862   20.6487 H   0  0  0  0  0  0
  -28.4955  -24.5632   21.4380 H   0  0  0  0  0  0
  -26.4064  -22.5353   21.3011 H   0  0  0  0  0  0
  -27.9728  -22.3963   22.0788 H   0  0  0  0  0  0
  -27.4245  -16.7445   16.3780 H   0  0  0  0  0  0
  -29.1491  -16.9187   16.1273 H   0  0  0  0  0  0
  -28.2790  -18.0453   17.1707 H   0  0  0  0  0  0
  -31.1473  -16.7015   17.0778 H   0  0  0  0  0  0
  -31.2347  -15.0463   17.6507 H   0  0  0  0  0  0
  -32.0718  -16.3450   18.4993 H   0  0  0  0  0  0
  -28.4040  -15.7822   21.6784 H   0  0  0  0  0  0
  -29.9889  -16.2588   22.2130 H   0  0  0  0  0  0
  -28.4159  -26.9127   17.9825 H   0  0  0  0  0  0
  -29.9705  -26.7667   18.7476 H   0  0  0  0  0  0
  -28.5230  -15.0817   17.7541 H   0  0  0  0  0  0
  -27.7484  -16.2708   18.7619 H   0  0  0  0  0  0
  -29.9821  -17.4154   19.0342 H   0  0  0  0  0  0
  1 25  1  0  0  0
  1 30  2  0  0  0
  1 92  1  0  0  0
  2  3  1  0  0  0
  2 25  1  0  0  0
  2 94  1  0  0  0
  2 95  1  0  0  0
  3  4  1  0  0  0
  3 96  1  0  0  0
  3 97  1  0  0  0
  4  5  1  0  0  0
  4 98  1  0  0  0
  4 99  1  0  0  0
  5  6  1  0  0  0
  5 26  1  0  0  0
  5100  1  0  0  0
  6 25  1  0  0  0
  6101  1  0  0  0
  6102  1  0  0  0
  7  8  2  0  0  0
  7 26  1  0  0  0
  7 29  1  0  0  0
  8  9  1  0  0  0
  8 22  1  0  0  0
  9 10  1  0  0  0
  9 27  2  0  0  0
 10 11  2  0  0  0
 10 15  1  0  0  0
 11 12  1  0  0  0
 11103  1  0  0  0
 12 13  2  0  0  0
 12104  1  0  0  0
 13 14  1  0  0  0
 13 31  1  0  0  0
 14 15  2  0  0  0
 14105  1  0  0  0
 15106  1  0  0  0
 16 17  2  0  0  0
 16 21  1  0  0  0
 16 31  1  0  0  0
 17 18  1  0  0  0
 17107  1  0  0  0
 18 19  2  0  0  0
 18108  1  0  0  0
 19 20  1  0  0  0
 19 24  1  0  0  0
 20 21  2  0  0  0
 20109  1  0  0  0
 21 23  1  0  0  0
 22 28  1  0  0  0
 22 32  2  0  0  0
 26 27  1  0  0  0
 28110  1  0  0  0
 28111  1  0  0  0
 29112  1  0  0  0
 29113  1  0  0  0
 33 34  1  0  0  0
 33 66  1  0  0  0
 33 70  2  0  0  0
 34 36  1  0  0  0
 34 59  1  0  0  0
 34114  1  0  0  0
 35 44  2  0  0  0
 35 45  1  0  0  0
 35 68  1  0  0  0
 36 56  1  0  0  0
 36115  1  0  0  0
 37 39  1  0  0  0
 37 47  1  0  0  0
 37 66  1  0  0  0
 37116  1  0  0  0
 38 43  2  0  0  0
 38 46  1  0  0  0
 38 47  1  0  0  0
 39 64  1  0  0  0
 39 67  2  0  0  0
 40 52  1  0  0  0
 40 53  2  0  0  0
 40 58  1  0  0  0
 41117  1  0  0  0
 41118  1  0  0  0
 41119  1  0  0  0
 41 48  1  0  0  0
 42 43  1  0  0  0
 42 66  1  0  0  0
 42120  1  0  0  0
 42121  1  0  0  0
 43 44  1  0  0  0
 44122  1  0  0  0
 45 46  2  0  0  0
 45123  1  0  0  0
 46124  1  0  0  0
 47125  1  0  0  0
 47126  1  0  0  0
 48 56  1  0  0  0
 48 65  1  0  0  0
 48127  1  0  0  0
 49 50  1  0  0  0
 49 53  1  0  0  0
 49 64  1  0  0  0
 49128  1  0  0  0
 50 51  1  0  0  0
 50129  1  0  0  0
 50130  1  0  0  0
 51 52  1  0  0  0
 51131  1  0  0  0
 51132  1  0  0  0
 52133  1  0  0  0
 52134  1  0  0  0
 53 54  1  0  0  0
 54 55  2  0  0  0
 54135  1  0  0  0
 55 57  1  0  0  0
 55136  1  0  0  0
 56 69  2  0  0  0
 57 58  2  0  0  0
 57137  1  0  0  0
 58138  1  0  0  0
 59 60  1  0  0  0
 59 61  1  0  0  0
 59 62  1  0  0  0
 60139  1  0  0  0
 60140  1  0  0  0
 60141  1  0  0  0
 61142  1  0  0  0
 61143  1  0  0  0
 61144  1  0  0  0
 62145  1  0  0  0
 62146  1  0  0  0
 62147  1  0  0  0
 63 65  1  0  0  0
 63148  1  0  0  0
 63149  1  0  0  0
 63150  1  0  0  0
 64151  1  0  0  0
 65152  1  0  0  0
 68 88  1  0  0  0
 71 74  2  0  0  0
 71 78  1  0  0  0
 71153  1  0  0  0
 72 75  1  0  0  0
 72 78  2  0  0  0
 72154  1  0  0  0
 73 76  2  0  0  0
 73 79  1  0  0  0
 73155  1  0  0  0
 74 80  1  0  0  0
 74156  1  0  0  0
 75 80  2  0  0  0
 75157  1  0  0  0
 76 82  1  0  0  0
 76158  1  0  0  0
 77 79  2  0  0  0
 77 81  1  0  0  0
 77 83  1  0  0  0
 78 87  1  0  0  0
 79 88  1  0  0  0
 80 91  1  0  0  0
 81 82  2  0  0  0
 81 91  1  0  0  0
 82 93  1  0  0  0
 83 84  1  0  0  0
 83159  1  0  0  0
 83160  1  0  0  0
 84 91  1  0  0  0
 84161  1  0  0  0
 84162  1  0  0  0
 85 89  1  0  0  0
 85163  1  0  0  0
 85164  1  0  0  0
 85165  1  0  0  0
 86166  1  0  0  0
 86167  1  0  0  0
 86168  1  0  0  0
 86 90  1  0  0  0
 87 92  1  0  0  0
 87169  1  0  0  0
 87170  1  0  0  0
 88171  1  0  0  0
 88172  1  0  0  0
 89 90  1  0  0  0
 89173  1  0  0  0
 89174  1  0  0  0
 90 92  1  0  0  0
 90175  1  0  0  0
M  ISO  4   1 100  68 101  88 101  92 100
M  END
> <chiral flag>
0

> <version>
0

> <s_m_source_file>
/data/baiqing/PycharmProjects/Reinvent-master-3.2/result/LINK_invent/BTK/process_docking_weight1_custom_product_contain_oxygen_bond_distance_aromatic_linkinvent_7_9_3/rearranged_h_0022.sdf

> <i_m_source_file_index>
9

> <r_mmod_Potential_Energy-OPLS-2005>
309.576293945312

> <r_mmod_Stretch_Energy-OPLS-2005>
45.3974456787109

> <r_mmod_Bend_Energy-OPLS-2005>
148.045104980469

> <r_mmod_Torsional_Energy-OPLS-2005>
371.598358154297

> <r_mmod_Improper_Torsional_Energy-OPLS-2005>
19.5974578857422

> <r_mmod_Van_der_Waal_Energy-OPLS-2005>
165.794464111328

> <r_mmod_Electrostatic_Energy-OPLS-2005>
-281.606842041016

> <r_mmod_Solvation_Energy-OPLS-2005>
-186.291290283203

> <b_mmod_Minimization_Converged-OPLS-2005>
0

> <r_mmod_RMS_Derivative-OPLS-2005>
3.52025771141052

$$$$
9
                    3D
 Structure written by MMmdl.
158167  0  0  1  0            999 V2000
  -30.6177  -14.6622   20.5397 C   0  0  0  0  0  0
  -30.4467  -12.4148   19.4601 C   0  0  0  0  0  0
  -29.5118  -12.5268   18.2332 C   0  0  0  0  0  0
  -28.0356  -12.3600   18.6474 C   0  0  0  0  0  0
  -27.6607  -13.2229   19.8825 C   0  0  2  0  0  0
  -28.7066  -13.0618   21.0102 C   0  0  0  0  0  0
  -25.2549  -13.8143   20.5684 C   0  0  0  0  0  0
  -24.1816  -13.0394   20.9118 C   0  0  0  0  0  0
  -24.6449  -11.6882   20.8746 C   0  0  0  0  0  0
  -23.9139  -10.4270   21.0409 C   0  0  0  0  0  0
  -24.3665   -9.4186   21.9191 C   0  0  0  0  0  0
  -23.6316   -8.2240   22.0771 C   0  0  0  0  0  0
  -22.4299   -8.0303   21.3566 C   0  0  0  0  0  0
  -21.9950   -9.0273   20.4655 C   0  0  0  0  0  0
  -22.7307  -10.2133   20.3043 C   0  0  0  0  0  0
  -21.6850   -6.0760   22.5296 C   0  0  0  0  0  0
  -21.4012   -6.5657   23.8225 C   0  0  0  0  0  0
  -21.3652   -5.6807   24.9183 C   0  0  0  0  0  0
  -21.6031   -4.3070   24.7225 C   0  0  0  0  0  0
  -21.8813   -3.8164   23.4339 C   0  0  0  0  0  0
  -21.9193   -4.6993   22.3408 C   0  0  0  0  0  0
  -22.7841  -13.5183   21.1794 C   0  0  0  0  0  0
  -22.1658   -4.2176   21.0980 F   0  0  0  0  0  0
  -21.5625   -3.4550   25.7728 F   0  0  0  0  0  0
  -30.0230  -13.4252   20.4538 N   0  0  0  0  0  0
  -26.3050  -12.9379   20.3465 N   0  0  0  0  0  0
  -25.9402  -11.6516   20.5850 N   0  0  0  0  0  0
  -22.0525  -12.8181   22.0378 N   0  0  0  0  0  0
  -25.4132  -15.1869   20.4146 N   0  0  0  0  0  0
  -31.7459  -14.8662   20.0800 O   0  0  0  0  0  0
  -21.6646   -6.8909   21.4255 O   0  0  0  0  0  0
  -22.3524  -14.5502   20.6682 O   0  0  0  0  0  0
  -24.6222  -31.8575   23.2003 C   0  0  0  0  0  0
  -25.9093  -32.4782   23.8323 C   0  0  1  0  0  0
  -27.2470  -27.3363   20.1381 C   0  0  0  0  0  0
  -25.5940  -33.8577   24.2265 N   0  0  0  0  0  0
  -23.4156  -30.4777   21.5429 C   0  0  2  0  0  0
  -24.8698  -28.9176   20.1247 C   0  0  0  0  0  0
  -22.7447  -29.4607   22.4949 C   0  0  0  0  0  0
  -18.0279  -28.1402   22.8467 C   0  0  0  0  0  0
  -24.1493  -36.7287   23.2645 C   0  0  0  0  0  0
  -25.9530  -30.7932   21.3670 C   0  0  0  0  0  0
  -26.0331  -29.4174   20.7236 C   0  0  0  0  0  0
  -27.2283  -28.6408   20.7146 C   0  0  0  0  0  0
  -26.0629  -26.8698   19.5358 C   0  0  0  0  0  0
  -24.8843  -27.6466   19.5236 C   0  0  0  0  0  0
  -23.6330  -29.7970   20.1655 C   0  0  0  0  0  0
  -25.4119  -36.3082   24.0339 C   0  0  1  0  0  0
  -20.5866  -28.3673   23.1302 C   0  0  2  0  0  0
  -20.6771  -26.9394   22.5419 C   0  0  0  0  0  0
  -19.5767  -26.6348   21.5222 C   0  0  0  0  0  0
  -18.1921  -26.7948   22.1589 C   0  0  0  0  0  0
  -19.1527  -28.8860   23.2878 C   0  0  0  0  0  0
  -18.9463  -30.1478   23.8852 C   0  0  0  0  0  0
  -17.6468  -30.6592   24.0570 C   0  0  0  0  0  0
  -25.9044  -34.9460   23.5090 C   0  0  0  0  0  0
  -16.5349  -29.9093   23.6368 C   0  0  0  0  0  0
  -16.7261  -28.6535   23.0324 C   0  0  0  0  0  0
  -26.4483  -31.6582   25.0678 C   0  0  0  0  0  0
  -25.3725  -31.3761   26.1426 C   0  0  0  0  0  0
  -27.0354  -30.3011   24.6130 C   0  0  0  0  0  0
  -27.6038  -32.4316   25.7450 C   0  0  0  0  0  0
  -27.5594  -37.1796   24.8466 C   0  0  0  0  0  0
  -21.4166  -29.3031   22.3712 N   0  0  0  0  0  0
  -26.4303  -37.3768   23.9416 N   0  0  0  0  0  0
  -24.6821  -31.0599   22.0955 N   0  0  0  0  0  0
  -23.4190  -28.8144   23.3012 O   0  0  0  0  0  0
  -28.4063  -26.5639   20.0489 O   0  0  0  0  0  0
  -26.5569  -34.8936   22.4622 O   0  0  0  0  0  0
  -23.5402  -32.1337   23.7363 O   0  0  0  0  0  0
  -30.7224  -18.0527   20.5611 C   0  0  0  0  0  0
  -28.1652  -19.0288   20.9977 C   0  0  0  0  0  0
  -30.4620  -19.4736   20.4842 C   0  0  0  0  0  0
  -29.1407  -20.0309   20.7015 C   0  0  0  0  0  0
  -29.7175  -17.0991   20.8817 C   0  0  0  0  0  0
  -28.4371  -17.6406   21.0988 C   0  0  0  0  0  0
  -29.2428  -22.6901   20.3867 C   0  0  0  0  0  0
  -26.9947  -23.2578   20.9170 C   0  0  0  0  0  0
  -27.2358  -21.7411   20.9091 C   0  0  0  0  0  0
  -28.2207  -23.8842   20.2658 C   0  0  1  0  0  0
  -31.6752  -20.3347   20.1779 C   0  0  0  0  0  0
  -28.5732  -25.3351   20.8463 C   0  0  0  0  0  0
  -28.6611  -21.4626   20.6526 N   0  0  0  0  0  0
  -29.8484  -15.6519   21.0878 N   0  0  0  0  0  0
  -30.4441  -22.9136   20.2356 O   0  0  0  0  0  0
  -27.4304  -16.7983   21.4227 F   0  0  0  0  0  0
  -31.4873  -12.5486   19.1593 H   0  0  0  0  0  0
  -30.3897  -11.4138   19.8889 H   0  0  0  0  0  0
  -29.7751  -11.7743   17.4887 H   0  0  0  0  0  0
  -29.6498  -13.4941   17.7483 H   0  0  0  0  0  0
  -27.8766  -11.3049   18.8700 H   0  0  0  0  0  0
  -27.3758  -12.5920   17.8112 H   0  0  0  0  0  0
  -27.6800  -14.2633   19.5580 H   0  0  0  0  0  0
  -28.7264  -12.0332   21.3720 H   0  0  0  0  0  0
  -28.4419  -13.6644   21.8808 H   0  0  0  0  0  0
  -25.2818   -9.5628   22.4783 H   0  0  0  0  0  0
  -24.0006   -7.4612   22.7480 H   0  0  0  0  0  0
  -21.0894   -8.8799   19.8953 H   0  0  0  0  0  0
  -22.3803  -10.9668   19.6145 H   0  0  0  0  0  0
  -21.2007   -7.6179   23.9741 H   0  0  0  0  0  0
  -21.1472   -6.0540   25.9085 H   0  0  0  0  0  0
  -22.0602   -2.7632   23.2838 H   0  0  0  0  0  0
  -22.4150  -11.9807   22.4672 H   0  0  0  0  0  0
  -21.1164  -13.1224   22.2658 H   0  0  0  0  0  0
  -24.6491  -15.8247   20.5979 H   0  0  0  0  0  0
  -26.3140  -15.6546   20.4164 H   0  0  0  0  0  0
  -26.7143  -32.5451   23.1053 H   0  0  0  0  0  0
  -25.0244  -33.9717   25.0529 H   0  0  0  0  0  0
  -22.7081  -31.2949   21.3919 H   0  0  0  0  0  0
  -23.3790  -35.9587   23.3267 H   0  0  0  0  0  0
  -24.3594  -36.8893   22.2064 H   0  0  0  0  0  0
  -23.7202  -37.6465   23.6677 H   0  0  0  0  0  0
  -26.0708  -31.5508   20.5916 H   0  0  0  0  0  0
  -26.8356  -30.8509   21.9916 H   0  0  0  0  0  0
  -28.1312  -29.0378   21.1568 H   0  0  0  0  0  0
  -26.0591  -25.9005   19.0591 H   0  0  0  0  0  0
  -23.9957  -27.2534   19.0482 H   0  0  0  0  0  0
  -23.7462  -30.5644   19.3990 H   0  0  0  0  0  0
  -22.7554  -29.2177   19.8725 H   0  0  0  0  0  0
  -25.1289  -36.1921   25.0834 H   0  0  0  0  0  0
  -20.9948  -28.3238   24.1433 H   0  0  0  0  0  0
  -20.5686  -26.2260   23.3607 H   0  0  0  0  0  0
  -21.6638  -26.7441   22.1191 H   0  0  0  0  0  0
  -19.6927  -25.6248   21.1252 H   0  0  0  0  0  0
  -19.6771  -27.3159   20.6777 H   0  0  0  0  0  0
  -17.4223  -26.6751   21.3959 H   0  0  0  0  0  0
  -18.0274  -26.0084   22.8974 H   0  0  0  0  0  0
  -19.7953  -30.7325   24.2140 H   0  0  0  0  0  0
  -17.5045  -31.6287   24.5155 H   0  0  0  0  0  0
  -15.5352  -30.2991   23.7771 H   0  0  0  0  0  0
  -15.8659  -28.0909   22.6981 H   0  0  0  0  0  0
  -24.5988  -30.6964   25.7830 H   0  0  0  0  0  0
  -24.8842  -32.2964   26.4673 H   0  0  0  0  0  0
  -25.8067  -30.9140   27.0307 H   0  0  0  0  0  0
  -26.2948  -29.6724   24.1177 H   0  0  0  0  0  0
  -27.4121  -29.7268   25.4604 H   0  0  0  0  0  0
  -27.8763  -30.4311   23.9304 H   0  0  0  0  0  0
  -27.2661  -33.3649   26.1969 H   0  0  0  0  0  0
  -28.3910  -32.6784   25.0314 H   0  0  0  0  0  0
  -28.0668  -31.8487   26.5423 H   0  0  0  0  0  0
  -28.2573  -38.0133   24.7524 H   0  0  0  0  0  0
  -28.1097  -36.2649   24.6228 H   0  0  0  0  0  0
  -27.2321  -37.1333   25.8868 H   0  0  0  0  0  0
  -20.9317  -29.8788   21.6961 H   0  0  0  0  0  0
  -26.0174  -38.2827   24.1445 H   0  0  0  0  0  0
  -31.7268  -17.6878   20.3954 H   0  0  0  0  0  0
  -27.1339  -19.2864   21.1715 H   0  0  0  0  0  0
  -26.8898  -23.6008   21.9471 H   0  0  0  0  0  0
  -26.0746  -23.5200   20.3975 H   0  0  0  0  0  0
  -26.6277  -21.2796   20.1305 H   0  0  0  0  0  0
  -26.9191  -21.3308   21.8698 H   0  0  0  0  0  0
  -28.0343  -23.9910   19.1985 H   0  0  0  0  0  0
  -32.5835  -19.7378   20.0869 H   0  0  0  0  0  0
  -31.8570  -21.0457   20.9841 H   0  0  0  0  0  0
  -31.5526  -20.8690   19.2355 H   0  0  0  0  0  0
  -29.6363  -25.3246   21.0870 H   0  0  0  0  0  0
  -28.0867  -25.4872   21.8101 H   0  0  0  0  0  0
  -29.0279  -15.2670   21.5307 H   0  0  0  0  0  0
  1 25  1  0  0  0
  1 30  2  0  0  0
  1 84  1  0  0  0
  2  3  1  0  0  0
  2 25  1  0  0  0
  2 87  1  0  0  0
  2 88  1  0  0  0
  3  4  1  0  0  0
  3 89  1  0  0  0
  3 90  1  0  0  0
  4  5  1  0  0  0
  4 91  1  0  0  0
  4 92  1  0  0  0
  5  6  1  0  0  0
  5 26  1  0  0  0
  5 93  1  0  0  0
  6 25  1  0  0  0
  6 94  1  0  0  0
  6 95  1  0  0  0
  7  8  2  0  0  0
  7 26  1  0  0  0
  7 29  1  0  0  0
  8  9  1  0  0  0
  8 22  1  0  0  0
  9 10  1  0  0  0
  9 27  2  0  0  0
 10 11  2  0  0  0
 10 15  1  0  0  0
 11 12  1  0  0  0
 11 96  1  0  0  0
 12 13  2  0  0  0
 12 97  1  0  0  0
 13 14  1  0  0  0
 13 31  1  0  0  0
 14 15  2  0  0  0
 14 98  1  0  0  0
 15 99  1  0  0  0
 16 17  2  0  0  0
 16 21  1  0  0  0
 16 31  1  0  0  0
 17 18  1  0  0  0
 17100  1  0  0  0
 18 19  2  0  0  0
 18101  1  0  0  0
 19 20  1  0  0  0
 19 24  1  0  0  0
 20 21  2  0  0  0
 20102  1  0  0  0
 21 23  1  0  0  0
 22 28  1  0  0  0
 22 32  2  0  0  0
 26 27  1  0  0  0
 28103  1  0  0  0
 28104  1  0  0  0
 29105  1  0  0  0
 29106  1  0  0  0
 33 34  1  0  0  0
 33 66  1  0  0  0
 33 70  2  0  0  0
 34 36  1  0  0  0
 34 59  1  0  0  0
 34107  1  0  0  0
 35 44  2  0  0  0
 35 45  1  0  0  0
 35 68  1  0  0  0
 36 56  1  0  0  0
 36108  1  0  0  0
 37 39  1  0  0  0
 37 47  1  0  0  0
 37 66  1  0  0  0
 37109  1  0  0  0
 38 43  2  0  0  0
 38 46  1  0  0  0
 38 47  1  0  0  0
 39 64  1  0  0  0
 39 67  2  0  0  0
 40 52  1  0  0  0
 40 53  2  0  0  0
 40 58  1  0  0  0
 41110  1  0  0  0
 41111  1  0  0  0
 41112  1  0  0  0
 41 48  1  0  0  0
 42 43  1  0  0  0
 42 66  1  0  0  0
 42113  1  0  0  0
 42114  1  0  0  0
 43 44  1  0  0  0
 44115  1  0  0  0
 45 46  2  0  0  0
 45116  1  0  0  0
 46117  1  0  0  0
 47118  1  0  0  0
 47119  1  0  0  0
 48 56  1  0  0  0
 48 65  1  0  0  0
 48120  1  0  0  0
 49 50  1  0  0  0
 49 53  1  0  0  0
 49 64  1  0  0  0
 49121  1  0  0  0
 50 51  1  0  0  0
 50122  1  0  0  0
 50123  1  0  0  0
 51 52  1  0  0  0
 51124  1  0  0  0
 51125  1  0  0  0
 52126  1  0  0  0
 52127  1  0  0  0
 53 54  1  0  0  0
 54 55  2  0  0  0
 54128  1  0  0  0
 55 57  1  0  0  0
 55129  1  0  0  0
 56 69  2  0  0  0
 57 58  2  0  0  0
 57130  1  0  0  0
 58131  1  0  0  0
 59 60  1  0  0  0
 59 61  1  0  0  0
 59 62  1  0  0  0
 60132  1  0  0  0
 60133  1  0  0  0
 60134  1  0  0  0
 61135  1  0  0  0
 61136  1  0  0  0
 61137  1  0  0  0
 62138  1  0  0  0
 62139  1  0  0  0
 62140  1  0  0  0
 63 65  1  0  0  0
 63141  1  0  0  0
 63142  1  0  0  0
 63143  1  0  0  0
 64144  1  0  0  0
 65145  1  0  0  0
 68 82  1  0  0  0
 71 73  2  0  0  0
 71 75  1  0  0  0
 71146  1  0  0  0
 72 74  2  0  0  0
 72 76  1  0  0  0
 72147  1  0  0  0
 73 74  1  0  0  0
 73 81  1  0  0  0
 74 83  1  0  0  0
 75 76  2  0  0  0
 75 84  1  0  0  0
 76 86  1  0  0  0
 77 80  1  0  0  0
 77 83  1  0  0  0
 77 85  2  0  0  0
 78 79  1  0  0  0
 78 80  1  0  0  0
 78148  1  0  0  0
 78149  1  0  0  0
 79 83  1  0  0  0
 79150  1  0  0  0
 79151  1  0  0  0
 80 82  1  0  0  0
 80152  1  0  0  0
 81153  1  0  0  0
 81154  1  0  0  0
 81155  1  0  0  0
 82156  1  0  0  0
 82157  1  0  0  0
 84158  1  0  0  0
M  ISO  4   1 100  68 101  82 101  84 100
M  END
> <chiral flag>
0

> <version>
0

> <s_m_source_file>
/data/baiqing/PycharmProjects/Reinvent-master-3.2/result/LINK_invent/BTK/process_docking_weight1_custom_product_contain_oxygen_bond_distance_aromatic_linkinvent_7_9_3/rearranged_h_0022.sdf

> <i_m_source_file_index>
10

> <r_mmod_Potential_Energy-OPLS-2005>
192.499847412109

> <r_mmod_Stretch_Energy-OPLS-2005>
96.6661148071289

> <r_mmod_Bend_Energy-OPLS-2005>
216.070175170898

> <r_mmod_Torsional_Energy-OPLS-2005>
288.026458740234

> <r_mmod_Improper_Torsional_Energy-OPLS-2005>
4.81766414642334

> <r_mmod_Van_der_Waal_Energy-OPLS-2005>
146.27717590332

> <r_mmod_Electrostatic_Energy-OPLS-2005>
-394.705657958984

> <r_mmod_Solvation_Energy-OPLS-2005>
-208.547210693359

> <b_mmod_Minimization_Converged-OPLS-2005>
0

> <r_mmod_RMS_Derivative-OPLS-2005>
3.49943399429321

$$$$
10
                    3D
 Structure written by MMmdl.
156165  0  0  1  0            999 V2000
  -30.5245  -14.9062   20.4387 C   0  0  0  0  0  0
  -30.4552  -12.5559   19.4941 C   0  0  0  0  0  0
  -29.5289  -12.5316   18.2540 C   0  0  0  0  0  0
  -28.0574  -12.3263   18.6661 C   0  0  0  0  0  0
  -27.6401  -13.2414   19.8473 C   0  0  2  0  0  0
  -28.6853  -13.2162   20.9840 C   0  0  0  0  0  0
  -25.2482  -13.8176   20.5701 C   0  0  0  0  0  0
  -24.1785  -13.0402   20.9180 C   0  0  0  0  0  0
  -24.6402  -11.6893   20.8713 C   0  0  0  0  0  0
  -23.9084  -10.4270   21.0387 C   0  0  0  0  0  0
  -24.3628   -9.4188   21.9175 C   0  0  0  0  0  0
  -23.6294   -8.2230   22.0751 C   0  0  0  0  0  0
  -22.4276   -8.0274   21.3541 C   0  0  0  0  0  0
  -21.9913   -9.0248   20.4642 C   0  0  0  0  0  0
  -22.7252  -10.2118   20.3040 C   0  0  0  0  0  0
  -21.6853   -6.0723   22.5282 C   0  0  0  0  0  0
  -21.4014   -6.5627   23.8215 C   0  0  0  0  0  0
  -21.3662   -5.6782   24.9176 C   0  0  0  0  0  0
  -21.6054   -4.3046   24.7230 C   0  0  0  0  0  0
  -21.8819   -3.8135   23.4351 C   0  0  0  0  0  0
  -21.9187   -4.6948   22.3404 C   0  0  0  0  0  0
  -22.7807  -13.5185   21.1848 C   0  0  0  0  0  0
  -22.1663   -4.2130   21.0981 F   0  0  0  0  0  0
  -21.5625   -3.4533   25.7746 F   0  0  0  0  0  0
  -29.9723  -13.6292   20.4040 N   0  0  0  0  0  0
  -26.2940  -12.9416   20.3276 N   0  0  0  0  0  0
  -25.9349  -11.6541   20.5732 N   0  0  0  0  0  0
  -22.0457  -12.8192   22.0422 N   0  0  0  0  0  0
  -25.4083  -15.1911   20.4200 N   0  0  0  0  0  0
  -31.7121  -15.0399   20.1223 O   0  0  0  0  0  0
  -21.6637   -6.8871   21.4248 O   0  0  0  0  0  0
  -22.3485  -14.5484   20.6690 O   0  0  0  0  0  0
  -24.6420  -31.8467   23.1889 C   0  0  0  0  0  0
  -25.9201  -32.4711   23.8283 C   0  0  1  0  0  0
  -27.2252  -27.1589   20.1449 C   0  0  0  0  0  0
  -25.5952  -33.8514   24.2206 N   0  0  0  0  0  0
  -23.4443  -30.4657   21.5359 C   0  0  2  0  0  0
  -24.8942  -28.8964   20.1137 C   0  0  0  0  0  0
  -22.7566  -29.4557   22.4877 C   0  0  0  0  0  0
  -18.0302  -28.1402   22.8478 C   0  0  0  0  0  0
  -24.1494  -36.7260   23.2639 C   0  0  0  0  0  0
  -25.9996  -30.7284   21.3837 C   0  0  0  0  0  0
  -26.0727  -29.3411   20.7264 C   0  0  0  0  0  0
  -27.2395  -28.4897   20.7230 C   0  0  0  0  0  0
  -26.0168  -26.8115   19.4986 C   0  0  0  0  0  0
  -24.8787  -27.6437   19.4851 C   0  0  0  0  0  0
  -23.6690  -29.7949   20.1553 C   0  0  0  0  0  0
  -25.4126  -36.3041   24.0316 C   0  0  1  0  0  0
  -20.5919  -28.3723   23.1251 C   0  0  2  0  0  0
  -20.6796  -26.9429   22.5409 C   0  0  0  0  0  0
  -19.5765  -26.6388   21.5222 C   0  0  0  0  0  0
  -18.1944  -26.7938   22.1626 C   0  0  0  0  0  0
  -19.1561  -28.8884   23.2856 C   0  0  0  0  0  0
  -18.9472  -30.1478   23.8880 C   0  0  0  0  0  0
  -17.6469  -30.6599   24.0563 C   0  0  0  0  0  0
  -25.9075  -34.9415   23.5076 C   0  0  0  0  0  0
  -16.5358  -29.9092   23.6334 C   0  0  0  0  0  0
  -16.7286  -28.6512   23.0354 C   0  0  0  0  0  0
  -26.4518  -31.6560   25.0710 C   0  0  0  0  0  0
  -25.3700  -31.3757   26.1403 C   0  0  0  0  0  0
  -27.0366  -30.2953   24.6269 C   0  0  0  0  0  0
  -27.6061  -32.4305   25.7496 C   0  0  0  0  0  0
  -27.5583  -37.1786   24.8466 C   0  0  0  0  0  0
  -21.4258  -29.3048   22.3625 N   0  0  0  0  0  0
  -26.4295  -37.3751   23.9406 N   0  0  0  0  0  0
  -24.7156  -31.0342   22.0914 N   0  0  0  0  0  0
  -23.4212  -28.8108   23.3027 O   0  0  0  0  0  0
  -28.2954  -26.1957   20.1896 O   0  0  0  0  0  0
  -26.5664  -34.8907   22.4652 O   0  0  0  0  0  0
  -23.5548  -32.1335   23.7119 O   0  0  0  0  0  0
  -30.2742  -19.9686   20.2523 C   0  0  0  0  0  0
  -30.5500  -18.5255   20.2521 C   0  0  0  0  0  0
  -28.0535  -19.5295   20.8962 C   0  0  0  0  0  0
  -29.0008  -20.5592   20.5894 C   0  0  0  0  0  0
  -29.5769  -17.5156   20.5900 C   0  0  0  0  0  0
  -28.3167  -18.1119   20.8990 C   0  0  0  0  0  0
  -29.5485  -23.1692   22.6434 C   0  0  0  0  0  0
  -30.1504  -23.7066   21.3417 C   0  0  0  0  0  0
  -28.4173  -22.2227   22.2055 C   0  0  0  0  0  0
  -29.0895  -23.3817   20.2953 C   0  0  2  0  0  0
  -28.0053  -24.6723   20.2267 C   0  0  0  0  0  0
  -28.6015  -21.9869   20.7721 N   0  0  0  0  0  0
  -29.6524  -15.9903   20.6707 N   0  0  0  0  0  0
  -27.3022  -17.2780   21.2291 F   0  0  0  0  0  0
  -31.4890  -12.7201   19.1854 H   0  0  0  0  0  0
  -30.4478  -11.5908   20.0031 H   0  0  0  0  0  0
  -29.8403  -11.7435   17.5673 H   0  0  0  0  0  0
  -29.6291  -13.4693   17.7049 H   0  0  0  0  0  0
  -27.9401  -11.2819   18.9560 H   0  0  0  0  0  0
  -27.3999  -12.4810   17.8106 H   0  0  0  0  0  0
  -27.6166  -14.2549   19.4443 H   0  0  0  0  0  0
  -28.7579  -12.2203   21.4236 H   0  0  0  0  0  0
  -28.3904  -13.8847   21.7943 H   0  0  0  0  0  0
  -25.2768   -9.5666   22.4752 H   0  0  0  0  0  0
  -23.9993   -7.4625   22.7480 H   0  0  0  0  0  0
  -21.0830   -8.8775   19.8958 H   0  0  0  0  0  0
  -22.3714  -10.9654   19.6144 H   0  0  0  0  0  0
  -21.2014   -7.6133   23.9718 H   0  0  0  0  0  0
  -21.1487   -6.0506   25.9079 H   0  0  0  0  0  0
  -22.0594   -2.7593   23.2857 H   0  0  0  0  0  0
  -22.4064  -11.9871   22.4847 H   0  0  0  0  0  0
  -21.1076  -13.1224   22.2614 H   0  0  0  0  0  0
  -24.6438  -15.8343   20.5889 H   0  0  0  0  0  0
  -26.2803  -15.6708   20.2354 H   0  0  0  0  0  0
  -26.7264  -32.5327   23.1012 H   0  0  0  0  0  0
  -25.0049  -33.9632   25.0320 H   0  0  0  0  0  0
  -22.7464  -31.2912   21.3838 H   0  0  0  0  0  0
  -23.3762  -35.9587   23.3291 H   0  0  0  0  0  0
  -24.3576  -36.8898   22.2054 H   0  0  0  0  0  0
  -23.7241  -37.6450   23.6683 H   0  0  0  0  0  0
  -26.1536  -31.4845   20.6122 H   0  0  0  0  0  0
  -26.8705  -30.7785   22.0258 H   0  0  0  0  0  0
  -28.1398  -28.8306   21.2144 H   0  0  0  0  0  0
  -25.9143  -25.8622   18.9973 H   0  0  0  0  0  0
  -23.9805  -27.2990   18.9913 H   0  0  0  0  0  0
  -23.8018  -30.5700   19.3995 H   0  0  0  0  0  0
  -22.7843  -29.2352   19.8463 H   0  0  0  0  0  0
  -25.1315  -36.1873   25.0810 H   0  0  0  0  0  0
  -21.0010  -28.3313   24.1373 H   0  0  0  0  0  0
  -20.5719  -26.2330   23.3620 H   0  0  0  0  0  0
  -21.6657  -26.7457   22.1190 H   0  0  0  0  0  0
  -19.6926  -25.6299   21.1259 H   0  0  0  0  0  0
  -19.6701  -27.3196   20.6751 H   0  0  0  0  0  0
  -17.4215  -26.6682   21.4029 H   0  0  0  0  0  0
  -18.0337  -26.0093   22.9035 H   0  0  0  0  0  0
  -19.7945  -30.7301   24.2238 H   0  0  0  0  0  0
  -17.5019  -31.6275   24.5174 H   0  0  0  0  0  0
  -15.5358  -30.2990   23.7673 H   0  0  0  0  0  0
  -15.8684  -28.0830   22.7078 H   0  0  0  0  0  0
  -24.5878  -30.7111   25.7720 H   0  0  0  0  0  0
  -24.8886  -32.2942   26.4776 H   0  0  0  0  0  0
  -25.7972  -30.8957   27.0216 H   0  0  0  0  0  0
  -26.2974  -29.6688   24.1263 H   0  0  0  0  0  0
  -27.3968  -29.7244   25.4839 H   0  0  0  0  0  0
  -27.8895  -30.4192   23.9590 H   0  0  0  0  0  0
  -27.2670  -33.3622   26.2041 H   0  0  0  0  0  0
  -28.3895  -32.6830   25.0338 H   0  0  0  0  0  0
  -28.0702  -31.8439   26.5436 H   0  0  0  0  0  0
  -28.2593  -38.0092   24.7515 H   0  0  0  0  0  0
  -28.1083  -36.2617   24.6292 H   0  0  0  0  0  0
  -27.2295  -37.1438   25.8867 H   0  0  0  0  0  0
  -20.9476  -29.8738   21.6779 H   0  0  0  0  0  0
  -26.0161  -38.2821   24.1402 H   0  0  0  0  0  0
  -31.0926  -20.6354   20.0184 H   0  0  0  0  0  0
  -31.5490  -18.2015   19.9970 H   0  0  0  0  0  0
  -27.0557  -19.8328   21.1750 H   0  0  0  0  0  0
  -29.1556  -23.9749   23.2655 H   0  0  0  0  0  0
  -30.3084  -22.6459   23.2264 H   0  0  0  0  0  0
  -31.0695  -23.1659   21.1109 H   0  0  0  0  0  0
  -30.3995  -24.7672   21.3882 H   0  0  0  0  0  0
  -27.4426  -22.6858   22.3689 H   0  0  0  0  0  0
  -28.4303  -21.3161   22.8132 H   0  0  0  0  0  0
  -29.5695  -23.2849   19.3201 H   0  0  0  0  0  0
  -27.3272  -24.5614   21.0724 H   0  0  0  0  0  0
  -27.3984  -24.4423   19.3538 H   0  0  0  0  0  0
  -28.7488  -15.6240   20.9289 H   0  0  0  0  0  0
  1 25  1  0  0  0
  1 30  2  0  0  0
  1 83  1  0  0  0
  2  3  1  0  0  0
  2 25  1  0  0  0
  2 85  1  0  0  0
  2 86  1  0  0  0
  3  4  1  0  0  0
  3 87  1  0  0  0
  3 88  1  0  0  0
  4  5  1  0  0  0
  4 89  1  0  0  0
  4 90  1  0  0  0
  5  6  1  0  0  0
  5 26  1  0  0  0
  5 91  1  0  0  0
  6 25  1  0  0  0
  6 92  1  0  0  0
  6 93  1  0  0  0
  7  8  2  0  0  0
  7 26  1  0  0  0
  7 29  1  0  0  0
  8  9  1  0  0  0
  8 22  1  0  0  0
  9 10  1  0  0  0
  9 27  2  0  0  0
 10 11  2  0  0  0
 10 15  1  0  0  0
 11 12  1  0  0  0
 11 94  1  0  0  0
 12 13  2  0  0  0
 12 95  1  0  0  0
 13 14  1  0  0  0
 13 31  1  0  0  0
 14 15  2  0  0  0
 14 96  1  0  0  0
 15 97  1  0  0  0
 16 17  2  0  0  0
 16 21  1  0  0  0
 16 31  1  0  0  0
 17 18  1  0  0  0
 17 98  1  0  0  0
 18 19  2  0  0  0
 18 99  1  0  0  0
 19 20  1  0  0  0
 19 24  1  0  0  0
 20 21  2  0  0  0
 20100  1  0  0  0
 21 23  1  0  0  0
 22 28  1  0  0  0
 22 32  2  0  0  0
 26 27  1  0  0  0
 28101  1  0  0  0
 28102  1  0  0  0
 29103  1  0  0  0
 29104  1  0  0  0
 33 34  1  0  0  0
 33 66  1  0  0  0
 33 70  2  0  0  0
 34 36  1  0  0  0
 34 59  1  0  0  0
 34105  1  0  0  0
 35 44  2  0  0  0
 35 45  1  0  0  0
 35 68  1  0  0  0
 36 56  1  0  0  0
 36106  1  0  0  0
 37 39  1  0  0  0
 37 47  1  0  0  0
 37 66  1  0  0  0
 37107  1  0  0  0
 38 43  2  0  0  0
 38 46  1  0  0  0
 38 47  1  0  0  0
 39 64  1  0  0  0
 39 67  2  0  0  0
 40 52  1  0  0  0
 40 53  2  0  0  0
 40 58  1  0  0  0
 41108  1  0  0  0
 41109  1  0  0  0
 41110  1  0  0  0
 41 48  1  0  0  0
 42 43  1  0  0  0
 42 66  1  0  0  0
 42111  1  0  0  0
 42112  1  0  0  0
 43 44  1  0  0  0
 44113  1  0  0  0
 45 46  2  0  0  0
 45114  1  0  0  0
 46115  1  0  0  0
 47116  1  0  0  0
 47117  1  0  0  0
 48 56  1  0  0  0
 48 65  1  0  0  0
 48118  1  0  0  0
 49 50  1  0  0  0
 49 53  1  0  0  0
 49 64  1  0  0  0
 49119  1  0  0  0
 50 51  1  0  0  0
 50120  1  0  0  0
 50121  1  0  0  0
 51 52  1  0  0  0
 51122  1  0  0  0
 51123  1  0  0  0
 52124  1  0  0  0
 52125  1  0  0  0
 53 54  1  0  0  0
 54 55  2  0  0  0
 54126  1  0  0  0
 55 57  1  0  0  0
 55127  1  0  0  0
 56 69  2  0  0  0
 57 58  2  0  0  0
 57128  1  0  0  0
 58129  1  0  0  0
 59 60  1  0  0  0
 59 61  1  0  0  0
 59 62  1  0  0  0
 60130  1  0  0  0
 60131  1  0  0  0
 60132  1  0  0  0
 61133  1  0  0  0
 61134  1  0  0  0
 61135  1  0  0  0
 62136  1  0  0  0
 62137  1  0  0  0
 62138  1  0  0  0
 63 65  1  0  0  0
 63139  1  0  0  0
 63140  1  0  0  0
 63141  1  0  0  0
 64142  1  0  0  0
 65143  1  0  0  0
 68 81  1  0  0  0
 71 72  2  0  0  0
 71 74  1  0  0  0
 71144  1  0  0  0
 72 75  1  0  0  0
 72145  1  0  0  0
 73 74  2  0  0  0
 73 76  1  0  0  0
 73146  1  0  0  0
 74 82  1  0  0  0
 75 76  2  0  0  0
 75 83  1  0  0  0
 76 84  1  0  0  0
 77 78  1  0  0  0
 77 79  1  0  0  0
 77147  1  0  0  0
 77148  1  0  0  0
 78 80  1  0  0  0
 78149  1  0  0  0
 78150  1  0  0  0
 79 82  1  0  0  0
 79151  1  0  0  0
 79152  1  0  0  0
 80 81  1  0  0  0
 80 82  1  0  0  0
 80153  1  0  0  0
 81154  1  0  0  0
 81155  1  0  0  0
 83156  1  0  0  0
M  ISO  4   1 100  68 101  81 101  83 100
M  END
> <chiral flag>
0

> <version>
0

> <s_m_source_file>
/data/baiqing/PycharmProjects/Reinvent-master-3.2/result/LINK_invent/BTK/process_docking_weight1_custom_product_contain_oxygen_bond_distance_aromatic_linkinvent_7_9_3/rearranged_h_0022.sdf

> <i_m_source_file_index>
11

> <r_mmod_Potential_Energy-OPLS-2005>
509.684173583984

> <r_mmod_Stretch_Energy-OPLS-2005>
211.421813964844

> <r_mmod_Bend_Energy-OPLS-2005>
325.570037841797

> <r_mmod_Torsional_Energy-OPLS-2005>
289.885955810547

> <r_mmod_Improper_Torsional_Energy-OPLS-2005>
8.84271812438965

> <r_mmod_Van_der_Waal_Energy-OPLS-2005>
132.407669067383

> <r_mmod_Electrostatic_Energy-OPLS-2005>
-410.414001464844

> <r_mmod_Solvation_Energy-OPLS-2005>
-213.918563842773

> <b_mmod_Minimization_Converged-OPLS-2005>
0

> <r_mmod_RMS_Derivative-OPLS-2005>
1.52198851108551

$$$$
11
                    3D
 Structure written by MMmdl.
155164  0  0  1  0            999 V2000
  -30.6062  -14.6444   20.5100 C   0  0  0  0  0  0
  -30.4435  -12.3971   19.4537 C   0  0  0  0  0  0
  -29.5098  -12.5141   18.2269 C   0  0  0  0  0  0
  -28.0319  -12.3483   18.6360 C   0  0  0  0  0  0
  -27.6551  -13.2125   19.8685 C   0  0  2  0  0  0
  -28.6991  -13.0527   20.9970 C   0  0  0  0  0  0
  -25.2575  -13.8162   20.5707 C   0  0  0  0  0  0
  -24.1829  -13.0433   20.9191 C   0  0  0  0  0  0
  -24.6390  -11.6902   20.8732 C   0  0  0  0  0  0
  -23.9057  -10.4289   21.0401 C   0  0  0  0  0  0
  -24.3611   -9.4208   21.9183 C   0  0  0  0  0  0
  -23.6290   -8.2243   22.0757 C   0  0  0  0  0  0
  -22.4272   -8.0280   21.3546 C   0  0  0  0  0  0
  -21.9905   -9.0250   20.4647 C   0  0  0  0  0  0
  -22.7229  -10.2131   20.3056 C   0  0  0  0  0  0
  -21.6852   -6.0735   22.5279 C   0  0  0  0  0  0
  -21.4011   -6.5639   23.8213 C   0  0  0  0  0  0
  -21.3661   -5.6793   24.9175 C   0  0  0  0  0  0
  -21.6048   -4.3057   24.7223 C   0  0  0  0  0  0
  -21.8817   -3.8150   23.4345 C   0  0  0  0  0  0
  -21.9191   -4.6964   22.3401 C   0  0  0  0  0  0
  -22.7854  -13.5237   21.1850 C   0  0  0  0  0  0
  -22.1660   -4.2151   21.0979 F   0  0  0  0  0  0
  -21.5632   -3.4543   25.7737 F   0  0  0  0  0  0
  -30.0155  -13.4085   20.4406 N   0  0  0  0  0  0
  -26.2994  -12.9331   20.3337 N   0  0  0  0  0  0
  -25.9317  -11.6488   20.5751 N   0  0  0  0  0  0
  -22.0490  -12.8229   22.0403 N   0  0  0  0  0  0
  -25.4310  -15.1885   20.4163 N   0  0  0  0  0  0
  -31.7597  -14.8281   20.1077 O   0  0  0  0  0  0
  -21.6639   -6.8877   21.4242 O   0  0  0  0  0  0
  -22.3545  -14.5545   20.6701 O   0  0  0  0  0  0
  -24.6257  -31.8602   23.2019 C   0  0  0  0  0  0
  -25.9110  -32.4776   23.8340 C   0  0  1  0  0  0
  -27.2255  -27.3208   20.1215 C   0  0  0  0  0  0
  -25.5930  -33.8575   24.2268 N   0  0  0  0  0  0
  -23.4189  -30.4826   21.5456 C   0  0  2  0  0  0
  -24.8668  -28.9375   20.1134 C   0  0  0  0  0  0
  -22.7477  -29.4616   22.4946 C   0  0  0  0  0  0
  -18.0287  -28.1377   22.8484 C   0  0  0  0  0  0
  -24.1492  -36.7292   23.2639 C   0  0  0  0  0  0
  -25.9596  -30.7902   21.3745 C   0  0  0  0  0  0
  -26.0349  -29.4169   20.7198 C   0  0  0  0  0  0
  -27.2184  -28.6205   20.7149 C   0  0  0  0  0  0
  -26.0410  -26.9013   19.4763 C   0  0  0  0  0  0
  -24.8718  -27.6845   19.4822 C   0  0  0  0  0  0
  -23.6340  -29.8168   20.1613 C   0  0  0  0  0  0
  -25.4117  -36.3079   24.0328 C   0  0  1  0  0  0
  -20.5885  -28.3678   23.1287 C   0  0  2  0  0  0
  -20.6770  -26.9399   22.5417 C   0  0  0  0  0  0
  -19.5748  -26.6378   21.5214 C   0  0  0  0  0  0
  -18.1927  -26.7919   22.1621 C   0  0  0  0  0  0
  -19.1539  -28.8845   23.2878 C   0  0  0  0  0  0
  -18.9465  -30.1452   23.8883 C   0  0  0  0  0  0
  -17.6464  -30.6574   24.0564 C   0  0  0  0  0  0
  -25.9058  -34.9452   23.5098 C   0  0  0  0  0  0
  -16.5355  -29.9071   23.6330 C   0  0  0  0  0  0
  -16.7276  -28.6498   23.0334 C   0  0  0  0  0  0
  -26.4490  -31.6577   25.0705 C   0  0  0  0  0  0
  -25.3717  -31.3731   26.1428 C   0  0  0  0  0  0
  -27.0322  -30.2992   24.6168 C   0  0  0  0  0  0
  -27.6056  -32.4310   25.7473 C   0  0  0  0  0  0
  -27.5580  -37.1804   24.8469 C   0  0  0  0  0  0
  -21.4191  -29.3035   22.3694 N   0  0  0  0  0  0
  -26.4293  -37.3775   23.9410 N   0  0  0  0  0  0
  -24.6865  -31.0615   22.0970 N   0  0  0  0  0  0
  -23.4205  -28.8155   23.3021 O   0  0  0  0  0  0
  -28.3390  -26.4670   20.1476 O   0  0  0  0  0  0
  -26.5626  -34.8923   22.4666 O   0  0  0  0  0  0
  -23.5423  -32.1401   23.7354 O   0  0  0  0  0  0
  -30.6617  -19.3036   19.9350 C   0  0  0  0  0  0
  -30.7954  -17.8901   20.1096 C   0  0  0  0  0  0
  -28.6428  -17.8533   21.1669 C   0  0  0  0  0  0
  -29.5215  -20.0437   20.3721 C   0  0  0  0  0  0
  -29.7788  -17.1180   20.7312 C   0  0  0  0  0  0
  -28.4973  -19.2621   20.9867 C   0  0  0  0  0  0
  -29.0635  -22.5304   20.9176 C   0  0  0  0  0  0
  -29.3594  -23.5169   18.7820 C   0  0  0  0  0  0
  -29.8733  -22.0592   18.8272 C   0  0  0  0  0  0
  -29.2081  -23.9412   20.2459 C   0  0  1  0  0  0
  -28.1025  -25.0526   20.5385 C   0  0  0  0  0  0
  -29.4164  -21.4918   20.0966 N   0  0  0  0  0  0
  -29.7850  -15.6627   20.9219 N   0  0  0  0  0  0
  -28.7143  -22.4165   22.0956 O   0  0  0  0  0  0
  -26.9833  -19.9584   21.4492 Cl  0  0  0  0  0  0
  -31.4834  -12.5329   19.1515 H   0  0  0  0  0  0
  -30.3879  -11.3975   19.8875 H   0  0  0  0  0  0
  -29.7756  -11.7677   17.4774 H   0  0  0  0  0  0
  -29.6492  -13.4869   17.7528 H   0  0  0  0  0  0
  -27.8674  -11.2936   18.8602 H   0  0  0  0  0  0
  -27.3781  -12.5848   17.7957 H   0  0  0  0  0  0
  -27.6767  -14.2505   19.5358 H   0  0  0  0  0  0
  -28.7117  -12.0237   21.3591 H   0  0  0  0  0  0
  -28.4398  -13.6640   21.8627 H   0  0  0  0  0  0
  -25.2754   -9.5689   22.4756 H   0  0  0  0  0  0
  -24.0003   -7.4636   22.7477 H   0  0  0  0  0  0
  -21.0840   -8.8761   19.8951 H   0  0  0  0  0  0
  -22.3683  -10.9669   19.6168 H   0  0  0  0  0  0
  -21.1999   -7.6145   23.9715 H   0  0  0  0  0  0
  -21.1489   -6.0524   25.9077 H   0  0  0  0  0  0
  -22.0594   -2.7613   23.2844 H   0  0  0  0  0  0
  -22.4099  -11.9887   22.4785 H   0  0  0  0  0  0
  -21.1114  -13.1268   22.2611 H   0  0  0  0  0  0
  -24.6659  -15.8431   20.5371 H   0  0  0  0  0  0
  -26.2768  -15.6280   20.0776 H   0  0  0  0  0  0
  -26.7172  -32.5452   23.1082 H   0  0  0  0  0  0
  -25.0081  -33.9720   25.0415 H   0  0  0  0  0  0
  -22.7118  -31.3021   21.4022 H   0  0  0  0  0  0
  -23.3758  -35.9618   23.3285 H   0  0  0  0  0  0
  -24.3590  -36.8933   22.2058 H   0  0  0  0  0  0
  -23.7241  -37.6487   23.6672 H   0  0  0  0  0  0
  -26.0920  -31.5513   20.6041 H   0  0  0  0  0  0
  -26.8394  -30.8389   22.0041 H   0  0  0  0  0  0
  -28.1144  -28.9840   21.1984 H   0  0  0  0  0  0
  -26.0014  -25.9570   18.9541 H   0  0  0  0  0  0
  -23.9814  -27.3156   18.9922 H   0  0  0  0  0  0
  -23.7527  -30.5923   19.4038 H   0  0  0  0  0  0
  -22.7540  -29.2453   19.8606 H   0  0  0  0  0  0
  -25.1300  -36.1925   25.0820 H   0  0  0  0  0  0
  -20.9973  -28.3247   24.1409 H   0  0  0  0  0  0
  -20.5662  -26.2289   23.3620 H   0  0  0  0  0  0
  -21.6641  -26.7417   22.1220 H   0  0  0  0  0  0
  -19.6908  -25.6292   21.1237 H   0  0  0  0  0  0
  -19.6682  -27.3196   20.6752 H   0  0  0  0  0  0
  -17.4201  -26.6676   21.4015 H   0  0  0  0  0  0
  -18.0314  -26.0055   22.9010 H   0  0  0  0  0  0
  -19.7942  -30.7280   24.2231 H   0  0  0  0  0  0
  -17.5014  -31.6249   24.5176 H   0  0  0  0  0  0
  -15.5354  -30.2964   23.7662 H   0  0  0  0  0  0
  -15.8681  -28.0827   22.7018 H   0  0  0  0  0  0
  -24.5927  -30.7027   25.7774 H   0  0  0  0  0  0
  -24.8855  -32.2895   26.4783 H   0  0  0  0  0  0
  -25.8037  -30.8979   27.0242 H   0  0  0  0  0  0
  -26.2888  -29.6743   24.1202 H   0  0  0  0  0  0
  -27.4018  -29.7251   25.4676 H   0  0  0  0  0  0
  -27.8758  -30.4256   23.9377 H   0  0  0  0  0  0
  -27.2691  -33.3665   26.1951 H   0  0  0  0  0  0
  -28.3911  -32.6773   25.0315 H   0  0  0  0  0  0
  -28.0647  -31.8476   26.5462 H   0  0  0  0  0  0
  -28.2603  -38.0095   24.7512 H   0  0  0  0  0  0
  -28.1073  -36.2632   24.6298 H   0  0  0  0  0  0
  -27.2304  -37.1463   25.8873 H   0  0  0  0  0  0
  -20.9369  -29.8779   21.6923 H   0  0  0  0  0  0
  -26.0172  -38.2852   24.1400 H   0  0  0  0  0  0
  -31.4689  -19.8251   19.4416 H   0  0  0  0  0  0
  -31.6905  -17.4074   19.7442 H   0  0  0  0  0  0
  -27.8248  -17.3227   21.6326 H   0  0  0  0  0  0
  -28.3904  -23.5509   18.2814 H   0  0  0  0  0  0
  -30.0347  -24.1713   18.2302 H   0  0  0  0  0  0
  -30.9640  -22.0468   18.8015 H   0  0  0  0  0  0
  -29.5132  -21.4802   17.9758 H   0  0  0  0  0  0
  -30.1648  -24.3261   20.5998 H   0  0  0  0  0  0
  -27.9440  -25.0761   21.6174 H   0  0  0  0  0  0
  -27.1675  -24.6703   20.1361 H   0  0  0  0  0  0
  -28.9252  -15.2998   21.3040 H   0  0  0  0  0  0
  1 25  1  0  0  0
  1 30  2  0  0  0
  1 83  1  0  0  0
  2  3  1  0  0  0
  2 25  1  0  0  0
  2 86  1  0  0  0
  2 87  1  0  0  0
  3  4  1  0  0  0
  3 88  1  0  0  0
  3 89  1  0  0  0
  4  5  1  0  0  0
  4 90  1  0  0  0
  4 91  1  0  0  0
  5  6  1  0  0  0
  5 26  1  0  0  0
  5 92  1  0  0  0
  6 25  1  0  0  0
  6 93  1  0  0  0
  6 94  1  0  0  0
  7  8  2  0  0  0
  7 26  1  0  0  0
  7 29  1  0  0  0
  8  9  1  0  0  0
  8 22  1  0  0  0
  9 10  1  0  0  0
  9 27  2  0  0  0
 10 11  2  0  0  0
 10 15  1  0  0  0
 11 12  1  0  0  0
 11 95  1  0  0  0
 12 13  2  0  0  0
 12 96  1  0  0  0
 13 14  1  0  0  0
 13 31  1  0  0  0
 14 15  2  0  0  0
 14 97  1  0  0  0
 15 98  1  0  0  0
 16 17  2  0  0  0
 16 21  1  0  0  0
 16 31  1  0  0  0
 17 18  1  0  0  0
 17 99  1  0  0  0
 18 19  2  0  0  0
 18100  1  0  0  0
 19 20  1  0  0  0
 19 24  1  0  0  0
 20 21  2  0  0  0
 20101  1  0  0  0
 21 23  1  0  0  0
 22 28  1  0  0  0
 22 32  2  0  0  0
 26 27  1  0  0  0
 28102  1  0  0  0
 28103  1  0  0  0
 29104  1  0  0  0
 29105  1  0  0  0
 33 34  1  0  0  0
 33 66  1  0  0  0
 33 70  2  0  0  0
 34 36  1  0  0  0
 34 59  1  0  0  0
 34106  1  0  0  0
 35 44  2  0  0  0
 35 45  1  0  0  0
 35 68  1  0  0  0
 36 56  1  0  0  0
 36107  1  0  0  0
 37 39  1  0  0  0
 37 47  1  0  0  0
 37 66  1  0  0  0
 37108  1  0  0  0
 38 43  2  0  0  0
 38 46  1  0  0  0
 38 47  1  0  0  0
 39 64  1  0  0  0
 39 67  2  0  0  0
 40 52  1  0  0  0
 40 53  2  0  0  0
 40 58  1  0  0  0
 41109  1  0  0  0
 41110  1  0  0  0
 41111  1  0  0  0
 41 48  1  0  0  0
 42 43  1  0  0  0
 42 66  1  0  0  0
 42112  1  0  0  0
 42113  1  0  0  0
 43 44  1  0  0  0
 44114  1  0  0  0
 45 46  2  0  0  0
 45115  1  0  0  0
 46116  1  0  0  0
 47117  1  0  0  0
 47118  1  0  0  0
 48 56  1  0  0  0
 48 65  1  0  0  0
 48119  1  0  0  0
 49 50  1  0  0  0
 49 53  1  0  0  0
 49 64  1  0  0  0
 49120  1  0  0  0
 50 51  1  0  0  0
 50121  1  0  0  0
 50122  1  0  0  0
 51 52  1  0  0  0
 51123  1  0  0  0
 51124  1  0  0  0
 52125  1  0  0  0
 52126  1  0  0  0
 53 54  1  0  0  0
 54 55  2  0  0  0
 54127  1  0  0  0
 55 57  1  0  0  0
 55128  1  0  0  0
 56 69  2  0  0  0
 57 58  2  0  0  0
 57129  1  0  0  0
 58130  1  0  0  0
 59 60  1  0  0  0
 59 61  1  0  0  0
 59 62  1  0  0  0
 60131  1  0  0  0
 60132  1  0  0  0
 60133  1  0  0  0
 61134  1  0  0  0
 61135  1  0  0  0
 61136  1  0  0  0
 62137  1  0  0  0
 62138  1  0  0  0
 62139  1  0  0  0
 63 65  1  0  0  0
 63140  1  0  0  0
 63141  1  0  0  0
 63142  1  0  0  0
 64143  1  0  0  0
 65144  1  0  0  0
 68 81  1  0  0  0
 71 72  2  0  0  0
 71 74  1  0  0  0
 71145  1  0  0  0
 72 75  1  0  0  0
 72146  1  0  0  0
 73 75  2  0  0  0
 73 76  1  0  0  0
 73147  1  0  0  0
 74 76  2  0  0  0
 74 82  1  0  0  0
 75 83  1  0  0  0
 76 85  1  0  0  0
 77 80  1  0  0  0
 77 82  1  0  0  0
 77 84  2  0  0  0
 78 79  1  0  0  0
 78 80  1  0  0  0
 78148  1  0  0  0
 78149  1  0  0  0
 79 82  1  0  0  0
 79150  1  0  0  0
 79151  1  0  0  0
 80 81  1  0  0  0
 80152  1  0  0  0
 81153  1  0  0  0
 81154  1  0  0  0
 83155  1  0  0  0
M  ISO  4   1 100  68 101  81 101  83 100
M  END
> <chiral flag>
0

> <version>
0

> <s_m_source_file>
/data/baiqing/PycharmProjects/Reinvent-master-3.2/result/LINK_invent/BTK/process_docking_weight1_custom_product_contain_oxygen_bond_distance_aromatic_linkinvent_7_9_3/rearranged_h_0022.sdf

> <i_m_source_file_index>
12

> <r_mmod_Potential_Energy-OPLS-2005>
152.407684326172

> <r_mmod_Stretch_Energy-OPLS-2005>
81.080207824707

> <r_mmod_Bend_Energy-OPLS-2005>
169.738861083984

> <r_mmod_Torsional_Energy-OPLS-2005>
283.950317382812

> <r_mmod_Improper_Torsional_Energy-OPLS-2005>
4.36857461929321

> <r_mmod_Van_der_Waal_Energy-OPLS-2005>
138.762161254883

> <r_mmod_Electrostatic_Energy-OPLS-2005>
-351.517974853516

> <r_mmod_Solvation_Energy-OPLS-2005>
-222.573699951172

> <b_mmod_Minimization_Converged-OPLS-2005>
0

> <r_mmod_RMS_Derivative-OPLS-2005>
0.840681552886963

$$$$
12
                    3D
 Structure written by MMmdl.
163172  0  0  1  0            999 V2000
  -30.6543  -14.5193   20.5845 C   0  0  0  0  0  0
  -30.4445  -12.3407   19.4201 C   0  0  0  0  0  0
  -29.5062  -12.5154   18.2071 C   0  0  0  0  0  0
  -28.0260  -12.3637   18.6173 C   0  0  0  0  0  0
  -27.6647  -13.2000   19.8730 C   0  0  2  0  0  0
  -28.7054  -12.9685   20.9915 C   0  0  0  0  0  0
  -25.2590  -13.8136   20.5631 C   0  0  0  0  0  0
  -24.1843  -13.0430   20.9170 C   0  0  0  0  0  0
  -24.6387  -11.6895   20.8721 C   0  0  0  0  0  0
  -23.9049  -10.4288   21.0397 C   0  0  0  0  0  0
  -24.3597   -9.4204   21.9173 C   0  0  0  0  0  0
  -23.6274   -8.2246   22.0755 C   0  0  0  0  0  0
  -22.4254   -8.0281   21.3554 C   0  0  0  0  0  0
  -21.9878   -9.0252   20.4655 C   0  0  0  0  0  0
  -22.7213  -10.2130   20.3049 C   0  0  0  0  0  0
  -21.6853   -6.0713   22.5270 C   0  0  0  0  0  0
  -21.4020   -6.5622   23.8202 C   0  0  0  0  0  0
  -21.3658   -5.6778   24.9167 C   0  0  0  0  0  0
  -21.6038   -4.3041   24.7226 C   0  0  0  0  0  0
  -21.8824   -3.8131   23.4349 C   0  0  0  0  0  0
  -21.9198   -4.6940   22.3394 C   0  0  0  0  0  0
  -22.7871  -13.5245   21.1831 C   0  0  0  0  0  0
  -22.1666   -4.2127   21.0973 F   0  0  0  0  0  0
  -21.5623   -3.4529   25.7743 F   0  0  0  0  0  0
  -30.0356  -13.3102   20.4502 N   0  0  0  0  0  0
  -26.3027  -12.9292   20.3316 N   0  0  0  0  0  0
  -25.9310  -11.6462   20.5730 N   0  0  0  0  0  0
  -22.0491  -12.8270   22.0396 N   0  0  0  0  0  0
  -25.4297  -15.1846   20.3967 N   0  0  0  0  0  0
  -31.7724  -14.7525   20.1121 O   0  0  0  0  0  0
  -21.6637   -6.8862   21.4238 O   0  0  0  0  0  0
  -22.3566  -14.5548   20.6664 O   0  0  0  0  0  0
  -24.6173  -31.8669   23.2090 C   0  0  0  0  0  0
  -25.9056  -32.4816   23.8379 C   0  0  1  0  0  0
  -27.2355  -27.4095   20.0772 C   0  0  0  0  0  0
  -25.5903  -33.8612   24.2315 N   0  0  0  0  0  0
  -23.4059  -30.4920   21.5511 C   0  0  2  0  0  0
  -24.8502  -28.9560   20.1191 C   0  0  0  0  0  0
  -22.7423  -29.4648   22.4973 C   0  0  0  0  0  0
  -18.0274  -28.1387   22.8481 C   0  0  0  0  0  0
  -24.1488  -36.7312   23.2629 C   0  0  0  0  0  0
  -25.9392  -30.8224   21.3668 C   0  0  0  0  0  0
  -26.0160  -29.4543   20.7142 C   0  0  0  0  0  0
  -27.2083  -28.6856   20.6982 C   0  0  0  0  0  0
  -26.0304  -26.9207   19.5180 C   0  0  0  0  0  0
  -24.8517  -27.6860   19.5243 C   0  0  0  0  0  0
  -23.6159  -29.8284   20.1658 C   0  0  0  0  0  0
  -25.4099  -36.3099   24.0334 C   0  0  1  0  0  0
  -20.5868  -28.3673   23.1304 C   0  0  2  0  0  0
  -20.6769  -26.9401   22.5417 C   0  0  0  0  0  0
  -19.5749  -26.6388   21.5206 C   0  0  0  0  0  0
  -18.1924  -26.7935   22.1608 C   0  0  0  0  0  0
  -19.1524  -28.8846   23.2893 C   0  0  0  0  0  0
  -18.9451  -30.1448   23.8913 C   0  0  0  0  0  0
  -17.6456  -30.6588   24.0567 C   0  0  0  0  0  0
  -25.9035  -34.9470   23.5123 C   0  0  0  0  0  0
  -16.5347  -29.9091   23.6325 C   0  0  0  0  0  0
  -16.7264  -28.6508   23.0344 C   0  0  0  0  0  0
  -26.4475  -31.6600   25.0716 C   0  0  0  0  0  0
  -25.3751  -31.3740   26.1479 C   0  0  0  0  0  0
  -27.0273  -30.3026   24.6105 C   0  0  0  0  0  0
  -27.6067  -32.4307   25.7469 C   0  0  0  0  0  0
  -27.5593  -37.1777   24.8435 C   0  0  0  0  0  0
  -21.4144  -29.3036   22.3715 N   0  0  0  0  0  0
  -26.4272  -37.3798   23.9431 N   0  0  0  0  0  0
  -24.6727  -31.0745   22.1006 N   0  0  0  0  0  0
  -23.4184  -28.8176   23.3016 O   0  0  0  0  0  0
  -28.4000  -26.6489   20.0605 O   0  0  0  0  0  0
  -26.5600  -34.8928   22.4685 O   0  0  0  0  0  0
  -23.5356  -32.1423   23.7478 O   0  0  0  0  0  0
  -30.9184  -19.1264   21.1100 C   0  0  0  0  0  0
  -31.0356  -17.7098   21.0960 C   0  0  0  0  0  0
  -28.6234  -17.5383   21.0125 C   0  0  0  0  0  0
  -29.6536  -19.7742   21.0762 C   0  0  0  0  0  0
  -29.8802  -16.8930   21.0658 C   0  0  0  0  0  0
  -28.5028  -18.9474   20.9993 C   0  0  0  0  0  0
  -31.3211  -23.0774   18.3410 C   0  0  0  0  0  0
  -30.8323  -24.5065   18.5967 C   0  0  0  0  0  0
  -31.0977  -22.1827   19.5707 C   0  0  0  0  0  0
  -29.1166  -23.5680   20.2084 C   0  0  0  0  0  0
  -29.3376  -24.4698   18.9486 C   0  0  1  0  0  0
  -29.5283  -21.3121   21.2635 C   0  0  0  0  0  0
  -28.6779  -25.8936   18.8610 C   0  0  0  0  0  0
  -29.8908  -15.4598   21.1861 N   0  0  0  0  0  0
  -29.6842  -22.1742   20.0446 N   0  3  2  0  0  0
  -26.9155  -19.6310   20.9303 Cl  0  0  0  0  0  0
  -31.4842  -12.4746   19.1152 H   0  0  0  0  0  0
  -30.3787  -11.3258   19.8144 H   0  0  0  0  0  0
  -29.7535  -11.7869   17.4339 H   0  0  0  0  0  0
  -29.6654  -13.4984   17.7610 H   0  0  0  0  0  0
  -27.8440  -11.3070   18.8145 H   0  0  0  0  0  0
  -27.3772  -12.6337   17.7834 H   0  0  0  0  0  0
  -27.7109  -14.2486   19.5794 H   0  0  0  0  0  0
  -28.6978  -11.9234   21.3024 H   0  0  0  0  0  0
  -28.4499  -13.5323   21.8900 H   0  0  0  0  0  0
  -25.2745   -9.5674   22.4748 H   0  0  0  0  0  0
  -23.9979   -7.4630   22.7474 H   0  0  0  0  0  0
  -21.0800   -8.8773   19.8968 H   0  0  0  0  0  0
  -22.3671  -10.9663   19.6156 H   0  0  0  0  0  0
  -21.2024   -7.6130   23.9696 H   0  0  0  0  0  0
  -21.1467   -6.0511   25.9065 H   0  0  0  0  0  0
  -22.0610   -2.7593   23.2862 H   0  0  0  0  0  0
  -22.4078  -11.9940   22.4819 H   0  0  0  0  0  0
  -21.1120  -13.1338   22.2580 H   0  0  0  0  0  0
  -24.6507  -15.8298   20.4672 H   0  0  0  0  0  0
  -26.2536  -15.6049   19.9876 H   0  0  0  0  0  0
  -26.7132  -32.5523   23.1140 H   0  0  0  0  0  0
  -25.0049  -33.9773   25.0457 H   0  0  0  0  0  0
  -22.6948  -31.3095   21.4131 H   0  0  0  0  0  0
  -23.3763  -35.9626   23.3242 H   0  0  0  0  0  0
  -24.3606  -36.8978   22.2053 H   0  0  0  0  0  0
  -23.7221  -37.6491   23.6684 H   0  0  0  0  0  0
  -26.0547  -31.5867   20.5968 H   0  0  0  0  0  0
  -26.8268  -30.8764   21.9857 H   0  0  0  0  0  0
  -28.1096  -29.0698   21.1552 H   0  0  0  0  0  0
  -25.9665  -25.9317   19.0903 H   0  0  0  0  0  0
  -23.9489  -27.2851   19.0841 H   0  0  0  0  0  0
  -23.7302  -30.6043   19.4077 H   0  0  0  0  0  0
  -22.7375  -29.2535   19.8663 H   0  0  0  0  0  0
  -25.1265  -36.1944   25.0825 H   0  0  0  0  0  0
  -20.9954  -28.3252   24.1422 H   0  0  0  0  0  0
  -20.5647  -26.2276   23.3608 H   0  0  0  0  0  0
  -21.6646  -26.7439   22.1222 H   0  0  0  0  0  0
  -19.6910  -25.6302   21.1223 H   0  0  0  0  0  0
  -19.6692  -27.3199   20.6739 H   0  0  0  0  0  0
  -17.4194  -26.6678   21.4013 H   0  0  0  0  0  0
  -18.0320  -26.0076   22.9001 H   0  0  0  0  0  0
  -19.7934  -30.7253   24.2289 H   0  0  0  0  0  0
  -17.5018  -31.6269   24.5172 H   0  0  0  0  0  0
  -15.5350  -30.2998   23.7648 H   0  0  0  0  0  0
  -15.8660  -28.0832   22.7054 H   0  0  0  0  0  0
  -24.5915  -30.7078   25.7849 H   0  0  0  0  0  0
  -24.8951  -32.2910   26.4911 H   0  0  0  0  0  0
  -25.8107  -30.8937   27.0249 H   0  0  0  0  0  0
  -26.2791  -29.6812   24.1166 H   0  0  0  0  0  0
  -27.4024  -29.7242   25.4560 H   0  0  0  0  0  0
  -27.8650  -30.4312   23.9247 H   0  0  0  0  0  0
  -27.2701  -33.3600   26.2079 H   0  0  0  0  0  0
  -28.3856  -32.6879   25.0278 H   0  0  0  0  0  0
  -28.0760  -31.8414   26.5356 H   0  0  0  0  0  0
  -28.2539  -38.0146   24.7608 H   0  0  0  0  0  0
  -28.1162  -36.2694   24.6085 H   0  0  0  0  0  0
  -27.2351  -37.1225   25.8843 H   0  0  0  0  0  0
  -20.9301  -29.8766   21.6948 H   0  0  0  0  0  0
  -26.0153  -38.2848   24.1534 H   0  0  0  0  0  0
  -31.8216  -19.7161   21.1878 H   0  0  0  0  0  0
  -32.0178  -17.2631   21.1604 H   0  0  0  0  0  0
  -27.7179  -16.9488   21.0026 H   0  0  0  0  0  0
  -32.3796  -23.0873   18.0807 H   0  0  0  0  0  0
  -30.8043  -22.6555   17.4772 H   0  0  0  0  0  0
  -31.0082  -25.1043   17.7009 H   0  0  0  0  0  0
  -31.4031  -24.9733   19.4010 H   0  0  0  0  0  0
  -31.7512  -22.5155   20.3780 H   0  0  0  0  0  0
  -31.4061  -21.1689   19.3156 H   0  0  0  0  0  0
  -28.0487  -23.4978   20.4181 H   0  0  0  0  0  0
  -29.5704  -24.0473   21.0775 H   0  0  0  0  0  0
  -28.8676  -23.9297   18.1246 H   0  0  0  0  0  0
  -30.2584  -21.6217   22.0130 H   0  0  0  0  0  0
  -28.5677  -21.5317   21.7298 H   0  0  0  0  0  0
  -27.8228  -25.8036   18.1950 H   0  0  0  0  0  0
  -29.3367  -26.5419   18.2817 H   0  0  0  0  0  0
  -29.0300  -15.0672   21.5374 H   0  0  0  0  0  0
  -29.1327  -21.7349   19.3239 H   0  0  0  0  0  0
  1 25  1  0  0  0
  1 30  2  0  0  0
  1 84  1  0  0  0
  2  3  1  0  0  0
  2 25  1  0  0  0
  2 87  1  0  0  0
  2 88  1  0  0  0
  3  4  1  0  0  0
  3 89  1  0  0  0
  3 90  1  0  0  0
  4  5  1  0  0  0
  4 91  1  0  0  0
  4 92  1  0  0  0
  5  6  1  0  0  0
  5 26  1  0  0  0
  5 93  1  0  0  0
  6 25  1  0  0  0
  6 94  1  0  0  0
  6 95  1  0  0  0
  7  8  2  0  0  0
  7 26  1  0  0  0
  7 29  1  0  0  0
  8  9  1  0  0  0
  8 22  1  0  0  0
  9 10  1  0  0  0
  9 27  2  0  0  0
 10 11  2  0  0  0
 10 15  1  0  0  0
 11 12  1  0  0  0
 11 96  1  0  0  0
 12 13  2  0  0  0
 12 97  1  0  0  0
 13 14  1  0  0  0
 13 31  1  0  0  0
 14 15  2  0  0  0
 14 98  1  0  0  0
 15 99  1  0  0  0
 16 17  2  0  0  0
 16 21  1  0  0  0
 16 31  1  0  0  0
 17 18  1  0  0  0
 17100  1  0  0  0
 18 19  2  0  0  0
 18101  1  0  0  0
 19 20  1  0  0  0
 19 24  1  0  0  0
 20 21  2  0  0  0
 20102  1  0  0  0
 21 23  1  0  0  0
 22 28  1  0  0  0
 22 32  2  0  0  0
 26 27  1  0  0  0
 28103  1  0  0  0
 28104  1  0  0  0
 29105  1  0  0  0
 29106  1  0  0  0
 33 34  1  0  0  0
 33 66  1  0  0  0
 33 70  2  0  0  0
 34 36  1  0  0  0
 34 59  1  0  0  0
 34107  1  0  0  0
 35 44  2  0  0  0
 35 45  1  0  0  0
 35 68  1  0  0  0
 36 56  1  0  0  0
 36108  1  0  0  0
 37 39  1  0  0  0
 37 47  1  0  0  0
 37 66  1  0  0  0
 37109  1  0  0  0
 38 43  2  0  0  0
 38 46  1  0  0  0
 38 47  1  0  0  0
 39 64  1  0  0  0
 39 67  2  0  0  0
 40 52  1  0  0  0
 40 53  2  0  0  0
 40 58  1  0  0  0
 41110  1  0  0  0
 41111  1  0  0  0
 41112  1  0  0  0
 41 48  1  0  0  0
 42 43  1  0  0  0
 42 66  1  0  0  0
 42113  1  0  0  0
 42114  1  0  0  0
 43 44  1  0  0  0
 44115  1  0  0  0
 45 46  2  0  0  0
 45116  1  0  0  0
 46117  1  0  0  0
 47118  1  0  0  0
 47119  1  0  0  0
 48 56  1  0  0  0
 48 65  1  0  0  0
 48120  1  0  0  0
 49 50  1  0  0  0
 49 53  1  0  0  0
 49 64  1  0  0  0
 49121  1  0  0  0
 50 51  1  0  0  0
 50122  1  0  0  0
 50123  1  0  0  0
 51 52  1  0  0  0
 51124  1  0  0  0
 51125  1  0  0  0
 52126  1  0  0  0
 52127  1  0  0  0
 53 54  1  0  0  0
 54 55  2  0  0  0
 54128  1  0  0  0
 55 57  1  0  0  0
 55129  1  0  0  0
 56 69  2  0  0  0
 57 58  2  0  0  0
 57130  1  0  0  0
 58131  1  0  0  0
 59 60  1  0  0  0
 59 61  1  0  0  0
 59 62  1  0  0  0
 60132  1  0  0  0
 60133  1  0  0  0
 60134  1  0  0  0
 61135  1  0  0  0
 61136  1  0  0  0
 61137  1  0  0  0
 62138  1  0  0  0
 62139  1  0  0  0
 62140  1  0  0  0
 63 65  1  0  0  0
 63141  1  0  0  0
 63142  1  0  0  0
 63143  1  0  0  0
 64144  1  0  0  0
 65145  1  0  0  0
 68 83  1  0  0  0
 71 72  2  0  0  0
 71 74  1  0  0  0
 71146  1  0  0  0
 72 75  1  0  0  0
 72147  1  0  0  0
 73 75  2  0  0  0
 73 76  1  0  0  0
 73148  1  0  0  0
 74 76  2  0  0  0
 74 82  1  0  0  0
 75 84  1  0  0  0
 76 86  1  0  0  0
 77 78  1  0  0  0
 77 79  1  0  0  0
 77149  1  0  0  0
 77150  1  0  0  0
 78 81  1  0  0  0
 78151  1  0  0  0
 78152  1  0  0  0
 79 85  1  0  0  0
 79153  1  0  0  0
 79154  1  0  0  0
 80 81  1  0  0  0
 80 85  1  0  0  0
 80155  1  0  0  0
 80156  1  0  0  0
 81 83  1  0  0  0
 81157  1  0  0  0
 82158  1  0  0  0
 82159  1  0  0  0
 82 85  1  0  0  0
 83160  1  0  0  0
 83161  1  0  0  0
 84162  1  0  0  0
 85163  1  0  0  0
M  CHG  1  85   1
M  ISO  4   1 100  68 101  83 101  84 100
M  END
> <chiral flag>
0

> <version>
0

> <s_m_source_file>
/data/baiqing/PycharmProjects/Reinvent-master-3.2/result/LINK_invent/BTK/process_docking_weight1_custom_product_contain_oxygen_bond_distance_aromatic_linkinvent_7_9_3/rearranged_h_0022.sdf

> <i_m_source_file_index>
13

> <r_mmod_Potential_Energy-OPLS-2005>
-77.3158569335938

> <r_mmod_Stretch_Energy-OPLS-2005>
51.1510047912598

> <r_mmod_Bend_Energy-OPLS-2005>
129.684478759766

> <r_mmod_Torsional_Energy-OPLS-2005>
264.553588867188

> <r_mmod_Improper_Torsional_Energy-OPLS-2005>
5.04885005950928

> <r_mmod_Van_der_Waal_Energy-OPLS-2005>
155.940628051758

> <r_mmod_Electrostatic_Energy-OPLS-2005>
-267.069091796875

> <r_mmod_Solvation_Energy-OPLS-2005>
-434.432067871094

> <b_mmod_Minimization_Converged-OPLS-2005>
0

> <r_mmod_RMS_Derivative-OPLS-2005>
1.772292137146

$$$$
13
                    3D
 Structure written by MMmdl.
161169  0  0  1  0            999 V2000
  -30.1948  -16.0312   20.3054 C   0  0  0  0  0  0
  -30.3934  -13.4114   19.4689 C   0  0  0  0  0  0
  -29.5569  -12.7589   18.3212 C   0  0  0  0  0  0
  -28.1745  -12.3086   18.8135 C   0  0  0  0  0  0
  -27.5868  -13.3377   19.8003 C   0  0  2  0  0  0
  -28.5984  -13.8695   20.8539 C   0  0  0  0  0  0
  -25.2351  -13.8101   20.6372 C   0  0  0  0  0  0
  -24.1666  -13.0228   20.9372 C   0  0  0  0  0  0
  -24.6436  -11.6793   20.8655 C   0  0  0  0  0  0
  -23.9151  -10.4167   21.0279 C   0  0  0  0  0  0
  -24.3670   -9.4126   21.9126 C   0  0  0  0  0  0
  -23.6301   -8.2198   22.0737 C   0  0  0  0  0  0
  -22.4279   -8.0245   21.3528 C   0  0  0  0  0  0
  -21.9913   -9.0206   20.4603 C   0  0  0  0  0  0
  -22.7297  -10.2045   20.2963 C   0  0  0  0  0  0
  -21.6837   -6.0728   22.5285 C   0  0  0  0  0  0
  -21.4028   -6.5628   23.8224 C   0  0  0  0  0  0
  -21.3678   -5.6767   24.9183 C   0  0  0  0  0  0
  -21.6065   -4.3037   24.7228 C   0  0  0  0  0  0
  -21.8820   -3.8133   23.4345 C   0  0  0  0  0  0
  -21.9167   -4.6959   22.3403 C   0  0  0  0  0  0
  -22.7672  -13.5017   21.1933 C   0  0  0  0  0  0
  -22.1626   -4.2139   21.0981 F   0  0  0  0  0  0
  -21.5631   -3.4515   25.7741 F   0  0  0  0  0  0
  -29.6665  -14.6284   20.1134 N   0  0  0  0  0  0
  -26.2840  -12.9607   20.3435 N   0  0  0  0  0  0
  -25.9406  -11.6609   20.5538 N   0  0  0  0  0  0
  -22.0262  -12.8036   22.0451 N   0  0  0  0  0  0
  -25.3899  -15.1828   20.5872 N   0  0  0  0  0  0
  -31.4260  -15.8137   20.4254 O   0  0  0  0  0  0
  -21.6606   -6.8874   21.4251 O   0  0  0  0  0  0
  -22.3412  -14.5334   20.6743 O   0  0  0  0  0  0
  -24.7072  -31.7727   23.1312 C   0  0  0  0  0  0
  -25.9523  -32.4345   23.7952 C   0  0  1  0  0  0
  -27.2512  -26.4492   20.2378 C   0  0  0  0  0  0
  -25.6004  -33.8181   24.1822 N   0  0  0  0  0  0
  -23.5468  -30.3580   21.4953 C   0  0  2  0  0  0
  -25.0097  -28.6421   20.1382 C   0  0  0  0  0  0
  -22.7870  -29.4157   22.4707 C   0  0  0  0  0  0
  -18.0353  -28.1431   22.8457 C   0  0  0  0  0  0
  -24.1494  -36.7070   23.2659 C   0  0  0  0  0  0
  -26.1392  -30.4223   21.4334 C   0  0  0  0  0  0
  -26.2055  -28.9558   20.7922 C   0  0  0  0  0  0
  -27.3019  -27.8990   20.7938 C   0  0  0  0  0  0
  -26.0104  -26.4065   19.5307 C   0  0  0  0  0  0
  -24.9666  -27.3972   19.4842 C   0  0  0  0  0  0
  -23.8151  -29.6259   20.1459 C   0  0  0  0  0  0
  -25.4164  -36.2825   24.0262 C   0  0  1  0  0  0
  -20.5992  -28.3797   23.1134 C   0  0  2  0  0  0
  -20.6812  -26.9437   22.5432 C   0  0  0  0  0  0
  -19.5796  -26.6373   21.5240 C   0  0  0  0  0  0
  -18.1973  -26.7963   22.1626 C   0  0  0  0  0  0
  -19.1613  -28.8946   23.2770 C   0  0  0  0  0  0
  -18.9520  -30.1528   23.8809 C   0  0  0  0  0  0
  -17.6502  -30.6612   24.0545 C   0  0  0  0  0  0
  -25.9152  -34.9227   23.4903 C   0  0  0  0  0  0
  -16.5390  -29.9078   23.6372 C   0  0  0  0  0  0
  -16.7332  -28.6508   23.0386 C   0  0  0  0  0  0
  -26.4637  -31.6460   25.0658 C   0  0  0  0  0  0
  -25.3637  -31.3834   26.1220 C   0  0  0  0  0  0
  -27.0602  -30.2777   24.6706 C   0  0  0  0  0  0
  -27.6068  -32.4348   25.7474 C   0  0  0  0  0  0
  -27.5562  -37.1693   24.8467 C   0  0  0  0  0  0
  -21.4497  -29.2988   22.3425 N   0  0  0  0  0  0
  -26.4278  -37.3612   23.9411 N   0  0  0  0  0  0
  -24.8258  -30.8889   22.0726 N   0  0  0  0  0  0
  -23.4195  -28.7805   23.3171 O   0  0  0  0  0  0
  -28.2171  -25.1368   20.2247 O   0  0  0  0  0  0
  -26.5839  -34.8858   22.4547 O   0  0  0  0  0  0
  -23.6047  -32.0918   23.6116 O   0  0  0  0  0  0
  -31.0527  -17.6260   16.4746 C   0  0  0  0  0  0
  -29.9368  -18.0052   15.7157 C   0  0  0  0  0  0
  -30.9358  -17.4950   17.8680 C   0  0  0  0  0  0
  -28.7086  -18.2500   16.3521 C   0  0  0  0  0  0
  -29.6937  -17.6882   18.5302 C   0  0  0  0  0  0
  -28.5704  -18.0995   17.7526 C   0  0  0  0  0  0
  -26.2297  -16.2096   17.4553 C   0  0  0  0  0  0
  -26.4932  -19.4056   17.8360 C   0  0  0  0  0  0
  -26.6325  -17.0594   18.6723 C   0  0  0  0  0  0
  -29.2112  -19.3218   20.5482 C   0  0  0  0  0  0
  -28.1861  -23.2487   20.4192 C   0  0  0  0  0  0
  -28.9937  -21.3440   19.9988 C   0  0  1  0  0  0
  -29.6239  -17.5539   19.9579 N   0  0  0  0  0  0
  -27.3077  -18.2991   18.3338 N   0  0  0  0  0  0
  -30.2818  -21.6624   19.8603 F   0  0  0  0  0  0
  -31.3316  -13.7566   19.0336 H   0  0  0  0  0  0
  -30.6902  -12.6685   20.2121 H   0  0  0  0  0  0
  -30.0979  -11.9247   17.8716 H   0  0  0  0  0  0
  -29.4274  -13.4968   17.5283 H   0  0  0  0  0  0
  -28.2871  -11.3473   19.3161 H   0  0  0  0  0  0
  -27.5047  -12.1440   17.9697 H   0  0  0  0  0  0
  -27.3747  -14.1945   19.1610 H   0  0  0  0  0  0
  -28.9838  -13.0748   21.4958 H   0  0  0  0  0  0
  -28.0946  -14.5730   21.5172 H   0  0  0  0  0  0
  -25.2819   -9.5602   22.4688 H   0  0  0  0  0  0
  -23.9992   -7.4612   22.7503 H   0  0  0  0  0  0
  -21.0821   -8.8735   19.8932 H   0  0  0  0  0  0
  -22.3785  -10.9568   19.6040 H   0  0  0  0  0  0
  -21.2042   -7.6135   23.9742 H   0  0  0  0  0  0
  -21.1505   -6.0487   25.9090 H   0  0  0  0  0  0
  -22.0583   -2.7596   23.2825 H   0  0  0  0  0  0
  -22.3864  -11.9755   22.4947 H   0  0  0  0  0  0
  -21.0848  -13.1033   22.2544 H   0  0  0  0  0  0
  -24.6421  -15.7961   20.8912 H   0  0  0  0  0  0
  -26.2992  -15.6212   20.5975 H   0  0  0  0  0  0
  -26.7616  -32.4770   23.0673 H   0  0  0  0  0  0
  -25.0023  -33.9169   24.9893 H   0  0  0  0  0  0
  -22.8894  -31.2030   21.2791 H   0  0  0  0  0  0
  -23.3808  -35.9340   23.3256 H   0  0  0  0  0  0
  -24.3542  -36.8807   22.2082 H   0  0  0  0  0  0
  -23.7200  -37.6207   23.6784 H   0  0  0  0  0  0
  -26.3649  -31.1274   20.6322 H   0  0  0  0  0  0
  -26.9851  -30.5043   22.1026 H   0  0  0  0  0  0
  -28.2106  -28.1648   21.3170 H   0  0  0  0  0  0
  -25.8015  -25.4835   19.0063 H   0  0  0  0  0  0
  -24.0684  -27.1423   18.9374 H   0  0  0  0  0  0
  -24.0075  -30.3717   19.3745 H   0  0  0  0  0  0
  -22.9174  -29.0977   19.8189 H   0  0  0  0  0  0
  -25.1387  -36.1570   25.0753 H   0  0  0  0  0  0
  -21.0076  -28.3434   24.1260 H   0  0  0  0  0  0
  -20.5699  -26.2404   23.3704 H   0  0  0  0  0  0
  -21.6670  -26.7369   22.1233 H   0  0  0  0  0  0
  -19.6949  -25.6270   21.1314 H   0  0  0  0  0  0
  -19.6752  -27.3150   20.6753 H   0  0  0  0  0  0
  -17.4254  -26.6733   21.4012 H   0  0  0  0  0  0
  -18.0322  -26.0123   22.9034 H   0  0  0  0  0  0
  -19.7985  -30.7370   24.2146 H   0  0  0  0  0  0
  -17.5045  -31.6289   24.5146 H   0  0  0  0  0  0
  -15.5388  -30.2943   23.7753 H   0  0  0  0  0  0
  -15.8741  -28.0792   22.7163 H   0  0  0  0  0  0
  -24.5875  -30.7138   25.7488 H   0  0  0  0  0  0
  -24.8767  -32.3074   26.4356 H   0  0  0  0  0  0
  -25.7748  -30.9178   27.0190 H   0  0  0  0  0  0
  -26.3380  -29.6336   24.1683 H   0  0  0  0  0  0
  -27.3944  -29.7281   25.5517 H   0  0  0  0  0  0
  -27.9389  -30.3864   24.0343 H   0  0  0  0  0  0
  -27.2623  -33.3770   26.1760 H   0  0  0  0  0  0
  -28.4026  -32.6705   25.0384 H   0  0  0  0  0  0
  -28.0578  -31.8658   26.5622 H   0  0  0  0  0  0
  -28.2549  -38.0025   24.7543 H   0  0  0  0  0  0
  -28.1102  -36.2541   24.6280 H   0  0  0  0  0  0
  -27.2268  -37.1313   25.8872 H   0  0  0  0  0  0
  -20.9872  -29.8525   21.6338 H   0  0  0  0  0  0
  -26.0083  -38.2652   24.1446 H   0  0  0  0  0  0
  -32.0038  -17.4465   15.9902 H   0  0  0  0  0  0
  -30.0143  -18.1091   14.6423 H   0  0  0  0  0  0
  -31.8313  -17.2484   18.4210 H   0  0  0  0  0  0
  -27.8614  -18.5183   15.7377 H   0  0  0  0  0  0
  -25.7463  -15.2849   17.7775 H   0  0  0  0  0  0
  -27.0925  -15.9248   16.8535 H   0  0  0  0  0  0
  -25.5278  -16.7312   16.8083 H   0  0  0  0  0  0
  -27.0946  -20.3018   17.6853 H   0  0  0  0  0  0
  -25.7202  -19.6562   18.5654 H   0  0  0  0  0  0
  -26.0017  -19.1592   16.8941 H   0  0  0  0  0  0
  -27.2749  -16.4790   19.3329 H   0  0  0  0  0  0
  -25.7414  -17.3184   19.2453 H   0  0  0  0  0  0
  -28.2271  -19.1236   20.9732 H   0  0  0  0  0  0
  -29.8492  -19.3935   21.4298 H   0  0  0  0  0  0
  -28.2835  -23.2337   21.5030 H   0  0  0  0  0  0
  -27.1236  -23.0642   20.2547 H   0  0  0  0  0  0
  -28.6589  -21.2370   18.9686 H   0  0  0  0  0  0
  1 25  1  0  0  0
  1 30  2  0  0  0
  1 83  1  0  0  0
  2  3  1  0  0  0
  2 25  1  0  0  0
  2 86  1  0  0  0
  2 87  1  0  0  0
  3  4  1  0  0  0
  3 88  1  0  0  0
  3 89  1  0  0  0
  4  5  1  0  0  0
  4 90  1  0  0  0
  4 91  1  0  0  0
  5  6  1  0  0  0
  5 26  1  0  0  0
  5 92  1  0  0  0
  6 25  1  0  0  0
  6 93  1  0  0  0
  6 94  1  0  0  0
  7  8  2  0  0  0
  7 26  1  0  0  0
  7 29  1  0  0  0
  8  9  1  0  0  0
  8 22  1  0  0  0
  9 10  1  0  0  0
  9 27  2  0  0  0
 10 11  2  0  0  0
 10 15  1  0  0  0
 11 12  1  0  0  0
 11 95  1  0  0  0
 12 13  2  0  0  0
 12 96  1  0  0  0
 13 14  1  0  0  0
 13 31  1  0  0  0
 14 15  2  0  0  0
 14 97  1  0  0  0
 15 98  1  0  0  0
 16 17  2  0  0  0
 16 21  1  0  0  0
 16 31  1  0  0  0
 17 18  1  0  0  0
 17 99  1  0  0  0
 18 19  2  0  0  0
 18100  1  0  0  0
 19 20  1  0  0  0
 19 24  1  0  0  0
 20 21  2  0  0  0
 20101  1  0  0  0
 21 23  1  0  0  0
 22 28  1  0  0  0
 22 32  2  0  0  0
 26 27  1  0  0  0
 28102  1  0  0  0
 28103  1  0  0  0
 29104  1  0  0  0
 29105  1  0  0  0
 33 34  1  0  0  0
 33 66  1  0  0  0
 33 70  2  0  0  0
 34 36  1  0  0  0
 34 59  1  0  0  0
 34106  1  0  0  0
 35 44  2  0  0  0
 35 45  1  0  0  0
 35 68  1  0  0  0
 36 56  1  0  0  0
 36107  1  0  0  0
 37 39  1  0  0  0
 37 47  1  0  0  0
 37 66  1  0  0  0
 37108  1  0  0  0
 38 43  2  0  0  0
 38 46  1  0  0  0
 38 47  1  0  0  0
 39 64  1  0  0  0
 39 67  2  0  0  0
 40 52  1  0  0  0
 40 53  2  0  0  0
 40 58  1  0  0  0
 41109  1  0  0  0
 41110  1  0  0  0
 41111  1  0  0  0
 41 48  1  0  0  0
 42 43  1  0  0  0
 42 66  1  0  0  0
 42112  1  0  0  0
 42113  1  0  0  0
 43 44  1  0  0  0
 44114  1  0  0  0
 45 46  2  0  0  0
 45115  1  0  0  0
 46116  1  0  0  0
 47117  1  0  0  0
 47118  1  0  0  0
 48 56  1  0  0  0
 48 65  1  0  0  0
 48119  1  0  0  0
 49 50  1  0  0  0
 49 53  1  0  0  0
 49 64  1  0  0  0
 49120  1  0  0  0
 50 51  1  0  0  0
 50121  1  0  0  0
 50122  1  0  0  0
 51 52  1  0  0  0
 51123  1  0  0  0
 51124  1  0  0  0
 52125  1  0  0  0
 52126  1  0  0  0
 53 54  1  0  0  0
 54 55  2  0  0  0
 54127  1  0  0  0
 55 57  1  0  0  0
 55128  1  0  0  0
 56 69  2  0  0  0
 57 58  2  0  0  0
 57129  1  0  0  0
 58130  1  0  0  0
 59 60  1  0  0  0
 59 61  1  0  0  0
 59 62  1  0  0  0
 60131  1  0  0  0
 60132  1  0  0  0
 60133  1  0  0  0
 61134  1  0  0  0
 61135  1  0  0  0
 61136  1  0  0  0
 62137  1  0  0  0
 62138  1  0  0  0
 62139  1  0  0  0
 63 65  1  0  0  0
 63140  1  0  0  0
 63141  1  0  0  0
 63142  1  0  0  0
 64143  1  0  0  0
 65144  1  0  0  0
 68 81  1  0  0  0
 71 72  2  0  0  0
 71 73  1  0  0  0
 71145  1  0  0  0
 72 74  1  0  0  0
 72146  1  0  0  0
 73 75  2  0  0  0
 73147  1  0  0  0
 74 76  2  0  0  0
 74148  1  0  0  0
 75 76  1  0  0  0
 75 83  1  0  0  0
 76 84  1  0  0  0
 77 79  1  0  0  0
 77149  1  0  0  0
 77150  1  0  0  0
 77151  1  0  0  0
 78 84  1  0  0  0
 78152  1  0  0  0
 78153  1  0  0  0
 78154  1  0  0  0
 79 84  1  0  0  0
 79155  1  0  0  0
 79156  1  0  0  0
 80 82  1  0  0  0
 80 83  1  0  0  0
 80157  1  0  0  0
 80158  1  0  0  0
 81 82  1  0  0  0
 81159  1  0  0  0
 81160  1  0  0  0
 82 85  1  0  0  0
 82161  1  0  0  0
M  ISO  4   1 100  68 101  81 101  83 100
M  END
> <chiral flag>
0

> <version>
0

> <s_m_source_file>
/data/baiqing/PycharmProjects/Reinvent-master-3.2/result/LINK_invent/BTK/process_docking_weight1_custom_product_contain_oxygen_bond_distance_aromatic_linkinvent_7_9_3/rearranged_h_0022.sdf

> <i_m_source_file_index>
14

> <r_mmod_Potential_Energy-OPLS-2005>
4391.50341796875

> <r_mmod_Stretch_Energy-OPLS-2005>
1951.64050292969

> <r_mmod_Bend_Energy-OPLS-2005>
890.69287109375

> <r_mmod_Torsional_Energy-OPLS-2005>
351.749725341797

> <r_mmod_Improper_Torsional_Energy-OPLS-2005>
22.7591743469238

> <r_mmod_Van_der_Waal_Energy-OPLS-2005>
134.403564453125

> <r_mmod_Electrostatic_Energy-OPLS-2005>
-322.891418457031

> <r_mmod_Solvation_Energy-OPLS-2005>
-197.640548706055

> <b_mmod_Minimization_Converged-OPLS-2005>
0

> <r_mmod_RMS_Derivative-OPLS-2005>
4.18508434295654

$$$$
14
                    3D
 Structure written by MMmdl.
156165  0  0  1  0            999 V2000
  -30.5704  -14.8992   20.5407 C   0  0  0  0  0  0
  -30.4435  -12.5759   19.4995 C   0  0  0  0  0  0
  -29.5224  -12.5540   18.2561 C   0  0  0  0  0  0
  -28.0533  -12.3360   18.6621 C   0  0  0  0  0  0
  -27.6376  -13.2421   19.8468 C   0  0  2  0  0  0
  -28.6734  -13.1986   20.9846 C   0  0  0  0  0  0
  -25.2472  -13.8207   20.5644 C   0  0  0  0  0  0
  -24.1785  -13.0440   20.9181 C   0  0  0  0  0  0
  -24.6403  -11.6925   20.8737 C   0  0  0  0  0  0
  -23.9086  -10.4299   21.0406 C   0  0  0  0  0  0
  -24.3632   -9.4214   21.9187 C   0  0  0  0  0  0
  -23.6302   -8.2250   22.0758 C   0  0  0  0  0  0
  -22.4284   -8.0289   21.3549 C   0  0  0  0  0  0
  -21.9923   -9.0263   20.4650 C   0  0  0  0  0  0
  -22.7256  -10.2139   20.3059 C   0  0  0  0  0  0
  -21.6857   -6.0741   22.5281 C   0  0  0  0  0  0
  -21.4017   -6.5647   23.8214 C   0  0  0  0  0  0
  -21.3657   -5.6798   24.9175 C   0  0  0  0  0  0
  -21.6041   -4.3059   24.7225 C   0  0  0  0  0  0
  -21.8818   -3.8153   23.4346 C   0  0  0  0  0  0
  -21.9193   -4.6970   22.3403 C   0  0  0  0  0  0
  -22.7809  -13.5212   21.1864 C   0  0  0  0  0  0
  -22.1661   -4.2156   21.0981 F   0  0  0  0  0  0
  -21.5624   -3.4543   25.7735 F   0  0  0  0  0  0
  -29.9664  -13.6393   20.4350 N   0  0  0  0  0  0
  -26.2914  -12.9432   20.3244 N   0  0  0  0  0  0
  -25.9334  -11.6565   20.5729 N   0  0  0  0  0  0
  -22.0475  -12.8194   22.0432 N   0  0  0  0  0  0
  -25.4122  -15.1920   20.4005 N   0  0  0  0  0  0
  -31.6866  -15.0291   20.0233 O   0  0  0  0  0  0
  -21.6645   -6.8886   21.4243 O   0  0  0  0  0  0
  -22.3471  -14.5512   20.6719 O   0  0  0  0  0  0
  -24.6422  -31.8446   23.1886 C   0  0  0  0  0  0
  -25.9199  -32.4699   23.8271 C   0  0  1  0  0  0
  -27.2187  -27.1458   20.1554 C   0  0  0  0  0  0
  -25.5952  -33.8504   24.2190 N   0  0  0  0  0  0
  -23.4454  -30.4641   21.5339 C   0  0  2  0  0  0
  -24.8954  -28.8899   20.1132 C   0  0  0  0  0  0
  -22.7560  -29.4552   22.4862 C   0  0  0  0  0  0
  -18.0302  -28.1401   22.8481 C   0  0  0  0  0  0
  -24.1489  -36.7257   23.2643 C   0  0  0  0  0  0
  -26.0005  -30.7222   21.3860 C   0  0  0  0  0  0
  -26.0724  -29.3326   20.7309 C   0  0  0  0  0  0
  -27.2370  -28.4777   20.7324 C   0  0  0  0  0  0
  -26.0188  -26.8043   19.4950 C   0  0  0  0  0  0
  -24.8807  -27.6384   19.4795 C   0  0  0  0  0  0
  -23.6719  -29.7920   20.1537 C   0  0  0  0  0  0
  -25.4120  -36.3035   24.0318 C   0  0  1  0  0  0
  -20.5914  -28.3725   23.1241 C   0  0  2  0  0  0
  -20.6790  -26.9430   22.5407 C   0  0  0  0  0  0
  -19.5761  -26.6386   21.5218 C   0  0  0  0  0  0
  -18.1942  -26.7941   22.1625 C   0  0  0  0  0  0
  -19.1559  -28.8881   23.2854 C   0  0  0  0  0  0
  -18.9474  -30.1478   23.8876 C   0  0  0  0  0  0
  -17.6471  -30.6596   24.0565 C   0  0  0  0  0  0
  -25.9070  -34.9411   23.5064 C   0  0  0  0  0  0
  -16.5362  -29.9092   23.6340 C   0  0  0  0  0  0
  -16.7286  -28.6512   23.0356 C   0  0  0  0  0  0
  -26.4521  -31.6562   25.0708 C   0  0  0  0  0  0
  -25.3706  -31.3760   26.1403 C   0  0  0  0  0  0
  -27.0395  -30.2960   24.6299 C   0  0  0  0  0  0
  -27.6049  -32.4329   25.7497 C   0  0  0  0  0  0
  -27.5573  -37.1785   24.8464 C   0  0  0  0  0  0
  -21.4252  -29.3051   22.3612 N   0  0  0  0  0  0
  -26.4281  -37.3748   23.9413 N   0  0  0  0  0  0
  -24.7157  -31.0314   22.0912 N   0  0  0  0  0  0
  -23.4209  -28.8099   23.3009 O   0  0  0  0  0  0
  -28.2811  -26.1735   20.1784 O   0  0  0  0  0  0
  -26.5655  -34.8910   22.4642 O   0  0  0  0  0  0
  -23.5544  -32.1311   23.7116 O   0  0  0  0  0  0
  -29.8009  -18.2367   19.7948 C   0  0  0  0  0  0
  -29.5080  -19.6744   19.6672 C   0  0  0  0  0  0
  -29.0313  -19.7641   21.9568 C   0  0  0  0  0  0
  -29.3379  -18.3595   22.1015 C   0  0  0  0  0  0
  -29.7310  -17.4768   21.0246 C   0  0  0  0  0  0
  -29.0809  -20.5242   20.7536 C   0  0  0  0  0  0
  -29.2346  -17.8438   23.5263 C   0  0  0  0  0  0
  -30.0987  -15.6229   22.7235 C   0  0  0  0  0  0
  -29.0851  -16.3345   23.6239 C   0  0  2  0  0  0
  -28.8943  -23.2972   20.0848 C   0  0  0  0  0  0
  -28.0166  -24.6767   20.5122 C   0  0  0  0  0  0
  -29.9850  -15.9642   21.2858 N   0  0  0  0  0  0
  -28.6353  -21.9454   20.8104 N   0  0  0  0  0  0
  -27.4111  -15.8697   23.2148 Cl  0  0  0  0  0  0
  -31.4775  -12.7353   19.1900 H   0  0  0  0  0  0
  -30.4385  -11.6041   19.9962 H   0  0  0  0  0  0
  -29.8387  -11.7736   17.5628 H   0  0  0  0  0  0
  -29.6160  -13.4985   17.7182 H   0  0  0  0  0  0
  -27.9387  -11.2884   18.9429 H   0  0  0  0  0  0
  -27.3934  -12.4974   17.8092 H   0  0  0  0  0  0
  -27.6237  -14.2617   19.4608 H   0  0  0  0  0  0
  -28.7494  -12.1961   21.4081 H   0  0  0  0  0  0
  -28.3330  -13.8343   21.7931 H   0  0  0  0  0  0
  -25.2778   -9.5688   22.4762 H   0  0  0  0  0  0
  -24.0010   -7.4642   22.7479 H   0  0  0  0  0  0
  -21.0855   -8.8788   19.8953 H   0  0  0  0  0  0
  -22.3721  -10.9680   19.6168 H   0  0  0  0  0  0
  -21.2014   -7.6155   23.9720 H   0  0  0  0  0  0
  -21.1475   -6.0527   25.9078 H   0  0  0  0  0  0
  -22.0596   -2.7615   23.2845 H   0  0  0  0  0  0
  -22.4112  -11.9859   22.4808 H   0  0  0  0  0  0
  -21.1097  -13.1210   22.2662 H   0  0  0  0  0  0
  -24.6625  -15.8523   20.5712 H   0  0  0  0  0  0
  -26.2955  -15.6397   20.1933 H   0  0  0  0  0  0
  -26.7263  -32.5311   23.0999 H   0  0  0  0  0  0
  -25.0081  -33.9619   25.0326 H   0  0  0  0  0  0
  -22.7477  -31.2896   21.3794 H   0  0  0  0  0  0
  -23.3755  -35.9585   23.3289 H   0  0  0  0  0  0
  -24.3573  -36.8904   22.2059 H   0  0  0  0  0  0
  -23.7239  -37.6449   23.6687 H   0  0  0  0  0  0
  -26.1543  -31.4760   20.6123 H   0  0  0  0  0  0
  -26.8717  -30.7734   22.0276 H   0  0  0  0  0  0
  -28.1362  -28.8162   21.2272 H   0  0  0  0  0  0
  -25.9419  -25.8552   18.9855 H   0  0  0  0  0  0
  -23.9853  -27.2974   18.9778 H   0  0  0  0  0  0
  -23.8100  -30.5660   19.3981 H   0  0  0  0  0  0
  -22.7875  -29.2342   19.8411 H   0  0  0  0  0  0
  -25.1308  -36.1858   25.0811 H   0  0  0  0  0  0
  -21.0005  -28.3313   24.1363 H   0  0  0  0  0  0
  -20.5696  -26.2336   23.3624 H   0  0  0  0  0  0
  -21.6654  -26.7447   22.1197 H   0  0  0  0  0  0
  -19.6924  -25.6292   21.1260 H   0  0  0  0  0  0
  -19.6700  -27.3188   20.6742 H   0  0  0  0  0  0
  -17.4214  -26.6689   21.4025 H   0  0  0  0  0  0
  -18.0334  -26.0093   22.9027 H   0  0  0  0  0  0
  -19.7950  -30.7307   24.2228 H   0  0  0  0  0  0
  -17.5024  -31.6273   24.5173 H   0  0  0  0  0  0
  -15.5363  -30.2988   23.7679 H   0  0  0  0  0  0
  -15.8685  -28.0829   22.7077 H   0  0  0  0  0  0
  -24.5894  -30.7098   25.7724 H   0  0  0  0  0  0
  -24.8885  -32.2949   26.4750 H   0  0  0  0  0  0
  -25.7982  -30.8983   27.0227 H   0  0  0  0  0  0
  -26.3021  -29.6674   24.1296 H   0  0  0  0  0  0
  -27.3993  -29.7269   25.4882 H   0  0  0  0  0  0
  -27.8932  -30.4192   23.9632 H   0  0  0  0  0  0
  -27.2638  -33.3655   26.2004 H   0  0  0  0  0  0
  -28.3896  -32.6846   25.0349 H   0  0  0  0  0  0
  -28.0676  -31.8498   26.5470 H   0  0  0  0  0  0
  -28.2578  -38.0093   24.7517 H   0  0  0  0  0  0
  -28.1079  -36.2622   24.6276 H   0  0  0  0  0  0
  -27.2293  -37.1412   25.8867 H   0  0  0  0  0  0
  -20.9455  -29.8762   21.6794 H   0  0  0  0  0  0
  -26.0145  -38.2817   24.1418 H   0  0  0  0  0  0
  -30.0878  -17.7087   18.8969 H   0  0  0  0  0  0
  -29.5856  -20.1126   18.6826 H   0  0  0  0  0  0
  -28.7340  -20.2902   22.8530 H   0  0  0  0  0  0
  -28.4092  -18.3259   24.0514 H   0  0  0  0  0  0
  -30.1444  -18.1455   24.0465 H   0  0  0  0  0  0
  -30.0467  -14.5543   22.9394 H   0  0  0  0  0  0
  -31.1015  -15.9137   23.0429 H   0  0  0  0  0  0
  -29.2363  -16.0307   24.6610 H   0  0  0  0  0  0
  -29.9521  -23.5237   20.2240 H   0  0  0  0  0  0
  -28.7746  -23.1333   19.0132 H   0  0  0  0  0  0
  -28.0059  -24.6771   21.6024 H   0  0  0  0  0  0
  -26.9853  -24.4487   20.2501 H   0  0  0  0  0  0
  -28.1656  -22.1338   21.6932 H   0  0  0  0  0  0
  1 25  1  0  0  0
  1 30  2  0  0  0
  1 82  1  0  0  0
  2  3  1  0  0  0
  2 25  1  0  0  0
  2 85  1  0  0  0
  2 86  1  0  0  0
  3  4  1  0  0  0
  3 87  1  0  0  0
  3 88  1  0  0  0
  4  5  1  0  0  0
  4 89  1  0  0  0
  4 90  1  0  0  0
  5  6  1  0  0  0
  5 26  1  0  0  0
  5 91  1  0  0  0
  6 25  1  0  0  0
  6 92  1  0  0  0
  6 93  1  0  0  0
  7  8  2  0  0  0
  7 26  1  0  0  0
  7 29  1  0  0  0
  8  9  1  0  0  0
  8 22  1  0  0  0
  9 10  1  0  0  0
  9 27  2  0  0  0
 10 11  2  0  0  0
 10 15  1  0  0  0
 11 12  1  0  0  0
 11 94  1  0  0  0
 12 13  2  0  0  0
 12 95  1  0  0  0
 13 14  1  0  0  0
 13 31  1  0  0  0
 14 15  2  0  0  0
 14 96  1  0  0  0
 15 97  1  0  0  0
 16 17  2  0  0  0
 16 21  1  0  0  0
 16 31  1  0  0  0
 17 18  1  0  0  0
 17 98  1  0  0  0
 18 19  2  0  0  0
 18 99  1  0  0  0
 19 20  1  0  0  0
 19 24  1  0  0  0
 20 21  2  0  0  0
 20100  1  0  0  0
 21 23  1  0  0  0
 22 28  1  0  0  0
 22 32  2  0  0  0
 26 27  1  0  0  0
 28101  1  0  0  0
 28102  1  0  0  0
 29103  1  0  0  0
 29104  1  0  0  0
 33 34  1  0  0  0
 33 66  1  0  0  0
 33 70  2  0  0  0
 34 36  1  0  0  0
 34 59  1  0  0  0
 34105  1  0  0  0
 35 44  2  0  0  0
 35 45  1  0  0  0
 35 68  1  0  0  0
 36 56  1  0  0  0
 36106  1  0  0  0
 37 39  1  0  0  0
 37 47  1  0  0  0
 37 66  1  0  0  0
 37107  1  0  0  0
 38 43  2  0  0  0
 38 46  1  0  0  0
 38 47  1  0  0  0
 39 64  1  0  0  0
 39 67  2  0  0  0
 40 52  1  0  0  0
 40 53  2  0  0  0
 40 58  1  0  0  0
 41108  1  0  0  0
 41109  1  0  0  0
 41110  1  0  0  0
 41 48  1  0  0  0
 42 43  1  0  0  0
 42 66  1  0  0  0
 42111  1  0  0  0
 42112  1  0  0  0
 43 44  1  0  0  0
 44113  1  0  0  0
 45 46  2  0  0  0
 45114  1  0  0  0
 46115  1  0  0  0
 47116  1  0  0  0
 47117  1  0  0  0
 48 56  1  0  0  0
 48 65  1  0  0  0
 48118  1  0  0  0
 49 50  1  0  0  0
 49 53  1  0  0  0
 49 64  1  0  0  0
 49119  1  0  0  0
 50 51  1  0  0  0
 50120  1  0  0  0
 50121  1  0  0  0
 51 52  1  0  0  0
 51122  1  0  0  0
 51123  1  0  0  0
 52124  1  0  0  0
 52125  1  0  0  0
 53 54  1  0  0  0
 54 55  2  0  0  0
 54126  1  0  0  0
 55 57  1  0  0  0
 55127  1  0  0  0
 56 69  2  0  0  0
 57 58  2  0  0  0
 57128  1  0  0  0
 58129  1  0  0  0
 59 60  1  0  0  0
 59 61  1  0  0  0
 59 62  1  0  0  0
 60130  1  0  0  0
 60131  1  0  0  0
 60132  1  0  0  0
 61133  1  0  0  0
 61134  1  0  0  0
 61135  1  0  0  0
 62136  1  0  0  0
 62137  1  0  0  0
 62138  1  0  0  0
 63 65  1  0  0  0
 63139  1  0  0  0
 63140  1  0  0  0
 63141  1  0  0  0
 64142  1  0  0  0
 65143  1  0  0  0
 68 81  1  0  0  0
 71 72  2  0  0  0
 71 75  1  0  0  0
 71144  1  0  0  0
 72 76  1  0  0  0
 72145  1  0  0  0
 73 74  1  0  0  0
 73 76  2  0  0  0
 73146  1  0  0  0
 74 75  2  0  0  0
 74 77  1  0  0  0
 75 82  1  0  0  0
 76 83  1  0  0  0
 77 79  1  0  0  0
 77147  1  0  0  0
 77148  1  0  0  0
 78 79  1  0  0  0
 78 82  1  0  0  0
 78149  1  0  0  0
 78150  1  0  0  0
 79 84  1  0  0  0
 79151  1  0  0  0
 80 81  1  0  0  0
 80 83  1  0  0  0
 80152  1  0  0  0
 80153  1  0  0  0
 81154  1  0  0  0
 81155  1  0  0  0
 83156  1  0  0  0
M  ISO  4   1 100  68 101  81 101  82 100
M  END
> <chiral flag>
0

> <version>
0

> <s_m_source_file>
/data/baiqing/PycharmProjects/Reinvent-master-3.2/result/LINK_invent/BTK/process_docking_weight1_custom_product_contain_oxygen_bond_distance_aromatic_linkinvent_7_9_3/rearranged_h_0022.sdf

> <i_m_source_file_index>
15

> <r_mmod_Potential_Energy-OPLS-2005>
626.297607421875

> <r_mmod_Stretch_Energy-OPLS-2005>
239.08381652832

> <r_mmod_Bend_Energy-OPLS-2005>
313.833038330078

> <r_mmod_Torsional_Energy-OPLS-2005>
293.890655517578

> <r_mmod_Improper_Torsional_Energy-OPLS-2005>
4.41985464096069

> <r_mmod_Van_der_Waal_Energy-OPLS-2005>
139.69108581543

> <r_mmod_Electrostatic_Energy-OPLS-2005>
-320.740142822266

> <r_mmod_Solvation_Energy-OPLS-2005>
-208.936370849609

> <b_mmod_Minimization_Converged-OPLS-2005>
0

> <r_mmod_RMS_Derivative-OPLS-2005>
0.708145976066589

$$$$
15
                    3D
 Structure written by MMmdl.
162171  0  0  1  0            999 V2000
  -30.6879  -14.4933   20.5112 C   0  0  0  0  0  0
  -30.4241  -12.2972   19.4335 C   0  0  0  0  0  0
  -29.4980  -12.4726   18.2115 C   0  0  0  0  0  0
  -28.0171  -12.3475   18.6235 C   0  0  0  0  0  0
  -27.6582  -13.2031   19.8688 C   0  0  2  0  0  0
  -28.7032  -13.0174   20.9933 C   0  0  0  0  0  0
  -25.2598  -13.8154   20.5700 C   0  0  0  0  0  0
  -24.1837  -13.0441   20.9174 C   0  0  0  0  0  0
  -24.6379  -11.6904   20.8733 C   0  0  0  0  0  0
  -23.9043  -10.4292   21.0398 C   0  0  0  0  0  0
  -24.3601   -9.4211   21.9176 C   0  0  0  0  0  0
  -23.6282   -8.2246   22.0749 C   0  0  0  0  0  0
  -22.4265   -8.0282   21.3540 C   0  0  0  0  0  0
  -21.9899   -9.0251   20.4637 C   0  0  0  0  0  0
  -22.7221  -10.2132   20.3044 C   0  0  0  0  0  0
  -21.6850   -6.0734   22.5276 C   0  0  0  0  0  0
  -21.4012   -6.5635   23.8211 C   0  0  0  0  0  0
  -21.3659   -5.6788   24.9172 C   0  0  0  0  0  0
  -21.6044   -4.3051   24.7219 C   0  0  0  0  0  0
  -21.8823   -3.8146   23.4338 C   0  0  0  0  0  0
  -21.9190   -4.6963   22.3396 C   0  0  0  0  0  0
  -22.7863  -13.5243   21.1845 C   0  0  0  0  0  0
  -22.1660   -4.2151   21.0972 F   0  0  0  0  0  0
  -21.5630   -3.4533   25.7732 F   0  0  0  0  0  0
  -30.0290  -13.3057   20.4265 N   0  0  0  0  0  0
  -26.3015  -12.9308   20.3363 N   0  0  0  0  0  0
  -25.9305  -11.6476   20.5772 N   0  0  0  0  0  0
  -22.0500  -12.8223   22.0387 N   0  0  0  0  0  0
  -25.4373  -15.1875   20.4154 N   0  0  0  0  0  0
  -31.8651  -14.6272   20.1620 O   0  0  0  0  0  0
  -21.6633   -6.8879   21.4238 O   0  0  0  0  0  0
  -22.3553  -14.5559   20.6707 O   0  0  0  0  0  0
  -24.6164  -31.8682   23.2105 C   0  0  0  0  0  0
  -25.9059  -32.4819   23.8397 C   0  0  1  0  0  0
  -27.2261  -27.4209   20.0955 C   0  0  0  0  0  0
  -25.5921  -33.8617   24.2329 N   0  0  0  0  0  0
  -23.4038  -30.4938   21.5521 C   0  0  2  0  0  0
  -24.8477  -28.9644   20.1110 C   0  0  0  0  0  0
  -22.7418  -29.4663   22.4990 C   0  0  0  0  0  0
  -18.0274  -28.1379   22.8483 C   0  0  0  0  0  0
  -24.1485  -36.7302   23.2624 C   0  0  0  0  0  0
  -25.9348  -30.8310   21.3641 C   0  0  0  0  0  0
  -26.0111  -29.4670   20.7070 C   0  0  0  0  0  0
  -27.2046  -28.7050   20.6918 C   0  0  0  0  0  0
  -26.0426  -26.9468   19.4818 C   0  0  0  0  0  0
  -24.8598  -27.7048   19.4931 C   0  0  0  0  0  0
  -23.6103  -29.8305   20.1650 C   0  0  0  0  0  0
  -25.4096  -36.3104   24.0342 C   0  0  1  0  0  0
  -20.5865  -28.3668   23.1313 C   0  0  2  0  0  0
  -20.6761  -26.9402   22.5418 C   0  0  0  0  0  0
  -19.5749  -26.6386   21.5202 C   0  0  0  0  0  0
  -18.1921  -26.7931   22.1603 C   0  0  0  0  0  0
  -19.1522  -28.8840   23.2895 C   0  0  0  0  0  0
  -18.9449  -30.1446   23.8905 C   0  0  0  0  0  0
  -17.6452  -30.6585   24.0564 C   0  0  0  0  0  0
  -25.9044  -34.9478   23.5132 C   0  0  0  0  0  0
  -16.5343  -29.9086   23.6325 C   0  0  0  0  0  0
  -16.7264  -28.6503   23.0343 C   0  0  0  0  0  0
  -26.4478  -31.6596   25.0726 C   0  0  0  0  0  0
  -25.3745  -31.3709   26.1478 C   0  0  0  0  0  0
  -27.0290  -30.3034   24.6099 C   0  0  0  0  0  0
  -27.6074  -32.4297   25.7475 C   0  0  0  0  0  0
  -27.5612  -37.1759   24.8426 C   0  0  0  0  0  0
  -21.4145  -29.3039   22.3726 N   0  0  0  0  0  0
  -26.4260  -37.3819   23.9469 N   0  0  0  0  0  0
  -24.6703  -31.0781   22.1008 N   0  0  0  0  0  0
  -23.4189  -28.8196   23.3028 O   0  0  0  0  0  0
  -28.3800  -26.6552   20.1378 O   0  0  0  0  0  0
  -26.5602  -34.8935   22.4691 O   0  0  0  0  0  0
  -23.5355  -32.1439   23.7497 O   0  0  0  0  0  0
  -28.5308  -18.6545   21.3911 C   0  0  0  0  0  0
  -28.6192  -20.0598   21.2633 C   0  0  0  0  0  0
  -30.9314  -18.5265   21.7312 C   0  0  0  0  0  0
  -29.6847  -17.8724   21.6249 C   0  0  0  0  0  0
  -29.8681  -20.7174   21.3755 C   0  0  0  0  0  0
  -31.0206  -19.9309   21.6122 C   0  0  0  0  0  0
  -28.7833  -23.0301   19.2893 C   0  0  0  0  0  0
  -28.3620  -24.4673   18.9131 C   0  0  0  0  0  0
  -29.2172  -24.5102   21.1497 C   0  0  0  0  0  0
  -28.9746  -23.0254   20.8156 C   0  0  2  0  0  0
  -28.2047  -25.2244   20.2420 C   0  0  1  0  0  0
  -29.7593  -16.3263   19.2490 C   0  0  0  0  0  0
  -29.5858  -16.3418   21.7409 C   0  0  0  0  0  0
  -30.0277  -22.1174   21.2777 N   0  0  0  0  0  0
  -29.8742  -15.5778   20.5090 N   0  0  0  0  0  0
  -32.2294  -20.5349   21.7251 F   0  0  0  0  0  0
  -31.4693  -12.3915   19.1334 H   0  0  0  0  0  0
  -30.3224  -11.2962   19.8558 H   0  0  0  0  0  0
  -29.7365  -11.7283   17.4509 H   0  0  0  0  0  0
  -29.6721  -13.4434   17.7472 H   0  0  0  0  0  0
  -27.8231  -11.2948   18.8318 H   0  0  0  0  0  0
  -27.3704  -12.6136   17.7867 H   0  0  0  0  0  0
  -27.6871  -14.2438   19.5482 H   0  0  0  0  0  0
  -28.6784  -11.9960   21.3759 H   0  0  0  0  0  0
  -28.4809  -13.6637   21.8430 H   0  0  0  0  0  0
  -25.2750   -9.5693   22.4744 H   0  0  0  0  0  0
  -23.9994   -7.4639   22.7466 H   0  0  0  0  0  0
  -21.0834   -8.8761   19.8939 H   0  0  0  0  0  0
  -22.3678  -10.9665   19.6149 H   0  0  0  0  0  0
  -21.2006   -7.6149   23.9714 H   0  0  0  0  0  0
  -21.1478   -6.0517   25.9073 H   0  0  0  0  0  0
  -22.0602   -2.7609   23.2833 H   0  0  0  0  0  0
  -22.4101  -11.9853   22.4734 H   0  0  0  0  0  0
  -21.1127  -13.1256   22.2612 H   0  0  0  0  0  0
  -24.6813  -15.8527   20.5365 H   0  0  0  0  0  0
  -26.3050  -15.6209   20.1268 H   0  0  0  0  0  0
  -26.7130  -32.5528   23.1161 H   0  0  0  0  0  0
  -25.0095  -33.9777   25.0488 H   0  0  0  0  0  0
  -22.6927  -31.3112   21.4156 H   0  0  0  0  0  0
  -23.3803  -35.9567   23.3146 H   0  0  0  0  0  0
  -24.3626  -36.9059   22.2070 H   0  0  0  0  0  0
  -23.7140  -37.6424   23.6721 H   0  0  0  0  0  0
  -26.0484  -31.5976   20.5965 H   0  0  0  0  0  0
  -26.8228  -30.8825   21.9823 H   0  0  0  0  0  0
  -28.1014  -29.0874   21.1599 H   0  0  0  0  0  0
  -26.0089  -25.9867   18.9917 H   0  0  0  0  0  0
  -23.9673  -27.3140   19.0238 H   0  0  0  0  0  0
  -23.7168  -30.6077   19.4073 H   0  0  0  0  0  0
  -22.7329  -29.2518   19.8695 H   0  0  0  0  0  0
  -25.1242  -36.1948   25.0823 H   0  0  0  0  0  0
  -20.9950  -28.3232   24.1437 H   0  0  0  0  0  0
  -20.5653  -26.2274   23.3603 H   0  0  0  0  0  0
  -21.6634  -26.7441   22.1219 H   0  0  0  0  0  0
  -19.6913  -25.6299   21.1227 H   0  0  0  0  0  0
  -19.6699  -27.3195   20.6733 H   0  0  0  0  0  0
  -17.4199  -26.6694   21.3994 H   0  0  0  0  0  0
  -18.0312  -26.0061   22.8986 H   0  0  0  0  0  0
  -19.7925  -30.7255   24.2280 H   0  0  0  0  0  0
  -17.5010  -31.6265   24.5166 H   0  0  0  0  0  0
  -15.5345  -30.2990   23.7649 H   0  0  0  0  0  0
  -15.8662  -28.0831   22.7047 H   0  0  0  0  0  0
  -24.5904  -30.7069   25.7811 H   0  0  0  0  0  0
  -24.8949  -32.2868   26.4946 H   0  0  0  0  0  0
  -25.8098  -30.8856   27.0223 H   0  0  0  0  0  0
  -26.2817  -29.6803   24.1168 H   0  0  0  0  0  0
  -27.4069  -29.7268   25.4553 H   0  0  0  0  0  0
  -27.8658  -30.4339   23.9232 H   0  0  0  0  0  0
  -27.2734  -33.3621   26.2037 H   0  0  0  0  0  0
  -28.3890  -32.6806   25.0291 H   0  0  0  0  0  0
  -28.0725  -31.8413   26.5394 H   0  0  0  0  0  0
  -28.2477  -38.0205   24.7716 H   0  0  0  0  0  0
  -28.1258  -36.2765   24.5916 H   0  0  0  0  0  0
  -27.2392  -37.1005   25.8828 H   0  0  0  0  0  0
  -20.9308  -29.8783   21.6962 H   0  0  0  0  0  0
  -26.0136  -38.2855   24.1634 H   0  0  0  0  0  0
  -27.5654  -18.1760   21.2994 H   0  0  0  0  0  0
  -27.7103  -20.6134   21.0826 H   0  0  0  0  0  0
  -31.8307  -17.9542   21.9043 H   0  0  0  0  0  0
  -29.7090  -22.7769   18.7698 H   0  0  0  0  0  0
  -28.0330  -22.2975   18.9883 H   0  0  0  0  0  0
  -27.4546  -24.4761   18.3111 H   0  0  0  0  0  0
  -29.1490  -24.9303   18.3167 H   0  0  0  0  0  0
  -30.2331  -24.8115   20.8888 H   0  0  0  0  0  0
  -29.0572  -24.7356   22.2046 H   0  0  0  0  0  0
  -28.0304  -22.7485   21.2877 H   0  0  0  0  0  0
  -27.2269  -24.9910   20.6684 H   0  0  0  0  0  0
  -28.7992  -16.8389   19.1870 H   0  0  0  0  0  0
  -29.8232  -15.6717   18.3790 H   0  0  0  0  0  0
  -30.5561  -17.0654   19.1560 H   0  0  0  0  0  0
  -28.5776  -16.0816   22.0655 H   0  0  0  0  0  0
  -30.2449  -16.0165   22.5489 H   0  0  0  0  0  0
  -30.9822  -22.4642   21.3299 H   0  0  0  0  0  0
  1 25  1  0  0  0
  1 30  2  0  0  0
  1 85  1  0  0  0
  2  3  1  0  0  0
  2 25  1  0  0  0
  2 87  1  0  0  0
  2 88  1  0  0  0
  3  4  1  0  0  0
  3 89  1  0  0  0
  3 90  1  0  0  0
  4  5  1  0  0  0
  4 91  1  0  0  0
  4 92  1  0  0  0
  5  6  1  0  0  0
  5 26  1  0  0  0
  5 93  1  0  0  0
  6 25  1  0  0  0
  6 94  1  0  0  0
  6 95  1  0  0  0
  7  8  2  0  0  0
  7 26  1  0  0  0
  7 29  1  0  0  0
  8  9  1  0  0  0
  8 22  1  0  0  0
  9 10  1  0  0  0
  9 27  2  0  0  0
 10 11  2  0  0  0
 10 15  1  0  0  0
 11 12  1  0  0  0
 11 96  1  0  0  0
 12 13  2  0  0  0
 12 97  1  0  0  0
 13 14  1  0  0  0
 13 31  1  0  0  0
 14 15  2  0  0  0
 14 98  1  0  0  0
 15 99  1  0  0  0
 16 17  2  0  0  0
 16 21  1  0  0  0
 16 31  1  0  0  0
 17 18  1  0  0  0
 17100  1  0  0  0
 18 19  2  0  0  0
 18101  1  0  0  0
 19 20  1  0  0  0
 19 24  1  0  0  0
 20 21  2  0  0  0
 20102  1  0  0  0
 21 23  1  0  0  0
 22 28  1  0  0  0
 22 32  2  0  0  0
 26 27  1  0  0  0
 28103  1  0  0  0
 28104  1  0  0  0
 29105  1  0  0  0
 29106  1  0  0  0
 33 34  1  0  0  0
 33 66  1  0  0  0
 33 70  2  0  0  0
 34 36  1  0  0  0
 34 59  1  0  0  0
 34107  1  0  0  0
 35 44  2  0  0  0
 35 45  1  0  0  0
 35 68  1  0  0  0
 36 56  1  0  0  0
 36108  1  0  0  0
 37 39  1  0  0  0
 37 47  1  0  0  0
 37 66  1  0  0  0
 37109  1  0  0  0
 38 43  2  0  0  0
 38 46  1  0  0  0
 38 47  1  0  0  0
 39 64  1  0  0  0
 39 67  2  0  0  0
 40 52  1  0  0  0
 40 53  2  0  0  0
 40 58  1  0  0  0
 41110  1  0  0  0
 41111  1  0  0  0
 41112  1  0  0  0
 41 48  1  0  0  0
 42 43  1  0  0  0
 42 66  1  0  0  0
 42113  1  0  0  0
 42114  1  0  0  0
 43 44  1  0  0  0
 44115  1  0  0  0
 45 46  2  0  0  0
 45116  1  0  0  0
 46117  1  0  0  0
 47118  1  0  0  0
 47119  1  0  0  0
 48 56  1  0  0  0
 48 65  1  0  0  0
 48120  1  0  0  0
 49 50  1  0  0  0
 49 53  1  0  0  0
 49 64  1  0  0  0
 49121  1  0  0  0
 50 51  1  0  0  0
 50122  1  0  0  0
 50123  1  0  0  0
 51 52  1  0  0  0
 51124  1  0  0  0
 51125  1  0  0  0
 52126  1  0  0  0
 52127  1  0  0  0
 53 54  1  0  0  0
 54 55  2  0  0  0
 54128  1  0  0  0
 55 57  1  0  0  0
 55129  1  0  0  0
 56 69  2  0  0  0
 57 58  2  0  0  0
 57130  1  0  0  0
 58131  1  0  0  0
 59 60  1  0  0  0
 59 61  1  0  0  0
 59 62  1  0  0  0
 60132  1  0  0  0
 60133  1  0  0  0
 60134  1  0  0  0
 61135  1  0  0  0
 61136  1  0  0  0
 61137  1  0  0  0
 62138  1  0  0  0
 62139  1  0  0  0
 62140  1  0  0  0
 63 65  1  0  0  0
 63141  1  0  0  0
 63142  1  0  0  0
 63143  1  0  0  0
 64144  1  0  0  0
 65145  1  0  0  0
 68 81  1  0  0  0
 71 72  2  0  0  0
 71 74  1  0  0  0
 71146  1  0  0  0
 72 75  1  0  0  0
 72147  1  0  0  0
 73 74  2  0  0  0
 73 76  1  0  0  0
 73148  1  0  0  0
 74 83  1  0  0  0
 75 76  2  0  0  0
 75 84  1  0  0  0
 76 86  1  0  0  0
 77 78  1  0  0  0
 77 80  1  0  0  0
 77149  1  0  0  0
 77150  1  0  0  0
 78 81  1  0  0  0
 78151  1  0  0  0
 78152  1  0  0  0
 79 80  1  0  0  0
 79 81  1  0  0  0
 79153  1  0  0  0
 79154  1  0  0  0
 80 84  1  0  0  0
 80155  1  0  0  0
 81156  1  0  0  0
 82 85  1  0  0  0
 82157  1  0  0  0
 82158  1  0  0  0
 82159  1  0  0  0
 83 85  1  0  0  0
 83160  1  0  0  0
 83161  1  0  0  0
 84162  1  0  0  0
M  ISO  4   1 100  68 101  81 101  85 100
M  END
> <chiral flag>
0

> <version>
0

> <s_m_source_file>
/data/baiqing/PycharmProjects/Reinvent-master-3.2/result/LINK_invent/BTK/process_docking_weight1_custom_product_contain_oxygen_bond_distance_aromatic_linkinvent_7_9_3/rearranged_h_0022.sdf

> <i_m_source_file_index>
16

> <r_mmod_Potential_Energy-OPLS-2005>
182.786651611328

> <r_mmod_Stretch_Energy-OPLS-2005>
39.8119277954102

> <r_mmod_Bend_Energy-OPLS-2005>
137.895324707031

> <r_mmod_Torsional_Energy-OPLS-2005>
323.411010742188

> <r_mmod_Improper_Torsional_Energy-OPLS-2005>
17.2553997039795

> <r_mmod_Van_der_Waal_Energy-OPLS-2005>
150.690124511719

> <r_mmod_Electrostatic_Energy-OPLS-2005>
-310.789947509766

> <r_mmod_Solvation_Energy-OPLS-2005>
-195.113174438477

> <b_mmod_Minimization_Converged-OPLS-2005>
0

> <r_mmod_RMS_Derivative-OPLS-2005>
0.772987484931946

$$$$
16
                    3D
 Structure written by MMmdl.
171179  0  0  1  0            999 V2000
  -30.7263  -14.4861   20.5547 C   0  0  0  0  0  0
  -30.4105  -12.3007   19.4506 C   0  0  0  0  0  0
  -29.5058  -12.5084   18.2208 C   0  0  0  0  0  0
  -28.0187  -12.3975   18.6148 C   0  0  0  0  0  0
  -27.6603  -13.2284   19.8775 C   0  0  2  0  0  0
  -28.7005  -13.0311   21.0058 C   0  0  0  0  0  0
  -25.2539  -13.8215   20.5674 C   0  0  0  0  0  0
  -24.1823  -13.0448   20.9170 C   0  0  0  0  0  0
  -24.6407  -11.6932   20.8709 C   0  0  0  0  0  0
  -23.9080  -10.4300   21.0384 C   0  0  0  0  0  0
  -24.3623   -9.4220   21.9165 C   0  0  0  0  0  0
  -23.6301   -8.2252   22.0749 C   0  0  0  0  0  0
  -22.4283   -8.0272   21.3529 C   0  0  0  0  0  0
  -21.9904   -9.0260   20.4649 C   0  0  0  0  0  0
  -22.7237  -10.2140   20.3046 C   0  0  0  0  0  0
  -21.6858   -6.0718   22.5279 C   0  0  0  0  0  0
  -21.4020   -6.5627   23.8214 C   0  0  0  0  0  0
  -21.3671   -5.6782   24.9172 C   0  0  0  0  0  0
  -21.6056   -4.3043   24.7221 C   0  0  0  0  0  0
  -21.8817   -3.8126   23.4343 C   0  0  0  0  0  0
  -21.9190   -4.6943   22.3395 C   0  0  0  0  0  0
  -22.7837  -13.5230   21.1833 C   0  0  0  0  0  0
  -22.1656   -4.2128   21.0974 F   0  0  0  0  0  0
  -21.5634   -3.4531   25.7729 F   0  0  0  0  0  0
  -30.0355  -13.3149   20.4524 N   0  0  0  0  0  0
  -26.3007  -12.9431   20.3349 N   0  0  0  0  0  0
  -25.9350  -11.6560   20.5737 N   0  0  0  0  0  0
  -22.0476  -12.8255   22.0404 N   0  0  0  0  0  0
  -25.4205  -15.1946   20.4101 N   0  0  0  0  0  0
  -31.8304  -14.6279   20.0249 O   0  0  0  0  0  0
  -21.6655   -6.8869   21.4234 O   0  0  0  0  0  0
  -22.3515  -14.5522   20.6657 O   0  0  0  0  0  0
  -24.6138  -31.8672   23.2100 C   0  0  0  0  0  0
  -25.9028  -32.4814   23.8403 C   0  0  1  0  0  0
  -27.2361  -27.4317   20.1043 C   0  0  0  0  0  0
  -25.5906  -33.8606   24.2345 N   0  0  0  0  0  0
  -23.4026  -30.4911   21.5489 C   0  0  2  0  0  0
  -24.8519  -28.9571   20.1124 C   0  0  0  0  0  0
  -22.7400  -29.4655   22.4973 C   0  0  0  0  0  0
  -18.0268  -28.1360   22.8481 C   0  0  0  0  0  0
  -24.1489  -36.7312   23.2642 C   0  0  0  0  0  0
  -25.9311  -30.8317   21.3649 C   0  0  0  0  0  0
  -26.0110  -29.4671   20.7113 C   0  0  0  0  0  0
  -27.2085  -28.7135   20.7018 C   0  0  0  0  0  0
  -26.0638  -26.9385   19.4942 C   0  0  0  0  0  0
  -24.8742  -27.6923   19.4973 C   0  0  0  0  0  0
  -23.6117  -29.8231   20.1633 C   0  0  0  0  0  0
  -25.4107  -36.3107   24.0347 C   0  0  1  0  0  0
  -20.5862  -28.3656   23.1311 C   0  0  2  0  0  0
  -20.6766  -26.9390   22.5418 C   0  0  0  0  0  0
  -19.5751  -26.6370   21.5203 C   0  0  0  0  0  0
  -18.1925  -26.7911   22.1606 C   0  0  0  0  0  0
  -19.1519  -28.8820   23.2900 C   0  0  0  0  0  0
  -18.9446  -30.1425   23.8909 C   0  0  0  0  0  0
  -17.6454  -30.6569   24.0556 C   0  0  0  0  0  0
  -25.9030  -34.9474   23.5142 C   0  0  0  0  0  0
  -16.5344  -29.9064   23.6326 C   0  0  0  0  0  0
  -16.7260  -28.6481   23.0347 C   0  0  0  0  0  0
  -26.4473  -31.6579   25.0713 C   0  0  0  0  0  0
  -25.3761  -31.3653   26.1480 C   0  0  0  0  0  0
  -27.0328  -30.3039   24.6069 C   0  0  0  0  0  0
  -27.6043  -32.4304   25.7482 C   0  0  0  0  0  0
  -27.5582  -37.1814   24.8459 C   0  0  0  0  0  0
  -21.4137  -29.3032   22.3705 N   0  0  0  0  0  0
  -26.4293  -37.3789   23.9409 N   0  0  0  0  0  0
  -24.6666  -31.0774   22.0997 N   0  0  0  0  0  0
  -23.4173  -28.8204   23.3013 O   0  0  0  0  0  0
  -28.3876  -26.6705   20.0990 O   0  0  0  0  0  0
  -26.5578  -34.8915   22.4692 O   0  0  0  0  0  0
  -23.5334  -32.1422   23.7503 O   0  0  0  0  0  0
  -29.6335  -17.9694   21.0209 C   0  0  0  0  0  0
  -32.3096  -18.5456   21.5640 C   0  0  0  0  0  0
  -30.0429  -19.3338   21.0970 C   0  0  0  0  0  0
  -30.5404  -16.8909   21.2079 C   0  0  0  0  0  0
  -31.4120  -19.6150   21.3676 C   0  0  0  0  0  0
  -31.8838  -17.2082   21.5249 C   0  0  0  0  0  0
  -29.0274  -22.9194   20.9485 C   0  0  0  0  0  0
  -34.2227  -21.3950   20.6703 C   0  0  0  0  0  0
  -32.7880  -20.9861   23.8732 C   0  0  0  0  0  0
  -29.5089  -21.6283   18.8870 C   0  0  0  0  0  0
  -28.9438  -20.4202   20.9885 C   0  0  0  0  0  0
  -29.0650  -24.2499   20.1426 C   0  0  0  0  0  0
  -32.7078  -21.5007   20.4483 C   0  0  0  0  0  0
  -31.7851  -21.5343   22.8459 C   0  0  0  0  0  0
  -28.2971  -25.4220   20.8176 C   0  0  0  0  0  0
  -30.0775  -15.5282   21.1264 N   0  0  0  0  0  0
  -31.9010  -20.9220   21.5236 N   0  0  0  0  0  0
  -29.2215  -21.7217   20.3218 N   0  0  0  0  0  0
  -28.7894  -22.9860   22.1575 O   0  0  0  0  0  0
  -32.7758  -16.2445   21.8544 F   0  0  0  0  0  0
  -31.4647  -12.3473   19.1712 H   0  0  0  0  0  0
  -30.2666  -11.3004   19.8605 H   0  0  0  0  0  0
  -29.7473  -11.7764   17.4502 H   0  0  0  0  0  0
  -29.6991  -13.4893   17.7833 H   0  0  0  0  0  0
  -27.7993  -11.3431   18.7846 H   0  0  0  0  0  0
  -27.3911  -12.7083   17.7777 H   0  0  0  0  0  0
  -27.6970  -14.2765   19.5764 H   0  0  0  0  0  0
  -28.6696  -12.0053   21.3762 H   0  0  0  0  0  0
  -28.4665  -13.6581   21.8667 H   0  0  0  0  0  0
  -25.2773   -9.5707   22.4733 H   0  0  0  0  0  0
  -24.0003   -7.4655   22.7492 H   0  0  0  0  0  0
  -21.0809   -8.8798   19.8990 H   0  0  0  0  0  0
  -22.3688  -10.9670   19.6151 H   0  0  0  0  0  0
  -21.2032   -7.6134   23.9713 H   0  0  0  0  0  0
  -21.1496   -6.0509   25.9084 H   0  0  0  0  0  0
  -22.0588   -2.7584   23.2852 H   0  0  0  0  0  0
  -22.4040  -11.9903   22.4798 H   0  0  0  0  0  0
  -21.1093  -13.1324   22.2584 H   0  0  0  0  0  0
  -24.6470  -15.8431   20.5215 H   0  0  0  0  0  0
  -26.2717  -15.6439   20.0970 H   0  0  0  0  0  0
  -26.7094  -32.5529   23.1161 H   0  0  0  0  0  0
  -25.0115  -33.9783   25.0529 H   0  0  0  0  0  0
  -22.6919  -31.3081   21.4106 H   0  0  0  0  0  0
  -23.3757  -35.9640   23.3296 H   0  0  0  0  0  0
  -24.3601  -36.8928   22.2062 H   0  0  0  0  0  0
  -23.7230  -37.6510   23.6653 H   0  0  0  0  0  0
  -26.0470  -31.5969   20.5971 H   0  0  0  0  0  0
  -26.8184  -30.8835   21.9832 H   0  0  0  0  0  0
  -28.1025  -29.1033   21.1686 H   0  0  0  0  0  0
  -26.0729  -25.9703   19.0140 H   0  0  0  0  0  0
  -23.9866  -27.2965   19.0238 H   0  0  0  0  0  0
  -23.7155  -30.5987   19.4037 H   0  0  0  0  0  0
  -22.7364  -29.2419   19.8690 H   0  0  0  0  0  0
  -25.1278  -36.1987   25.0844 H   0  0  0  0  0  0
  -20.9971  -28.3227   24.1423 H   0  0  0  0  0  0
  -20.5660  -26.2261   23.3602 H   0  0  0  0  0  0
  -21.6637  -26.7421   22.1214 H   0  0  0  0  0  0
  -19.6916  -25.6282   21.1219 H   0  0  0  0  0  0
  -19.6702  -27.3193   20.6741 H   0  0  0  0  0  0
  -17.4206  -26.6667   21.3999 H   0  0  0  0  0  0
  -18.0316  -26.0040   22.8986 H   0  0  0  0  0  0
  -19.7925  -30.7223   24.2294 H   0  0  0  0  0  0
  -17.5009  -31.6254   24.5149 H   0  0  0  0  0  0
  -15.5344  -30.2967   23.7641 H   0  0  0  0  0  0
  -15.8664  -28.0801   22.7061 H   0  0  0  0  0  0
  -24.5925  -30.7016   25.7809 H   0  0  0  0  0  0
  -24.8970  -32.2801   26.4984 H   0  0  0  0  0  0
  -25.8143  -30.8776   27.0198 H   0  0  0  0  0  0
  -26.2870  -29.6775   24.1164 H   0  0  0  0  0  0
  -27.4184  -29.7286   25.4494 H   0  0  0  0  0  0
  -27.8660  -30.4396   23.9168 H   0  0  0  0  0  0
  -27.2661  -33.3602   26.2075 H   0  0  0  0  0  0
  -28.3847  -32.6873   25.0300 H   0  0  0  0  0  0
  -28.0723  -31.8421   26.5387 H   0  0  0  0  0  0
  -28.2583  -38.0126   24.7518 H   0  0  0  0  0  0
  -28.1096  -36.2657   24.6266 H   0  0  0  0  0  0
  -27.2309  -37.1438   25.8864 H   0  0  0  0  0  0
  -20.9275  -29.8763   21.6949 H   0  0  0  0  0  0
  -26.0187  -38.2873   24.1399 H   0  0  0  0  0  0
  -28.5928  -17.7543   20.8307 H   0  0  0  0  0  0
  -33.3425  -18.7418   21.8101 H   0  0  0  0  0  0
  -34.7599  -21.8753   19.8521 H   0  0  0  0  0  0
  -34.5527  -20.3584   20.7008 H   0  0  0  0  0  0
  -34.5422  -21.8860   21.5884 H   0  0  0  0  0  0
  -32.6442  -21.4722   24.8395 H   0  0  0  0  0  0
  -33.8210  -21.1602   23.5760 H   0  0  0  0  0  0
  -32.6628  -19.9159   24.0363 H   0  0  0  0  0  0
  -28.6261  -21.8849   18.2992 H   0  0  0  0  0  0
  -29.8083  -20.6223   18.5941 H   0  0  0  0  0  0
  -30.3203  -22.2979   18.5987 H   0  0  0  0  0  0
  -28.5791  -20.5682   22.0043 H   0  0  0  0  0  0
  -28.0923  -19.9901   20.4618 H   0  0  0  0  0  0
  -28.6346  -24.0977   19.1546 H   0  0  0  0  0  0
  -30.1077  -24.5292   19.9992 H   0  0  0  0  0  0
  -32.4526  -21.0218   19.5016 H   0  0  0  0  0  0
  -32.4325  -22.5502   20.3334 H   0  0  0  0  0  0
  -31.9203  -22.6120   22.7474 H   0  0  0  0  0  0
  -30.7711  -21.3895   23.2197 H   0  0  0  0  0  0
  -28.7006  -25.6010   21.8146 H   0  0  0  0  0  0
  -27.2618  -25.1144   20.9705 H   0  0  0  0  0  0
  -29.1251  -15.3491   21.4044 H   0  0  0  0  0  0
  1 25  1  0  0  0
  1 30  2  0  0  0
  1 86  1  0  0  0
  2  3  1  0  0  0
  2 25  1  0  0  0
  2 91  1  0  0  0
  2 92  1  0  0  0
  3  4  1  0  0  0
  3 93  1  0  0  0
  3 94  1  0  0  0
  4  5  1  0  0  0
  4 95  1  0  0  0
  4 96  1  0  0  0
  5  6  1  0  0  0
  5 26  1  0  0  0
  5 97  1  0  0  0
  6 25  1  0  0  0
  6 98  1  0  0  0
  6 99  1  0  0  0
  7  8  2  0  0  0
  7 26  1  0  0  0
  7 29  1  0  0  0
  8  9  1  0  0  0
  8 22  1  0  0  0
  9 10  1  0  0  0
  9 27  2  0  0  0
 10 11  2  0  0  0
 10 15  1  0  0  0
 11 12  1  0  0  0
 11100  1  0  0  0
 12 13  2  0  0  0
 12101  1  0  0  0
 13 14  1  0  0  0
 13 31  1  0  0  0
 14 15  2  0  0  0
 14102  1  0  0  0
 15103  1  0  0  0
 16 17  2  0  0  0
 16 21  1  0  0  0
 16 31  1  0  0  0
 17 18  1  0  0  0
 17104  1  0  0  0
 18 19  2  0  0  0
 18105  1  0  0  0
 19 20  1  0  0  0
 19 24  1  0  0  0
 20 21  2  0  0  0
 20106  1  0  0  0
 21 23  1  0  0  0
 22 28  1  0  0  0
 22 32  2  0  0  0
 26 27  1  0  0  0
 28107  1  0  0  0
 28108  1  0  0  0
 29109  1  0  0  0
 29110  1  0  0  0
 33 34  1  0  0  0
 33 66  1  0  0  0
 33 70  2  0  0  0
 34 36  1  0  0  0
 34 59  1  0  0  0
 34111  1  0  0  0
 35 44  2  0  0  0
 35 45  1  0  0  0
 35 68  1  0  0  0
 36 56  1  0  0  0
 36112  1  0  0  0
 37 39  1  0  0  0
 37 47  1  0  0  0
 37 66  1  0  0  0
 37113  1  0  0  0
 38 43  2  0  0  0
 38 46  1  0  0  0
 38 47  1  0  0  0
 39 64  1  0  0  0
 39 67  2  0  0  0
 40 52  1  0  0  0
 40 53  2  0  0  0
 40 58  1  0  0  0
 41114  1  0  0  0
 41115  1  0  0  0
 41116  1  0  0  0
 41 48  1  0  0  0
 42 43  1  0  0  0
 42 66  1  0  0  0
 42117  1  0  0  0
 42118  1  0  0  0
 43 44  1  0  0  0
 44119  1  0  0  0
 45 46  2  0  0  0
 45120  1  0  0  0
 46121  1  0  0  0
 47122  1  0  0  0
 47123  1  0  0  0
 48 56  1  0  0  0
 48 65  1  0  0  0
 48124  1  0  0  0
 49 50  1  0  0  0
 49 53  1  0  0  0
 49 64  1  0  0  0
 49125  1  0  0  0
 50 51  1  0  0  0
 50126  1  0  0  0
 50127  1  0  0  0
 51 52  1  0  0  0
 51128  1  0  0  0
 51129  1  0  0  0
 52130  1  0  0  0
 52131  1  0  0  0
 53 54  1  0  0  0
 54 55  2  0  0  0
 54132  1  0  0  0
 55 57  1  0  0  0
 55133  1  0  0  0
 56 69  2  0  0  0
 57 58  2  0  0  0
 57134  1  0  0  0
 58135  1  0  0  0
 59 60  1  0  0  0
 59 61  1  0  0  0
 59 62  1  0  0  0
 60136  1  0  0  0
 60137  1  0  0  0
 60138  1  0  0  0
 61139  1  0  0  0
 61140  1  0  0  0
 61141  1  0  0  0
 62142  1  0  0  0
 62143  1  0  0  0
 62144  1  0  0  0
 63 65  1  0  0  0
 63145  1  0  0  0
 63146  1  0  0  0
 63147  1  0  0  0
 64148  1  0  0  0
 65149  1  0  0  0
 68 85  1  0  0  0
 71 73  2  0  0  0
 71 74  1  0  0  0
 71150  1  0  0  0
 72 75  2  0  0  0
 72 76  1  0  0  0
 72151  1  0  0  0
 73 75  1  0  0  0
 73 81  1  0  0  0
 74 76  2  0  0  0
 74 86  1  0  0  0
 75 87  1  0  0  0
 76 90  1  0  0  0
 77 82  1  0  0  0
 77 88  1  0  0  0
 77 89  2  0  0  0
 78 83  1  0  0  0
 78152  1  0  0  0
 78153  1  0  0  0
 78154  1  0  0  0
 79 84  1  0  0  0
 79155  1  0  0  0
 79156  1  0  0  0
 79157  1  0  0  0
 80 88  1  0  0  0
 80158  1  0  0  0
 80159  1  0  0  0
 80160  1  0  0  0
 81 88  1  0  0  0
 81161  1  0  0  0
 81162  1  0  0  0
 82 85  1  0  0  0
 82163  1  0  0  0
 82164  1  0  0  0
 83 87  1  0  0  0
 83165  1  0  0  0
 83166  1  0  0  0
 84 87  1  0  0  0
 84167  1  0  0  0
 84168  1  0  0  0
 85169  1  0  0  0
 85170  1  0  0  0
 86171  1  0  0  0
M  ISO  4   1 100  68 101  85 101  86 100
M  END
> <chiral flag>
0

> <version>
0

> <s_m_source_file>
/data/baiqing/PycharmProjects/Reinvent-master-3.2/result/LINK_invent/BTK/process_docking_weight1_custom_product_contain_oxygen_bond_distance_aromatic_linkinvent_7_9_3/rearranged_h_0022.sdf

> <i_m_source_file_index>
17

> <r_mmod_Potential_Energy-OPLS-2005>
-57.6707725524902

> <r_mmod_Stretch_Energy-OPLS-2005>
49.0845832824707

> <r_mmod_Bend_Energy-OPLS-2005>
120.603256225586

> <r_mmod_Torsional_Energy-OPLS-2005>
281.262359619141

> <r_mmod_Improper_Torsional_Energy-OPLS-2005>
4.77038717269897

> <r_mmod_Van_der_Waal_Energy-OPLS-2005>
153.941970825195

> <r_mmod_Electrostatic_Energy-OPLS-2005>
-452.872314453125

> <r_mmod_Solvation_Energy-OPLS-2005>
-228.764556884766

> <b_mmod_Minimization_Converged-OPLS-2005>
0

> <r_mmod_RMS_Derivative-OPLS-2005>
3.00967264175415

$$$$
17
                    3D
 Structure written by MMmdl.
156165  0  0  1  0            999 V2000
  -30.5141  -14.9027   20.4423 C   0  0  0  0  0  0
  -30.4549  -12.5560   19.4915 C   0  0  0  0  0  0
  -29.5268  -12.5320   18.2522 C   0  0  0  0  0  0
  -28.0560  -12.3227   18.6656 C   0  0  0  0  0  0
  -27.6397  -13.2356   19.8480 C   0  0  2  0  0  0
  -28.6834  -13.2072   20.9865 C   0  0  0  0  0  0
  -25.2508  -13.8188   20.5691 C   0  0  0  0  0  0
  -24.1808  -13.0433   20.9224 C   0  0  0  0  0  0
  -24.6403  -11.6911   20.8751 C   0  0  0  0  0  0
  -23.9073  -10.4291   21.0411 C   0  0  0  0  0  0
  -24.3621   -9.4203   21.9188 C   0  0  0  0  0  0
  -23.6291   -8.2240   22.0757 C   0  0  0  0  0  0
  -22.4273   -8.0282   21.3546 C   0  0  0  0  0  0
  -21.9912   -9.0257   20.4650 C   0  0  0  0  0  0
  -22.7245  -10.2132   20.3060 C   0  0  0  0  0  0
  -21.6853   -6.0735   22.5280 C   0  0  0  0  0  0
  -21.4016   -6.5638   23.8212 C   0  0  0  0  0  0
  -21.3658   -5.6791   24.9175 C   0  0  0  0  0  0
  -21.6045   -4.3053   24.7225 C   0  0  0  0  0  0
  -21.8815   -3.8145   23.4346 C   0  0  0  0  0  0
  -21.9192   -4.6962   22.3403 C   0  0  0  0  0  0
  -22.7827  -13.5217   21.1873 C   0  0  0  0  0  0
  -22.1659   -4.2147   21.0980 F   0  0  0  0  0  0
  -21.5630   -3.4538   25.7737 F   0  0  0  0  0  0
  -29.9698  -13.6233   20.4068 N   0  0  0  0  0  0
  -26.2930  -12.9396   20.3253 N   0  0  0  0  0  0
  -25.9334  -11.6537   20.5736 N   0  0  0  0  0  0
  -22.0467  -12.8216   22.0429 N   0  0  0  0  0  0
  -25.4184  -15.1912   20.4073 N   0  0  0  0  0  0
  -31.6986  -15.0476   20.1189 O   0  0  0  0  0  0
  -21.6639   -6.8879   21.4241 O   0  0  0  0  0  0
  -22.3515  -14.5522   20.6715 O   0  0  0  0  0  0
  -24.6418  -31.8459   23.1904 C   0  0  0  0  0  0
  -25.9195  -32.4708   23.8287 C   0  0  1  0  0  0
  -27.2199  -27.1555   20.1477 C   0  0  0  0  0  0
  -25.5945  -33.8513   24.2198 N   0  0  0  0  0  0
  -23.4444  -30.4660   21.5360 C   0  0  2  0  0  0
  -24.8936  -28.8953   20.1142 C   0  0  0  0  0  0
  -22.7557  -29.4559   22.4874 C   0  0  0  0  0  0
  -18.0302  -28.1396   22.8479 C   0  0  0  0  0  0
  -24.1491  -36.7264   23.2642 C   0  0  0  0  0  0
  -25.9994  -30.7255   21.3871 C   0  0  0  0  0  0
  -26.0713  -29.3378   20.7303 C   0  0  0  0  0  0
  -27.2362  -28.4845   20.7291 C   0  0  0  0  0  0
  -26.0165  -26.8135   19.4907 C   0  0  0  0  0  0
  -24.8777  -27.6453   19.4800 C   0  0  0  0  0  0
  -23.6701  -29.7959   20.1558 C   0  0  0  0  0  0
  -25.4122  -36.3039   24.0314 C   0  0  1  0  0  0
  -20.5913  -28.3720   23.1242 C   0  0  2  0  0  0
  -20.6788  -26.9427   22.5404 C   0  0  0  0  0  0
  -19.5760  -26.6384   21.5213 C   0  0  0  0  0  0
  -18.1941  -26.7935   22.1625 C   0  0  0  0  0  0
  -19.1557  -28.8875   23.2853 C   0  0  0  0  0  0
  -18.9475  -30.1473   23.8878 C   0  0  0  0  0  0
  -17.6472  -30.6593   24.0561 C   0  0  0  0  0  0
  -25.9071  -34.9413   23.5066 C   0  0  0  0  0  0
  -16.5364  -29.9087   23.6336 C   0  0  0  0  0  0
  -16.7286  -28.6505   23.0356 C   0  0  0  0  0  0
  -26.4518  -31.6574   25.0726 C   0  0  0  0  0  0
  -25.3702  -31.3764   26.1422 C   0  0  0  0  0  0
  -27.0380  -30.2970   24.6302 C   0  0  0  0  0  0
  -27.6046  -32.4341   25.7511 C   0  0  0  0  0  0
  -27.5574  -37.1790   24.8463 C   0  0  0  0  0  0
  -21.4250  -29.3052   22.3619 N   0  0  0  0  0  0
  -26.4286  -37.3749   23.9406 N   0  0  0  0  0  0
  -24.7149  -31.0333   22.0932 N   0  0  0  0  0  0
  -23.4208  -28.8106   23.3016 O   0  0  0  0  0  0
  -28.2866  -26.1896   20.1830 O   0  0  0  0  0  0
  -26.5658  -34.8906   22.4647 O   0  0  0  0  0  0
  -23.5540  -32.1328   23.7133 O   0  0  0  0  0  0
  -30.2517  -19.9481   20.2430 C   0  0  0  0  0  0
  -30.5131  -18.5042   20.2360 C   0  0  0  0  0  0
  -28.3028  -18.1246   20.9544 C   0  0  0  0  0  0
  -28.9993  -20.5582   20.6227 C   0  0  0  0  0  0
  -29.5443  -17.5042   20.6099 C   0  0  0  0  0  0
  -28.0389  -19.5438   20.9660 C   0  0  0  0  0  0
  -30.1084  -23.1666   22.3904 C   0  0  0  0  0  0
  -30.3421  -23.7074   20.9754 C   0  0  0  0  0  0
  -28.8723  -22.2603   22.2812 C   0  0  0  0  0  0
  -29.0534  -23.3674   20.2306 C   0  0  2  0  0  0
  -27.9996  -24.6761   20.3780 C   0  0  0  0  0  0
  -28.6763  -21.9983   20.8560 N   0  0  0  0  0  0
  -29.6315  -15.9778   20.6883 N   0  0  0  0  0  0
  -26.4527  -20.0287   21.4628 Cl  0  0  0  0  0  0
  -31.4874  -12.7283   19.1833 H   0  0  0  0  0  0
  -30.4518  -11.5891   19.9970 H   0  0  0  0  0  0
  -29.8371  -11.7469   17.5614 H   0  0  0  0  0  0
  -29.6222  -13.4728   17.7076 H   0  0  0  0  0  0
  -27.9408  -11.2765   18.9516 H   0  0  0  0  0  0
  -27.3946  -12.4797   17.8126 H   0  0  0  0  0  0
  -27.6185  -14.2481   19.4446 H   0  0  0  0  0  0
  -28.7576  -12.2095   21.4221 H   0  0  0  0  0  0
  -28.3869  -13.8707   21.8005 H   0  0  0  0  0  0
  -25.2764   -9.5676   22.4763 H   0  0  0  0  0  0
  -23.9998   -7.4630   22.7475 H   0  0  0  0  0  0
  -21.0843   -8.8779   19.8954 H   0  0  0  0  0  0
  -22.3706  -10.9673   19.6170 H   0  0  0  0  0  0
  -21.2010   -7.6146   23.9716 H   0  0  0  0  0  0
  -21.1485   -6.0522   25.9079 H   0  0  0  0  0  0
  -22.0595   -2.7607   23.2847 H   0  0  0  0  0  0
  -22.4079  -11.9885   22.4833 H   0  0  0  0  0  0
  -21.1083  -13.1246   22.2623 H   0  0  0  0  0  0
  -24.6358  -15.8311   20.4913 H   0  0  0  0  0  0
  -26.2331  -15.6180   19.9873 H   0  0  0  0  0  0
  -26.7261  -32.5323   23.1018 H   0  0  0  0  0  0
  -25.0061  -33.9632   25.0323 H   0  0  0  0  0  0
  -22.7459  -31.2913   21.3826 H   0  0  0  0  0  0
  -23.3753  -35.9596   23.3295 H   0  0  0  0  0  0
  -24.3576  -36.8908   22.2059 H   0  0  0  0  0  0
  -23.7250  -37.6458   23.6686 H   0  0  0  0  0  0
  -26.1518  -31.4797   20.6139 H   0  0  0  0  0  0
  -26.8713  -30.7768   22.0279 H   0  0  0  0  0  0
  -28.1354  -28.8203   21.2263 H   0  0  0  0  0  0
  -25.9241  -25.8720   18.9732 H   0  0  0  0  0  0
  -23.9809  -27.3050   18.9804 H   0  0  0  0  0  0
  -23.8061  -30.5702   19.3998 H   0  0  0  0  0  0
  -22.7855  -29.2369   19.8457 H   0  0  0  0  0  0
  -25.1311  -36.1866   25.0805 H   0  0  0  0  0  0
  -21.0002  -28.3308   24.1363 H   0  0  0  0  0  0
  -20.5685  -26.2333   23.3620 H   0  0  0  0  0  0
  -21.6654  -26.7435   22.1200 H   0  0  0  0  0  0
  -19.6923  -25.6288   21.1258 H   0  0  0  0  0  0
  -19.6696  -27.3181   20.6732 H   0  0  0  0  0  0
  -17.4210  -26.6676   21.4032 H   0  0  0  0  0  0
  -18.0344  -26.0083   22.9025 H   0  0  0  0  0  0
  -19.7950  -30.7295   24.2241 H   0  0  0  0  0  0
  -17.5024  -31.6271   24.5166 H   0  0  0  0  0  0
  -15.5363  -30.2983   23.7671 H   0  0  0  0  0  0
  -15.8686  -28.0818   22.7083 H   0  0  0  0  0  0
  -24.5882  -30.7111   25.7742 H   0  0  0  0  0  0
  -24.8888  -32.2948   26.4794 H   0  0  0  0  0  0
  -25.7984  -30.8971   27.0234 H   0  0  0  0  0  0
  -26.2996  -29.6699   24.1292 H   0  0  0  0  0  0
  -27.3973  -29.7266   25.4878 H   0  0  0  0  0  0
  -27.8912  -30.4209   23.9629 H   0  0  0  0  0  0
  -27.2633  -33.3655   26.2039 H   0  0  0  0  0  0
  -28.3883  -32.6880   25.0362 H   0  0  0  0  0  0
  -28.0683  -31.8501   26.5471 H   0  0  0  0  0  0
  -28.2585  -38.0092   24.7503 H   0  0  0  0  0  0
  -28.1076  -36.2621   24.6296 H   0  0  0  0  0  0
  -27.2291  -37.1442   25.8866 H   0  0  0  0  0  0
  -20.9459  -29.8763   21.6798 H   0  0  0  0  0  0
  -26.0153  -38.2817   24.1407 H   0  0  0  0  0  0
  -31.0703  -20.6037   19.9844 H   0  0  0  0  0  0
  -31.5009  -18.1732   19.9488 H   0  0  0  0  0  0
  -27.4854  -17.4840   21.2514 H   0  0  0  0  0  0
  -29.9304  -23.9719   23.1046 H   0  0  0  0  0  0
  -30.9811  -22.6099   22.7349 H   0  0  0  0  0  0
  -31.1806  -23.1826   20.5154 H   0  0  0  0  0  0
  -30.5770  -24.7726   20.9584 H   0  0  0  0  0  0
  -27.9900  -22.7671   22.6750 H   0  0  0  0  0  0
  -29.0019  -21.3594   22.8852 H   0  0  0  0  0  0
  -29.2803  -23.2280   19.1724 H   0  0  0  0  0  0
  -27.5885  -24.6317   21.3862 H   0  0  0  0  0  0
  -27.1635  -24.4027   19.7406 H   0  0  0  0  0  0
  -28.7460  -15.5791   20.9599 H   0  0  0  0  0  0
  1 25  1  0  0  0
  1 30  2  0  0  0
  1 83  1  0  0  0
  2  3  1  0  0  0
  2 25  1  0  0  0
  2 85  1  0  0  0
  2 86  1  0  0  0
  3  4  1  0  0  0
  3 87  1  0  0  0
  3 88  1  0  0  0
  4  5  1  0  0  0
  4 89  1  0  0  0
  4 90  1  0  0  0
  5  6  1  0  0  0
  5 26  1  0  0  0
  5 91  1  0  0  0
  6 25  1  0  0  0
  6 92  1  0  0  0
  6 93  1  0  0  0
  7  8  2  0  0  0
  7 26  1  0  0  0
  7 29  1  0  0  0
  8  9  1  0  0  0
  8 22  1  0  0  0
  9 10  1  0  0  0
  9 27  2  0  0  0
 10 11  2  0  0  0
 10 15  1  0  0  0
 11 12  1  0  0  0
 11 94  1  0  0  0
 12 13  2  0  0  0
 12 95  1  0  0  0
 13 14  1  0  0  0
 13 31  1  0  0  0
 14 15  2  0  0  0
 14 96  1  0  0  0
 15 97  1  0  0  0
 16 17  2  0  0  0
 16 21  1  0  0  0
 16 31  1  0  0  0
 17 18  1  0  0  0
 17 98  1  0  0  0
 18 19  2  0  0  0
 18 99  1  0  0  0
 19 20  1  0  0  0
 19 24  1  0  0  0
 20 21  2  0  0  0
 20100  1  0  0  0
 21 23  1  0  0  0
 22 28  1  0  0  0
 22 32  2  0  0  0
 26 27  1  0  0  0
 28101  1  0  0  0
 28102  1  0  0  0
 29103  1  0  0  0
 29104  1  0  0  0
 33 34  1  0  0  0
 33 66  1  0  0  0
 33 70  2  0  0  0
 34 36  1  0  0  0
 34 59  1  0  0  0
 34105  1  0  0  0
 35 44  2  0  0  0
 35 45  1  0  0  0
 35 68  1  0  0  0
 36 56  1  0  0  0
 36106  1  0  0  0
 37 39  1  0  0  0
 37 47  1  0  0  0
 37 66  1  0  0  0
 37107  1  0  0  0
 38 43  2  0  0  0
 38 46  1  0  0  0
 38 47  1  0  0  0
 39 64  1  0  0  0
 39 67  2  0  0  0
 40 52  1  0  0  0
 40 53  2  0  0  0
 40 58  1  0  0  0
 41108  1  0  0  0
 41109  1  0  0  0
 41110  1  0  0  0
 41 48  1  0  0  0
 42 43  1  0  0  0
 42 66  1  0  0  0
 42111  1  0  0  0
 42112  1  0  0  0
 43 44  1  0  0  0
 44113  1  0  0  0
 45 46  2  0  0  0
 45114  1  0  0  0
 46115  1  0  0  0
 47116  1  0  0  0
 47117  1  0  0  0
 48 56  1  0  0  0
 48 65  1  0  0  0
 48118  1  0  0  0
 49 50  1  0  0  0
 49 53  1  0  0  0
 49 64  1  0  0  0
 49119  1  0  0  0
 50 51  1  0  0  0
 50120  1  0  0  0
 50121  1  0  0  0
 51 52  1  0  0  0
 51122  1  0  0  0
 51123  1  0  0  0
 52124  1  0  0  0
 52125  1  0  0  0
 53 54  1  0  0  0
 54 55  2  0  0  0
 54126  1  0  0  0
 55 57  1  0  0  0
 55127  1  0  0  0
 56 69  2  0  0  0
 57 58  2  0  0  0
 57128  1  0  0  0
 58129  1  0  0  0
 59 60  1  0  0  0
 59 61  1  0  0  0
 59 62  1  0  0  0
 60130  1  0  0  0
 60131  1  0  0  0
 60132  1  0  0  0
 61133  1  0  0  0
 61134  1  0  0  0
 61135  1  0  0  0
 62136  1  0  0  0
 62137  1  0  0  0
 62138  1  0  0  0
 63 65  1  0  0  0
 63139  1  0  0  0
 63140  1  0  0  0
 63141  1  0  0  0
 64142  1  0  0  0
 65143  1  0  0  0
 68 81  1  0  0  0
 71 72  2  0  0  0
 71 74  1  0  0  0
 71144  1  0  0  0
 72 75  1  0  0  0
 72145  1  0  0  0
 73 75  2  0  0  0
 73 76  1  0  0  0
 73146  1  0  0  0
 74 76  2  0  0  0
 74 82  1  0  0  0
 75 83  1  0  0  0
 76 84  1  0  0  0
 77 78  1  0  0  0
 77 79  1  0  0  0
 77147  1  0  0  0
 77148  1  0  0  0
 78 80  1  0  0  0
 78149  1  0  0  0
 78150  1  0  0  0
 79 82  1  0  0  0
 79151  1  0  0  0
 79152  1  0  0  0
 80 81  1  0  0  0
 80 82  1  0  0  0
 80153  1  0  0  0
 81154  1  0  0  0
 81155  1  0  0  0
 83156  1  0  0  0
M  ISO  4   1 100  68 101  81 101  83 100
M  END
> <chiral flag>
0

> <version>
0

> <s_m_source_file>
/data/baiqing/PycharmProjects/Reinvent-master-3.2/result/LINK_invent/BTK/process_docking_weight1_custom_product_contain_oxygen_bond_distance_aromatic_linkinvent_7_9_3/rearranged_h_0022.sdf

> <i_m_source_file_index>
18

> <r_mmod_Potential_Energy-OPLS-2005>
587.363037109375

> <r_mmod_Stretch_Energy-OPLS-2005>
212.801223754883

> <r_mmod_Bend_Energy-OPLS-2005>
316.228485107422

> <r_mmod_Torsional_Energy-OPLS-2005>
302.075347900391

> <r_mmod_Improper_Torsional_Energy-OPLS-2005>
9.86344528198242

> <r_mmod_Van_der_Waal_Energy-OPLS-2005>
129.6513671875

> <r_mmod_Electrostatic_Energy-OPLS-2005>
-333.685729980469

> <r_mmod_Solvation_Energy-OPLS-2005>
-216.405960083008

> <b_mmod_Minimization_Converged-OPLS-2005>
0

> <r_mmod_RMS_Derivative-OPLS-2005>
0.620029389858246

$$$$
18
                    3D
 Structure written by MMmdl.
169177  0  0  1  0            999 V2000
  -30.6722  -14.5206   20.5634 C   0  0  0  0  0  0
  -30.4309  -12.3373   19.4270 C   0  0  0  0  0  0
  -29.4984  -12.5119   18.2100 C   0  0  0  0  0  0
  -28.0196  -12.3626   18.6210 C   0  0  0  0  0  0
  -27.6603  -13.2071   19.8723 C   0  0  2  0  0  0
  -28.7033  -13.0007   20.9937 C   0  0  0  0  0  0
  -25.2594  -13.8170   20.5670 C   0  0  0  0  0  0
  -24.1850  -13.0447   20.9187 C   0  0  0  0  0  0
  -24.6406  -11.6912   20.8746 C   0  0  0  0  0  0
  -23.9070  -10.4298   21.0406 C   0  0  0  0  0  0
  -24.3626   -9.4214   21.9182 C   0  0  0  0  0  0
  -23.6307   -8.2244   22.0745 C   0  0  0  0  0  0
  -22.4288   -8.0285   21.3530 C   0  0  0  0  0  0
  -21.9924   -9.0263   20.4639 C   0  0  0  0  0  0
  -22.7244  -10.2141   20.3053 C   0  0  0  0  0  0
  -21.6849   -6.0746   22.5272 C   0  0  0  0  0  0
  -21.4013   -6.5644   23.8212 C   0  0  0  0  0  0
  -21.3672   -5.6788   24.9169 C   0  0  0  0  0  0
  -21.6051   -4.3052   24.7210 C   0  0  0  0  0  0
  -21.8823   -3.8149   23.4329 C   0  0  0  0  0  0
  -21.9193   -4.6971   22.3390 C   0  0  0  0  0  0
  -22.7875  -13.5251   21.1841 C   0  0  0  0  0  0
  -22.1654   -4.2162   21.0966 F   0  0  0  0  0  0
  -21.5638   -3.4531   25.7724 F   0  0  0  0  0  0
  -30.0278  -13.3266   20.4383 N   0  0  0  0  0  0
  -26.3024  -12.9329   20.3347 N   0  0  0  0  0  0
  -25.9328  -11.6492   20.5765 N   0  0  0  0  0  0
  -22.0492  -12.8254   22.0391 N   0  0  0  0  0  0
  -25.4336  -15.1885   20.4051 N   0  0  0  0  0  0
  -31.8123  -14.7077   20.1262 O   0  0  0  0  0  0
  -21.6641   -6.8888   21.4239 O   0  0  0  0  0  0
  -22.3560  -14.5553   20.6671 O   0  0  0  0  0  0
  -24.6201  -31.8646   23.2083 C   0  0  0  0  0  0
  -25.9085  -32.4800   23.8385 C   0  0  1  0  0  0
  -27.2272  -27.3838   20.1072 C   0  0  0  0  0  0
  -25.5931  -33.8596   24.2322 N   0  0  0  0  0  0
  -23.4102  -30.4895   21.5489 C   0  0  2  0  0  0
  -24.8571  -28.9532   20.1111 C   0  0  0  0  0  0
  -22.7444  -29.4648   22.4971 C   0  0  0  0  0  0
  -18.0282  -28.1372   22.8498 C   0  0  0  0  0  0
  -24.1486  -36.7298   23.2643 C   0  0  0  0  0  0
  -25.9453  -30.8125   21.3734 C   0  0  0  0  0  0
  -26.0201  -29.4455   20.7170 C   0  0  0  0  0  0
  -27.2097  -28.6701   20.7092 C   0  0  0  0  0  0
  -26.0500  -26.9332   19.4692 C   0  0  0  0  0  0
  -24.8708  -27.7004   19.4785 C   0  0  0  0  0  0
  -23.6211  -29.8256   20.1627 C   0  0  0  0  0  0
  -25.4111  -36.3096   24.0344 C   0  0  1  0  0  0
  -20.5878  -28.3671   23.1308 C   0  0  2  0  0  0
  -20.6778  -26.9403   22.5419 C   0  0  0  0  0  0
  -19.5752  -26.6382   21.5224 C   0  0  0  0  0  0
  -18.1928  -26.7924   22.1622 C   0  0  0  0  0  0
  -19.1532  -28.8840   23.2899 C   0  0  0  0  0  0
  -18.9454  -30.1444   23.8907 C   0  0  0  0  0  0
  -17.6454  -30.6575   24.0568 C   0  0  0  0  0  0
  -25.9045  -34.9465   23.5132 C   0  0  0  0  0  0
  -16.5347  -29.9075   23.6325 C   0  0  0  0  0  0
  -16.7273  -28.6493   23.0355 C   0  0  0  0  0  0
  -26.4501  -31.6580   25.0723 C   0  0  0  0  0  0
  -25.3756  -31.3682   26.1467 C   0  0  0  0  0  0
  -27.0362  -30.3023   24.6132 C   0  0  0  0  0  0
  -27.6073  -32.4308   25.7475 C   0  0  0  0  0  0
  -27.5581  -37.1806   24.8466 C   0  0  0  0  0  0
  -21.4170  -29.3026   22.3701 N   0  0  0  0  0  0
  -26.4293  -37.3787   23.9410 N   0  0  0  0  0  0
  -24.6761  -31.0721   22.1003 N   0  0  0  0  0  0
  -23.4209  -28.8196   23.3029 O   0  0  0  0  0  0
  -28.3683  -26.5906   20.1149 O   0  0  0  0  0  0
  -26.5598  -34.8922   22.4686 O   0  0  0  0  0  0
  -23.5379  -32.1422   23.7452 O   0  0  0  0  0  0
  -30.0349  -19.4109   20.5508 C   0  0  0  0  0  0
  -28.7185  -18.7116   18.1799 C   0  0  0  0  0  0
  -29.7778  -18.0310   20.2851 C   0  0  0  0  0  0
  -29.6772  -20.4328   19.6262 C   0  0  0  0  0  0
  -29.0483  -20.0634   18.4136 C   0  0  0  0  0  0
  -29.0769  -17.7052   19.0977 C   0  0  0  0  0  0
  -30.6723  -22.2371   16.2891 C   0  0  0  0  0  0
  -27.0735  -22.5850   16.5544 C   0  0  0  0  0  0
  -30.3226  -16.9520   21.2579 C   0  0  0  0  0  0
  -29.2555  -24.1989   19.9701 C   0  0  0  0  0  0
  -29.7913  -20.9845   16.3358 C   0  0  0  0  0  0
  -27.4082  -21.1768   17.0586 C   0  0  0  0  0  0
  -29.0737  -22.7045   20.4192 C   0  0  0  0  0  0
  -28.1988  -25.2024   20.5312 C   0  0  0  0  0  0
  -30.0413  -21.7902   19.7870 N   0  0  0  0  0  0
  -29.9347  -15.5321   21.0724 N   0  0  0  0  0  0
  -28.8160  -21.0443   17.4269 N   0  0  0  0  0  0
  -28.7612  -16.4238   18.7965 F   0  0  0  0  0  0
  -31.4734  -12.4544   19.1246 H   0  0  0  0  0  0
  -30.3497  -11.3281   19.8333 H   0  0  0  0  0  0
  -29.7474  -11.7818   17.4387 H   0  0  0  0  0  0
  -29.6561  -13.4955   17.7643 H   0  0  0  0  0  0
  -27.8398  -11.3071   18.8233 H   0  0  0  0  0  0
  -27.3680  -12.6257   17.7873 H   0  0  0  0  0  0
  -27.6983  -14.2527   19.5673 H   0  0  0  0  0  0
  -28.6956  -11.9646   21.3363 H   0  0  0  0  0  0
  -28.4597  -13.5998   21.8719 H   0  0  0  0  0  0
  -25.2772   -9.5698   22.4760 H   0  0  0  0  0  0
  -24.0017   -7.4648   22.7475 H   0  0  0  0  0  0
  -21.0847   -8.8783   19.8968 H   0  0  0  0  0  0
  -22.3694  -10.9682   19.6169 H   0  0  0  0  0  0
  -21.1990   -7.6148   23.9718 H   0  0  0  0  0  0
  -21.1497   -6.0510   25.9075 H   0  0  0  0  0  0
  -22.0590   -2.7612   23.2809 H   0  0  0  0  0  0
  -22.4085  -11.9931   22.4830 H   0  0  0  0  0  0
  -21.1117  -13.1304   22.2582 H   0  0  0  0  0  0
  -24.6669  -15.8443   20.5084 H   0  0  0  0  0  0
  -26.2827  -15.6183   20.0586 H   0  0  0  0  0  0
  -26.7154  -32.5508   23.1135 H   0  0  0  0  0  0
  -25.0110  -33.9736   25.0491 H   0  0  0  0  0  0
  -22.7008  -31.3083   21.4107 H   0  0  0  0  0  0
  -23.3749  -35.9628   23.3307 H   0  0  0  0  0  0
  -24.3574  -36.8909   22.2054 H   0  0  0  0  0  0
  -23.7233  -37.6504   23.6654 H   0  0  0  0  0  0
  -26.0742  -31.5774   20.6067 H   0  0  0  0  0  0
  -26.8273  -30.8582   22.0003 H   0  0  0  0  0  0
  -28.1048  -29.0428   21.1871 H   0  0  0  0  0  0
  -26.0317  -25.9874   18.9475 H   0  0  0  0  0  0
  -23.9847  -27.3251   18.9852 H   0  0  0  0  0  0
  -23.7340  -30.6029   19.4055 H   0  0  0  0  0  0
  -22.7422  -29.2500   19.8659 H   0  0  0  0  0  0
  -25.1287  -36.1957   25.0838 H   0  0  0  0  0  0
  -20.9976  -28.3242   24.1430 H   0  0  0  0  0  0
  -20.5700  -26.2276   23.3613 H   0  0  0  0  0  0
  -21.6645  -26.7457   22.1196 H   0  0  0  0  0  0
  -19.6914  -25.6301   21.1236 H   0  0  0  0  0  0
  -19.6686  -27.3209   20.6771 H   0  0  0  0  0  0
  -17.4213  -26.6706   21.4004 H   0  0  0  0  0  0
  -18.0297  -26.0051   22.8993 H   0  0  0  0  0  0
  -19.7932  -30.7261   24.2281 H   0  0  0  0  0  0
  -17.5007  -31.6256   24.5170 H   0  0  0  0  0  0
  -15.5344  -30.2975   23.7644 H   0  0  0  0  0  0
  -15.8679  -28.0810   22.7062 H   0  0  0  0  0  0
  -24.5896  -30.7080   25.7777 H   0  0  0  0  0  0
  -24.8986  -32.2839   26.4970 H   0  0  0  0  0  0
  -25.8091  -30.8777   27.0192 H   0  0  0  0  0  0
  -26.2924  -29.6730   24.1227 H   0  0  0  0  0  0
  -27.4183  -29.7309   25.4600 H   0  0  0  0  0  0
  -27.8735  -30.4340   23.9273 H   0  0  0  0  0  0
  -27.2695  -33.3586   26.2101 H   0  0  0  0  0  0
  -28.3849  -32.6906   25.0280 H   0  0  0  0  0  0
  -28.0796  -31.8411   26.5342 H   0  0  0  0  0  0
  -28.2613  -38.0091   24.7519 H   0  0  0  0  0  0
  -28.1067  -36.2629   24.6291 H   0  0  0  0  0  0
  -27.2303  -37.1460   25.8870 H   0  0  0  0  0  0
  -20.9349  -29.8710   21.6875 H   0  0  0  0  0  0
  -26.0183  -38.2869   24.1392 H   0  0  0  0  0  0
  -30.5689  -19.6803   21.4498 H   0  0  0  0  0  0
  -28.2256  -18.4227   17.2648 H   0  0  0  0  0  0
  -30.0786  -23.1461   16.1889 H   0  0  0  0  0  0
  -31.3419  -22.1930   15.4295 H   0  0  0  0  0  0
  -31.2944  -22.3261   17.1799 H   0  0  0  0  0  0
  -27.2442  -23.3360   17.3261 H   0  0  0  0  0  0
  -26.0252  -22.6436   16.2616 H   0  0  0  0  0  0
  -27.6663  -22.8580   15.6822 H   0  0  0  0  0  0
  -30.0190  -17.2363   22.2667 H   0  0  0  0  0  0
  -31.4107  -17.0286   21.2527 H   0  0  0  0  0  0
  -29.2244  -24.2438   18.8804 H   0  0  0  0  0  0
  -30.2489  -24.5437   20.2586 H   0  0  0  0  0  0
  -30.4312  -20.1036   16.4264 H   0  0  0  0  0  0
  -29.2720  -20.8744   15.3824 H   0  0  0  0  0  0
  -27.1624  -20.4432   16.2882 H   0  0  0  0  0  0
  -26.7705  -20.9506   17.9153 H   0  0  0  0  0  0
  -28.0595  -22.3772   20.1815 H   0  0  0  0  0  0
  -29.1757  -22.6313   21.5031 H   0  0  0  0  0  0
  -28.2428  -25.1846   21.6207 H   0  0  0  0  0  0
  -27.2176  -24.8040   20.2807 H   0  0  0  0  0  0
  -30.1166  -22.0984   18.8167 H   0  0  0  0  0  0
  -29.0015  -15.2842   21.3618 H   0  0  0  0  0  0
  1 25  1  0  0  0
  1 30  2  0  0  0
  1 86  1  0  0  0
  2  3  1  0  0  0
  2 25  1  0  0  0
  2 89  1  0  0  0
  2 90  1  0  0  0
  3  4  1  0  0  0
  3 91  1  0  0  0
  3 92  1  0  0  0
  4  5  1  0  0  0
  4 93  1  0  0  0
  4 94  1  0  0  0
  5  6  1  0  0  0
  5 26  1  0  0  0
  5 95  1  0  0  0
  6 25  1  0  0  0
  6 96  1  0  0  0
  6 97  1  0  0  0
  7  8  2  0  0  0
  7 26  1  0  0  0
  7 29  1  0  0  0
  8  9  1  0  0  0
  8 22  1  0  0  0
  9 10  1  0  0  0
  9 27  2  0  0  0
 10 11  2  0  0  0
 10 15  1  0  0  0
 11 12  1  0  0  0
 11 98  1  0  0  0
 12 13  2  0  0  0
 12 99  1  0  0  0
 13 14  1  0  0  0
 13 31  1  0  0  0
 14 15  2  0  0  0
 14100  1  0  0  0
 15101  1  0  0  0
 16 17  2  0  0  0
 16 21  1  0  0  0
 16 31  1  0  0  0
 17 18  1  0  0  0
 17102  1  0  0  0
 18 19  2  0  0  0
 18103  1  0  0  0
 19 20  1  0  0  0
 19 24  1  0  0  0
 20 21  2  0  0  0
 20104  1  0  0  0
 21 23  1  0  0  0
 22 28  1  0  0  0
 22 32  2  0  0  0
 26 27  1  0  0  0
 28105  1  0  0  0
 28106  1  0  0  0
 29107  1  0  0  0
 29108  1  0  0  0
 33 34  1  0  0  0
 33 66  1  0  0  0
 33 70  2  0  0  0
 34 36  1  0  0  0
 34 59  1  0  0  0
 34109  1  0  0  0
 35 44  2  0  0  0
 35 45  1  0  0  0
 35 68  1  0  0  0
 36 56  1  0  0  0
 36110  1  0  0  0
 37 39  1  0  0  0
 37 47  1  0  0  0
 37 66  1  0  0  0
 37111  1  0  0  0
 38 43  2  0  0  0
 38 46  1  0  0  0
 38 47  1  0  0  0
 39 64  1  0  0  0
 39 67  2  0  0  0
 40 52  1  0  0  0
 40 53  2  0  0  0
 40 58  1  0  0  0
 41112  1  0  0  0
 41113  1  0  0  0
 41114  1  0  0  0
 41 48  1  0  0  0
 42 43  1  0  0  0
 42 66  1  0  0  0
 42115  1  0  0  0
 42116  1  0  0  0
 43 44  1  0  0  0
 44117  1  0  0  0
 45 46  2  0  0  0
 45118  1  0  0  0
 46119  1  0  0  0
 47120  1  0  0  0
 47121  1  0  0  0
 48 56  1  0  0  0
 48 65  1  0  0  0
 48122  1  0  0  0
 49 50  1  0  0  0
 49 53  1  0  0  0
 49 64  1  0  0  0
 49123  1  0  0  0
 50 51  1  0  0  0
 50124  1  0  0  0
 50125  1  0  0  0
 51 52  1  0  0  0
 51126  1  0  0  0
 51127  1  0  0  0
 52128  1  0  0  0
 52129  1  0  0  0
 53 54  1  0  0  0
 54 55  2  0  0  0
 54130  1  0  0  0
 55 57  1  0  0  0
 55131  1  0  0  0
 56 69  2  0  0  0
 57 58  2  0  0  0
 57132  1  0  0  0
 58133  1  0  0  0
 59 60  1  0  0  0
 59 61  1  0  0  0
 59 62  1  0  0  0
 60134  1  0  0  0
 60135  1  0  0  0
 60136  1  0  0  0
 61137  1  0  0  0
 61138  1  0  0  0
 61139  1  0  0  0
 62140  1  0  0  0
 62141  1  0  0  0
 62142  1  0  0  0
 63 65  1  0  0  0
 63143  1  0  0  0
 63144  1  0  0  0
 63145  1  0  0  0
 64146  1  0  0  0
 65147  1  0  0  0
 68 84  1  0  0  0
 71 73  2  0  0  0
 71 74  1  0  0  0
 71148  1  0  0  0
 72 75  1  0  0  0
 72 76  2  0  0  0
 72149  1  0  0  0
 73 76  1  0  0  0
 73 79  1  0  0  0
 74 75  2  0  0  0
 74 85  1  0  0  0
 75 87  1  0  0  0
 76 88  1  0  0  0
 77 81  1  0  0  0
 77150  1  0  0  0
 77151  1  0  0  0
 77152  1  0  0  0
 78 82  1  0  0  0
 78153  1  0  0  0
 78154  1  0  0  0
 78155  1  0  0  0
 79 86  1  0  0  0
 79156  1  0  0  0
 79157  1  0  0  0
 80 83  1  0  0  0
 80 84  1  0  0  0
 80158  1  0  0  0
 80159  1  0  0  0
 81 87  1  0  0  0
 81160  1  0  0  0
 81161  1  0  0  0
 82 87  1  0  0  0
 82162  1  0  0  0
 82163  1  0  0  0
 83 85  1  0  0  0
 83164  1  0  0  0
 83165  1  0  0  0
 84166  1  0  0  0
 84167  1  0  0  0
 85168  1  0  0  0
 86169  1  0  0  0
M  ISO  4   1 100  68 101  84 101  86 100
M  END
> <chiral flag>
0

> <version>
0

> <s_m_source_file>
/data/baiqing/PycharmProjects/Reinvent-master-3.2/result/LINK_invent/BTK/process_docking_weight1_custom_product_contain_oxygen_bond_distance_aromatic_linkinvent_7_9_3/rearranged_h_0022.sdf

> <i_m_source_file_index>
19

> <r_mmod_Potential_Energy-OPLS-2005>
-61.3457107543945

> <r_mmod_Stretch_Energy-OPLS-2005>
50.4525985717773

> <r_mmod_Bend_Energy-OPLS-2005>
115.994560241699

> <r_mmod_Torsional_Energy-OPLS-2005>
253.944442749023

> <r_mmod_Improper_Torsional_Energy-OPLS-2005>
14.7390336990356

> <r_mmod_Van_der_Waal_Energy-OPLS-2005>
145.488235473633

> <r_mmod_Electrostatic_Energy-OPLS-2005>
-451.559814453125

> <r_mmod_Solvation_Energy-OPLS-2005>
-211.59228515625

> <b_mmod_Minimization_Converged-OPLS-2005>
0

> <r_mmod_RMS_Derivative-OPLS-2005>
1.94849741458893

$$$$
19
                    3D
 Structure written by MMmdl.
159168  0  0  1  0            999 V2000
  -30.5145  -14.9053   20.4413 C   0  0  0  0  0  0
  -30.4546  -12.5579   19.4909 C   0  0  0  0  0  0
  -29.5259  -12.5312   18.2524 C   0  0  0  0  0  0
  -28.0557  -12.3220   18.6668 C   0  0  0  0  0  0
  -27.6396  -13.2365   19.8481 C   0  0  2  0  0  0
  -28.6837  -13.2097   20.9861 C   0  0  0  0  0  0
  -25.2506  -13.8193   20.5693 C   0  0  0  0  0  0
  -24.1808  -13.0435   20.9224 C   0  0  0  0  0  0
  -24.6405  -11.6914   20.8756 C   0  0  0  0  0  0
  -23.9079  -10.4291   21.0415 C   0  0  0  0  0  0
  -24.3625   -9.4204   21.9191 C   0  0  0  0  0  0
  -23.6295   -8.2243   22.0757 C   0  0  0  0  0  0
  -22.4277   -8.0285   21.3548 C   0  0  0  0  0  0
  -21.9916   -9.0260   20.4651 C   0  0  0  0  0  0
  -22.7250  -10.2136   20.3063 C   0  0  0  0  0  0
  -21.6853   -6.0738   22.5281 C   0  0  0  0  0  0
  -21.4015   -6.5642   23.8216 C   0  0  0  0  0  0
  -21.3657   -5.6794   24.9176 C   0  0  0  0  0  0
  -21.6044   -4.3058   24.7226 C   0  0  0  0  0  0
  -21.8818   -3.8149   23.4347 C   0  0  0  0  0  0
  -21.9190   -4.6966   22.3403 C   0  0  0  0  0  0
  -22.7829  -13.5216   21.1876 C   0  0  0  0  0  0
  -22.1662   -4.2152   21.0980 F   0  0  0  0  0  0
  -21.5627   -3.4539   25.7736 F   0  0  0  0  0  0
  -29.9696  -13.6259   20.4055 N   0  0  0  0  0  0
  -26.2930  -12.9401   20.3258 N   0  0  0  0  0  0
  -25.9335  -11.6543   20.5742 N   0  0  0  0  0  0
  -22.0472  -12.8209   22.0433 N   0  0  0  0  0  0
  -25.4175  -15.1918   20.4075 N   0  0  0  0  0  0
  -31.7001  -15.0481   20.1188 O   0  0  0  0  0  0
  -21.6641   -6.8883   21.4244 O   0  0  0  0  0  0
  -22.3516  -14.5521   20.6718 O   0  0  0  0  0  0
  -24.6417  -31.8459   23.1905 C   0  0  0  0  0  0
  -25.9198  -32.4705   23.8286 C   0  0  1  0  0  0
  -27.2189  -27.1553   20.1490 C   0  0  0  0  0  0
  -25.5952  -33.8509   24.2200 N   0  0  0  0  0  0
  -23.4443  -30.4663   21.5359 C   0  0  2  0  0  0
  -24.8936  -28.8959   20.1137 C   0  0  0  0  0  0
  -22.7557  -29.4559   22.4871 C   0  0  0  0  0  0
  -18.0303  -28.1395   22.8480 C   0  0  0  0  0  0
  -24.1492  -36.7261   23.2643 C   0  0  0  0  0  0
  -25.9996  -30.7253   21.3874 C   0  0  0  0  0  0
  -26.0711  -29.3379   20.7301 C   0  0  0  0  0  0
  -27.2358  -28.4846   20.7297 C   0  0  0  0  0  0
  -26.0168  -26.8144   19.4897 C   0  0  0  0  0  0
  -24.8779  -27.6461   19.4786 C   0  0  0  0  0  0
  -23.6702  -29.7965   20.1552 C   0  0  0  0  0  0
  -25.4123  -36.3036   24.0317 C   0  0  1  0  0  0
  -20.5915  -28.3719   23.1240 C   0  0  2  0  0  0
  -20.6789  -26.9424   22.5403 C   0  0  0  0  0  0
  -19.5761  -26.6383   21.5213 C   0  0  0  0  0  0
  -18.1943  -26.7935   22.1626 C   0  0  0  0  0  0
  -19.1560  -28.8875   23.2854 C   0  0  0  0  0  0
  -18.9477  -30.1471   23.8878 C   0  0  0  0  0  0
  -17.6474  -30.6592   24.0561 C   0  0  0  0  0  0
  -25.9071  -34.9411   23.5067 C   0  0  0  0  0  0
  -16.5364  -29.9085   23.6337 C   0  0  0  0  0  0
  -16.7288  -28.6504   23.0355 C   0  0  0  0  0  0
  -26.4520  -31.6569   25.0723 C   0  0  0  0  0  0
  -25.3710  -31.3757   26.1423 C   0  0  0  0  0  0
  -27.0381  -30.2965   24.6300 C   0  0  0  0  0  0
  -27.6054  -32.4332   25.7507 C   0  0  0  0  0  0
  -27.5575  -37.1788   24.8465 C   0  0  0  0  0  0
  -21.4253  -29.3050   22.3616 N   0  0  0  0  0  0
  -26.4286  -37.3747   23.9406 N   0  0  0  0  0  0
  -24.7149  -31.0331   22.0930 N   0  0  0  0  0  0
  -23.4207  -28.8108   23.3017 O   0  0  0  0  0  0
  -28.2844  -26.1882   20.1837 O   0  0  0  0  0  0
  -26.5655  -34.8906   22.4644 O   0  0  0  0  0  0
  -23.5541  -32.1329   23.7133 O   0  0  0  0  0  0
  -30.2525  -19.9481   20.2342 C   0  0  0  0  0  0
  -30.5135  -18.5049   20.2245 C   0  0  0  0  0  0
  -28.3108  -18.1277   20.9679 C   0  0  0  0  0  0
  -28.0442  -19.5495   20.9809 C   0  0  0  0  0  0
  -29.0054  -20.5594   20.6270 C   0  0  0  0  0  0
  -29.5486  -17.5075   20.6104 C   0  0  0  0  0  0
  -30.1993  -23.1768   22.3269 C   0  0  0  0  0  0
  -30.3646  -23.7089   20.8994 C   0  0  0  0  0  0
  -28.9623  -22.2668   22.2826 C   0  0  0  0  0  0
  -29.0416  -23.3639   20.2192 C   0  0  2  0  0  0
  -26.6564  -19.9836   21.4293 C   0  0  0  0  0  0
  -27.9995  -24.6775   20.4051 C   0  0  0  0  0  0
  -28.6930  -21.9982   20.8709 N   0  0  0  0  0  0
  -29.6336  -15.9816   20.6871 N   0  0  0  0  0  0
  -31.4867  -12.7308   19.1812 H   0  0  0  0  0  0
  -30.4530  -11.5914   19.9974 H   0  0  0  0  0  0
  -29.8355  -11.7449   17.5626 H   0  0  0  0  0  0
  -29.6203  -13.4708   17.7057 H   0  0  0  0  0  0
  -27.9415  -11.2759   18.9545 H   0  0  0  0  0  0
  -27.3931  -12.4767   17.8143 H   0  0  0  0  0  0
  -27.6184  -14.2489   19.4445 H   0  0  0  0  0  0
  -28.7589  -12.2126   21.4225 H   0  0  0  0  0  0
  -28.3873  -13.8740   21.7994 H   0  0  0  0  0  0
  -25.2771   -9.5674   22.4765 H   0  0  0  0  0  0
  -24.0002   -7.4630   22.7473 H   0  0  0  0  0  0
  -21.0849   -8.8784   19.8955 H   0  0  0  0  0  0
  -22.3716  -10.9676   19.6172 H   0  0  0  0  0  0
  -21.2014   -7.6151   23.9719 H   0  0  0  0  0  0
  -21.1479   -6.0526   25.9079 H   0  0  0  0  0  0
  -22.0597   -2.7610   23.2848 H   0  0  0  0  0  0
  -22.4091  -11.9873   22.4822 H   0  0  0  0  0  0
  -21.1089  -13.1234   22.2635 H   0  0  0  0  0  0
  -24.6341  -15.8306   20.4908 H   0  0  0  0  0  0
  -26.2339  -15.6213   19.9926 H   0  0  0  0  0  0
  -26.7265  -32.5317   23.1018 H   0  0  0  0  0  0
  -25.0074  -33.9627   25.0330 H   0  0  0  0  0  0
  -22.7463  -31.2917   21.3825 H   0  0  0  0  0  0
  -23.3755  -35.9591   23.3296 H   0  0  0  0  0  0
  -24.3577  -36.8902   22.2060 H   0  0  0  0  0  0
  -23.7249  -37.6455   23.6686 H   0  0  0  0  0  0
  -26.1539  -31.4802   20.6151 H   0  0  0  0  0  0
  -26.8706  -30.7746   22.0291 H   0  0  0  0  0  0
  -28.1349  -28.8204   21.2270 H   0  0  0  0  0  0
  -25.9268  -25.8728   18.9712 H   0  0  0  0  0  0
  -23.9819  -27.3060   18.9775 H   0  0  0  0  0  0
  -23.8068  -30.5712   19.3997 H   0  0  0  0  0  0
  -22.7854  -29.2382   19.8446 H   0  0  0  0  0  0
  -25.1312  -36.1864   25.0809 H   0  0  0  0  0  0
  -21.0008  -28.3308   24.1360 H   0  0  0  0  0  0
  -20.5684  -26.2333   23.3620 H   0  0  0  0  0  0
  -21.6655  -26.7430   22.1200 H   0  0  0  0  0  0
  -19.6921  -25.6289   21.1255 H   0  0  0  0  0  0
  -19.6696  -27.3183   20.6733 H   0  0  0  0  0  0
  -17.4211  -26.6678   21.4031 H   0  0  0  0  0  0
  -18.0342  -26.0081   22.9026 H   0  0  0  0  0  0
  -19.7951  -30.7294   24.2240 H   0  0  0  0  0  0
  -17.5024  -31.6270   24.5167 H   0  0  0  0  0  0
  -15.5363  -30.2979   23.7671 H   0  0  0  0  0  0
  -15.8689  -28.0815   22.7081 H   0  0  0  0  0  0
  -24.5889  -30.7105   25.7743 H   0  0  0  0  0  0
  -24.8902  -32.2940   26.4804 H   0  0  0  0  0  0
  -25.7998  -30.8956   27.0229 H   0  0  0  0  0  0
  -26.2994  -29.6695   24.1293 H   0  0  0  0  0  0
  -27.3976  -29.7259   25.4875 H   0  0  0  0  0  0
  -27.8913  -30.4199   23.9625 H   0  0  0  0  0  0
  -27.2650  -33.3650   26.2036 H   0  0  0  0  0  0
  -28.3890  -32.6864   25.0353 H   0  0  0  0  0  0
  -28.0693  -31.8489   26.5463 H   0  0  0  0  0  0
  -28.2586  -38.0090   24.7503 H   0  0  0  0  0  0
  -28.1077  -36.2619   24.6299 H   0  0  0  0  0  0
  -27.2292  -37.1443   25.8867 H   0  0  0  0  0  0
  -20.9460  -29.8764   21.6798 H   0  0  0  0  0  0
  -26.0153  -38.2816   24.1406 H   0  0  0  0  0  0
  -31.0698  -20.6024   19.9676 H   0  0  0  0  0  0
  -31.4974  -18.1725   19.9259 H   0  0  0  0  0  0
  -27.5048  -17.4752   21.2723 H   0  0  0  0  0  0
  -30.0517  -23.9861   23.0436 H   0  0  0  0  0  0
  -31.0894  -22.6258   22.6335 H   0  0  0  0  0  0
  -31.1818  -23.1839   20.4027 H   0  0  0  0  0  0
  -30.5958  -24.7744   20.8660 H   0  0  0  0  0  0
  -28.1001  -22.7726   22.7200 H   0  0  0  0  0  0
  -29.1262  -21.3671   22.8805 H   0  0  0  0  0  0
  -29.2174  -23.2165   19.1526 H   0  0  0  0  0  0
  -25.9523  -19.1514   21.4354 H   0  0  0  0  0  0
  -26.2549  -20.7463   20.7614 H   0  0  0  0  0  0
  -26.6964  -20.3978   22.4372 H   0  0  0  0  0  0
  -27.6408  -24.6443   21.4338 H   0  0  0  0  0  0
  -27.1283  -24.4019   19.8170 H   0  0  0  0  0  0
  -28.7474  -15.5860   20.9604 H   0  0  0  0  0  0
  1 25  1  0  0  0
  1 30  2  0  0  0
  1 84  1  0  0  0
  2  3  1  0  0  0
  2 25  1  0  0  0
  2 85  1  0  0  0
  2 86  1  0  0  0
  3  4  1  0  0  0
  3 87  1  0  0  0
  3 88  1  0  0  0
  4  5  1  0  0  0
  4 89  1  0  0  0
  4 90  1  0  0  0
  5  6  1  0  0  0
  5 26  1  0  0  0
  5 91  1  0  0  0
  6 25  1  0  0  0
  6 92  1  0  0  0
  6 93  1  0  0  0
  7  8  2  0  0  0
  7 26  1  0  0  0
  7 29  1  0  0  0
  8  9  1  0  0  0
  8 22  1  0  0  0
  9 10  1  0  0  0
  9 27  2  0  0  0
 10 11  2  0  0  0
 10 15  1  0  0  0
 11 12  1  0  0  0
 11 94  1  0  0  0
 12 13  2  0  0  0
 12 95  1  0  0  0
 13 14  1  0  0  0
 13 31  1  0  0  0
 14 15  2  0  0  0
 14 96  1  0  0  0
 15 97  1  0  0  0
 16 17  2  0  0  0
 16 21  1  0  0  0
 16 31  1  0  0  0
 17 18  1  0  0  0
 17 98  1  0  0  0
 18 19  2  0  0  0
 18 99  1  0  0  0
 19 20  1  0  0  0
 19 24  1  0  0  0
 20 21  2  0  0  0
 20100  1  0  0  0
 21 23  1  0  0  0
 22 28  1  0  0  0
 22 32  2  0  0  0
 26 27  1  0  0  0
 28101  1  0  0  0
 28102  1  0  0  0
 29103  1  0  0  0
 29104  1  0  0  0
 33 34  1  0  0  0
 33 66  1  0  0  0
 33 70  2  0  0  0
 34 36  1  0  0  0
 34 59  1  0  0  0
 34105  1  0  0  0
 35 44  2  0  0  0
 35 45  1  0  0  0
 35 68  1  0  0  0
 36 56  1  0  0  0
 36106  1  0  0  0
 37 39  1  0  0  0
 37 47  1  0  0  0
 37 66  1  0  0  0
 37107  1  0  0  0
 38 43  2  0  0  0
 38 46  1  0  0  0
 38 47  1  0  0  0
 39 64  1  0  0  0
 39 67  2  0  0  0
 40 52  1  0  0  0
 40 53  2  0  0  0
 40 58  1  0  0  0
 41108  1  0  0  0
 41109  1  0  0  0
 41110  1  0  0  0
 41 48  1  0  0  0
 42 43  1  0  0  0
 42 66  1  0  0  0
 42111  1  0  0  0
 42112  1  0  0  0
 43 44  1  0  0  0
 44113  1  0  0  0
 45 46  2  0  0  0
 45114  1  0  0  0
 46115  1  0  0  0
 47116  1  0  0  0
 47117  1  0  0  0
 48 56  1  0  0  0
 48 65  1  0  0  0
 48118  1  0  0  0
 49 50  1  0  0  0
 49 53  1  0  0  0
 49 64  1  0  0  0
 49119  1  0  0  0
 50 51  1  0  0  0
 50120  1  0  0  0
 50121  1  0  0  0
 51 52  1  0  0  0
 51122  1  0  0  0
 51123  1  0  0  0
 52124  1  0  0  0
 52125  1  0  0  0
 53 54  1  0  0  0
 54 55  2  0  0  0
 54126  1  0  0  0
 55 57  1  0  0  0
 55127  1  0  0  0
 56 69  2  0  0  0
 57 58  2  0  0  0
 57128  1  0  0  0
 58129  1  0  0  0
 59 60  1  0  0  0
 59 61  1  0  0  0
 59 62  1  0  0  0
 60130  1  0  0  0
 60131  1  0  0  0
 60132  1  0  0  0
 61133  1  0  0  0
 61134  1  0  0  0
 61135  1  0  0  0
 62136  1  0  0  0
 62137  1  0  0  0
 62138  1  0  0  0
 63 65  1  0  0  0
 63139  1  0  0  0
 63140  1  0  0  0
 63141  1  0  0  0
 64142  1  0  0  0
 65143  1  0  0  0
 68 82  1  0  0  0
 71 72  2  0  0  0
 71 75  1  0  0  0
 71144  1  0  0  0
 72 76  1  0  0  0
 72145  1  0  0  0
 73 74  1  0  0  0
 73 76  2  0  0  0
 73146  1  0  0  0
 74 75  2  0  0  0
 74 81  1  0  0  0
 75 83  1  0  0  0
 76 84  1  0  0  0
 77 78  1  0  0  0
 77 79  1  0  0  0
 77147  1  0  0  0
 77148  1  0  0  0
 78 80  1  0  0  0
 78149  1  0  0  0
 78150  1  0  0  0
 79 83  1  0  0  0
 79151  1  0  0  0
 79152  1  0  0  0
 80 82  1  0  0  0
 80 83  1  0  0  0
 80153  1  0  0  0
 81154  1  0  0  0
 81155  1  0  0  0
 81156  1  0  0  0
 82157  1  0  0  0
 82158  1  0  0  0
 84159  1  0  0  0
M  ISO  4   1 100  68 101  82 101  84 100
M  END
> <chiral flag>
0

> <version>
0

> <s_m_source_file>
/data/baiqing/PycharmProjects/Reinvent-master-3.2/result/LINK_invent/BTK/process_docking_weight1_custom_product_contain_oxygen_bond_distance_aromatic_linkinvent_7_9_3/rearranged_h_0022.sdf

> <i_m_source_file_index>
20

> <r_mmod_Potential_Energy-OPLS-2005>
528.343688964844

> <r_mmod_Stretch_Energy-OPLS-2005>
212.576995849609

> <r_mmod_Bend_Energy-OPLS-2005>
314.607818603516

> <r_mmod_Torsional_Energy-OPLS-2005>
304.305511474609

> <r_mmod_Improper_Torsional_Energy-OPLS-2005>
9.91728496551514

> <r_mmod_Van_der_Waal_Energy-OPLS-2005>
131.306869506836

> <r_mmod_Electrostatic_Energy-OPLS-2005>
-398.045959472656

> <r_mmod_Solvation_Energy-OPLS-2005>
-214.169494628906

> <b_mmod_Minimization_Converged-OPLS-2005>
0

> <r_mmod_RMS_Derivative-OPLS-2005>
0.529614627361298

$$$$
20
                    3D
 Structure written by MMmdl.
170178  0  0  1  0            999 V2000
  -30.6316  -14.6885   20.3047 C   0  0  0  0  0  0
  -30.3996  -12.3834   19.4564 C   0  0  0  0  0  0
  -29.4886  -12.4309   18.2159 C   0  0  0  0  0  0
  -28.0020  -12.3423   18.6246 C   0  0  0  0  0  0
  -27.6223  -13.2532   19.8228 C   0  0  2  0  0  0
  -28.6742  -13.2178   20.9438 C   0  0  0  0  0  0
  -25.2359  -13.8294   20.5704 C   0  0  0  0  0  0
  -24.1683  -13.0462   20.9270 C   0  0  0  0  0  0
  -24.6336  -11.6968   20.8777 C   0  0  0  0  0  0
  -23.9055  -10.4284   21.0416 C   0  0  0  0  0  0
  -24.3626   -9.4180   21.9175 C   0  0  0  0  0  0
  -23.6315   -8.2214   22.0739 C   0  0  0  0  0  0
  -22.4300   -8.0284   21.3541 C   0  0  0  0  0  0
  -21.9924   -9.0236   20.4644 C   0  0  0  0  0  0
  -22.7245  -10.2102   20.3060 C   0  0  0  0  0  0
  -21.6849   -6.0732   22.5263 C   0  0  0  0  0  0
  -21.4013   -6.5630   23.8211 C   0  0  0  0  0  0
  -21.3692   -5.6784   24.9169 C   0  0  0  0  0  0
  -21.6068   -4.3043   24.7190 C   0  0  0  0  0  0
  -21.8802   -3.8144   23.4302 C   0  0  0  0  0  0
  -21.9177   -4.6978   22.3366 C   0  0  0  0  0  0
  -22.7693  -13.5212   21.1957 C   0  0  0  0  0  0
  -22.1634   -4.2164   21.0943 F   0  0  0  0  0  0
  -21.5636   -3.4525   25.7691 F   0  0  0  0  0  0
  -29.9724  -13.4922   20.3230 N   0  0  0  0  0  0
  -26.2811  -12.9553   20.3219 N   0  0  0  0  0  0
  -25.9250  -11.6660   20.5701 N   0  0  0  0  0  0
  -22.0336  -12.8192   22.0542 N   0  0  0  0  0  0
  -25.4039  -15.2004   20.4142 N   0  0  0  0  0  0
  -31.8664  -14.7065   20.3254 O   0  0  0  0  0  0
  -21.6656   -6.8879   21.4242 O   0  0  0  0  0  0
  -22.3368  -14.5510   20.6836 O   0  0  0  0  0  0
  -24.6294  -31.8611   23.2039 C   0  0  0  0  0  0
  -25.9168  -32.4764   23.8318 C   0  0  1  0  0  0
  -27.1901  -27.3182   20.1009 C   0  0  0  0  0  0
  -25.5993  -33.8559   24.2275 N   0  0  0  0  0  0
  -23.4129  -30.4939   21.5493 C   0  0  2  0  0  0
  -24.8477  -28.9575   20.1022 C   0  0  0  0  0  0
  -22.7471  -29.4666   22.4952 C   0  0  0  0  0  0
  -18.0276  -28.1385   22.8491 C   0  0  0  0  0  0
  -24.1497  -36.7279   23.2623 C   0  0  0  0  0  0
  -25.9546  -30.7969   21.3669 C   0  0  0  0  0  0
  -26.0230  -29.4268   20.7057 C   0  0  0  0  0  0
  -27.1993  -28.6188   20.6968 C   0  0  0  0  0  0
  -25.9987  -26.9195   19.4511 C   0  0  0  0  0  0
  -24.8415  -27.7135   19.4572 C   0  0  0  0  0  0
  -23.6204  -29.8398   20.1596 C   0  0  0  0  0  0
  -25.4111  -36.3062   24.0323 C   0  0  1  0  0  0
  -20.5887  -28.3692   23.1296 C   0  0  2  0  0  0
  -20.6771  -26.9433   22.5391 C   0  0  0  0  0  0
  -19.5738  -26.6410   21.5205 C   0  0  0  0  0  0
  -18.1929  -26.7919   22.1637 C   0  0  0  0  0  0
  -19.1530  -28.8854   23.2882 C   0  0  0  0  0  0
  -18.9454  -30.1460   23.8876 C   0  0  0  0  0  0
  -17.6466  -30.6570   24.0582 C   0  0  0  0  0  0
  -25.9068  -34.9438   23.5089 C   0  0  0  0  0  0
  -16.5355  -29.9067   23.6344 C   0  0  0  0  0  0
  -16.7279  -28.6503   23.0346 C   0  0  0  0  0  0
  -26.4533  -31.6538   25.0680 C   0  0  0  0  0  0
  -25.3792  -31.3684   26.1435 C   0  0  0  0  0  0
  -27.0350  -30.2946   24.6113 C   0  0  0  0  0  0
  -27.6079  -32.4257   25.7467 C   0  0  0  0  0  0
  -27.5568  -37.1811   24.8471 C   0  0  0  0  0  0
  -21.4194  -29.3058   22.3708 N   0  0  0  0  0  0
  -26.4268  -37.3779   23.9424 N   0  0  0  0  0  0
  -24.6855  -31.0646   22.0981 N   0  0  0  0  0  0
  -23.4227  -28.8199   23.3002 O   0  0  0  0  0  0
  -28.2816  -26.4362   20.1740 O   0  0  0  0  0  0
  -26.5609  -34.8914   22.4647 O   0  0  0  0  0  0
  -23.5480  -32.1395   23.7449 O   0  0  0  0  0  0
  -30.0663  -18.9369   21.6298 C   0  0  0  0  0  0
  -30.1980  -17.5692   21.2737 C   0  0  0  0  0  0
  -28.6777  -19.3477   19.7291 C   0  0  0  0  0  0
  -28.7913  -17.9683   19.3508 C   0  0  0  0  0  0
  -29.3634  -19.9010   20.8454 C   0  0  0  0  0  0
  -29.6201  -17.0461   20.0928 C   0  0  0  0  0  0
  -28.0221  -17.5572   18.0950 C   0  0  0  0  0  0
  -32.5765  -22.3109   20.7858 C   0  0  0  0  0  0
  -30.4632  -15.7698   18.1936 C   0  0  0  0  0  0
  -31.9687  -22.8551   22.0919 C   0  0  0  0  0  0
  -31.2018  -21.7970   22.9016 C   0  0  0  0  0  0
  -29.0080  -23.8935   20.5321 C   0  0  0  0  0  0
  -29.6901  -21.6415   22.5841 C   0  0  0  0  0  0
  -28.5758  -22.3466   20.4140 C   0  0  0  0  0  0
  -27.9855  -24.9890   20.0124 C   0  0  0  0  0  0
  -29.9964  -15.7054   19.5984 N   0  0  0  0  0  0
  -29.3576  -21.3145   21.1833 N   0  0  0  0  0  0
  -31.4503  -12.4584   19.1768 H   0  0  0  0  0  0
  -30.2759  -11.4341   19.9776 H   0  0  0  0  0  0
  -29.7337  -11.6132   17.5388 H   0  0  0  0  0  0
  -29.6735  -13.3409   17.6490 H   0  0  0  0  0  0
  -27.7965  -11.2999   18.8703 H   0  0  0  0  0  0
  -27.3677  -12.5891   17.7754 H   0  0  0  0  0  0
  -27.6051  -14.2730   19.4348 H   0  0  0  0  0  0
  -28.6745  -12.2462   21.4384 H   0  0  0  0  0  0
  -28.4399  -13.9746   21.6990 H   0  0  0  0  0  0
  -25.2764   -9.5652   22.4766 H   0  0  0  0  0  0
  -24.0021   -7.4591   22.7434 H   0  0  0  0  0  0
  -21.0847   -8.8756   19.8949 H   0  0  0  0  0  0
  -22.3714  -10.9644   19.6158 H   0  0  0  0  0  0
  -21.2016   -7.6139   23.9733 H   0  0  0  0  0  0
  -21.1567   -6.0478   25.9069 H   0  0  0  0  0  0
  -22.0573   -2.7606   23.2781 H   0  0  0  0  0  0
  -22.3971  -11.9904   22.5022 H   0  0  0  0  0  0
  -21.0955  -13.1200   22.2783 H   0  0  0  0  0  0
  -24.6534  -15.8689   20.5593 H   0  0  0  0  0  0
  -26.2731  -15.6425   20.1396 H   0  0  0  0  0  0
  -26.7236  -32.5415   23.1057 H   0  0  0  0  0  0
  -25.0208  -33.9666   25.0464 H   0  0  0  0  0  0
  -22.7058  -31.3153   21.4202 H   0  0  0  0  0  0
  -23.3734  -35.9640   23.3282 H   0  0  0  0  0  0
  -24.3592  -36.8900   22.2039 H   0  0  0  0  0  0
  -23.7292  -37.6498   23.6638 H   0  0  0  0  0  0
  -26.0906  -31.5673   20.6039 H   0  0  0  0  0  0
  -26.8342  -30.8374   21.9983 H   0  0  0  0  0  0
  -28.0992  -28.9791   21.1722 H   0  0  0  0  0  0
  -25.9193  -25.9745   18.9304 H   0  0  0  0  0  0
  -23.9487  -27.3680   18.9517 H   0  0  0  0  0  0
  -23.7398  -30.6181   19.4039 H   0  0  0  0  0  0
  -22.7357  -29.2752   19.8584 H   0  0  0  0  0  0
  -25.1314  -36.1871   25.0809 H   0  0  0  0  0  0
  -20.9975  -28.3249   24.1421 H   0  0  0  0  0  0
  -20.5713  -26.2313   23.3581 H   0  0  0  0  0  0
  -21.6649  -26.7499   22.1181 H   0  0  0  0  0  0
  -19.6902  -25.6337   21.1197 H   0  0  0  0  0  0
  -19.6623  -27.3246   20.6744 H   0  0  0  0  0  0
  -17.4212  -26.6680   21.4018 H   0  0  0  0  0  0
  -18.0333  -26.0030   22.8997 H   0  0  0  0  0  0
  -19.7932  -30.7298   24.2216 H   0  0  0  0  0  0
  -17.5009  -31.6246   24.5216 H   0  0  0  0  0  0
  -15.5350  -30.2985   23.7652 H   0  0  0  0  0  0
  -15.8676  -28.0826   22.7048 H   0  0  0  0  0  0
  -24.6004  -30.6969   25.7822 H   0  0  0  0  0  0
  -24.8950  -32.2858   26.4788 H   0  0  0  0  0  0
  -25.8174  -30.8960   27.0237 H   0  0  0  0  0  0
  -26.2909  -29.6687   24.1180 H   0  0  0  0  0  0
  -27.4101  -29.7197   25.4580 H   0  0  0  0  0  0
  -27.8748  -30.4188   23.9276 H   0  0  0  0  0  0
  -27.2677  -33.3572   26.1980 H   0  0  0  0  0  0
  -28.3928  -32.6771   25.0335 H   0  0  0  0  0  0
  -28.0675  -31.8412   26.5447 H   0  0  0  0  0  0
  -28.2617  -38.0081   24.7526 H   0  0  0  0  0  0
  -28.1038  -36.2629   24.6280 H   0  0  0  0  0  0
  -27.2301  -37.1461   25.8877 H   0  0  0  0  0  0
  -20.9387  -29.8765   21.6895 H   0  0  0  0  0  0
  -26.0120  -38.2848   24.1396 H   0  0  0  0  0  0
  -30.5594  -19.2114   22.5440 H   0  0  0  0  0  0
  -30.8116  -16.9408   21.9025 H   0  0  0  0  0  0
  -28.0515  -19.9928   19.1275 H   0  0  0  0  0  0
  -28.6511  -17.6775   17.2090 H   0  0  0  0  0  0
  -27.1376  -18.1780   17.9461 H   0  0  0  0  0  0
  -27.6815  -16.5237   18.1409 H   0  0  0  0  0  0
  -32.7044  -23.1096   20.0542 H   0  0  0  0  0  0
  -31.9510  -21.5402   20.3347 H   0  0  0  0  0  0
  -33.5572  -21.8688   20.9651 H   0  0  0  0  0  0
  -30.8881  -16.7510   17.9664 H   0  0  0  0  0  0
  -29.6568  -15.5734   17.4874 H   0  0  0  0  0  0
  -31.2496  -15.0600   17.9428 H   0  0  0  0  0  0
  -31.3275  -23.7098   21.8979 H   0  0  0  0  0  0
  -32.7779  -23.2496   22.7101 H   0  0  0  0  0  0
  -31.2637  -22.0672   23.9565 H   0  0  0  0  0  0
  -31.7537  -20.8609   22.8305 H   0  0  0  0  0  0
  -29.9537  -24.0276   20.0059 H   0  0  0  0  0  0
  -29.2062  -24.1473   21.5676 H   0  0  0  0  0  0
  -29.1669  -22.5453   22.8934 H   0  0  0  0  0  0
  -29.2688  -20.8816   23.2445 H   0  0  0  0  0  0
  -28.6152  -22.0846   19.3562 H   0  0  0  0  0  0
  -27.5278  -22.2461   20.7098 H   0  0  0  0  0  0
  -27.0490  -24.7736   20.5326 H   0  0  0  0  0  0
  -27.7967  -24.8065   18.9506 H   0  0  0  0  0  0
  1 25  1  0  0  0
  1 30  2  0  0  0
  1 86  1  0  0  0
  2  3  1  0  0  0
  2 25  1  0  0  0
  2 88  1  0  0  0
  2 89  1  0  0  0
  3  4  1  0  0  0
  3 90  1  0  0  0
  3 91  1  0  0  0
  4  5  1  0  0  0
  4 92  1  0  0  0
  4 93  1  0  0  0
  5  6  1  0  0  0
  5 26  1  0  0  0
  5 94  1  0  0  0
  6 25  1  0  0  0
  6 95  1  0  0  0
  6 96  1  0  0  0
  7  8  2  0  0  0
  7 26  1  0  0  0
  7 29  1  0  0  0
  8  9  1  0  0  0
  8 22  1  0  0  0
  9 10  1  0  0  0
  9 27  2  0  0  0
 10 11  2  0  0  0
 10 15  1  0  0  0
 11 12  1  0  0  0
 11 97  1  0  0  0
 12 13  2  0  0  0
 12 98  1  0  0  0
 13 14  1  0  0  0
 13 31  1  0  0  0
 14 15  2  0  0  0
 14 99  1  0  0  0
 15100  1  0  0  0
 16 17  2  0  0  0
 16 21  1  0  0  0
 16 31  1  0  0  0
 17 18  1  0  0  0
 17101  1  0  0  0
 18 19  2  0  0  0
 18102  1  0  0  0
 19 20  1  0  0  0
 19 24  1  0  0  0
 20 21  2  0  0  0
 20103  1  0  0  0
 21 23  1  0  0  0
 22 28  1  0  0  0
 22 32  2  0  0  0
 26 27  1  0  0  0
 28104  1  0  0  0
 28105  1  0  0  0
 29106  1  0  0  0
 29107  1  0  0  0
 33 34  1  0  0  0
 33 66  1  0  0  0
 33 70  2  0  0  0
 34 36  1  0  0  0
 34 59  1  0  0  0
 34108  1  0  0  0
 35 44  2  0  0  0
 35 45  1  0  0  0
 35 68  1  0  0  0
 36 56  1  0  0  0
 36109  1  0  0  0
 37 39  1  0  0  0
 37 47  1  0  0  0
 37 66  1  0  0  0
 37110  1  0  0  0
 38 43  2  0  0  0
 38 46  1  0  0  0
 38 47  1  0  0  0
 39 64  1  0  0  0
 39 67  2  0  0  0
 40 52  1  0  0  0
 40 53  2  0  0  0
 40 58  1  0  0  0
 41111  1  0  0  0
 41112  1  0  0  0
 41113  1  0  0  0
 41 48  1  0  0  0
 42 43  1  0  0  0
 42 66  1  0  0  0
 42114  1  0  0  0
 42115  1  0  0  0
 43 44  1  0  0  0
 44116  1  0  0  0
 45 46  2  0  0  0
 45117  1  0  0  0
 46118  1  0  0  0
 47119  1  0  0  0
 47120  1  0  0  0
 48 56  1  0  0  0
 48 65  1  0  0  0
 48121  1  0  0  0
 49 50  1  0  0  0
 49 53  1  0  0  0
 49 64  1  0  0  0
 49122  1  0  0  0
 50 51  1  0  0  0
 50123  1  0  0  0
 50124  1  0  0  0
 51 52  1  0  0  0
 51125  1  0  0  0
 51126  1  0  0  0
 52127  1  0  0  0
 52128  1  0  0  0
 53 54  1  0  0  0
 54 55  2  0  0  0
 54129  1  0  0  0
 55 57  1  0  0  0
 55130  1  0  0  0
 56 69  2  0  0  0
 57 58  2  0  0  0
 57131  1  0  0  0
 58132  1  0  0  0
 59 60  1  0  0  0
 59 61  1  0  0  0
 59 62  1  0  0  0
 60133  1  0  0  0
 60134  1  0  0  0
 60135  1  0  0  0
 61136  1  0  0  0
 61137  1  0  0  0
 61138  1  0  0  0
 62139  1  0  0  0
 62140  1  0  0  0
 62141  1  0  0  0
 63 65  1  0  0  0
 63142  1  0  0  0
 63143  1  0  0  0
 63144  1  0  0  0
 64145  1  0  0  0
 65146  1  0  0  0
 68 85  1  0  0  0
 71 72  2  0  0  0
 71 75  1  0  0  0
 71147  1  0  0  0
 72 76  1  0  0  0
 72148  1  0  0  0
 73 74  1  0  0  0
 73 75  2  0  0  0
 73149  1  0  0  0
 74 76  2  0  0  0
 74 77  1  0  0  0
 75 87  1  0  0  0
 76 86  1  0  0  0
 77150  1  0  0  0
 77151  1  0  0  0
 77152  1  0  0  0
 78 80  1  0  0  0
 78153  1  0  0  0
 78154  1  0  0  0
 78155  1  0  0  0
 79 86  1  0  0  0
 79156  1  0  0  0
 79157  1  0  0  0
 79158  1  0  0  0
 80 81  1  0  0  0
 80159  1  0  0  0
 80160  1  0  0  0
 81 83  1  0  0  0
 81161  1  0  0  0
 81162  1  0  0  0
 82 84  1  0  0  0
 82 85  1  0  0  0
 82163  1  0  0  0
 82164  1  0  0  0
 83 87  1  0  0  0
 83165  1  0  0  0
 83166  1  0  0  0
 84 87  1  0  0  0
 84167  1  0  0  0
 84168  1  0  0  0
 85169  1  0  0  0
 85170  1  0  0  0
M  ISO  4   1 100  68 101  85 101  86 100
M  END
> <chiral flag>
0

> <version>
0

> <s_m_source_file>
/data/baiqing/PycharmProjects/Reinvent-master-3.2/result/LINK_invent/BTK/process_docking_weight1_custom_product_contain_oxygen_bond_distance_aromatic_linkinvent_7_9_3/rearranged_h_0022.sdf

> <i_m_source_file_index>
21

> <r_mmod_Potential_Energy-OPLS-2005>
366.588317871094

> <r_mmod_Stretch_Energy-OPLS-2005>
96.4394302368164

> <r_mmod_Bend_Energy-OPLS-2005>
166.068283081055

> <r_mmod_Torsional_Energy-OPLS-2005>
328.564392089844

> <r_mmod_Improper_Torsional_Energy-OPLS-2005>
30.497859954834

> <r_mmod_Van_der_Waal_Energy-OPLS-2005>
169.945709228516

> <r_mmod_Electrostatic_Energy-OPLS-2005>
-314.212585449219

> <r_mmod_Solvation_Energy-OPLS-2005>
-196.456497192383

> <b_mmod_Minimization_Converged-OPLS-2005>
0

> <r_mmod_RMS_Derivative-OPLS-2005>
6.66695261001587

$$$$
21
                    3D
 Structure written by MMmdl.
165174  0  0  1  0            999 V2000
  -30.5212  -15.0161   20.5005 C   0  0  0  0  0  0
  -30.4619  -12.6633   19.5061 C   0  0  0  0  0  0
  -29.5199  -12.5422   18.2833 C   0  0  0  0  0  0
  -28.0560  -12.3214   18.7031 C   0  0  0  0  0  0
  -27.6331  -13.2495   19.8630 C   0  0  2  0  0  0
  -28.6820  -13.2302   20.9898 C   0  0  0  0  0  0
  -25.2389  -13.8249   20.5811 C   0  0  0  0  0  0
  -24.1673  -13.0424   20.9262 C   0  0  0  0  0  0
  -24.6283  -11.6923   20.8747 C   0  0  0  0  0  0
  -23.8976  -10.4278   21.0340 C   0  0  0  0  0  0
  -24.3567   -9.4221   21.9107 C   0  0  0  0  0  0
  -23.6274   -8.2244   22.0710 C   0  0  0  0  0  0
  -22.4260   -8.0250   21.3523 C   0  0  0  0  0  0
  -21.9839   -9.0206   20.4628 C   0  0  0  0  0  0
  -22.7131  -10.2092   20.3020 C   0  0  0  0  0  0
  -21.6853   -6.0672   22.5266 C   0  0  0  0  0  0
  -21.4007   -6.5588   23.8194 C   0  0  0  0  0  0
  -21.3667   -5.6754   24.9165 C   0  0  0  0  0  0
  -21.6056   -4.3020   24.7231 C   0  0  0  0  0  0
  -21.8810   -3.8097   23.4351 C   0  0  0  0  0  0
  -21.9184   -4.6894   22.3396 C   0  0  0  0  0  0
  -22.7694  -13.5196   21.1895 C   0  0  0  0  0  0
  -22.1653   -4.2083   21.0976 F   0  0  0  0  0  0
  -21.5644   -3.4512   25.7752 F   0  0  0  0  0  0
  -29.9459  -13.7324   20.4163 N   0  0  0  0  0  0
  -26.2850  -12.9465   20.3404 N   0  0  0  0  0  0
  -25.9258  -11.6583   20.5808 N   0  0  0  0  0  0
  -22.0394  -12.8252   22.0519 N   0  0  0  0  0  0
  -25.4092  -15.1948   20.4247 N   0  0  0  0  0  0
  -31.6590  -15.1197   20.0227 O   0  0  0  0  0  0
  -21.6637   -6.8836   21.4243 O   0  0  0  0  0  0
  -22.3363  -14.5461   20.6685 O   0  0  0  0  0  0
  -24.6413  -31.8462   23.1848 C   0  0  0  0  0  0
  -25.9200  -32.4716   23.8220 C   0  0  1  0  0  0
  -27.2356  -27.1805   20.1605 C   0  0  0  0  0  0
  -25.6028  -33.8530   24.2177 N   0  0  0  0  0  0
  -23.4465  -30.4538   21.5261 C   0  0  2  0  0  0
  -24.8985  -28.8826   20.0993 C   0  0  0  0  0  0
  -22.7572  -29.4500   22.4850 C   0  0  0  0  0  0
  -18.0337  -28.1335   22.8524 C   0  0  0  0  0  0
  -24.1490  -36.7233   23.2628 C   0  0  0  0  0  0
  -25.9907  -30.7354   21.3746 C   0  0  0  0  0  0
  -26.0631  -29.3460   20.7240 C   0  0  0  0  0  0
  -27.2254  -28.5019   20.7448 C   0  0  0  0  0  0
  -26.0553  -26.8005   19.4904 C   0  0  0  0  0  0
  -24.9078  -27.6271   19.4627 C   0  0  0  0  0  0
  -23.6711  -29.7774   20.1453 C   0  0  0  0  0  0
  -25.4121  -36.3051   24.0320 C   0  0  1  0  0  0
  -20.5941  -28.3672   23.1258 C   0  0  2  0  0  0
  -20.6813  -26.9383   22.5410 C   0  0  0  0  0  0
  -19.5772  -26.6337   21.5228 C   0  0  0  0  0  0
  -18.1958  -26.7902   22.1640 C   0  0  0  0  0  0
  -19.1586  -28.8811   23.2890 C   0  0  0  0  0  0
  -18.9500  -30.1406   23.8901 C   0  0  0  0  0  0
  -17.6482  -30.6544   24.0534 C   0  0  0  0  0  0
  -25.9084  -34.9439   23.5035 C   0  0  0  0  0  0
  -16.5369  -29.9043   23.6306 C   0  0  0  0  0  0
  -16.7316  -28.6433   23.0409 C   0  0  0  0  0  0
  -26.4560  -31.6599   25.0655 C   0  0  0  0  0  0
  -25.3753  -31.3832   26.1347 C   0  0  0  0  0  0
  -27.0401  -30.3009   24.6199 C   0  0  0  0  0  0
  -27.6075  -32.4365   25.7453 C   0  0  0  0  0  0
  -27.5572  -37.1732   24.8444 C   0  0  0  0  0  0
  -21.4249  -29.3014   22.3632 N   0  0  0  0  0  0
  -26.4258  -37.3775   23.9456 N   0  0  0  0  0  0
  -24.7109  -31.0344   22.0856 N   0  0  0  0  0  0
  -23.4203  -28.8082   23.3038 O   0  0  0  0  0  0
  -28.3260  -26.2743   20.3123 O   0  0  0  0  0  0
  -26.5597  -34.8927   22.4566 O   0  0  0  0  0  0
  -23.5546  -32.1285   23.7105 O   0  0  0  0  0  0
  -30.2633  -20.1114   21.3806 C   0  0  0  0  0  0
  -28.4780  -19.7959   19.9166 C   0  0  0  0  0  0
  -30.5315  -18.6844   21.3938 C   0  0  0  0  0  0
  -28.7348  -18.3455   19.9438 C   0  0  0  0  0  0
  -29.2033  -20.7862   20.6756 C   0  0  0  0  0  0
  -29.7708  -17.6747   20.7105 C   0  0  0  0  0  0
  -27.8686  -23.4452   22.6703 C   0  0  0  0  0  0
  -27.0009  -23.5746   21.4197 C   0  0  0  0  0  0
  -29.1649  -22.7460   22.2087 C   0  0  0  0  0  0
  -27.9870  -23.3436   20.2737 C   0  0  2  0  0  0
  -31.8635  -15.4980   23.4803 C   0  0  0  0  0  0
  -28.5195  -24.8476   19.7665 C   0  0  0  0  0  0
  -30.3824  -15.0867   23.4119 C   0  0  0  0  0  0
  -29.5109  -16.0207   22.5317 C   0  0  0  0  0  0
  -28.9656  -22.2665   20.8288 N   0  0  0  0  0  0
  -29.8536  -16.1603   21.0838 N   0  0  0  0  0  0
  -31.4728  -12.8732   19.1486 H   0  0  0  0  0  0
  -30.5454  -11.7237   20.0502 H   0  0  0  0  0  0
  -29.8535  -11.7162   17.6531 H   0  0  0  0  0  0
  -29.5964  -13.4468   17.6802 H   0  0  0  0  0  0
  -27.9590  -11.2867   19.0324 H   0  0  0  0  0  0
  -27.3861  -12.4350   17.8525 H   0  0  0  0  0  0
  -27.6125  -14.2650   19.4638 H   0  0  0  0  0  0
  -28.8017  -12.2195   21.3878 H   0  0  0  0  0  0
  -28.3305  -13.8198   21.8281 H   0  0  0  0  0  0
  -25.2710   -9.5697   22.4674 H   0  0  0  0  0  0
  -23.9972   -7.4614   22.7407 H   0  0  0  0  0  0
  -21.0762   -8.8692   19.8978 H   0  0  0  0  0  0
  -22.3522  -10.9627   19.6152 H   0  0  0  0  0  0
  -21.2010   -7.6102   23.9707 H   0  0  0  0  0  0
  -21.1515   -6.0472   25.9073 H   0  0  0  0  0  0
  -22.0595   -2.7565   23.2875 H   0  0  0  0  0  0
  -22.4048  -11.9991   22.5062 H   0  0  0  0  0  0
  -21.0996  -13.1286   22.2726 H   0  0  0  0  0  0
  -24.6573  -15.8639   20.5475 H   0  0  0  0  0  0
  -26.2686  -15.6287   20.1190 H   0  0  0  0  0  0
  -26.7284  -32.5324   23.0957 H   0  0  0  0  0  0
  -25.0436  -33.9661   25.0510 H   0  0  0  0  0  0
  -22.7428  -31.2728   21.3643 H   0  0  0  0  0  0
  -23.3805  -35.9505   23.3230 H   0  0  0  0  0  0
  -24.3604  -36.8907   22.2055 H   0  0  0  0  0  0
  -23.7134  -37.6375   23.6657 H   0  0  0  0  0  0
  -26.1298  -31.4883   20.5969 H   0  0  0  0  0  0
  -26.8679  -30.7904   22.0113 H   0  0  0  0  0  0
  -28.1037  -28.8436   21.2748 H   0  0  0  0  0  0
  -25.9939  -25.8219   19.0359 H   0  0  0  0  0  0
  -24.0221  -27.2605   18.9610 H   0  0  0  0  0  0
  -23.8092  -30.5405   19.3814 H   0  0  0  0  0  0
  -22.7898  -29.2113   19.8467 H   0  0  0  0  0  0
  -25.1305  -36.1856   25.0802 H   0  0  0  0  0  0
  -21.0047  -28.3227   24.1374 H   0  0  0  0  0  0
  -20.5782  -26.2256   23.3625 H   0  0  0  0  0  0
  -21.6660  -26.7428   22.1141 H   0  0  0  0  0  0
  -19.6940  -25.6255   21.1252 H   0  0  0  0  0  0
  -19.6701  -27.3143   20.6764 H   0  0  0  0  0  0
  -17.4261  -26.6719   21.4009 H   0  0  0  0  0  0
  -18.0286  -26.0023   22.9003 H   0  0  0  0  0  0
  -19.7975  -30.7234   24.2268 H   0  0  0  0  0  0
  -17.5055  -31.6259   24.5084 H   0  0  0  0  0  0
  -15.5376  -30.2969   23.7571 H   0  0  0  0  0  0
  -15.8737  -28.0699   22.7182 H   0  0  0  0  0  0
  -24.5923  -30.7212   25.7662 H   0  0  0  0  0  0
  -24.8991  -32.3060   26.4654 H   0  0  0  0  0  0
  -25.8032  -30.9056   27.0173 H   0  0  0  0  0  0
  -26.2990  -29.6767   24.1190 H   0  0  0  0  0  0
  -27.4047  -29.7277   25.4737 H   0  0  0  0  0  0
  -27.8889  -30.4301   23.9470 H   0  0  0  0  0  0
  -27.2645  -33.3675   26.1973 H   0  0  0  0  0  0
  -28.3898  -32.6917   25.0300 H   0  0  0  0  0  0
  -28.0750  -31.8570   26.5429 H   0  0  0  0  0  0
  -28.2497  -38.0120   24.7665 H   0  0  0  0  0  0
  -28.1140  -36.2664   24.6041 H   0  0  0  0  0  0
  -27.2327  -37.1106   25.8844 H   0  0  0  0  0  0
  -20.9440  -29.8698   21.6793 H   0  0  0  0  0  0
  -26.0123  -38.2805   24.1617 H   0  0  0  0  0  0
  -30.9158  -20.7131   21.9987 H   0  0  0  0  0  0
  -27.6461  -20.1415   19.3206 H   0  0  0  0  0  0
  -31.3355  -18.3520   22.0316 H   0  0  0  0  0  0
  -28.0453  -17.7281   19.3876 H   0  0  0  0  0  0
  -27.3444  -22.8685   23.4383 H   0  0  0  0  0  0
  -28.0953  -24.4263   23.1017 H   0  0  0  0  0  0
  -26.4942  -24.5432   21.3588 H   0  0  0  0  0  0
  -26.2230  -22.8102   21.4161 H   0  0  0  0  0  0
  -29.4090  -21.9625   22.9253 H   0  0  0  0  0  0
  -29.9914  -23.4570   22.2211 H   0  0  0  0  0  0
  -27.4250  -22.9289   19.4332 H   0  0  0  0  0  0
  -31.9849  -16.4377   24.0200 H   0  0  0  0  0  0
  -32.3036  -15.6596   22.4940 H   0  0  0  0  0  0
  -32.4591  -14.7349   23.9813 H   0  0  0  0  0  0
  -28.3535  -24.9000   18.6899 H   0  0  0  0  0  0
  -29.6025  -24.7533   19.8301 H   0  0  0  0  0  0
  -29.9619  -15.0888   24.4210 H   0  0  0  0  0  0
  -30.3048  -14.0495   23.0884 H   0  0  0  0  0  0
  -29.5577  -16.9900   23.0270 H   0  0  0  0  0  0
  -28.4603  -15.7542   22.6214 H   0  0  0  0  0  0
  1 25  1  0  0  0
  1 30  2  0  0  0
  1 86  1  0  0  0
  2  3  1  0  0  0
  2 25  1  0  0  0
  2 87  1  0  0  0
  2 88  1  0  0  0
  3  4  1  0  0  0
  3 89  1  0  0  0
  3 90  1  0  0  0
  4  5  1  0  0  0
  4 91  1  0  0  0
  4 92  1  0  0  0
  5  6  1  0  0  0
  5 26  1  0  0  0
  5 93  1  0  0  0
  6 25  1  0  0  0
  6 94  1  0  0  0
  6 95  1  0  0  0
  7  8  2  0  0  0
  7 26  1  0  0  0
  7 29  1  0  0  0
  8  9  1  0  0  0
  8 22  1  0  0  0
  9 10  1  0  0  0
  9 27  2  0  0  0
 10 11  2  0  0  0
 10 15  1  0  0  0
 11 12  1  0  0  0
 11 96  1  0  0  0
 12 13  2  0  0  0
 12 97  1  0  0  0
 13 14  1  0  0  0
 13 31  1  0  0  0
 14 15  2  0  0  0
 14 98  1  0  0  0
 15 99  1  0  0  0
 16 17  2  0  0  0
 16 21  1  0  0  0
 16 31  1  0  0  0
 17 18  1  0  0  0
 17100  1  0  0  0
 18 19  2  0  0  0
 18101  1  0  0  0
 19 20  1  0  0  0
 19 24  1  0  0  0
 20 21  2  0  0  0
 20102  1  0  0  0
 21 23  1  0  0  0
 22 28  1  0  0  0
 22 32  2  0  0  0
 26 27  1  0  0  0
 28103  1  0  0  0
 28104  1  0  0  0
 29105  1  0  0  0
 29106  1  0  0  0
 33 34  1  0  0  0
 33 66  1  0  0  0
 33 70  2  0  0  0
 34 36  1  0  0  0
 34 59  1  0  0  0
 34107  1  0  0  0
 35 44  2  0  0  0
 35 45  1  0  0  0
 35 68  1  0  0  0
 36 56  1  0  0  0
 36108  1  0  0  0
 37 39  1  0  0  0
 37 47  1  0  0  0
 37 66  1  0  0  0
 37109  1  0  0  0
 38 43  2  0  0  0
 38 46  1  0  0  0
 38 47  1  0  0  0
 39 64  1  0  0  0
 39 67  2  0  0  0
 40 52  1  0  0  0
 40 53  2  0  0  0
 40 58  1  0  0  0
 41110  1  0  0  0
 41111  1  0  0  0
 41112  1  0  0  0
 41 48  1  0  0  0
 42 43  1  0  0  0
 42 66  1  0  0  0
 42113  1  0  0  0
 42114  1  0  0  0
 43 44  1  0  0  0
 44115  1  0  0  0
 45 46  2  0  0  0
 45116  1  0  0  0
 46117  1  0  0  0
 47118  1  0  0  0
 47119  1  0  0  0
 48 56  1  0  0  0
 48 65  1  0  0  0
 48120  1  0  0  0
 49 50  1  0  0  0
 49 53  1  0  0  0
 49 64  1  0  0  0
 49121  1  0  0  0
 50 51  1  0  0  0
 50122  1  0  0  0
 50123  1  0  0  0
 51 52  1  0  0  0
 51124  1  0  0  0
 51125  1  0  0  0
 52126  1  0  0  0
 52127  1  0  0  0
 53 54  1  0  0  0
 54 55  2  0  0  0
 54128  1  0  0  0
 55 57  1  0  0  0
 55129  1  0  0  0
 56 69  2  0  0  0
 57 58  2  0  0  0
 57130  1  0  0  0
 58131  1  0  0  0
 59 60  1  0  0  0
 59 61  1  0  0  0
 59 62  1  0  0  0
 60132  1  0  0  0
 60133  1  0  0  0
 60134  1  0  0  0
 61135  1  0  0  0
 61136  1  0  0  0
 61137  1  0  0  0
 62138  1  0  0  0
 62139  1  0  0  0
 62140  1  0  0  0
 63 65  1  0  0  0
 63141  1  0  0  0
 63142  1  0  0  0
 63143  1  0  0  0
 64144  1  0  0  0
 65145  1  0  0  0
 68 82  1  0  0  0
 71 73  2  0  0  0
 71 75  1  0  0  0
 71146  1  0  0  0
 72 74  1  0  0  0
 72 75  2  0  0  0
 72147  1  0  0  0
 73 76  1  0  0  0
 73148  1  0  0  0
 74 76  2  0  0  0
 74149  1  0  0  0
 75 85  1  0  0  0
 76 86  1  0  0  0
 77 78  1  0  0  0
 77 79  1  0  0  0
 77150  1  0  0  0
 77151  1  0  0  0
 78 80  1  0  0  0
 78152  1  0  0  0
 78153  1  0  0  0
 79 85  1  0  0  0
 79154  1  0  0  0
 79155  1  0  0  0
 80 82  1  0  0  0
 80 85  1  0  0  0
 80156  1  0  0  0
 81 83  1  0  0  0
 81157  1  0  0  0
 81158  1  0  0  0
 81159  1  0  0  0
 82160  1  0  0  0
 82161  1  0  0  0
 83 84  1  0  0  0
 83162  1  0  0  0
 83163  1  0  0  0
 84 86  1  0  0  0
 84164  1  0  0  0
 84165  1  0  0  0
M  ISO  4   1 100  68 101  82 101  86 100
M  END
> <chiral flag>
0

> <version>
0

> <s_m_source_file>
/data/baiqing/PycharmProjects/Reinvent-master-3.2/result/LINK_invent/BTK/process_docking_weight1_custom_product_contain_oxygen_bond_distance_aromatic_linkinvent_7_9_3/rearranged_h_0022.sdf

> <i_m_source_file_index>
22

> <r_mmod_Potential_Energy-OPLS-2005>
886.142456054688

> <r_mmod_Stretch_Energy-OPLS-2005>
249.360946655273

> <r_mmod_Bend_Energy-OPLS-2005>
384.393157958984

> <r_mmod_Torsional_Energy-OPLS-2005>
392.619873046875

> <r_mmod_Improper_Torsional_Energy-OPLS-2005>
9.34666633605957

> <r_mmod_Van_der_Waal_Energy-OPLS-2005>
141.263671875

> <r_mmod_Electrostatic_Energy-OPLS-2005>
-290.777252197266

> <r_mmod_Solvation_Energy-OPLS-2005>
-200.368713378906

> <b_mmod_Minimization_Converged-OPLS-2005>
0

> <r_mmod_RMS_Derivative-OPLS-2005>
7.57239627838135

$$$$
23
                    3D
 Structure written by MMmdl.
163172  0  0  1  0            999 V2000
  -30.6354  -14.7289   20.4337 C   0  0  0  0  0  0
  -30.4238  -12.4382   19.4829 C   0  0  0  0  0  0
  -29.5129  -12.5018   18.2378 C   0  0  0  0  0  0
  -28.0356  -12.3378   18.6441 C   0  0  0  0  0  0
  -27.6397  -13.2385   19.8456 C   0  0  2  0  0  0
  -28.6824  -13.1827   20.9840 C   0  0  0  0  0  0
  -25.2491  -13.8208   20.5680 C   0  0  0  0  0  0
  -24.1791  -13.0443   20.9196 C   0  0  0  0  0  0
  -24.6396  -11.6926   20.8734 C   0  0  0  0  0  0
  -23.9076  -10.4295   21.0399 C   0  0  0  0  0  0
  -24.3624   -9.4208   21.9174 C   0  0  0  0  0  0
  -23.6300   -8.2245   22.0748 C   0  0  0  0  0  0
  -22.4283   -8.0278   21.3538 C   0  0  0  0  0  0
  -21.9918   -9.0252   20.4643 C   0  0  0  0  0  0
  -22.7247  -10.2131   20.3049 C   0  0  0  0  0  0
  -21.6853   -6.0737   22.5275 C   0  0  0  0  0  0
  -21.4018   -6.5638   23.8210 C   0  0  0  0  0  0
  -21.3662   -5.6787   24.9169 C   0  0  0  0  0  0
  -21.6043   -4.3052   24.7221 C   0  0  0  0  0  0
  -21.8815   -3.8144   23.4345 C   0  0  0  0  0  0
  -21.9191   -4.6963   22.3400 C   0  0  0  0  0  0
  -22.7807  -13.5217   21.1858 C   0  0  0  0  0  0
  -22.1656   -4.2151   21.0978 F   0  0  0  0  0  0
  -21.5636   -3.4533   25.7735 F   0  0  0  0  0  0
  -29.9885  -13.5144   20.4028 N   0  0  0  0  0  0
  -26.2921  -12.9436   20.3244 N   0  0  0  0  0  0
  -25.9323  -11.6570   20.5719 N   0  0  0  0  0  0
  -22.0454  -12.8214   22.0427 N   0  0  0  0  0  0
  -25.4167  -15.1938   20.4103 N   0  0  0  0  0  0
  -31.8366  -14.7704   20.1561 O   0  0  0  0  0  0
  -21.6643   -6.8876   21.4238 O   0  0  0  0  0  0
  -22.3484  -14.5515   20.6697 O   0  0  0  0  0  0
  -24.6303  -31.8578   23.2004 C   0  0  0  0  0  0
  -25.9134  -32.4769   23.8344 C   0  0  1  0  0  0
  -27.2130  -27.2689   20.1270 C   0  0  0  0  0  0
  -25.5941  -33.8569   24.2272 N   0  0  0  0  0  0
  -23.4261  -30.4819   21.5441 C   0  0  2  0  0  0
  -24.8722  -28.9354   20.1063 C   0  0  0  0  0  0
  -22.7499  -29.4612   22.4914 C   0  0  0  0  0  0
  -18.0292  -28.1384   22.8492 C   0  0  0  0  0  0
  -24.1493  -36.7290   23.2640 C   0  0  0  0  0  0
  -25.9716  -30.7721   21.3800 C   0  0  0  0  0  0
  -26.0425  -29.3956   20.7221 C   0  0  0  0  0  0
  -27.2141  -28.5730   20.7262 C   0  0  0  0  0  0
  -26.0248  -26.8884   19.4596 C   0  0  0  0  0  0
  -24.8686  -27.6898   19.4629 C   0  0  0  0  0  0
  -23.6426  -29.8208   20.1577 C   0  0  0  0  0  0
  -25.4119  -36.3080   24.0328 C   0  0  1  0  0  0
  -20.5899  -28.3702   23.1274 C   0  0  2  0  0  0
  -20.6785  -26.9420   22.5415 C   0  0  0  0  0  0
  -19.5758  -26.6381   21.5224 C   0  0  0  0  0  0
  -18.1936  -26.7925   22.1631 C   0  0  0  0  0  0
  -19.1547  -28.8859   23.2879 C   0  0  0  0  0  0
  -18.9467  -30.1456   23.8902 C   0  0  0  0  0  0
  -17.6465  -30.6588   24.0561 C   0  0  0  0  0  0
  -25.9059  -34.9448   23.5103 C   0  0  0  0  0  0
  -16.5355  -29.9087   23.6325 C   0  0  0  0  0  0
  -16.7277  -28.6501   23.0356 C   0  0  0  0  0  0
  -26.4503  -31.6580   25.0723 C   0  0  0  0  0  0
  -25.3719  -31.3720   26.1437 C   0  0  0  0  0  0
  -27.0337  -30.3000   24.6175 C   0  0  0  0  0  0
  -27.6068  -32.4306   25.7496 C   0  0  0  0  0  0
  -27.5581  -37.1803   24.8463 C   0  0  0  0  0  0
  -21.4209  -29.3046   22.3660 N   0  0  0  0  0  0
  -26.4294  -37.3778   23.9407 N   0  0  0  0  0  0
  -24.6953  -31.0546   22.0981 N   0  0  0  0  0  0
  -23.4207  -28.8155   23.3007 O   0  0  0  0  0  0
  -28.2995  -26.3664   20.2151 O   0  0  0  0  0  0
  -26.5631  -34.8923   22.4670 O   0  0  0  0  0  0
  -23.5458  -32.1397   23.7306 O   0  0  0  0  0  0
  -31.5398  -18.7367   18.6465 C   0  0  0  0  0  0
  -31.1557  -17.4643   19.0998 C   0  0  0  0  0  0
  -29.5720  -18.5177   20.6036 C   0  0  0  0  0  0
  -30.9716  -19.9220   19.1591 C   0  0  0  0  0  0
  -30.2020  -17.2878   20.1281 C   0  0  0  0  0  0
  -29.9174  -19.8526   20.1161 C   0  0  0  0  0  0
  -28.9327  -22.2519   19.9534 C   0  0  0  0  0  0
  -33.3526  -22.6708   18.6620 C   0  0  0  0  0  0
  -32.5924  -22.6872   17.3276 C   0  0  0  0  0  0
  -32.8113  -21.4539   19.4145 C   0  0  0  0  0  0
  -31.6659  -21.4683   17.3762 C   0  0  0  0  0  0
  -28.9827  -23.7281   20.5741 C   0  0  0  0  0  0
  -28.0746  -24.9042   19.9349 C   0  0  0  0  0  0
  -31.5309  -21.1610   18.7922 N   0  0  0  0  0  0
  -29.3712  -21.1309   20.6464 N   0  0  0  0  0  0
  -29.8962  -15.9002   20.5891 N   0  0  0  0  0  0
  -28.4538  -22.1245   18.8239 O   0  0  0  0  0  0
  -31.4696  -12.5371   19.1873 H   0  0  0  0  0  0
  -30.3435  -11.4664   19.9720 H   0  0  0  0  0  0
  -29.7954  -11.7266   17.5243 H   0  0  0  0  0  0
  -29.6523  -13.4552   17.7252 H   0  0  0  0  0  0
  -27.8816  -11.2898   18.9033 H   0  0  0  0  0  0
  -27.3847  -12.5351   17.7909 H   0  0  0  0  0  0
  -27.6321  -14.2594   19.4624 H   0  0  0  0  0  0
  -28.7054  -12.1925   21.4413 H   0  0  0  0  0  0
  -28.4221  -13.8829   21.7791 H   0  0  0  0  0  0
  -25.2770   -9.5693   22.4744 H   0  0  0  0  0  0
  -24.0009   -7.4642   22.7473 H   0  0  0  0  0  0
  -21.0843   -8.8773   19.8964 H   0  0  0  0  0  0
  -22.3697  -10.9665   19.6158 H   0  0  0  0  0  0
  -21.2014   -7.6146   23.9714 H   0  0  0  0  0  0
  -21.1489   -6.0518   25.9073 H   0  0  0  0  0  0
  -22.0596   -2.7608   23.2839 H   0  0  0  0  0  0
  -22.4074  -11.9895   22.4845 H   0  0  0  0  0  0
  -21.1064  -13.1230   22.2611 H   0  0  0  0  0  0
  -24.6474  -15.8455   20.5217 H   0  0  0  0  0  0
  -26.2617  -15.6351   20.0708 H   0  0  0  0  0  0
  -26.7200  -32.5426   23.1088 H   0  0  0  0  0  0
  -25.0072  -33.9701   25.0406 H   0  0  0  0  0  0
  -22.7220  -31.3045   21.4019 H   0  0  0  0  0  0
  -23.3759  -35.9619   23.3295 H   0  0  0  0  0  0
  -24.3589  -36.8918   22.2057 H   0  0  0  0  0  0
  -23.7238  -37.6487   23.6666 H   0  0  0  0  0  0
  -26.1066  -31.5313   20.6085 H   0  0  0  0  0  0
  -26.8518  -30.8236   22.0086 H   0  0  0  0  0  0
  -28.1052  -28.9151   21.2337 H   0  0  0  0  0  0
  -25.9529  -25.9467   18.9366 H   0  0  0  0  0  0
  -23.9764  -27.3362   18.9650 H   0  0  0  0  0  0
  -23.7664  -30.6004   19.4051 H   0  0  0  0  0  0
  -22.7601  -29.2555   19.8531 H   0  0  0  0  0  0
  -25.1297  -36.1937   25.0819 H   0  0  0  0  0  0
  -20.9989  -28.3287   24.1395 H   0  0  0  0  0  0
  -20.5703  -26.2312   23.3620 H   0  0  0  0  0  0
  -21.6650  -26.7455   22.1200 H   0  0  0  0  0  0
  -19.6921  -25.6293   21.1251 H   0  0  0  0  0  0
  -19.6689  -27.3194   20.6756 H   0  0  0  0  0  0
  -17.4210  -26.6685   21.4026 H   0  0  0  0  0  0
  -18.0328  -26.0064   22.9022 H   0  0  0  0  0  0
  -19.7939  -30.7268   24.2278 H   0  0  0  0  0  0
  -17.5017  -31.6268   24.5164 H   0  0  0  0  0  0
  -15.5355  -30.2993   23.7632 H   0  0  0  0  0  0
  -15.8681  -28.0812   22.7075 H   0  0  0  0  0  0
  -24.5912  -30.7052   25.7760 H   0  0  0  0  0  0
  -24.8884  -32.2880   26.4842 H   0  0  0  0  0  0
  -25.8031  -30.8915   27.0224 H   0  0  0  0  0  0
  -26.2903  -29.6760   24.1200 H   0  0  0  0  0  0
  -27.4037  -29.7253   25.4674 H   0  0  0  0  0  0
  -27.8780  -30.4293   23.9399 H   0  0  0  0  0  0
  -27.2696  -33.3624   26.2049 H   0  0  0  0  0  0
  -28.3892  -32.6826   25.0326 H   0  0  0  0  0  0
  -28.0711  -31.8431   26.5424 H   0  0  0  0  0  0
  -28.2597  -38.0103   24.7514 H   0  0  0  0  0  0
  -28.1075  -36.2631   24.6283 H   0  0  0  0  0  0
  -27.2296  -37.1448   25.8866 H   0  0  0  0  0  0
  -20.9396  -29.8769   21.6865 H   0  0  0  0  0  0
  -26.0174  -38.2854   24.1403 H   0  0  0  0  0  0
  -32.3304  -18.7858   17.9121 H   0  0  0  0  0  0
  -31.6467  -16.6216   18.6380 H   0  0  0  0  0  0
  -28.8180  -18.4412   21.3737 H   0  0  0  0  0  0
  -33.1480  -23.5858   19.2198 H   0  0  0  0  0  0
  -34.4327  -22.6061   18.5235 H   0  0  0  0  0  0
  -33.2611  -22.6489   16.4667 H   0  0  0  0  0  0
  -32.0067  -23.6046   17.2469 H   0  0  0  0  0  0
  -32.7011  -21.6580   20.4812 H   0  0  0  0  0  0
  -33.4921  -20.6069   19.3065 H   0  0  0  0  0  0
  -32.1094  -20.6401   16.8227 H   0  0  0  0  0  0
  -30.6974  -21.6884   16.9237 H   0  0  0  0  0  0
  -30.0247  -24.0413   20.5079 H   0  0  0  0  0  0
  -28.7649  -23.6564   21.6389 H   0  0  0  0  0  0
  -27.0634  -24.6449   20.2492 H   0  0  0  0  0  0
  -28.0865  -24.7957   18.8496 H   0  0  0  0  0  0
  -29.5325  -21.2783   21.6326 H   0  0  0  0  0  0
  -28.9701  -15.7617   20.9646 H   0  0  0  0  0  0
  1 25  1  0  0  0
  1 30  2  0  0  0
  1 86  1  0  0  0
  2  3  1  0  0  0
  2 25  1  0  0  0
  2 88  1  0  0  0
  2 89  1  0  0  0
  3  4  1  0  0  0
  3 90  1  0  0  0
  3 91  1  0  0  0
  4  5  1  0  0  0
  4 92  1  0  0  0
  4 93  1  0  0  0
  5  6  1  0  0  0
  5 26  1  0  0  0
  5 94  1  0  0  0
  6 25  1  0  0  0
  6 95  1  0  0  0
  6 96  1  0  0  0
  7  8  2  0  0  0
  7 26  1  0  0  0
  7 29  1  0  0  0
  8  9  1  0  0  0
  8 22  1  0  0  0
  9 10  1  0  0  0
  9 27  2  0  0  0
 10 11  2  0  0  0
 10 15  1  0  0  0
 11 12  1  0  0  0
 11 97  1  0  0  0
 12 13  2  0  0  0
 12 98  1  0  0  0
 13 14  1  0  0  0
 13 31  1  0  0  0
 14 15  2  0  0  0
 14 99  1  0  0  0
 15100  1  0  0  0
 16 17  2  0  0  0
 16 21  1  0  0  0
 16 31  1  0  0  0
 17 18  1  0  0  0
 17101  1  0  0  0
 18 19  2  0  0  0
 18102  1  0  0  0
 19 20  1  0  0  0
 19 24  1  0  0  0
 20 21  2  0  0  0
 20103  1  0  0  0
 21 23  1  0  0  0
 22 28  1  0  0  0
 22 32  2  0  0  0
 26 27  1  0  0  0
 28104  1  0  0  0
 28105  1  0  0  0
 29106  1  0  0  0
 29107  1  0  0  0
 33 34  1  0  0  0
 33 66  1  0  0  0
 33 70  2  0  0  0
 34 36  1  0  0  0
 34 59  1  0  0  0
 34108  1  0  0  0
 35 44  2  0  0  0
 35 45  1  0  0  0
 35 68  1  0  0  0
 36 56  1  0  0  0
 36109  1  0  0  0
 37 39  1  0  0  0
 37 47  1  0  0  0
 37 66  1  0  0  0
 37110  1  0  0  0
 38 43  2  0  0  0
 38 46  1  0  0  0
 38 47  1  0  0  0
 39 64  1  0  0  0
 39 67  2  0  0  0
 40 52  1  0  0  0
 40 53  2  0  0  0
 40 58  1  0  0  0
 41111  1  0  0  0
 41112  1  0  0  0
 41113  1  0  0  0
 41 48  1  0  0  0
 42 43  1  0  0  0
 42 66  1  0  0  0
 42114  1  0  0  0
 42115  1  0  0  0
 43 44  1  0  0  0
 44116  1  0  0  0
 45 46  2  0  0  0
 45117  1  0  0  0
 46118  1  0  0  0
 47119  1  0  0  0
 47120  1  0  0  0
 48 56  1  0  0  0
 48 65  1  0  0  0
 48121  1  0  0  0
 49 50  1  0  0  0
 49 53  1  0  0  0
 49 64  1  0  0  0
 49122  1  0  0  0
 50 51  1  0  0  0
 50123  1  0  0  0
 50124  1  0  0  0
 51 52  1  0  0  0
 51125  1  0  0  0
 51126  1  0  0  0
 52127  1  0  0  0
 52128  1  0  0  0
 53 54  1  0  0  0
 54 55  2  0  0  0
 54129  1  0  0  0
 55 57  1  0  0  0
 55130  1  0  0  0
 56 69  2  0  0  0
 57 58  2  0  0  0
 57131  1  0  0  0
 58132  1  0  0  0
 59 60  1  0  0  0
 59 61  1  0  0  0
 59 62  1  0  0  0
 60133  1  0  0  0
 60134  1  0  0  0
 60135  1  0  0  0
 61136  1  0  0  0
 61137  1  0  0  0
 61138  1  0  0  0
 62139  1  0  0  0
 62140  1  0  0  0
 62141  1  0  0  0
 63 65  1  0  0  0
 63142  1  0  0  0
 63143  1  0  0  0
 63144  1  0  0  0
 64145  1  0  0  0
 65146  1  0  0  0
 68 83  1  0  0  0
 71 72  2  0  0  0
 71 74  1  0  0  0
 71147  1  0  0  0
 72 75  1  0  0  0
 72148  1  0  0  0
 73 75  2  0  0  0
 73 76  1  0  0  0
 73149  1  0  0  0
 74 76  2  0  0  0
 74 84  1  0  0  0
 75 86  1  0  0  0
 76 85  1  0  0  0
 77 82  1  0  0  0
 77 85  1  0  0  0
 77 87  2  0  0  0
 78 79  1  0  0  0
 78 80  1  0  0  0
 78150  1  0  0  0
 78151  1  0  0  0
 79 81  1  0  0  0
 79152  1  0  0  0
 79153  1  0  0  0
 80 84  1  0  0  0
 80154  1  0  0  0
 80155  1  0  0  0
 81 84  1  0  0  0
 81156  1  0  0  0
 81157  1  0  0  0
 82 83  1  0  0  0
 82158  1  0  0  0
 82159  1  0  0  0
 83160  1  0  0  0
 83161  1  0  0  0
 85162  1  0  0  0
 86163  1  0  0  0
M  ISO  4   1 100  68 101  83 101  86 100
M  END
> <chiral flag>
0

> <version>
0

> <s_m_source_file>
/data/baiqing/PycharmProjects/Reinvent-master-3.2/result/LINK_invent/BTK/process_docking_weight1_custom_product_contain_oxygen_bond_distance_aromatic_linkinvent_7_9_3/rearranged_h_0022.sdf

> <i_m_source_file_index>
23

> <r_mmod_Potential_Energy-OPLS-2005>
209.100067138672

> <r_mmod_Stretch_Energy-OPLS-2005>
125.187469482422

> <r_mmod_Bend_Energy-OPLS-2005>
181.378875732422

> <r_mmod_Torsional_Energy-OPLS-2005>
347.356201171875

> <r_mmod_Improper_Torsional_Energy-OPLS-2005>
11.0075130462646

> <r_mmod_Van_der_Waal_Energy-OPLS-2005>
152.199371337891

> <r_mmod_Electrostatic_Energy-OPLS-2005>
-447.156127929688

> <r_mmod_Solvation_Energy-OPLS-2005>
-244.729904174805

> <b_mmod_Minimization_Converged-OPLS-2005>
0

> <r_mmod_RMS_Derivative-OPLS-2005>
1.263512134552

$$$$
24
                    3D
 Structure written by MMmdl.
155163  0  0  1  0            999 V2000
  -30.6728  -14.6242   20.5857 C   0  0  0  0  0  0
  -30.4288  -12.4063   19.4562 C   0  0  0  0  0  0
  -29.5087  -12.5213   18.2225 C   0  0  0  0  0  0
  -28.0295  -12.3573   18.6231 C   0  0  0  0  0  0
  -27.6498  -13.2226   19.8531 C   0  0  2  0  0  0
  -28.6847  -13.0718   20.9838 C   0  0  0  0  0  0
  -25.2551  -13.8183   20.5670 C   0  0  0  0  0  0
  -24.1815  -13.0440   20.9162 C   0  0  0  0  0  0
  -24.6382  -11.6912   20.8686 C   0  0  0  0  0  0
  -23.9047  -10.4298   21.0371 C   0  0  0  0  0  0
  -24.3613   -9.4217   21.9155 C   0  0  0  0  0  0
  -23.6293   -8.2249   22.0740 C   0  0  0  0  0  0
  -22.4269   -8.0279   21.3542 C   0  0  0  0  0  0
  -21.9893   -9.0243   20.4639 C   0  0  0  0  0  0
  -22.7213  -10.2123   20.3030 C   0  0  0  0  0  0
  -21.6856   -6.0727   22.5278 C   0  0  0  0  0  0
  -21.4025   -6.5630   23.8210 C   0  0  0  0  0  0
  -21.3662   -5.6780   24.9170 C   0  0  0  0  0  0
  -21.6047   -4.3043   24.7218 C   0  0  0  0  0  0
  -21.8821   -3.8137   23.4340 C   0  0  0  0  0  0
  -21.9193   -4.6954   22.3401 C   0  0  0  0  0  0
  -22.7846  -13.5233   21.1826 C   0  0  0  0  0  0
  -22.1663   -4.2140   21.0975 F   0  0  0  0  0  0
  -21.5621   -3.4530   25.7730 F   0  0  0  0  0  0
  -30.0075  -13.4269   20.4414 N   0  0  0  0  0  0
  -26.2966  -12.9378   20.3237 N   0  0  0  0  0  0
  -25.9307  -11.6524   20.5674 N   0  0  0  0  0  0
  -22.0494  -12.8245   22.0407 N   0  0  0  0  0  0
  -25.4252  -15.1911   20.4148 N   0  0  0  0  0  0
  -31.7847  -14.7882   20.0732 O   0  0  0  0  0  0
  -21.6643   -6.8870   21.4240 O   0  0  0  0  0  0
  -22.3522  -14.5522   20.6632 O   0  0  0  0  0  0
  -24.6250  -31.8610   23.2024 C   0  0  0  0  0  0
  -25.9098  -32.4791   23.8353 C   0  0  1  0  0  0
  -27.2285  -27.3304   20.1276 C   0  0  0  0  0  0
  -25.5919  -33.8589   24.2282 N   0  0  0  0  0  0
  -23.4189  -30.4824   21.5450 C   0  0  2  0  0  0
  -24.8665  -28.9322   20.1166 C   0  0  0  0  0  0
  -22.7477  -29.4624   22.4956 C   0  0  0  0  0  0
  -18.0289  -28.1382   22.8487 C   0  0  0  0  0  0
  -24.1493  -36.7291   23.2641 C   0  0  0  0  0  0
  -25.9580  -30.7966   21.3703 C   0  0  0  0  0  0
  -26.0349  -29.4231   20.7149 C   0  0  0  0  0  0
  -27.2225  -28.6357   20.7045 C   0  0  0  0  0  0
  -26.0407  -26.8819   19.5139 C   0  0  0  0  0  0
  -24.8702  -27.6659   19.5077 C   0  0  0  0  0  0
  -23.6338  -29.8119   20.1623 C   0  0  0  0  0  0
  -25.4120  -36.3092   24.0333 C   0  0  1  0  0  0
  -20.5888  -28.3682   23.1293 C   0  0  2  0  0  0
  -20.6781  -26.9406   22.5420 C   0  0  0  0  0  0
  -19.5756  -26.6376   21.5224 C   0  0  0  0  0  0
  -18.1933  -26.7926   22.1627 C   0  0  0  0  0  0
  -19.1540  -28.8852   23.2880 C   0  0  0  0  0  0
  -18.9459  -30.1459   23.8886 C   0  0  0  0  0  0
  -17.6458  -30.6587   24.0559 C   0  0  0  0  0  0
  -25.9053  -34.9460   23.5110 C   0  0  0  0  0  0
  -16.5349  -29.9081   23.6327 C   0  0  0  0  0  0
  -16.7277  -28.6501   23.0344 C   0  0  0  0  0  0
  -26.4479  -31.6600   25.0724 C   0  0  0  0  0  0
  -25.3709  -31.3730   26.1449 C   0  0  0  0  0  0
  -27.0334  -30.3035   24.6171 C   0  0  0  0  0  0
  -27.6043  -32.4333   25.7491 C   0  0  0  0  0  0
  -27.5584  -37.1807   24.8466 C   0  0  0  0  0  0
  -21.4195  -29.3032   22.3692 N   0  0  0  0  0  0
  -26.4298  -37.3785   23.9408 N   0  0  0  0  0  0
  -24.6859  -31.0630   22.0966 N   0  0  0  0  0  0
  -23.4202  -28.8169   23.3038 O   0  0  0  0  0  0
  -28.3509  -26.4961   20.1307 O   0  0  0  0  0  0
  -26.5621  -34.8923   22.4675 O   0  0  0  0  0  0
  -23.5413  -32.1400   23.7353 O   0  0  0  0  0  0
  -29.5466  -19.4827   21.5149 C   0  0  0  0  0  0
  -29.7727  -18.1100   21.8371 C   0  0  0  0  0  0
  -29.4824  -18.8876   19.2040 C   0  0  0  0  0  0
  -29.4024  -19.9192   20.1786 C   0  0  0  0  0  0
  -29.8658  -17.0578   20.8665 C   0  0  0  0  0  0
  -29.6876  -17.5058   19.5168 C   0  0  0  0  0  0
  -30.0746  -15.3965   22.7551 C   0  0  0  0  0  0
  -28.7802  -23.8801   19.8983 C   0  0  0  0  0  0
  -28.8162  -22.4537   20.6285 C   0  0  0  0  0  0
  -28.2058  -25.1356   20.6966 C   0  0  0  0  0  0
  -29.1982  -21.2845   19.7733 N   0  0  0  0  0  0
  -30.0712  -15.6437   21.3005 N   0  0  0  0  0  0
  -29.6443  -16.4080   18.1803 Cl  0  0  0  0  0  0
  -31.4732  -12.5171   19.1619 H   0  0  0  0  0  0
  -30.3568  -11.4101   19.8954 H   0  0  0  0  0  0
  -29.7795  -11.7739   17.4749 H   0  0  0  0  0  0
  -29.6552  -13.4924   17.7484 H   0  0  0  0  0  0
  -27.8595  -11.3037   18.8438 H   0  0  0  0  0  0
  -27.3821  -12.5989   17.7790 H   0  0  0  0  0  0
  -27.6718  -14.2606   19.5201 H   0  0  0  0  0  0
  -28.6963  -12.0479   21.3600 H   0  0  0  0  0  0
  -28.3847  -13.6911   21.8269 H   0  0  0  0  0  0
  -25.2766   -9.5706   22.4710 H   0  0  0  0  0  0
  -24.0004   -7.4649   22.7471 H   0  0  0  0  0  0
  -21.0811   -8.8749   19.8955 H   0  0  0  0  0  0
  -22.3660  -10.9646   19.6126 H   0  0  0  0  0  0
  -21.2030   -7.6138   23.9720 H   0  0  0  0  0  0
  -21.1479   -6.0501   25.9072 H   0  0  0  0  0  0
  -22.0597   -2.7596   23.2837 H   0  0  0  0  0  0
  -22.4113  -11.9926   22.4840 H   0  0  0  0  0  0
  -21.1103  -13.1254   22.2581 H   0  0  0  0  0  0
  -24.6616  -15.8464   20.5360 H   0  0  0  0  0  0
  -26.2853  -15.6345   20.1180 H   0  0  0  0  0  0
  -26.7170  -32.5466   23.1107 H   0  0  0  0  0  0
  -25.0071  -33.9743   25.0429 H   0  0  0  0  0  0
  -22.7109  -31.3017   21.4012 H   0  0  0  0  0  0
  -23.3764  -35.9615   23.3308 H   0  0  0  0  0  0
  -24.3576  -36.8905   22.2053 H   0  0  0  0  0  0
  -23.7240  -37.6491   23.6656 H   0  0  0  0  0  0
  -26.0889  -31.5606   20.6023 H   0  0  0  0  0  0
  -26.8382  -30.8451   21.9999 H   0  0  0  0  0  0
  -28.1237  -29.0122   21.1677 H   0  0  0  0  0  0
  -26.0146  -25.9081   19.0450 H   0  0  0  0  0  0
  -23.9729  -27.2831   19.0406 H   0  0  0  0  0  0
  -23.7529  -30.5868   19.4045 H   0  0  0  0  0  0
  -22.7540  -29.2412   19.8603 H   0  0  0  0  0  0
  -25.1302  -36.1945   25.0826 H   0  0  0  0  0  0
  -20.9976  -28.3259   24.1416 H   0  0  0  0  0  0
  -20.5700  -26.2290   23.3618 H   0  0  0  0  0  0
  -21.6648  -26.7451   22.1203 H   0  0  0  0  0  0
  -19.6915  -25.6288   21.1253 H   0  0  0  0  0  0
  -19.6693  -27.3188   20.6755 H   0  0  0  0  0  0
  -17.4211  -26.6686   21.4018 H   0  0  0  0  0  0
  -18.0312  -26.0067   22.9017 H   0  0  0  0  0  0
  -19.7936  -30.7281   24.2238 H   0  0  0  0  0  0
  -17.5013  -31.6265   24.5167 H   0  0  0  0  0  0
  -15.5345  -30.2973   23.7665 H   0  0  0  0  0  0
  -15.8682  -28.0823   22.7045 H   0  0  0  0  0  0
  -24.5871  -30.7104   25.7762 H   0  0  0  0  0  0
  -24.8909  -32.2893   26.4893 H   0  0  0  0  0  0
  -25.8017  -30.8878   27.0216 H   0  0  0  0  0  0
  -26.2917  -29.6785   24.1190 H   0  0  0  0  0  0
  -27.4044  -29.7290   25.4667 H   0  0  0  0  0  0
  -27.8769  -30.4343   23.9391 H   0  0  0  0  0  0
  -27.2663  -33.3629   26.2078 H   0  0  0  0  0  0
  -28.3840  -32.6905   25.0311 H   0  0  0  0  0  0
  -28.0729  -31.8457   26.5395 H   0  0  0  0  0  0
  -28.2609  -38.0097   24.7516 H   0  0  0  0  0  0
  -28.1072  -36.2632   24.6291 H   0  0  0  0  0  0
  -27.2297  -37.1454   25.8867 H   0  0  0  0  0  0
  -20.9383  -29.8726   21.6875 H   0  0  0  0  0  0
  -26.0183  -38.2863   24.1397 H   0  0  0  0  0  0
  -29.4958  -20.2005   22.3214 H   0  0  0  0  0  0
  -29.8670  -17.8962   22.8894 H   0  0  0  0  0  0
  -29.3668  -19.1522   18.1636 H   0  0  0  0  0  0
  -29.1187  -15.6852   23.1935 H   0  0  0  0  0  0
  -30.8707  -15.9624   23.2397 H   0  0  0  0  0  0
  -30.2460  -14.3533   23.0296 H   0  0  0  0  0  0
  -28.2007  -23.7883   18.9792 H   0  0  0  0  0  0
  -29.7957  -24.1218   19.5825 H   0  0  0  0  0  0
  -27.8329  -22.2490   21.0555 H   0  0  0  0  0  0
  -29.5041  -22.5100   21.4733 H   0  0  0  0  0  0
  -28.7169  -25.1704   21.6594 H   0  0  0  0  0  0
  -27.1639  -24.9337   20.9500 H   0  0  0  0  0  0
  -29.1197  -21.4428   18.7709 H   0  0  0  0  0  0
  1 25  1  0  0  0
  1 30  2  0  0  0
  1 82  1  0  0  0
  2  3  1  0  0  0
  2 25  1  0  0  0
  2 84  1  0  0  0
  2 85  1  0  0  0
  3  4  1  0  0  0
  3 86  1  0  0  0
  3 87  1  0  0  0
  4  5  1  0  0  0
  4 88  1  0  0  0
  4 89  1  0  0  0
  5  6  1  0  0  0
  5 26  1  0  0  0
  5 90  1  0  0  0
  6 25  1  0  0  0
  6 91  1  0  0  0
  6 92  1  0  0  0
  7  8  2  0  0  0
  7 26  1  0  0  0
  7 29  1  0  0  0
  8  9  1  0  0  0
  8 22  1  0  0  0
  9 10  1  0  0  0
  9 27  2  0  0  0
 10 11  2  0  0  0
 10 15  1  0  0  0
 11 12  1  0  0  0
 11 93  1  0  0  0
 12 13  2  0  0  0
 12 94  1  0  0  0
 13 14  1  0  0  0
 13 31  1  0  0  0
 14 15  2  0  0  0
 14 95  1  0  0  0
 15 96  1  0  0  0
 16 17  2  0  0  0
 16 21  1  0  0  0
 16 31  1  0  0  0
 17 18  1  0  0  0
 17 97  1  0  0  0
 18 19  2  0  0  0
 18 98  1  0  0  0
 19 20  1  0  0  0
 19 24  1  0  0  0
 20 21  2  0  0  0
 20 99  1  0  0  0
 21 23  1  0  0  0
 22 28  1  0  0  0
 22 32  2  0  0  0
 26 27  1  0  0  0
 28100  1  0  0  0
 28101  1  0  0  0
 29102  1  0  0  0
 29103  1  0  0  0
 33 34  1  0  0  0
 33 66  1  0  0  0
 33 70  2  0  0  0
 34 36  1  0  0  0
 34 59  1  0  0  0
 34104  1  0  0  0
 35 44  2  0  0  0
 35 45  1  0  0  0
 35 68  1  0  0  0
 36 56  1  0  0  0
 36105  1  0  0  0
 37 39  1  0  0  0
 37 47  1  0  0  0
 37 66  1  0  0  0
 37106  1  0  0  0
 38 43  2  0  0  0
 38 46  1  0  0  0
 38 47  1  0  0  0
 39 64  1  0  0  0
 39 67  2  0  0  0
 40 52  1  0  0  0
 40 53  2  0  0  0
 40 58  1  0  0  0
 41107  1  0  0  0
 41108  1  0  0  0
 41109  1  0  0  0
 41 48  1  0  0  0
 42 43  1  0  0  0
 42 66  1  0  0  0
 42110  1  0  0  0
 42111  1  0  0  0
 43 44  1  0  0  0
 44112  1  0  0  0
 45 46  2  0  0  0
 45113  1  0  0  0
 46114  1  0  0  0
 47115  1  0  0  0
 47116  1  0  0  0
 48 56  1  0  0  0
 48 65  1  0  0  0
 48117  1  0  0  0
 49 50  1  0  0  0
 49 53  1  0  0  0
 49 64  1  0  0  0
 49118  1  0  0  0
 50 51  1  0  0  0
 50119  1  0  0  0
 50120  1  0  0  0
 51 52  1  0  0  0
 51121  1  0  0  0
 51122  1  0  0  0
 52123  1  0  0  0
 52124  1  0  0  0
 53 54  1  0  0  0
 54 55  2  0  0  0
 54125  1  0  0  0
 55 57  1  0  0  0
 55126  1  0  0  0
 56 69  2  0  0  0
 57 58  2  0  0  0
 57127  1  0  0  0
 58128  1  0  0  0
 59 60  1  0  0  0
 59 61  1  0  0  0
 59 62  1  0  0  0
 60129  1  0  0  0
 60130  1  0  0  0
 60131  1  0  0  0
 61132  1  0  0  0
 61133  1  0  0  0
 61134  1  0  0  0
 62135  1  0  0  0
 62136  1  0  0  0
 62137  1  0  0  0
 63 65  1  0  0  0
 63138  1  0  0  0
 63139  1  0  0  0
 63140  1  0  0  0
 64141  1  0  0  0
 65142  1  0  0  0
 68 80  1  0  0  0
 71 72  2  0  0  0
 71 74  1  0  0  0
 71143  1  0  0  0
 72 75  1  0  0  0
 72144  1  0  0  0
 73 74  2  0  0  0
 73 76  1  0  0  0
 73145  1  0  0  0
 74 81  1  0  0  0
 75 76  2  0  0  0
 75 82  1  0  0  0
 76 83  1  0  0  0
 77 82  1  0  0  0
 77146  1  0  0  0
 77147  1  0  0  0
 77148  1  0  0  0
 78 79  1  0  0  0
 78 80  1  0  0  0
 78149  1  0  0  0
 78150  1  0  0  0
 79 81  1  0  0  0
 79151  1  0  0  0
 79152  1  0  0  0
 80153  1  0  0  0
 80154  1  0  0  0
 81155  1  0  0  0
M  ISO  4   1 100  68 101  80 101  82 100
M  END
> <chiral flag>
0

> <version>
0

> <s_m_source_file>
/data/baiqing/PycharmProjects/Reinvent-master-3.2/result/LINK_invent/BTK/process_docking_weight1_custom_product_contain_oxygen_bond_distance_aromatic_linkinvent_7_9_3/rearranged_h_0022.sdf

> <i_m_source_file_index>
24

> <r_mmod_Potential_Energy-OPLS-2005>
206.98063659668

> <r_mmod_Stretch_Energy-OPLS-2005>
90.1989822387695

> <r_mmod_Bend_Energy-OPLS-2005>
157.287048339844

> <r_mmod_Torsional_Energy-OPLS-2005>
280.208312988281

> <r_mmod_Improper_Torsional_Energy-OPLS-2005>
3.35154509544373

> <r_mmod_Van_der_Waal_Energy-OPLS-2005>
148.718185424805

> <r_mmod_Electrostatic_Energy-OPLS-2005>
-310.970703125

> <r_mmod_Solvation_Energy-OPLS-2005>
-203.127944946289

> <b_mmod_Minimization_Converged-OPLS-2005>
0

> <r_mmod_RMS_Derivative-OPLS-2005>
1.59766817092896

$$$$
25
                    3D
 Structure written by MMmdl.
161170  0  0  1  0            999 V2000
  -30.6957  -14.4842   20.6108 C   0  0  0  0  0  0
  -30.4276  -12.3202   19.4259 C   0  0  0  0  0  0
  -29.4978  -12.5115   18.2108 C   0  0  0  0  0  0
  -28.0175  -12.3739   18.6196 C   0  0  0  0  0  0
  -27.6644  -13.2091   19.8803 C   0  0  2  0  0  0
  -28.7086  -12.9915   20.9995 C   0  0  0  0  0  0
  -25.2602  -13.8169   20.5712 C   0  0  0  0  0  0
  -24.1847  -13.0434   20.9183 C   0  0  0  0  0  0
  -24.6404  -11.6909   20.8731 C   0  0  0  0  0  0
  -23.9069  -10.4293   21.0396 C   0  0  0  0  0  0
  -24.3621   -9.4212   21.9177 C   0  0  0  0  0  0
  -23.6292   -8.2250   22.0757 C   0  0  0  0  0  0
  -22.4268   -8.0291   21.3552 C   0  0  0  0  0  0
  -21.9908   -9.0260   20.4643 C   0  0  0  0  0  0
  -22.7241  -10.2138   20.3049 C   0  0  0  0  0  0
  -21.6857   -6.0740   22.5279 C   0  0  0  0  0  0
  -21.4015   -6.5643   23.8213 C   0  0  0  0  0  0
  -21.3663   -5.6796   24.9174 C   0  0  0  0  0  0
  -21.6046   -4.3058   24.7225 C   0  0  0  0  0  0
  -21.8823   -3.8152   23.4345 C   0  0  0  0  0  0
  -21.9195   -4.6969   22.3400 C   0  0  0  0  0  0
  -22.7867  -13.5224   21.1848 C   0  0  0  0  0  0
  -22.1666   -4.2160   21.0978 F   0  0  0  0  0  0
  -21.5628   -3.4541   25.7739 F   0  0  0  0  0  0
  -30.0354  -13.3035   20.4486 N   0  0  0  0  0  0
  -26.3047  -12.9344   20.3406 N   0  0  0  0  0  0
  -25.9339  -11.6498   20.5775 N   0  0  0  0  0  0
  -22.0507  -12.8205   22.0402 N   0  0  0  0  0  0
  -25.4295  -15.1887   20.4152 N   0  0  0  0  0  0
  -31.7968  -14.6827   20.0867 O   0  0  0  0  0  0
  -21.6641   -6.8883   21.4241 O   0  0  0  0  0  0
  -22.3547  -14.5527   20.6703 O   0  0  0  0  0  0
  -24.6162  -31.8665   23.2108 C   0  0  0  0  0  0
  -25.9050  -32.4819   23.8406 C   0  0  1  0  0  0
  -27.2372  -27.4234   20.1013 C   0  0  0  0  0  0
  -25.5903  -33.8617   24.2342 N   0  0  0  0  0  0
  -23.4070  -30.4891   21.5506 C   0  0  2  0  0  0
  -24.8595  -28.9563   20.1151 C   0  0  0  0  0  0
  -22.7429  -29.4637   22.4979 C   0  0  0  0  0  0
  -18.0278  -28.1373   22.8488 C   0  0  0  0  0  0
  -24.1478  -36.7315   23.2638 C   0  0  0  0  0  0
  -25.9373  -30.8266   21.3688 C   0  0  0  0  0  0
  -26.0181  -29.4576   20.7237 C   0  0  0  0  0  0
  -27.2127  -28.6942   20.7257 C   0  0  0  0  0  0
  -26.0729  -26.9548   19.4616 C   0  0  0  0  0  0
  -24.8820  -27.7028   19.4812 C   0  0  0  0  0  0
  -23.6201  -29.8222   20.1655 C   0  0  0  0  0  0
  -25.4099  -36.3115   24.0341 C   0  0  1  0  0  0
  -20.5868  -28.3664   23.1312 C   0  0  2  0  0  0
  -20.6759  -26.9395   22.5418 C   0  0  0  0  0  0
  -19.5737  -26.6384   21.5211 C   0  0  0  0  0  0
  -18.1915  -26.7918   22.1623 C   0  0  0  0  0  0
  -19.1527  -28.8834   23.2890 C   0  0  0  0  0  0
  -18.9456  -30.1439   23.8902 C   0  0  0  0  0  0
  -17.6457  -30.6576   24.0567 C   0  0  0  0  0  0
  -25.9028  -34.9476   23.5137 C   0  0  0  0  0  0
  -16.5348  -29.9078   23.6330 C   0  0  0  0  0  0
  -16.7265  -28.6498   23.0346 C   0  0  0  0  0  0
  -26.4487  -31.6572   25.0717 C   0  0  0  0  0  0
  -25.3757  -31.3635   26.1467 C   0  0  0  0  0  0
  -27.0313  -30.3021   24.6046 C   0  0  0  0  0  0
  -27.6067  -32.4274   25.7480 C   0  0  0  0  0  0
  -27.5574  -37.1815   24.8471 C   0  0  0  0  0  0
  -21.4150  -29.3031   22.3723 N   0  0  0  0  0  0
  -26.4284  -37.3804   23.9420 N   0  0  0  0  0  0
  -24.6716  -31.0751   22.1022 N   0  0  0  0  0  0
  -23.4186  -28.8171   23.3025 O   0  0  0  0  0  0
  -28.3515  -26.6085   20.0763 O   0  0  0  0  0  0
  -26.5588  -34.8928   22.4697 O   0  0  0  0  0  0
  -23.5357  -32.1419   23.7502 O   0  0  0  0  0  0
  -28.8639  -21.1589   21.7234 C   0  0  0  0  0  0
  -30.1270  -20.2122   19.4172 C   0  0  0  0  0  0
  -29.1231  -22.0714   20.6725 C   0  0  0  0  0  0
  -29.8572  -19.2909   20.4584 C   0  0  0  0  0  0
  -29.2111  -19.7913   21.6210 C   0  0  0  0  0  0
  -29.7619  -21.5783   19.5079 C   0  0  0  0  0  0
  -29.3865  -24.5229   20.9411 C   0  0  0  0  0  0
  -26.5391  -24.4875   21.7317 C   0  0  0  0  0  0
  -27.5068  -25.5675   22.2515 C   0  0  0  0  0  0
  -27.1555  -23.5701   20.6552 C   0  0  0  0  0  0
  -28.6776  -25.8726   21.2818 C   0  0  2  0  0  0
  -30.0322  -15.6389   21.4171 C   0  0  0  0  0  0
  -30.6865  -17.0599   21.3397 C   0  0  0  0  0  0
  -28.6107  -23.4139   20.7660 N   0  0  0  0  0  0
  -30.1879  -17.9242   20.2530 N   0  0  0  0  0  0
  -30.6216  -24.4868   20.8949 O   0  0  0  0  0  0
  -28.8605  -18.9619   22.6340 F   0  0  0  0  0  0
  -30.0348  -22.6012   18.1401 Cl  0  0  0  0  0  0
  -31.4710  -12.4253   19.1254 H   0  0  0  0  0  0
  -30.3363  -11.3089   19.8261 H   0  0  0  0  0  0
  -29.7388  -11.7847   17.4346 H   0  0  0  0  0  0
  -29.6683  -13.4957   17.7728 H   0  0  0  0  0  0
  -27.8200  -11.3171   18.8064 H   0  0  0  0  0  0
  -27.3717  -12.6601   17.7882 H   0  0  0  0  0  0
  -27.7062  -14.2573   19.5854 H   0  0  0  0  0  0
  -28.6914  -11.9552   21.3409 H   0  0  0  0  0  0
  -28.4677  -13.5899   21.8780 H   0  0  0  0  0  0
  -25.2779   -9.5689   22.4736 H   0  0  0  0  0  0
  -24.0014   -7.4641   22.7472 H   0  0  0  0  0  0
  -21.0848   -8.8771   19.8934 H   0  0  0  0  0  0
  -22.3709  -10.9673   19.6146 H   0  0  0  0  0  0
  -21.2002   -7.6152   23.9719 H   0  0  0  0  0  0
  -21.1483   -6.0524   25.9077 H   0  0  0  0  0  0
  -22.0595   -2.7617   23.2838 H   0  0  0  0  0  0
  -22.4125  -11.9873   22.4798 H   0  0  0  0  0  0
  -21.1121  -13.1228   22.2602 H   0  0  0  0  0  0
  -24.6641  -15.8439   20.5331 H   0  0  0  0  0  0
  -26.2941  -15.6355   20.1349 H   0  0  0  0  0  0
  -26.7123  -32.5553   23.1174 H   0  0  0  0  0  0
  -25.0071  -33.9775   25.0501 H   0  0  0  0  0  0
  -22.6976  -31.3066   21.4105 H   0  0  0  0  0  0
  -23.3737  -35.9651   23.3311 H   0  0  0  0  0  0
  -24.3568  -36.8925   22.2052 H   0  0  0  0  0  0
  -23.7234  -37.6522   23.6648 H   0  0  0  0  0  0
  -26.0433  -31.5841   20.5912 H   0  0  0  0  0  0
  -26.8287  -30.8917   21.9804 H   0  0  0  0  0  0
  -28.1046  -29.0707   21.2073 H   0  0  0  0  0  0
  -26.0830  -25.9967   18.9631 H   0  0  0  0  0  0
  -23.9965  -27.3146   18.9964 H   0  0  0  0  0  0
  -23.7280  -30.5978   19.4071 H   0  0  0  0  0  0
  -22.7451  -29.2403   19.8695 H   0  0  0  0  0  0
  -25.1271  -36.1985   25.0835 H   0  0  0  0  0  0
  -20.9955  -28.3226   24.1434 H   0  0  0  0  0  0
  -20.5654  -26.2270   23.3604 H   0  0  0  0  0  0
  -21.6629  -26.7427   22.1212 H   0  0  0  0  0  0
  -19.6894  -25.6300   21.1221 H   0  0  0  0  0  0
  -19.6674  -27.3210   20.6752 H   0  0  0  0  0  0
  -17.4190  -26.6676   21.4025 H   0  0  0  0  0  0
  -18.0309  -26.0053   22.9015 H   0  0  0  0  0  0
  -19.7935  -30.7253   24.2264 H   0  0  0  0  0  0
  -17.5018  -31.6255   24.5169 H   0  0  0  0  0  0
  -15.5346  -30.2986   23.7643 H   0  0  0  0  0  0
  -15.8668  -28.0822   22.7051 H   0  0  0  0  0  0
  -24.5985  -30.6914   25.7810 H   0  0  0  0  0  0
  -24.8876  -32.2756   26.4903 H   0  0  0  0  0  0
  -25.8144  -30.8843   27.0228 H   0  0  0  0  0  0
  -26.2840  -29.6774   24.1137 H   0  0  0  0  0  0
  -27.4148  -29.7254   25.4472 H   0  0  0  0  0  0
  -27.8647  -30.4356   23.9145 H   0  0  0  0  0  0
  -27.2708  -33.3586   26.2052 H   0  0  0  0  0  0
  -28.3890  -32.6798   25.0308 H   0  0  0  0  0  0
  -28.0709  -31.8381   26.5401 H   0  0  0  0  0  0
  -28.2593  -38.0108   24.7529 H   0  0  0  0  0  0
  -28.1068  -36.2647   24.6291 H   0  0  0  0  0  0
  -27.2291  -37.1459   25.8871 H   0  0  0  0  0  0
  -20.9317  -29.8783   21.6966 H   0  0  0  0  0  0
  -26.0171  -38.2877   24.1440 H   0  0  0  0  0  0
  -28.3521  -21.4965   22.6120 H   0  0  0  0  0  0
  -30.5910  -19.8701   18.5042 H   0  0  0  0  0  0
  -25.6412  -24.9542   21.3250 H   0  0  0  0  0  0
  -26.1968  -23.8873   22.5752 H   0  0  0  0  0  0
  -27.9443  -25.1993   23.1812 H   0  0  0  0  0  0
  -26.9652  -26.4673   22.5445 H   0  0  0  0  0  0
  -26.9643  -23.9847   19.6645 H   0  0  0  0  0  0
  -26.6524  -22.6028   20.6658 H   0  0  0  0  0  0
  -29.3952  -26.4911   21.8230 H   0  0  0  0  0  0
  -28.9734  -15.7191   21.1698 H   0  0  0  0  0  0
  -30.0695  -15.3192   22.4592 H   0  0  0  0  0  0
  -31.7654  -16.9565   21.2127 H   0  0  0  0  0  0
  -30.5791  -17.5474   22.3074 H   0  0  0  0  0  0
  -30.6085  -17.7284   19.3480 H   0  0  0  0  0  0
  1 25  1  0  0  0
  1 30  2  0  0  0
  1 82  1  0  0  0
  2  3  1  0  0  0
  2 25  1  0  0  0
  2 89  1  0  0  0
  2 90  1  0  0  0
  3  4  1  0  0  0
  3 91  1  0  0  0
  3 92  1  0  0  0
  4  5  1  0  0  0
  4 93  1  0  0  0
  4 94  1  0  0  0
  5  6  1  0  0  0
  5 26  1  0  0  0
  5 95  1  0  0  0
  6 25  1  0  0  0
  6 96  1  0  0  0
  6 97  1  0  0  0
  7  8  2  0  0  0
  7 26  1  0  0  0
  7 29  1  0  0  0
  8  9  1  0  0  0
  8 22  1  0  0  0
  9 10  1  0  0  0
  9 27  2  0  0  0
 10 11  2  0  0  0
 10 15  1  0  0  0
 11 12  1  0  0  0
 11 98  1  0  0  0
 12 13  2  0  0  0
 12 99  1  0  0  0
 13 14  1  0  0  0
 13 31  1  0  0  0
 14 15  2  0  0  0
 14100  1  0  0  0
 15101  1  0  0  0
 16 17  2  0  0  0
 16 21  1  0  0  0
 16 31  1  0  0  0
 17 18  1  0  0  0
 17102  1  0  0  0
 18 19  2  0  0  0
 18103  1  0  0  0
 19 20  1  0  0  0
 19 24  1  0  0  0
 20 21  2  0  0  0
 20104  1  0  0  0
 21 23  1  0  0  0
 22 28  1  0  0  0
 22 32  2  0  0  0
 26 27  1  0  0  0
 28105  1  0  0  0
 28106  1  0  0  0
 29107  1  0  0  0
 29108  1  0  0  0
 33 34  1  0  0  0
 33 66  1  0  0  0
 33 70  2  0  0  0
 34 36  1  0  0  0
 34 59  1  0  0  0
 34109  1  0  0  0
 35 44  2  0  0  0
 35 45  1  0  0  0
 35 68  1  0  0  0
 36 56  1  0  0  0
 36110  1  0  0  0
 37 39  1  0  0  0
 37 47  1  0  0  0
 37 66  1  0  0  0
 37111  1  0  0  0
 38 43  2  0  0  0
 38 46  1  0  0  0
 38 47  1  0  0  0
 39 64  1  0  0  0
 39 67  2  0  0  0
 40 52  1  0  0  0
 40 53  2  0  0  0
 40 58  1  0  0  0
 41112  1  0  0  0
 41113  1  0  0  0
 41114  1  0  0  0
 41 48  1  0  0  0
 42 43  1  0  0  0
 42 66  1  0  0  0
 42115  1  0  0  0
 42116  1  0  0  0
 43 44  1  0  0  0
 44117  1  0  0  0
 45 46  2  0  0  0
 45118  1  0  0  0
 46119  1  0  0  0
 47120  1  0  0  0
 47121  1  0  0  0
 48 56  1  0  0  0
 48 65  1  0  0  0
 48122  1  0  0  0
 49 50  1  0  0  0
 49 53  1  0  0  0
 49 64  1  0  0  0
 49123  1  0  0  0
 50 51  1  0  0  0
 50124  1  0  0  0
 50125  1  0  0  0
 51 52  1  0  0  0
 51126  1  0  0  0
 51127  1  0  0  0
 52128  1  0  0  0
 52129  1  0  0  0
 53 54  1  0  0  0
 54 55  2  0  0  0
 54130  1  0  0  0
 55 57  1  0  0  0
 55131  1  0  0  0
 56 69  2  0  0  0
 57 58  2  0  0  0
 57132  1  0  0  0
 58133  1  0  0  0
 59 60  1  0  0  0
 59 61  1  0  0  0
 59 62  1  0  0  0
 60134  1  0  0  0
 60135  1  0  0  0
 60136  1  0  0  0
 61137  1  0  0  0
 61138  1  0  0  0
 61139  1  0  0  0
 62140  1  0  0  0
 62141  1  0  0  0
 62142  1  0  0  0
 63 65  1  0  0  0
 63143  1  0  0  0
 63144  1  0  0  0
 63145  1  0  0  0
 64146  1  0  0  0
 65147  1  0  0  0
 68 81  1  0  0  0
 71 73  2  0  0  0
 71 75  1  0  0  0
 71148  1  0  0  0
 72 74  1  0  0  0
 72 76  2  0  0  0
 72149  1  0  0  0
 73 76  1  0  0  0
 73 84  1  0  0  0
 74 75  2  0  0  0
 74 85  1  0  0  0
 75 87  1  0  0  0
 76 88  1  0  0  0
 77 81  1  0  0  0
 77 84  1  0  0  0
 77 86  2  0  0  0
 78 79  1  0  0  0
 78 80  1  0  0  0
 78150  1  0  0  0
 78151  1  0  0  0
 79 81  1  0  0  0
 79152  1  0  0  0
 79153  1  0  0  0
 80 84  1  0  0  0
 80154  1  0  0  0
 80155  1  0  0  0
 81156  1  0  0  0
 82 83  1  0  0  0
 82157  1  0  0  0
 82158  1  0  0  0
 83 85  1  0  0  0
 83159  1  0  0  0
 83160  1  0  0  0
 85161  1  0  0  0
M  ISO  4   1 100  68 101  81 101  82 100
M  END
> <chiral flag>
0

> <version>
0

> <s_m_source_file>
/data/baiqing/PycharmProjects/Reinvent-master-3.2/result/LINK_invent/BTK/process_docking_weight1_custom_product_contain_oxygen_bond_distance_aromatic_linkinvent_7_9_3/rearranged_h_0022.sdf

> <i_m_source_file_index>
25

> <r_mmod_Potential_Energy-OPLS-2005>
188.182601928711

> <r_mmod_Stretch_Energy-OPLS-2005>
49.1686515808105

> <r_mmod_Bend_Energy-OPLS-2005>
118.208755493164

> <r_mmod_Torsional_Energy-OPLS-2005>
276.7275390625

> <r_mmod_Improper_Torsional_Energy-OPLS-2005>
5.81092166900635

> <r_mmod_Van_der_Waal_Energy-OPLS-2005>
152.843368530273

> <r_mmod_Electrostatic_Energy-OPLS-2005>
-216.141510009766

> <r_mmod_Solvation_Energy-OPLS-2005>
-212.592529296875

> <b_mmod_Minimization_Converged-OPLS-2005>
0

> <r_mmod_RMS_Derivative-OPLS-2005>
1.65903341770172

$$$$
26
                    3D
 Structure written by MMmdl.
155164  0  0  1  0            999 V2000
  -30.6233  -14.6398   20.5059 C   0  0  0  0  0  0
  -30.4409  -12.3934   19.4533 C   0  0  0  0  0  0
  -29.5092  -12.5121   18.2261 C   0  0  0  0  0  0
  -28.0320  -12.3501   18.6373 C   0  0  0  0  0  0
  -27.6556  -13.2175   19.8679 C   0  0  2  0  0  0
  -28.7006  -13.0656   20.9967 C   0  0  0  0  0  0
  -25.2548  -13.8158   20.5657 C   0  0  0  0  0  0
  -24.1819  -13.0426   20.9169 C   0  0  0  0  0  0
  -24.6399  -11.6902   20.8737 C   0  0  0  0  0  0
  -23.9066  -10.4287   21.0404 C   0  0  0  0  0  0
  -24.3617   -9.4204   21.9183 C   0  0  0  0  0  0
  -23.6289   -8.2242   22.0754 C   0  0  0  0  0  0
  -22.4272   -8.0280   21.3544 C   0  0  0  0  0  0
  -21.9906   -9.0255   20.4649 C   0  0  0  0  0  0
  -22.7237  -10.2131   20.3055 C   0  0  0  0  0  0
  -21.6852   -6.0730   22.5277 C   0  0  0  0  0  0
  -21.4015   -6.5634   23.8210 C   0  0  0  0  0  0
  -21.3660   -5.6789   24.9172 C   0  0  0  0  0  0
  -21.6045   -4.3052   24.7223 C   0  0  0  0  0  0
  -21.8821   -3.8141   23.4346 C   0  0  0  0  0  0
  -21.9193   -4.6957   22.3401 C   0  0  0  0  0  0
  -22.7843  -13.5219   21.1839 C   0  0  0  0  0  0
  -22.1662   -4.2143   21.0978 F   0  0  0  0  0  0
  -21.5629   -3.4537   25.7738 F   0  0  0  0  0  0
  -30.0184  -13.4106   20.4369 N   0  0  0  0  0  0
  -26.3000  -12.9354   20.3345 N   0  0  0  0  0  0
  -25.9332  -11.6505   20.5772 N   0  0  0  0  0  0
  -22.0491  -12.8221   22.0409 N   0  0  0  0  0  0
  -25.4216  -15.1868   20.4031 N   0  0  0  0  0  0
  -31.7749  -14.8109   20.0950 O   0  0  0  0  0  0
  -21.6640   -6.8875   21.4240 O   0  0  0  0  0  0
  -22.3522  -14.5521   20.6688 O   0  0  0  0  0  0
  -24.6256  -31.8605   23.2034 C   0  0  0  0  0  0
  -25.9107  -32.4784   23.8359 C   0  0  1  0  0  0
  -27.2245  -27.3235   20.1108 C   0  0  0  0  0  0
  -25.5923  -33.8584   24.2283 N   0  0  0  0  0  0
  -23.4189  -30.4850   21.5465 C   0  0  2  0  0  0
  -24.8651  -28.9438   20.1099 C   0  0  0  0  0  0
  -22.7473  -29.4626   22.4939 C   0  0  0  0  0  0
  -18.0287  -28.1382   22.8483 C   0  0  0  0  0  0
  -24.1486  -36.7299   23.2638 C   0  0  0  0  0  0
  -25.9604  -30.7926   21.3743 C   0  0  0  0  0  0
  -26.0349  -29.4211   20.7144 C   0  0  0  0  0  0
  -27.2175  -28.6229   20.7056 C   0  0  0  0  0  0
  -26.0300  -26.9034   19.4778 C   0  0  0  0  0  0
  -24.8646  -27.6899   19.4833 C   0  0  0  0  0  0
  -23.6327  -29.8225   20.1608 C   0  0  0  0  0  0
  -25.4110  -36.3087   24.0328 C   0  0  1  0  0  0
  -20.5886  -28.3686   23.1281 C   0  0  2  0  0  0
  -20.6772  -26.9409   22.5408 C   0  0  0  0  0  0
  -19.5749  -26.6383   21.5207 C   0  0  0  0  0  0
  -18.1932  -26.7924   22.1623 C   0  0  0  0  0  0
  -19.1539  -28.8851   23.2878 C   0  0  0  0  0  0
  -18.9464  -30.1451   23.8899 C   0  0  0  0  0  0
  -17.6464  -30.6583   24.0564 C   0  0  0  0  0  0
  -25.9049  -34.9456   23.5108 C   0  0  0  0  0  0
  -16.5356  -29.9083   23.6327 C   0  0  0  0  0  0
  -16.7275  -28.6500   23.0349 C   0  0  0  0  0  0
  -26.4490  -31.6594   25.0729 C   0  0  0  0  0  0
  -25.3726  -31.3737   26.1459 C   0  0  0  0  0  0
  -27.0334  -30.3017   24.6187 C   0  0  0  0  0  0
  -27.6050  -32.4329   25.7500 C   0  0  0  0  0  0
  -27.5578  -37.1802   24.8461 C   0  0  0  0  0  0
  -21.4187  -29.3040   22.3677 N   0  0  0  0  0  0
  -26.4288  -37.3781   23.9410 N   0  0  0  0  0  0
  -24.6872  -31.0622   22.0984 N   0  0  0  0  0  0
  -23.4198  -28.8164   23.3016 O   0  0  0  0  0  0
  -28.3396  -26.4690   20.1673 O   0  0  0  0  0  0
  -26.5619  -34.8922   22.4674 O   0  0  0  0  0  0
  -23.5421  -32.1403   23.7365 O   0  0  0  0  0  0
  -30.7693  -19.2762   19.8861 C   0  0  0  0  0  0
  -30.8417  -17.8551   20.0243 C   0  0  0  0  0  0
  -28.7665  -19.3228   21.2011 C   0  0  0  0  0  0
  -29.7272  -20.0673   20.4606 C   0  0  0  0  0  0
  -29.8711  -17.1258   20.7609 C   0  0  0  0  0  0
  -28.8370  -17.9057   21.3487 C   0  0  0  0  0  0
  -28.7448  -22.4588   20.6800 C   0  0  0  0  0  0
  -30.3681  -23.7503   19.5294 C   0  0  0  0  0  0
  -30.8095  -22.2774   19.6993 C   0  0  0  0  0  0
  -29.1891  -23.9487   20.4835 C   0  0  1  0  0  0
  -28.0944  -25.0126   20.0277 C   0  0  0  0  0  0
  -29.6936  -21.5422   20.3046 N   0  0  0  0  0  0
  -29.8287  -15.6700   20.9279 N   0  0  0  0  0  0
  -27.6316  -22.1850   21.1374 O   0  0  0  0  0  0
  -27.6146  -17.1185   22.2837 Cl  0  0  0  0  0  0
  -31.4814  -12.5208   19.1491 H   0  0  0  0  0  0
  -30.3784  -11.3959   19.8908 H   0  0  0  0  0  0
  -29.7722  -11.7626   17.4787 H   0  0  0  0  0  0
  -29.6524  -13.4829   17.7488 H   0  0  0  0  0  0
  -27.8669  -11.2966   18.8650 H   0  0  0  0  0  0
  -27.3783  -12.5845   17.7965 H   0  0  0  0  0  0
  -27.6756  -14.2545   19.5325 H   0  0  0  0  0  0
  -28.7109  -12.0413   21.3719 H   0  0  0  0  0  0
  -28.4435  -13.6901   21.8535 H   0  0  0  0  0  0
  -25.2763   -9.5680   22.4755 H   0  0  0  0  0  0
  -23.9996   -7.4633   22.7474 H   0  0  0  0  0  0
  -21.0833   -8.8777   19.8955 H   0  0  0  0  0  0
  -22.3697  -10.9671   19.6164 H   0  0  0  0  0  0
  -21.2008   -7.6144   23.9711 H   0  0  0  0  0  0
  -21.1480   -6.0519   25.9075 H   0  0  0  0  0  0
  -22.0599   -2.7603   23.2851 H   0  0  0  0  0  0
  -22.4106  -11.9884   22.4802 H   0  0  0  0  0  0
  -21.1113  -13.1256   22.2619 H   0  0  0  0  0  0
  -24.6624  -15.8431   20.5458 H   0  0  0  0  0  0
  -26.2872  -15.6378   20.1383 H   0  0  0  0  0  0
  -26.7176  -32.5452   23.1109 H   0  0  0  0  0  0
  -25.0055  -33.9729   25.0417 H   0  0  0  0  0  0
  -22.7124  -31.3054   21.4053 H   0  0  0  0  0  0
  -23.3745  -35.9633   23.3302 H   0  0  0  0  0  0
  -24.3579  -36.8919   22.2053 H   0  0  0  0  0  0
  -23.7241  -37.6503   23.6660 H   0  0  0  0  0  0
  -26.0923  -31.5571   20.6073 H   0  0  0  0  0  0
  -26.8404  -30.8399   22.0039 H   0  0  0  0  0  0
  -28.1138  -28.9843   21.1901 H   0  0  0  0  0  0
  -25.9624  -25.9492   18.9776 H   0  0  0  0  0  0
  -23.9688  -27.3199   19.0037 H   0  0  0  0  0  0
  -23.7505  -30.6003   19.4054 H   0  0  0  0  0  0
  -22.7522  -29.2522   19.8587 H   0  0  0  0  0  0
  -25.1287  -36.1941   25.0820 H   0  0  0  0  0  0
  -20.9978  -28.3262   24.1402 H   0  0  0  0  0  0
  -20.5666  -26.2298   23.3608 H   0  0  0  0  0  0
  -21.6643  -26.7432   22.1208 H   0  0  0  0  0  0
  -19.6912  -25.6296   21.1233 H   0  0  0  0  0  0
  -19.6683  -27.3194   20.6738 H   0  0  0  0  0  0
  -17.4196  -26.6664   21.4033 H   0  0  0  0  0  0
  -18.0340  -26.0068   22.9023 H   0  0  0  0  0  0
  -19.7942  -30.7263   24.2272 H   0  0  0  0  0  0
  -17.5022  -31.6262   24.5167 H   0  0  0  0  0  0
  -15.5357  -30.2986   23.7651 H   0  0  0  0  0  0
  -15.8674  -28.0817   22.7067 H   0  0  0  0  0  0
  -24.5890  -30.7097   25.7789 H   0  0  0  0  0  0
  -24.8932  -32.2908   26.4892 H   0  0  0  0  0  0
  -25.8048  -30.8906   27.0230 H   0  0  0  0  0  0
  -26.2909  -29.6770   24.1205 H   0  0  0  0  0  0
  -27.4023  -29.7271   25.4693 H   0  0  0  0  0  0
  -27.8781  -30.4300   23.9415 H   0  0  0  0  0  0
  -27.2656  -33.3623   26.2084 H   0  0  0  0  0  0
  -28.3856  -32.6901   25.0328 H   0  0  0  0  0  0
  -28.0723  -31.8455   26.5413 H   0  0  0  0  0  0
  -28.2590  -38.0105   24.7518 H   0  0  0  0  0  0
  -28.1080  -36.2639   24.6268 H   0  0  0  0  0  0
  -27.2302  -37.1428   25.8865 H   0  0  0  0  0  0
  -20.9366  -29.8768   21.6890 H   0  0  0  0  0  0
  -26.0170  -38.2854   24.1421 H   0  0  0  0  0  0
  -31.5504  -19.7503   19.3100 H   0  0  0  0  0  0
  -31.6566  -17.3338   19.5439 H   0  0  0  0  0  0
  -27.9469  -19.8269   21.6891 H   0  0  0  0  0  0
  -30.0507  -23.9236   18.5000 H   0  0  0  0  0  0
  -31.1827  -24.4446   19.7376 H   0  0  0  0  0  0
  -31.6734  -22.2117   20.3631 H   0  0  0  0  0  0
  -31.0956  -21.8576   18.7345 H   0  0  0  0  0  0
  -29.5701  -24.2587   21.4569 H   0  0  0  0  0  0
  -27.1915  -24.7817   20.5957 H   0  0  0  0  0  0
  -27.8533  -24.8095   18.9836 H   0  0  0  0  0  0
  -28.9654  -15.3495   21.3408 H   0  0  0  0  0  0
  1 25  1  0  0  0
  1 30  2  0  0  0
  1 83  1  0  0  0
  2  3  1  0  0  0
  2 25  1  0  0  0
  2 86  1  0  0  0
  2 87  1  0  0  0
  3  4  1  0  0  0
  3 88  1  0  0  0
  3 89  1  0  0  0
  4  5  1  0  0  0
  4 90  1  0  0  0
  4 91  1  0  0  0
  5  6  1  0  0  0
  5 26  1  0  0  0
  5 92  1  0  0  0
  6 25  1  0  0  0
  6 93  1  0  0  0
  6 94  1  0  0  0
  7  8  2  0  0  0
  7 26  1  0  0  0
  7 29  1  0  0  0
  8  9  1  0  0  0
  8 22  1  0  0  0
  9 10  1  0  0  0
  9 27  2  0  0  0
 10 11  2  0  0  0
 10 15  1  0  0  0
 11 12  1  0  0  0
 11 95  1  0  0  0
 12 13  2  0  0  0
 12 96  1  0  0  0
 13 14  1  0  0  0
 13 31  1  0  0  0
 14 15  2  0  0  0
 14 97  1  0  0  0
 15 98  1  0  0  0
 16 17  2  0  0  0
 16 21  1  0  0  0
 16 31  1  0  0  0
 17 18  1  0  0  0
 17 99  1  0  0  0
 18 19  2  0  0  0
 18100  1  0  0  0
 19 20  1  0  0  0
 19 24  1  0  0  0
 20 21  2  0  0  0
 20101  1  0  0  0
 21 23  1  0  0  0
 22 28  1  0  0  0
 22 32  2  0  0  0
 26 27  1  0  0  0
 28102  1  0  0  0
 28103  1  0  0  0
 29104  1  0  0  0
 29105  1  0  0  0
 33 34  1  0  0  0
 33 66  1  0  0  0
 33 70  2  0  0  0
 34 36  1  0  0  0
 34 59  1  0  0  0
 34106  1  0  0  0
 35 44  2  0  0  0
 35 45  1  0  0  0
 35 68  1  0  0  0
 36 56  1  0  0  0
 36107  1  0  0  0
 37 39  1  0  0  0
 37 47  1  0  0  0
 37 66  1  0  0  0
 37108  1  0  0  0
 38 43  2  0  0  0
 38 46  1  0  0  0
 38 47  1  0  0  0
 39 64  1  0  0  0
 39 67  2  0  0  0
 40 52  1  0  0  0
 40 53  2  0  0  0
 40 58  1  0  0  0
 41109  1  0  0  0
 41110  1  0  0  0
 41111  1  0  0  0
 41 48  1  0  0  0
 42 43  1  0  0  0
 42 66  1  0  0  0
 42112  1  0  0  0
 42113  1  0  0  0
 43 44  1  0  0  0
 44114  1  0  0  0
 45 46  2  0  0  0
 45115  1  0  0  0
 46116  1  0  0  0
 47117  1  0  0  0
 47118  1  0  0  0
 48 56  1  0  0  0
 48 65  1  0  0  0
 48119  1  0  0  0
 49 50  1  0  0  0
 49 53  1  0  0  0
 49 64  1  0  0  0
 49120  1  0  0  0
 50 51  1  0  0  0
 50121  1  0  0  0
 50122  1  0  0  0
 51 52  1  0  0  0
 51123  1  0  0  0
 51124  1  0  0  0
 52125  1  0  0  0
 52126  1  0  0  0
 53 54  1  0  0  0
 54 55  2  0  0  0
 54127  1  0  0  0
 55 57  1  0  0  0
 55128  1  0  0  0
 56 69  2  0  0  0
 57 58  2  0  0  0
 57129  1  0  0  0
 58130  1  0  0  0
 59 60  1  0  0  0
 59 61  1  0  0  0
 59 62  1  0  0  0
 60131  1  0  0  0
 60132  1  0  0  0
 60133  1  0  0  0
 61134  1  0  0  0
 61135  1  0  0  0
 61136  1  0  0  0
 62137  1  0  0  0
 62138  1  0  0  0
 62139  1  0  0  0
 63 65  1  0  0  0
 63140  1  0  0  0
 63141  1  0  0  0
 63142  1  0  0  0
 64143  1  0  0  0
 65144  1  0  0  0
 68 81  1  0  0  0
 71 72  2  0  0  0
 71 74  1  0  0  0
 71145  1  0  0  0
 72 75  1  0  0  0
 72146  1  0  0  0
 73 74  2  0  0  0
 73 76  1  0  0  0
 73147  1  0  0  0
 74 82  1  0  0  0
 75 76  2  0  0  0
 75 83  1  0  0  0
 76 85  1  0  0  0
 77 80  1  0  0  0
 77 82  1  0  0  0
 77 84  2  0  0  0
 78 79  1  0  0  0
 78 80  1  0  0  0
 78148  1  0  0  0
 78149  1  0  0  0
 79 82  1  0  0  0
 79150  1  0  0  0
 79151  1  0  0  0
 80 81  1  0  0  0
 80152  1  0  0  0
 81153  1  0  0  0
 81154  1  0  0  0
 83155  1  0  0  0
M  ISO  4   1 100  68 101  81 101  83 100
M  END
> <chiral flag>
0

> <version>
0

> <s_m_source_file>
/data/baiqing/PycharmProjects/Reinvent-master-3.2/result/LINK_invent/BTK/process_docking_weight1_custom_product_contain_oxygen_bond_distance_aromatic_linkinvent_7_9_3/rearranged_h_0022.sdf

> <i_m_source_file_index>
26

> <r_mmod_Potential_Energy-OPLS-2005>
107.401916503906

> <r_mmod_Stretch_Energy-OPLS-2005>
81.1127700805664

> <r_mmod_Bend_Energy-OPLS-2005>
166.712020874023

> <r_mmod_Torsional_Energy-OPLS-2005>
254.467849731445

> <r_mmod_Improper_Torsional_Energy-OPLS-2005>
3.31508612632751

> <r_mmod_Van_der_Waal_Energy-OPLS-2005>
146.651260375977

> <r_mmod_Electrostatic_Energy-OPLS-2005>
-380.681213378906

> <r_mmod_Solvation_Energy-OPLS-2005>
-212.041885375977

> <b_mmod_Minimization_Converged-OPLS-2005>
0

> <r_mmod_RMS_Derivative-OPLS-2005>
0.592103362083435

$$$$
27
                    3D
 Structure written by MMmdl.
152160  0  0  1  0            999 V2000
  -30.6493  -14.6606   20.4945 C   0  0  0  0  0  0
  -30.4246  -12.4107   19.4514 C   0  0  0  0  0  0
  -29.4996  -12.4989   18.2197 C   0  0  0  0  0  0
  -28.0249  -12.3364   18.6369 C   0  0  0  0  0  0
  -27.6430  -13.2255   19.8510 C   0  0  2  0  0  0
  -28.6890  -13.1264   20.9814 C   0  0  0  0  0  0
  -25.2514  -13.8189   20.5681 C   0  0  0  0  0  0
  -24.1801  -13.0441   20.9200 C   0  0  0  0  0  0
  -24.6386  -11.6916   20.8746 C   0  0  0  0  0  0
  -23.9064  -10.4291   21.0408 C   0  0  0  0  0  0
  -24.3616   -9.4207   21.9185 C   0  0  0  0  0  0
  -23.6292   -8.2242   22.0754 C   0  0  0  0  0  0
  -22.4275   -8.0278   21.3544 C   0  0  0  0  0  0
  -21.9910   -9.0251   20.4646 C   0  0  0  0  0  0
  -22.7236  -10.2132   20.3057 C   0  0  0  0  0  0
  -21.6854   -6.0733   22.5277 C   0  0  0  0  0  0
  -21.4014   -6.5637   23.8209 C   0  0  0  0  0  0
  -21.3660   -5.6791   24.9173 C   0  0  0  0  0  0
  -21.6046   -4.3053   24.7224 C   0  0  0  0  0  0
  -21.8819   -3.8144   23.4346 C   0  0  0  0  0  0
  -21.9193   -4.6961   22.3401 C   0  0  0  0  0  0
  -22.7823  -13.5225   21.1865 C   0  0  0  0  0  0
  -22.1661   -4.2144   21.0980 F   0  0  0  0  0  0
  -21.5632   -3.4538   25.7739 F   0  0  0  0  0  0
  -29.9936  -13.4603   20.3979 N   0  0  0  0  0  0
  -26.2938  -12.9386   20.3281 N   0  0  0  0  0  0
  -25.9314  -11.6534   20.5751 N   0  0  0  0  0  0
  -22.0475  -12.8210   22.0422 N   0  0  0  0  0  0
  -25.4206  -15.1911   20.4079 N   0  0  0  0  0  0
  -31.8354  -14.7519   20.1689 O   0  0  0  0  0  0
  -21.6640   -6.8874   21.4239 O   0  0  0  0  0  0
  -22.3506  -14.5532   20.6716 O   0  0  0  0  0  0
  -24.6261  -31.8588   23.2004 C   0  0  0  0  0  0
  -25.9105  -32.4774   23.8341 C   0  0  1  0  0  0
  -27.2245  -27.3179   20.1278 C   0  0  0  0  0  0
  -25.5923  -33.8574   24.2272 N   0  0  0  0  0  0
  -23.4203  -30.4801   21.5429 C   0  0  2  0  0  0
  -24.8670  -28.9256   20.1172 C   0  0  0  0  0  0
  -22.7473  -29.4620   22.4939 C   0  0  0  0  0  0
  -18.0286  -28.1394   22.8491 C   0  0  0  0  0  0
  -24.1486  -36.7290   23.2641 C   0  0  0  0  0  0
  -25.9596  -30.7903   21.3685 C   0  0  0  0  0  0
  -26.0354  -29.4144   20.7169 C   0  0  0  0  0  0
  -27.2215  -28.6234   20.7070 C   0  0  0  0  0  0
  -26.0366  -26.8695   19.5177 C   0  0  0  0  0  0
  -24.8687  -27.6588   19.5083 C   0  0  0  0  0  0
  -23.6356  -29.8083   20.1608 C   0  0  0  0  0  0
  -25.4112  -36.3081   24.0330 C   0  0  1  0  0  0
  -20.5887  -28.3693   23.1291 C   0  0  2  0  0  0
  -20.6776  -26.9417   22.5415 C   0  0  0  0  0  0
  -19.5750  -26.6393   21.5218 C   0  0  0  0  0  0
  -18.1930  -26.7937   22.1630 C   0  0  0  0  0  0
  -19.1539  -28.8861   23.2888 C   0  0  0  0  0  0
  -18.9462  -30.1465   23.8899 C   0  0  0  0  0  0
  -17.6461  -30.6595   24.0570 C   0  0  0  0  0  0
  -25.9050  -34.9450   23.5104 C   0  0  0  0  0  0
  -16.5353  -29.9094   23.6336 C   0  0  0  0  0  0
  -16.7274  -28.6516   23.0351 C   0  0  0  0  0  0
  -26.4493  -31.6585   25.0710 C   0  0  0  0  0  0
  -25.3729  -31.3720   26.1440 C   0  0  0  0  0  0
  -27.0336  -30.3013   24.6154 C   0  0  0  0  0  0
  -27.6053  -32.4317   25.7482 C   0  0  0  0  0  0
  -27.5577  -37.1803   24.8467 C   0  0  0  0  0  0
  -21.4187  -29.3043   22.3679 N   0  0  0  0  0  0
  -26.4289  -37.3776   23.9410 N   0  0  0  0  0  0
  -24.6876  -31.0603   22.0946 N   0  0  0  0  0  0
  -23.4194  -28.8171   23.3029 O   0  0  0  0  0  0
  -28.3440  -26.4807   20.1114 O   0  0  0  0  0  0
  -26.5619  -34.8920   22.4670 O   0  0  0  0  0  0
  -23.5425  -32.1378   23.7338 O   0  0  0  0  0  0
  -28.7360  -19.1166   20.9649 C   0  0  0  0  0  0
  -31.0018  -19.4483   20.2542 C   0  0  0  0  0  0
  -28.4748  -20.5207   20.7753 C   0  0  0  0  0  0
  -30.7474  -20.8370   20.0821 C   0  0  0  0  0  0
  -30.0234  -18.5443   20.7403 C   0  0  0  0  0  0
  -29.4937  -21.4321   20.3690 C   0  0  0  0  0  0
  -30.4966  -17.1145   21.2294 C   0  0  0  0  0  0
  -28.2290  -23.7675   20.0806 C   0  0  0  0  0  0
  -28.2645  -25.1877   20.8266 C   0  0  0  0  0  0
  -29.4064  -22.8683   20.2987 N   0  0  0  0  0  0
  -29.9223  -15.7872   20.8039 N   0  0  0  0  0  0
  -31.4664  -12.5243   19.1470 H   0  0  0  0  0  0
  -30.3552  -11.4269   19.9184 H   0  0  0  0  0  0
  -29.7673  -11.7339   17.4896 H   0  0  0  0  0  0
  -29.6376  -13.4598   17.7213 H   0  0  0  0  0  0
  -27.8691  -11.2860   18.8856 H   0  0  0  0  0  0
  -27.3675  -12.5480   17.7926 H   0  0  0  0  0  0
  -27.6481  -14.2533   19.4877 H   0  0  0  0  0  0
  -28.7092  -12.1210   21.4044 H   0  0  0  0  0  0
  -28.4364  -13.7971   21.8043 H   0  0  0  0  0  0
  -25.2763   -9.5683   22.4756 H   0  0  0  0  0  0
  -24.0002   -7.4634   22.7473 H   0  0  0  0  0  0
  -21.0841   -8.8770   19.8951 H   0  0  0  0  0  0
  -22.3695  -10.9670   19.6163 H   0  0  0  0  0  0
  -21.2005   -7.6145   23.9710 H   0  0  0  0  0  0
  -21.1484   -6.0523   25.9075 H   0  0  0  0  0  0
  -22.0598   -2.7606   23.2848 H   0  0  0  0  0  0
  -22.4098  -11.9870   22.4803 H   0  0  0  0  0  0
  -21.1094  -13.1230   22.2638 H   0  0  0  0  0  0
  -24.6514  -15.8435   20.5126 H   0  0  0  0  0  0
  -26.2635  -15.6290   20.0588 H   0  0  0  0  0  0
  -26.7173  -32.5447   23.1092 H   0  0  0  0  0  0
  -25.0066  -33.9713   25.0416 H   0  0  0  0  0  0
  -22.7144  -31.3004   21.3971 H   0  0  0  0  0  0
  -23.3746  -35.9626   23.3308 H   0  0  0  0  0  0
  -24.3576  -36.8905   22.2055 H   0  0  0  0  0  0
  -23.7237  -37.6494   23.6656 H   0  0  0  0  0  0
  -26.0864  -31.5498   20.5960 H   0  0  0  0  0  0
  -26.8418  -30.8448   21.9945 H   0  0  0  0  0  0
  -28.1240  -28.9973   21.1701 H   0  0  0  0  0  0
  -26.0118  -25.8950   19.0507 H   0  0  0  0  0  0
  -23.9721  -27.2787   19.0379 H   0  0  0  0  0  0
  -23.7567  -30.5810   19.4007 H   0  0  0  0  0  0
  -22.7551  -29.2377   19.8601 H   0  0  0  0  0  0
  -25.1293  -36.1933   25.0821 H   0  0  0  0  0  0
  -20.9985  -28.3271   24.1410 H   0  0  0  0  0  0
  -20.5689  -26.2302   23.3613 H   0  0  0  0  0  0
  -21.6646  -26.7455   22.1202 H   0  0  0  0  0  0
  -19.6909  -25.6304   21.1247 H   0  0  0  0  0  0
  -19.6689  -27.3207   20.6751 H   0  0  0  0  0  0
  -17.4202  -26.6693   21.4027 H   0  0  0  0  0  0
  -18.0328  -26.0080   22.9028 H   0  0  0  0  0  0
  -19.7934  -30.7290   24.2264 H   0  0  0  0  0  0
  -17.5012  -31.6273   24.5177 H   0  0  0  0  0  0
  -15.5352  -30.2998   23.7656 H   0  0  0  0  0  0
  -15.8675  -28.0839   22.7056 H   0  0  0  0  0  0
  -24.5901  -30.7071   25.7769 H   0  0  0  0  0  0
  -24.8921  -32.2886   26.4869 H   0  0  0  0  0  0
  -25.8056  -30.8894   27.0212 H   0  0  0  0  0  0
  -26.2905  -29.6762   24.1184 H   0  0  0  0  0  0
  -27.4051  -29.7268   25.4651 H   0  0  0  0  0  0
  -27.8767  -30.4309   23.9361 H   0  0  0  0  0  0
  -27.2664  -33.3615   26.2064 H   0  0  0  0  0  0
  -28.3861  -32.6883   25.0310 H   0  0  0  0  0  0
  -28.0722  -31.8437   26.5393 H   0  0  0  0  0  0
  -28.2603  -38.0092   24.7511 H   0  0  0  0  0  0
  -28.1064  -36.2625   24.6299 H   0  0  0  0  0  0
  -27.2297  -37.1462   25.8871 H   0  0  0  0  0  0
  -20.9368  -29.8751   21.6875 H   0  0  0  0  0  0
  -26.0171  -38.2851   24.1407 H   0  0  0  0  0  0
  -27.9472  -18.4921   21.3606 H   0  0  0  0  0  0
  -32.0071  -19.0934   20.0753 H   0  0  0  0  0  0
  -27.4911  -20.8984   21.0147 H   0  0  0  0  0  0
  -31.5699  -21.4607   19.7601 H   0  0  0  0  0  0
  -30.3855  -17.1352   22.3143 H   0  0  0  0  0  0
  -31.5775  -17.0775   21.0843 H   0  0  0  0  0  0
  -28.1131  -23.9332   19.0088 H   0  0  0  0  0  0
  -27.3292  -23.2355   20.3921 H   0  0  0  0  0  0
  -29.1096  -25.1825   21.5157 H   0  0  0  0  0  0
  -27.3970  -25.2245   21.4881 H   0  0  0  0  0  0
  -30.2922  -23.3330   20.1129 H   0  0  0  0  0  0
  -28.9353  -15.6543   20.9601 H   0  0  0  0  0  0
  1 25  1  0  0  0
  1 30  2  0  0  0
  1 81  1  0  0  0
  2  3  1  0  0  0
  2 25  1  0  0  0
  2 82  1  0  0  0
  2 83  1  0  0  0
  3  4  1  0  0  0
  3 84  1  0  0  0
  3 85  1  0  0  0
  4  5  1  0  0  0
  4 86  1  0  0  0
  4 87  1  0  0  0
  5  6  1  0  0  0
  5 26  1  0  0  0
  5 88  1  0  0  0
  6 25  1  0  0  0
  6 89  1  0  0  0
  6 90  1  0  0  0
  7  8  2  0  0  0
  7 26  1  0  0  0
  7 29  1  0  0  0
  8  9  1  0  0  0
  8 22  1  0  0  0
  9 10  1  0  0  0
  9 27  2  0  0  0
 10 11  2  0  0  0
 10 15  1  0  0  0
 11 12  1  0  0  0
 11 91  1  0  0  0
 12 13  2  0  0  0
 12 92  1  0  0  0
 13 14  1  0  0  0
 13 31  1  0  0  0
 14 15  2  0  0  0
 14 93  1  0  0  0
 15 94  1  0  0  0
 16 17  2  0  0  0
 16 21  1  0  0  0
 16 31  1  0  0  0
 17 18  1  0  0  0
 17 95  1  0  0  0
 18 19  2  0  0  0
 18 96  1  0  0  0
 19 20  1  0  0  0
 19 24  1  0  0  0
 20 21  2  0  0  0
 20 97  1  0  0  0
 21 23  1  0  0  0
 22 28  1  0  0  0
 22 32  2  0  0  0
 26 27  1  0  0  0
 28 98  1  0  0  0
 28 99  1  0  0  0
 29100  1  0  0  0
 29101  1  0  0  0
 33 34  1  0  0  0
 33 66  1  0  0  0
 33 70  2  0  0  0
 34 36  1  0  0  0
 34 59  1  0  0  0
 34102  1  0  0  0
 35 44  2  0  0  0
 35 45  1  0  0  0
 35 68  1  0  0  0
 36 56  1  0  0  0
 36103  1  0  0  0
 37 39  1  0  0  0
 37 47  1  0  0  0
 37 66  1  0  0  0
 37104  1  0  0  0
 38 43  2  0  0  0
 38 46  1  0  0  0
 38 47  1  0  0  0
 39 64  1  0  0  0
 39 67  2  0  0  0
 40 52  1  0  0  0
 40 53  2  0  0  0
 40 58  1  0  0  0
 41105  1  0  0  0
 41106  1  0  0  0
 41107  1  0  0  0
 41 48  1  0  0  0
 42 43  1  0  0  0
 42 66  1  0  0  0
 42108  1  0  0  0
 42109  1  0  0  0
 43 44  1  0  0  0
 44110  1  0  0  0
 45 46  2  0  0  0
 45111  1  0  0  0
 46112  1  0  0  0
 47113  1  0  0  0
 47114  1  0  0  0
 48 56  1  0  0  0
 48 65  1  0  0  0
 48115  1  0  0  0
 49 50  1  0  0  0
 49 53  1  0  0  0
 49 64  1  0  0  0
 49116  1  0  0  0
 50 51  1  0  0  0
 50117  1  0  0  0
 50118  1  0  0  0
 51 52  1  0  0  0
 51119  1  0  0  0
 51120  1  0  0  0
 52121  1  0  0  0
 52122  1  0  0  0
 53 54  1  0  0  0
 54 55  2  0  0  0
 54123  1  0  0  0
 55 57  1  0  0  0
 55124  1  0  0  0
 56 69  2  0  0  0
 57 58  2  0  0  0
 57125  1  0  0  0
 58126  1  0  0  0
 59 60  1  0  0  0
 59 61  1  0  0  0
 59 62  1  0  0  0
 60127  1  0  0  0
 60128  1  0  0  0
 60129  1  0  0  0
 61130  1  0  0  0
 61131  1  0  0  0
 61132  1  0  0  0
 62133  1  0  0  0
 62134  1  0  0  0
 62135  1  0  0  0
 63 65  1  0  0  0
 63136  1  0  0  0
 63137  1  0  0  0
 63138  1  0  0  0
 64139  1  0  0  0
 65140  1  0  0  0
 68 79  1  0  0  0
 71 73  2  0  0  0
 71 75  1  0  0  0
 71141  1  0  0  0
 72 74  1  0  0  0
 72 75  2  0  0  0
 72142  1  0  0  0
 73 76  1  0  0  0
 73143  1  0  0  0
 74 76  2  0  0  0
 74144  1  0  0  0
 75 77  1  0  0  0
 76 80  1  0  0  0
 77 81  1  0  0  0
 77145  1  0  0  0
 77146  1  0  0  0
 78 79  1  0  0  0
 78 80  1  0  0  0
 78147  1  0  0  0
 78148  1  0  0  0
 79149  1  0  0  0
 79150  1  0  0  0
 80151  1  0  0  0
 81152  1  0  0  0
M  ISO  4   1 100  68 101  79 101  81 100
M  END
> <chiral flag>
0

> <version>
0

> <s_m_source_file>
/data/baiqing/PycharmProjects/Reinvent-master-3.2/result/LINK_invent/BTK/process_docking_weight1_custom_product_contain_oxygen_bond_distance_aromatic_linkinvent_7_9_3/rearranged_h_0022.sdf

> <i_m_source_file_index>
27

> <r_mmod_Potential_Energy-OPLS-2005>
63.0585403442383

> <r_mmod_Stretch_Energy-OPLS-2005>
81.1610641479492

> <r_mmod_Bend_Energy-OPLS-2005>
174.89680480957

> <r_mmod_Torsional_Energy-OPLS-2005>
241.982162475586

> <r_mmod_Improper_Torsional_Energy-OPLS-2005>
6.58746862411499

> <r_mmod_Van_der_Waal_Energy-OPLS-2005>
138.201919555664

> <r_mmod_Electrostatic_Energy-OPLS-2005>
-409.924652099609

> <r_mmod_Solvation_Energy-OPLS-2005>
-222.65576171875

> <b_mmod_Minimization_Converged-OPLS-2005>
0

> <r_mmod_RMS_Derivative-OPLS-2005>
0.500587821006775

$$$$
28
                    3D
 Structure written by MMmdl.
159168  0  0  1  0            999 V2000
  -30.5277  -14.9342   20.3672 C   0  0  0  0  0  0
  -30.4513  -12.5637   19.4814 C   0  0  0  0  0  0
  -29.5187  -12.5165   18.2481 C   0  0  0  0  0  0
  -28.0480  -12.3312   18.6669 C   0  0  0  0  0  0
  -27.6386  -13.2459   19.8542 C   0  0  2  0  0  0
  -28.6939  -13.2425   20.9842 C   0  0  0  0  0  0
  -25.2470  -13.8235   20.5790 C   0  0  0  0  0  0
  -24.1774  -13.0440   20.9240 C   0  0  0  0  0  0
  -24.6383  -11.6921   20.8759 C   0  0  0  0  0  0
  -23.9078  -10.4280   21.0386 C   0  0  0  0  0  0
  -24.3609   -9.4183   21.9158 C   0  0  0  0  0  0
  -23.6260   -8.2231   22.0755 C   0  0  0  0  0  0
  -22.4243   -8.0269   21.3544 C   0  0  0  0  0  0
  -21.9892   -9.0269   20.4656 C   0  0  0  0  0  0
  -22.7234  -10.2151   20.3038 C   0  0  0  0  0  0
  -21.6852   -6.0707   22.5298 C   0  0  0  0  0  0
  -21.4049   -6.5623   23.8224 C   0  0  0  0  0  0
  -21.3648   -5.6784   24.9195 C   0  0  0  0  0  0
  -21.6028   -4.3032   24.7241 C   0  0  0  0  0  0
  -21.8801   -3.8113   23.4360 C   0  0  0  0  0  0
  -21.9188   -4.6935   22.3428 C   0  0  0  0  0  0
  -22.7771  -13.5231   21.1863 C   0  0  0  0  0  0
  -22.1622   -4.2100   21.0988 F   0  0  0  0  0  0
  -21.5616   -3.4522   25.7748 F   0  0  0  0  0  0
  -29.9715  -13.6538   20.3768 N   0  0  0  0  0  0
  -26.2926  -12.9469   20.3339 N   0  0  0  0  0  0
  -25.9326  -11.6603   20.5766 N   0  0  0  0  0  0
  -22.0353  -12.8317   22.0432 N   0  0  0  0  0  0
  -25.3943  -15.1999   20.4278 N   0  0  0  0  0  0
  -31.7194  -15.0387   20.0549 O   0  0  0  0  0  0
  -21.6620   -6.8863   21.4244 O   0  0  0  0  0  0
  -22.3462  -14.5493   20.6627 O   0  0  0  0  0  0
  -24.6394  -31.8460   23.1882 C   0  0  0  0  0  0
  -25.9176  -32.4706   23.8250 C   0  0  1  0  0  0
  -27.2176  -27.1445   20.1254 C   0  0  0  0  0  0
  -25.5934  -33.8512   24.2167 N   0  0  0  0  0  0
  -23.4435  -30.4620   21.5343 C   0  0  2  0  0  0
  -24.8880  -28.8845   20.1043 C   0  0  0  0  0  0
  -22.7541  -29.4515   22.4857 C   0  0  0  0  0  0
  -18.0327  -28.1394   22.8518 C   0  0  0  0  0  0
  -24.1491  -36.7230   23.2643 C   0  0  0  0  0  0
  -25.9954  -30.7133   21.3909 C   0  0  0  0  0  0
  -26.0627  -29.3243   20.7300 C   0  0  0  0  0  0
  -27.2131  -28.4557   20.7460 C   0  0  0  0  0  0
  -26.0200  -26.7953   19.4675 C   0  0  0  0  0  0
  -24.8745  -27.6258   19.4778 C   0  0  0  0  0  0
  -23.6686  -29.7936   20.1513 C   0  0  0  0  0  0
  -25.4138  -36.3024   24.0313 C   0  0  1  0  0  0
  -20.5938  -28.3701   23.1273 C   0  0  2  0  0  0
  -20.6832  -26.9413   22.5445 C   0  0  0  0  0  0
  -19.5801  -26.6384   21.5262 C   0  0  0  0  0  0
  -18.1971  -26.7954   22.1641 C   0  0  0  0  0  0
  -19.1595  -28.8876   23.2898 C   0  0  0  0  0  0
  -18.9486  -30.1466   23.8931 C   0  0  0  0  0  0
  -17.6482  -30.6603   24.0557 C   0  0  0  0  0  0
  -25.9075  -34.9422   23.5044 C   0  0  0  0  0  0
  -16.5372  -29.9088   23.6337 C   0  0  0  0  0  0
  -16.7312  -28.6495   23.0399 C   0  0  0  0  0  0
  -26.4513  -31.6603   25.0708 C   0  0  0  0  0  0
  -25.3638  -31.3830   26.1364 C   0  0  0  0  0  0
  -27.0400  -30.3005   24.6295 C   0  0  0  0  0  0
  -27.6046  -32.4370   25.7491 C   0  0  0  0  0  0
  -27.5587  -37.1776   24.8464 C   0  0  0  0  0  0
  -21.4254  -29.3015   22.3608 N   0  0  0  0  0  0
  -26.4289  -37.3747   23.9404 N   0  0  0  0  0  0
  -24.7117  -31.0276   22.0920 N   0  0  0  0  0  0
  -23.4204  -28.8083   23.3014 O   0  0  0  0  0  0
  -28.2720  -26.1787   20.2709 O   0  0  0  0  0  0
  -26.5679  -34.8903   22.4622 O   0  0  0  0  0  0
  -23.5521  -32.1365   23.7088 O   0  0  0  0  0  0
  -29.2843  -20.0030   20.9731 C   0  0  0  0  0  0
  -29.4370  -18.5804   21.2609 C   0  0  0  0  0  0
  -29.5382  -19.5514   18.6645 C   0  0  0  0  0  0
  -29.3451  -20.6122   19.6709 C   0  0  0  0  0  0
  -29.7129  -17.5621   20.2849 C   0  0  0  0  0  0
  -29.7486  -18.1319   18.9751 C   0  0  0  0  0  0
  -29.3149  -23.0333   17.2823 C   0  0  0  0  0  0
  -27.9153  -22.9896   17.9459 C   0  0  0  0  0  0
  -30.2588  -22.5311   18.3994 C   0  0  0  0  0  0
  -28.2744  -23.2309   19.4217 C   0  0  2  0  0  0
  -29.5051  -19.8195   17.1543 C   0  0  0  0  0  0
  -28.5905  -24.9303   19.4212 C   0  0  0  0  0  0
  -29.3854  -22.1214   19.5010 N   0  0  0  0  0  0
  -29.7012  -16.0584   20.5999 N   0  0  0  0  0  0
  -29.9505  -17.2668   17.9490 F   0  0  0  0  0  0
  -31.4743  -12.7309   19.1405 H   0  0  0  0  0  0
  -30.4625  -11.6082   20.0086 H   0  0  0  0  0  0
  -29.8279  -11.7240   17.5657 H   0  0  0  0  0  0
  -29.6113  -13.4492   17.6906 H   0  0  0  0  0  0
  -27.9089  -11.2828   18.9406 H   0  0  0  0  0  0
  -27.3938  -12.5133   17.8124 H   0  0  0  0  0  0
  -27.6139  -14.2593   19.4548 H   0  0  0  0  0  0
  -28.7803  -12.2566   21.4437 H   0  0  0  0  0  0
  -28.4124  -13.9236   21.7883 H   0  0  0  0  0  0
  -25.2730   -9.5694   22.4762 H   0  0  0  0  0  0
  -23.9920   -7.4670   22.7546 H   0  0  0  0  0  0
  -21.0756   -8.8861   19.9029 H   0  0  0  0  0  0
  -22.3640  -10.9716   19.6199 H   0  0  0  0  0  0
  -21.2065   -7.6142   23.9739 H   0  0  0  0  0  0
  -21.1473   -6.0495   25.9108 H   0  0  0  0  0  0
  -22.0567   -2.7557   23.2895 H   0  0  0  0  0  0
  -22.3899  -12.0084   22.5039 H   0  0  0  0  0  0
  -21.0962  -13.1458   22.2476 H   0  0  0  0  0  0
  -24.6117  -15.8227   20.5950 H   0  0  0  0  0  0
  -26.1985  -15.6788   20.0455 H   0  0  0  0  0  0
  -26.7227  -32.5312   23.0975 H   0  0  0  0  0  0
  -25.0060  -33.9629   25.0302 H   0  0  0  0  0  0
  -22.7467  -31.2891   21.3862 H   0  0  0  0  0  0
  -23.3776  -35.9525   23.3274 H   0  0  0  0  0  0
  -24.3578  -36.8902   22.2063 H   0  0  0  0  0  0
  -23.7228  -37.6402   23.6708 H   0  0  0  0  0  0
  -26.1572  -31.4698   20.6220 H   0  0  0  0  0  0
  -26.8623  -30.7546   22.0397 H   0  0  0  0  0  0
  -28.0918  -28.7634   21.2972 H   0  0  0  0  0  0
  -25.9363  -25.8257   19.0016 H   0  0  0  0  0  0
  -23.9653  -27.2695   19.0127 H   0  0  0  0  0  0
  -23.8141  -30.5763   19.4052 H   0  0  0  0  0  0
  -22.7782  -29.2510   19.8287 H   0  0  0  0  0  0
  -25.1325  -36.1849   25.0811 H   0  0  0  0  0  0
  -21.0066  -28.3311   24.1378 H   0  0  0  0  0  0
  -20.5825  -26.2275   23.3641 H   0  0  0  0  0  0
  -21.6675  -26.7505   22.1174 H   0  0  0  0  0  0
  -19.6942  -25.6300   21.1294 H   0  0  0  0  0  0
  -19.6736  -27.3191   20.6793 H   0  0  0  0  0  0
  -17.4254  -26.6777   21.4013 H   0  0  0  0  0  0
  -18.0289  -26.0103   22.9028 H   0  0  0  0  0  0
  -19.7950  -30.7310   24.2313 H   0  0  0  0  0  0
  -17.5017  -31.6299   24.5112 H   0  0  0  0  0  0
  -15.5369  -30.2985   23.7655 H   0  0  0  0  0  0
  -15.8714  -28.0789   22.7138 H   0  0  0  0  0  0
  -24.5777  -30.7261   25.7621 H   0  0  0  0  0  0
  -24.8885  -32.3049   26.4718 H   0  0  0  0  0  0
  -25.7828  -30.8994   27.0191 H   0  0  0  0  0  0
  -26.3023  -29.6728   24.1287 H   0  0  0  0  0  0
  -27.4016  -29.7312   25.4868 H   0  0  0  0  0  0
  -27.8919  -30.4278   23.9612 H   0  0  0  0  0  0
  -27.2637  -33.3673   26.2041 H   0  0  0  0  0  0
  -28.3862  -32.6944   25.0325 H   0  0  0  0  0  0
  -28.0702  -31.8529   26.5445 H   0  0  0  0  0  0
  -28.2586  -38.0095   24.7533 H   0  0  0  0  0  0
  -28.1108  -36.2630   24.6256 H   0  0  0  0  0  0
  -27.2293  -37.1369   25.8862 H   0  0  0  0  0  0
  -20.9425  -29.8627   21.6732 H   0  0  0  0  0  0
  -26.0157  -38.2792   24.1443 H   0  0  0  0  0  0
  -29.1399  -20.6489   21.8303 H   0  0  0  0  0  0
  -29.3332  -18.2776   22.2948 H   0  0  0  0  0  0
  -29.5961  -24.0521   17.0036 H   0  0  0  0  0  0
  -29.3653  -22.4617   16.3571 H   0  0  0  0  0  0
  -27.4611  -22.0060   17.8255 H   0  0  0  0  0  0
  -27.1981  -23.6977   17.5280 H   0  0  0  0  0  0
  -30.8859  -23.3540   18.7442 H   0  0  0  0  0  0
  -30.9696  -21.7713   18.0775 H   0  0  0  0  0  0
  -27.4201  -22.9937   20.0608 H   0  0  0  0  0  0
  -28.6990  -20.4863   16.8725 H   0  0  0  0  0  0
  -29.2896  -18.9302   16.5582 H   0  0  0  0  0  0
  -30.4639  -20.1845   16.7881 H   0  0  0  0  0  0
  -28.2917  -25.3094   18.4437 H   0  0  0  0  0  0
  -29.6739  -25.0085   19.3803 H   0  0  0  0  0  0
  -28.8217  -15.7602   20.9951 H   0  0  0  0  0  0
  1 25  1  0  0  0
  1 30  2  0  0  0
  1 84  1  0  0  0
  2  3  1  0  0  0
  2 25  1  0  0  0
  2 86  1  0  0  0
  2 87  1  0  0  0
  3  4  1  0  0  0
  3 88  1  0  0  0
  3 89  1  0  0  0
  4  5  1  0  0  0
  4 90  1  0  0  0
  4 91  1  0  0  0
  5  6  1  0  0  0
  5 26  1  0  0  0
  5 92  1  0  0  0
  6 25  1  0  0  0
  6 93  1  0  0  0
  6 94  1  0  0  0
  7  8  2  0  0  0
  7 26  1  0  0  0
  7 29  1  0  0  0
  8  9  1  0  0  0
  8 22  1  0  0  0
  9 10  1  0  0  0
  9 27  2  0  0  0
 10 11  2  0  0  0
 10 15  1  0  0  0
 11 12  1  0  0  0
 11 95  1  0  0  0
 12 13  2  0  0  0
 12 96  1  0  0  0
 13 14  1  0  0  0
 13 31  1  0  0  0
 14 15  2  0  0  0
 14 97  1  0  0  0
 15 98  1  0  0  0
 16 17  2  0  0  0
 16 21  1  0  0  0
 16 31  1  0  0  0
 17 18  1  0  0  0
 17 99  1  0  0  0
 18 19  2  0  0  0
 18100  1  0  0  0
 19 20  1  0  0  0
 19 24  1  0  0  0
 20 21  2  0  0  0
 20101  1  0  0  0
 21 23  1  0  0  0
 22 28  1  0  0  0
 22 32  2  0  0  0
 26 27  1  0  0  0
 28102  1  0  0  0
 28103  1  0  0  0
 29104  1  0  0  0
 29105  1  0  0  0
 33 34  1  0  0  0
 33 66  1  0  0  0
 33 70  2  0  0  0
 34 36  1  0  0  0
 34 59  1  0  0  0
 34106  1  0  0  0
 35 44  2  0  0  0
 35 45  1  0  0  0
 35 68  1  0  0  0
 36 56  1  0  0  0
 36107  1  0  0  0
 37 39  1  0  0  0
 37 47  1  0  0  0
 37 66  1  0  0  0
 37108  1  0  0  0
 38 43  2  0  0  0
 38 46  1  0  0  0
 38 47  1  0  0  0
 39 64  1  0  0  0
 39 67  2  0  0  0
 40 52  1  0  0  0
 40 53  2  0  0  0
 40 58  1  0  0  0
 41109  1  0  0  0
 41110  1  0  0  0
 41111  1  0  0  0
 41 48  1  0  0  0
 42 43  1  0  0  0
 42 66  1  0  0  0
 42112  1  0  0  0
 42113  1  0  0  0
 43 44  1  0  0  0
 44114  1  0  0  0
 45 46  2  0  0  0
 45115  1  0  0  0
 46116  1  0  0  0
 47117  1  0  0  0
 47118  1  0  0  0
 48 56  1  0  0  0
 48 65  1  0  0  0
 48119  1  0  0  0
 49 50  1  0  0  0
 49 53  1  0  0  0
 49 64  1  0  0  0
 49120  1  0  0  0
 50 51  1  0  0  0
 50121  1  0  0  0
 50122  1  0  0  0
 51 52  1  0  0  0
 51123  1  0  0  0
 51124  1  0  0  0
 52125  1  0  0  0
 52126  1  0  0  0
 53 54  1  0  0  0
 54 55  2  0  0  0
 54127  1  0  0  0
 55 57  1  0  0  0
 55128  1  0  0  0
 56 69  2  0  0  0
 57 58  2  0  0  0
 57129  1  0  0  0
 58130  1  0  0  0
 59 60  1  0  0  0
 59 61  1  0  0  0
 59 62  1  0  0  0
 60131  1  0  0  0
 60132  1  0  0  0
 60133  1  0  0  0
 61134  1  0  0  0
 61135  1  0  0  0
 61136  1  0  0  0
 62137  1  0  0  0
 62138  1  0  0  0
 62139  1  0  0  0
 63 65  1  0  0  0
 63140  1  0  0  0
 63141  1  0  0  0
 63142  1  0  0  0
 64143  1  0  0  0
 65144  1  0  0  0
 68 82  1  0  0  0
 71 72  2  0  0  0
 71 74  1  0  0  0
 71145  1  0  0  0
 72 75  1  0  0  0
 72146  1  0  0  0
 73 74  2  0  0  0
 73 76  1  0  0  0
 73 81  1  0  0  0
 74 83  1  0  0  0
 75 76  2  0  0  0
 75 84  1  0  0  0
 76 85  1  0  0  0
 77 78  1  0  0  0
 77 79  1  0  0  0
 77147  1  0  0  0
 77148  1  0  0  0
 78 80  1  0  0  0
 78149  1  0  0  0
 78150  1  0  0  0
 79 83  1  0  0  0
 79151  1  0  0  0
 79152  1  0  0  0
 80 82  1  0  0  0
 80 83  1  0  0  0
 80153  1  0  0  0
 81154  1  0  0  0
 81155  1  0  0  0
 81156  1  0  0  0
 82157  1  0  0  0
 82158  1  0  0  0
 84159  1  0  0  0
M  ISO  4   1 100  68 101  82 101  84 100
M  END
> <chiral flag>
0

> <version>
0

> <s_m_source_file>
/data/baiqing/PycharmProjects/Reinvent-master-3.2/result/LINK_invent/BTK/process_docking_weight1_custom_product_contain_oxygen_bond_distance_aromatic_linkinvent_7_9_3/rearranged_h_0022.sdf

> <i_m_source_file_index>
28

> <r_mmod_Potential_Energy-OPLS-2005>
703.859191894531

> <r_mmod_Stretch_Energy-OPLS-2005>
260.933990478516

> <r_mmod_Bend_Energy-OPLS-2005>
404.393005371094

> <r_mmod_Torsional_Energy-OPLS-2005>
323.244384765625

> <r_mmod_Improper_Torsional_Energy-OPLS-2005>
10.5280456542969

> <r_mmod_Van_der_Waal_Energy-OPLS-2005>
151.123733520508

> <r_mmod_Electrostatic_Energy-OPLS-2005>
-403.888092041016

> <r_mmod_Solvation_Energy-OPLS-2005>
-229.711822509766

> <b_mmod_Minimization_Converged-OPLS-2005>
0

> <r_mmod_RMS_Derivative-OPLS-2005>
6.56621122360229

$$$$
29
                    3D
 Structure written by MMmdl.
158167  0  0  1  0            999 V2000
  -30.7135  -14.5224   20.4890 C   0  0  0  0  0  0
  -30.4118  -12.3202   19.4319 C   0  0  0  0  0  0
  -29.4916  -12.4902   18.2067 C   0  0  0  0  0  0
  -28.0112  -12.3630   18.6185 C   0  0  0  0  0  0
  -27.6524  -13.2187   19.8649 C   0  0  2  0  0  0
  -28.7039  -13.0536   20.9858 C   0  0  0  0  0  0
  -25.2553  -13.8181   20.5689 C   0  0  0  0  0  0
  -24.1824  -13.0440   20.9201 C   0  0  0  0  0  0
  -24.6396  -11.6913   20.8745 C   0  0  0  0  0  0
  -23.9059  -10.4296   21.0398 C   0  0  0  0  0  0
  -24.3605   -9.4212   21.9176 C   0  0  0  0  0  0
  -23.6295   -8.2241   22.0743 C   0  0  0  0  0  0
  -22.4281   -8.0272   21.3533 C   0  0  0  0  0  0
  -21.9910   -9.0246   20.4638 C   0  0  0  0  0  0
  -22.7228  -10.2133   20.3052 C   0  0  0  0  0  0
  -21.6855   -6.0730   22.5274 C   0  0  0  0  0  0
  -21.4019   -6.5635   23.8210 C   0  0  0  0  0  0
  -21.3666   -5.6790   24.9169 C   0  0  0  0  0  0
  -21.6051   -4.3056   24.7221 C   0  0  0  0  0  0
  -21.8821   -3.8141   23.4343 C   0  0  0  0  0  0
  -21.9196   -4.6955   22.3396 C   0  0  0  0  0  0
  -22.7843  -13.5226   21.1859 C   0  0  0  0  0  0
  -22.1657   -4.2139   21.0976 F   0  0  0  0  0  0
  -21.5634   -3.4538   25.7734 F   0  0  0  0  0  0
  -30.0172  -13.3536   20.4029 N   0  0  0  0  0  0
  -26.2995  -12.9370   20.3364 N   0  0  0  0  0  0
  -25.9329  -11.6517   20.5781 N   0  0  0  0  0  0
  -22.0483  -12.8217   22.0405 N   0  0  0  0  0  0
  -25.4245  -15.1896   20.4061 N   0  0  0  0  0  0
  -31.9135  -14.5651   20.1981 O   0  0  0  0  0  0
  -21.6637   -6.8874   21.4239 O   0  0  0  0  0  0
  -22.3526  -14.5531   20.6707 O   0  0  0  0  0  0
  -24.6182  -31.8679   23.2114 C   0  0  0  0  0  0
  -25.9060  -32.4833   23.8412 C   0  0  1  0  0  0
  -27.2178  -27.3994   20.0989 C   0  0  0  0  0  0
  -25.5912  -33.8631   24.2343 N   0  0  0  0  0  0
  -23.4063  -30.4952   21.5534 C   0  0  2  0  0  0
  -24.8482  -28.9644   20.1129 C   0  0  0  0  0  0
  -22.7431  -29.4664   22.4983 C   0  0  0  0  0  0
  -18.0279  -28.1382   22.8497 C   0  0  0  0  0  0
  -24.1484  -36.7313   23.2637 C   0  0  0  0  0  0
  -25.9399  -30.8250   21.3682 C   0  0  0  0  0  0
  -26.0137  -29.4582   20.7117 C   0  0  0  0  0  0
  -27.2021  -28.6845   20.7002 C   0  0  0  0  0  0
  -26.0300  -26.9393   19.4815 C   0  0  0  0  0  0
  -24.8533  -27.7063   19.4932 C   0  0  0  0  0  0
  -23.6152  -29.8373   20.1652 C   0  0  0  0  0  0
  -25.4106  -36.3122   24.0342 C   0  0  1  0  0  0
  -20.5873  -28.3675   23.1322 C   0  0  2  0  0  0
  -20.6776  -26.9410   22.5424 C   0  0  0  0  0  0
  -19.5752  -26.6386   21.5227 C   0  0  0  0  0  0
  -18.1926  -26.7931   22.1630 C   0  0  0  0  0  0
  -19.1526  -28.8845   23.2909 C   0  0  0  0  0  0
  -18.9448  -30.1450   23.8919 C   0  0  0  0  0  0
  -17.6447  -30.6588   24.0567 C   0  0  0  0  0  0
  -25.9033  -34.9485   23.5136 C   0  0  0  0  0  0
  -16.5342  -29.9090   23.6320 C   0  0  0  0  0  0
  -16.7266  -28.6506   23.0346 C   0  0  0  0  0  0
  -26.4472  -31.6611   25.0740 C   0  0  0  0  0  0
  -25.3739  -31.3707   26.1489 C   0  0  0  0  0  0
  -27.0292  -30.3058   24.6100 C   0  0  0  0  0  0
  -27.6053  -32.4325   25.7498 C   0  0  0  0  0  0
  -27.5583  -37.1818   24.8466 C   0  0  0  0  0  0
  -21.4155  -29.3043   22.3729 N   0  0  0  0  0  0
  -26.4294  -37.3807   23.9412 N   0  0  0  0  0  0
  -24.6737  -31.0767   22.1026 N   0  0  0  0  0  0
  -23.4197  -28.8190   23.3018 O   0  0  0  0  0  0
  -28.3629  -26.6152   20.1377 O   0  0  0  0  0  0
  -26.5584  -34.8935   22.4690 O   0  0  0  0  0  0
  -23.5367  -32.1429   23.7499 O   0  0  0  0  0  0
  -28.8415  -18.5709   22.6200 C   0  0  0  0  0  0
  -28.7128  -19.9732   22.5338 C   0  0  0  0  0  0
  -29.1128  -17.8370   21.4488 C   0  0  0  0  0  0
  -29.2206  -18.5595   20.2477 C   0  0  0  0  0  0
  -28.8675  -20.6162   21.2914 C   0  0  0  0  0  0
  -29.2498  -16.2993   21.4717 C   0  0  0  0  0  0
  -29.4796  -17.7760   18.9836 C   0  0  0  0  0  0
  -30.4195  -16.5867   19.2565 C   0  0  0  0  0  0
  -29.4128  -24.3403   20.3908 C   0  0  0  0  0  0
  -29.3131  -22.8011   20.1225 C   0  0  0  0  0  0
  -28.1816  -25.1846   19.9752 C   0  0  0  0  0  0
  -29.1160  -19.9135   20.1618 N   0  0  0  0  0  0
  -29.9833  -15.6718   20.3420 N   0  0  0  0  0  0
  -28.7440  -22.0185   21.2279 N   0  0  0  0  0  0
  -31.4579  -12.3951   19.1309 H   0  0  0  0  0  0
  -30.2973  -11.3258   19.8669 H   0  0  0  0  0  0
  -29.7335  -11.7454   17.4470 H   0  0  0  0  0  0
  -29.6637  -13.4644   17.7458 H   0  0  0  0  0  0
  -27.8173  -11.3102   18.8253 H   0  0  0  0  0  0
  -27.3639  -12.6295   17.7813 H   0  0  0  0  0  0
  -27.6752  -14.2583   19.5389 H   0  0  0  0  0  0
  -28.6930  -12.0335   21.3715 H   0  0  0  0  0  0
  -28.4856  -13.6923   21.8403 H   0  0  0  0  0  0
  -25.2742   -9.5698   22.4760 H   0  0  0  0  0  0
  -24.0010   -7.4635   22.7467 H   0  0  0  0  0  0
  -21.0836   -8.8758   19.8950 H   0  0  0  0  0  0
  -22.3668  -10.9669   19.6169 H   0  0  0  0  0  0
  -21.2005   -7.6143   23.9710 H   0  0  0  0  0  0
  -21.1494   -6.0513   25.9076 H   0  0  0  0  0  0
  -22.0599   -2.7607   23.2834 H   0  0  0  0  0  0
  -22.4093  -11.9886   22.4816 H   0  0  0  0  0  0
  -21.1104  -13.1265   22.2611 H   0  0  0  0  0  0
  -24.6546  -15.8421   20.5073 H   0  0  0  0  0  0
  -26.2723  -15.6281   20.0703 H   0  0  0  0  0  0
  -26.7131  -32.5538   23.1175 H   0  0  0  0  0  0
  -25.0108  -33.9795   25.0522 H   0  0  0  0  0  0
  -22.6963  -31.3136   21.4194 H   0  0  0  0  0  0
  -23.3755  -35.9638   23.3311 H   0  0  0  0  0  0
  -24.3578  -36.8910   22.2049 H   0  0  0  0  0  0
  -23.7224  -37.6519   23.6635 H   0  0  0  0  0  0
  -26.0543  -31.5911   20.5999 H   0  0  0  0  0  0
  -26.8277  -30.8785   21.9860 H   0  0  0  0  0  0
  -28.0989  -29.0582   21.1753 H   0  0  0  0  0  0
  -25.9815  -25.9821   18.9846 H   0  0  0  0  0  0
  -23.9587  -27.3231   19.0221 H   0  0  0  0  0  0
  -23.7331  -30.6182   19.4132 H   0  0  0  0  0  0
  -22.7357  -29.2666   19.8616 H   0  0  0  0  0  0
  -25.1282  -36.1996   25.0838 H   0  0  0  0  0  0
  -20.9966  -28.3244   24.1443 H   0  0  0  0  0  0
  -20.5699  -26.2280   23.3613 H   0  0  0  0  0  0
  -21.6644  -26.7467   22.1206 H   0  0  0  0  0  0
  -19.6912  -25.6296   21.1259 H   0  0  0  0  0  0
  -19.6697  -27.3197   20.6760 H   0  0  0  0  0  0
  -17.4206  -26.6694   21.4021 H   0  0  0  0  0  0
  -18.0310  -26.0067   22.9017 H   0  0  0  0  0  0
  -19.7920  -30.7262   24.2305 H   0  0  0  0  0  0
  -17.4998  -31.6270   24.5161 H   0  0  0  0  0  0
  -15.5341  -30.2995   23.7626 H   0  0  0  0  0  0
  -15.8669  -28.0829   22.7044 H   0  0  0  0  0  0
  -24.5921  -30.7039   25.7830 H   0  0  0  0  0  0
  -24.8911  -32.2851   26.4946 H   0  0  0  0  0  0
  -25.8099  -30.8880   27.0245 H   0  0  0  0  0  0
  -26.2825  -29.6845   24.1138 H   0  0  0  0  0  0
  -27.4052  -29.7270   25.4545 H   0  0  0  0  0  0
  -27.8670  -30.4388   23.9251 H   0  0  0  0  0  0
  -27.2682  -33.3623   26.2093 H   0  0  0  0  0  0
  -28.3850  -32.6890   25.0314 H   0  0  0  0  0  0
  -28.0731  -31.8436   26.5397 H   0  0  0  0  0  0
  -28.2614  -38.0105   24.7517 H   0  0  0  0  0  0
  -28.1068  -36.2639   24.6291 H   0  0  0  0  0  0
  -27.2302  -37.1470   25.8870 H   0  0  0  0  0  0
  -20.9307  -29.8785   21.6973 H   0  0  0  0  0  0
  -26.0190  -38.2889   24.1413 H   0  0  0  0  0  0
  -28.7311  -18.0709   23.5717 H   0  0  0  0  0  0
  -28.5015  -20.5384   23.4318 H   0  0  0  0  0  0
  -28.2369  -15.8971   21.4846 H   0  0  0  0  0  0
  -29.7123  -16.0057   22.4162 H   0  0  0  0  0  0
  -29.9091  -18.4241   18.2184 H   0  0  0  0  0  0
  -28.5261  -17.4177   18.5943 H   0  0  0  0  0  0
  -31.4027  -16.9873   19.5129 H   0  0  0  0  0  0
  -30.5483  -16.0234   18.3299 H   0  0  0  0  0  0
  -30.2581  -24.7171   19.8145 H   0  0  0  0  0  0
  -29.6650  -24.5323   21.4342 H   0  0  0  0  0  0
  -30.3197  -22.4190   19.9443 H   0  0  0  0  0  0
  -28.7513  -22.6074   19.2078 H   0  0  0  0  0  0
  -27.3289  -24.8453   20.5663 H   0  0  0  0  0  0
  -27.9571  -24.9721   18.9293 H   0  0  0  0  0  0
  -28.6018  -22.5008   22.1088 H   0  0  0  0  0  0
  1 25  1  0  0  0
  1 30  2  0  0  0
  1 83  1  0  0  0
  2  3  1  0  0  0
  2 25  1  0  0  0
  2 85  1  0  0  0
  2 86  1  0  0  0
  3  4  1  0  0  0
  3 87  1  0  0  0
  3 88  1  0  0  0
  4  5  1  0  0  0
  4 89  1  0  0  0
  4 90  1  0  0  0
  5  6  1  0  0  0
  5 26  1  0  0  0
  5 91  1  0  0  0
  6 25  1  0  0  0
  6 92  1  0  0  0
  6 93  1  0  0  0
  7  8  2  0  0  0
  7 26  1  0  0  0
  7 29  1  0  0  0
  8  9  1  0  0  0
  8 22  1  0  0  0
  9 10  1  0  0  0
  9 27  2  0  0  0
 10 11  2  0  0  0
 10 15  1  0  0  0
 11 12  1  0  0  0
 11 94  1  0  0  0
 12 13  2  0  0  0
 12 95  1  0  0  0
 13 14  1  0  0  0
 13 31  1  0  0  0
 14 15  2  0  0  0
 14 96  1  0  0  0
 15 97  1  0  0  0
 16 17  2  0  0  0
 16 21  1  0  0  0
 16 31  1  0  0  0
 17 18  1  0  0  0
 17 98  1  0  0  0
 18 19  2  0  0  0
 18 99  1  0  0  0
 19 20  1  0  0  0
 19 24  1  0  0  0
 20 21  2  0  0  0
 20100  1  0  0  0
 21 23  1  0  0  0
 22 28  1  0  0  0
 22 32  2  0  0  0
 26 27  1  0  0  0
 28101  1  0  0  0
 28102  1  0  0  0
 29103  1  0  0  0
 29104  1  0  0  0
 33 34  1  0  0  0
 33 66  1  0  0  0
 33 70  2  0  0  0
 34 36  1  0  0  0
 34 59  1  0  0  0
 34105  1  0  0  0
 35 44  2  0  0  0
 35 45  1  0  0  0
 35 68  1  0  0  0
 36 56  1  0  0  0
 36106  1  0  0  0
 37 39  1  0  0  0
 37 47  1  0  0  0
 37 66  1  0  0  0
 37107  1  0  0  0
 38 43  2  0  0  0
 38 46  1  0  0  0
 38 47  1  0  0  0
 39 64  1  0  0  0
 39 67  2  0  0  0
 40 52  1  0  0  0
 40 53  2  0  0  0
 40 58  1  0  0  0
 41108  1  0  0  0
 41109  1  0  0  0
 41110  1  0  0  0
 41 48  1  0  0  0
 42 43  1  0  0  0
 42 66  1  0  0  0
 42111  1  0  0  0
 42112  1  0  0  0
 43 44  1  0  0  0
 44113  1  0  0  0
 45 46  2  0  0  0
 45114  1  0  0  0
 46115  1  0  0  0
 47116  1  0  0  0
 47117  1  0  0  0
 48 56  1  0  0  0
 48 65  1  0  0  0
 48118  1  0  0  0
 49 50  1  0  0  0
 49 53  1  0  0  0
 49 64  1  0  0  0
 49119  1  0  0  0
 50 51  1  0  0  0
 50120  1  0  0  0
 50121  1  0  0  0
 51 52  1  0  0  0
 51122  1  0  0  0
 51123  1  0  0  0
 52124  1  0  0  0
 52125  1  0  0  0
 53 54  1  0  0  0
 54 55  2  0  0  0
 54126  1  0  0  0
 55 57  1  0  0  0
 55127  1  0  0  0
 56 69  2  0  0  0
 57 58  2  0  0  0
 57128  1  0  0  0
 58129  1  0  0  0
 59 60  1  0  0  0
 59 61  1  0  0  0
 59 62  1  0  0  0
 60130  1  0  0  0
 60131  1  0  0  0
 60132  1  0  0  0
 61133  1  0  0  0
 61134  1  0  0  0
 61135  1  0  0  0
 62136  1  0  0  0
 62137  1  0  0  0
 62138  1  0  0  0
 63 65  1  0  0  0
 63139  1  0  0  0
 63140  1  0  0  0
 63141  1  0  0  0
 64142  1  0  0  0
 65143  1  0  0  0
 68 81  1  0  0  0
 71 72  2  0  0  0
 71 73  1  0  0  0
 71144  1  0  0  0
 72 75  1  0  0  0
 72145  1  0  0  0
 73 74  2  0  0  0
 73 76  1  0  0  0
 74 77  1  0  0  0
 74 82  1  0  0  0
 75 82  2  0  0  0
 75 84  1  0  0  0
 76 83  1  0  0  0
 76146  1  0  0  0
 76147  1  0  0  0
 77 78  1  0  0  0
 77148  1  0  0  0
 77149  1  0  0  0
 78 83  1  0  0  0
 78150  1  0  0  0
 78151  1  0  0  0
 79 80  1  0  0  0
 79 81  1  0  0  0
 79152  1  0  0  0
 79153  1  0  0  0
 80 84  1  0  0  0
 80154  1  0  0  0
 80155  1  0  0  0
 81156  1  0  0  0
 81157  1  0  0  0
 84158  1  0  0  0
M  ISO  4   1 100  68 101  81 101  83 100
M  END
> <chiral flag>
0

> <version>
0

> <s_m_source_file>
/data/baiqing/PycharmProjects/Reinvent-master-3.2/result/LINK_invent/BTK/process_docking_weight1_custom_product_contain_oxygen_bond_distance_aromatic_linkinvent_7_9_3/rearranged_h_0022.sdf

> <i_m_source_file_index>
29

> <r_mmod_Potential_Energy-OPLS-2005>
-61.798641204834

> <r_mmod_Stretch_Energy-OPLS-2005>
46.4322166442871

> <r_mmod_Bend_Energy-OPLS-2005>
114.647567749023

> <r_mmod_Torsional_Energy-OPLS-2005>
286.907684326172

> <r_mmod_Improper_Torsional_Energy-OPLS-2005>
21.776252746582

> <r_mmod_Van_der_Waal_Energy-OPLS-2005>
162.091461181641

> <r_mmod_Electrostatic_Energy-OPLS-2005>
-492.505859375

> <r_mmod_Solvation_Energy-OPLS-2005>
-228.870223999023

> <b_mmod_Minimization_Converged-OPLS-2005>
0

> <r_mmod_RMS_Derivative-OPLS-2005>
1.30928671360016

$$$$
30
                    3D
 Structure written by MMmdl.
152160  0  0  1  0            999 V2000
  -30.5049  -14.9018   20.4584 C   0  0  0  0  0  0
  -30.4523  -12.5594   19.4992 C   0  0  0  0  0  0
  -29.5328  -12.5477   18.2541 C   0  0  0  0  0  0
  -28.0591  -12.3364   18.6576 C   0  0  0  0  0  0
  -27.6407  -13.2377   19.8498 C   0  0  2  0  0  0
  -28.6798  -13.1963   20.9910 C   0  0  0  0  0  0
  -25.2499  -13.8198   20.5666 C   0  0  0  0  0  0
  -24.1805  -13.0430   20.9185 C   0  0  0  0  0  0
  -24.6404  -11.6914   20.8726 C   0  0  0  0  0  0
  -23.9078  -10.4289   21.0396 C   0  0  0  0  0  0
  -24.3636   -9.4211   21.9174 C   0  0  0  0  0  0
  -23.6310   -8.2246   22.0751 C   0  0  0  0  0  0
  -22.4292   -8.0278   21.3539 C   0  0  0  0  0  0
  -21.9923   -9.0253   20.4640 C   0  0  0  0  0  0
  -22.7250  -10.2130   20.3046 C   0  0  0  0  0  0
  -21.6860   -6.0735   22.5283 C   0  0  0  0  0  0
  -21.4010   -6.5635   23.8210 C   0  0  0  0  0  0
  -21.3660   -5.6790   24.9171 C   0  0  0  0  0  0
  -21.6050   -4.3054   24.7222 C   0  0  0  0  0  0
  -21.8818   -3.8147   23.4340 C   0  0  0  0  0  0
  -21.9188   -4.6961   22.3401 C   0  0  0  0  0  0
  -22.7824  -13.5212   21.1850 C   0  0  0  0  0  0
  -22.1663   -4.2147   21.0979 F   0  0  0  0  0  0
  -21.5630   -3.4537   25.7730 F   0  0  0  0  0  0
  -29.9656  -13.6203   20.4212 N   0  0  0  0  0  0
  -26.2929  -12.9407   20.3229 N   0  0  0  0  0  0
  -25.9330  -11.6549   20.5706 N   0  0  0  0  0  0
  -22.0472  -12.8215   22.0409 N   0  0  0  0  0  0
  -25.4171  -15.1918   20.4103 N   0  0  0  0  0  0
  -31.6817  -15.0455   20.1097 O   0  0  0  0  0  0
  -21.6646   -6.8885   21.4245 O   0  0  0  0  0  0
  -22.3513  -14.5520   20.6686 O   0  0  0  0  0  0
  -24.6421  -31.8466   23.1910 C   0  0  0  0  0  0
  -25.9205  -32.4709   23.8297 C   0  0  1  0  0  0
  -27.2083  -27.1555   20.1590 C   0  0  0  0  0  0
  -25.5960  -33.8517   24.2225 N   0  0  0  0  0  0
  -23.4434  -30.4682   21.5366 C   0  0  2  0  0  0
  -24.8892  -28.8969   20.1113 C   0  0  0  0  0  0
  -22.7566  -29.4565   22.4873 C   0  0  0  0  0  0
  -18.0302  -28.1403   22.8479 C   0  0  0  0  0  0
  -24.1477  -36.7272   23.2641 C   0  0  0  0  0  0
  -25.9958  -30.7267   21.3843 C   0  0  0  0  0  0
  -26.0646  -29.3367   20.7335 C   0  0  0  0  0  0
  -27.2270  -28.4827   20.7406 C   0  0  0  0  0  0
  -26.0133  -26.8158   19.4874 C   0  0  0  0  0  0
  -24.8749  -27.6490   19.4702 C   0  0  0  0  0  0
  -23.6667  -29.7994   20.1545 C   0  0  0  0  0  0
  -25.4107  -36.3054   24.0327 C   0  0  1  0  0  0
  -20.5914  -28.3731   23.1243 C   0  0  2  0  0  0
  -20.6784  -26.9436   22.5409 C   0  0  0  0  0  0
  -19.5754  -26.6387   21.5220 C   0  0  0  0  0  0
  -18.1939  -26.7940   22.1631 C   0  0  0  0  0  0
  -19.1559  -28.8886   23.2854 C   0  0  0  0  0  0
  -18.9475  -30.1487   23.8870 C   0  0  0  0  0  0
  -17.6472  -30.6594   24.0565 C   0  0  0  0  0  0
  -25.9069  -34.9422   23.5087 C   0  0  0  0  0  0
  -16.5365  -29.9091   23.6337 C   0  0  0  0  0  0
  -16.7291  -28.6517   23.0350 C   0  0  0  0  0  0
  -26.4518  -31.6562   25.0733 C   0  0  0  0  0  0
  -25.3713  -31.3746   26.1446 C   0  0  0  0  0  0
  -27.0379  -30.2965   24.6287 C   0  0  0  0  0  0
  -27.6048  -32.4326   25.7526 C   0  0  0  0  0  0
  -27.5582  -37.1788   24.8465 C   0  0  0  0  0  0
  -21.4266  -29.3060   22.3625 N   0  0  0  0  0  0
  -26.4270  -37.3772   23.9433 N   0  0  0  0  0  0
  -24.7135  -31.0357   22.0921 N   0  0  0  0  0  0
  -23.4217  -28.8118   23.3018 O   0  0  0  0  0  0
  -28.2662  -26.1850   20.1925 O   0  0  0  0  0  0
  -26.5665  -34.8911   22.4673 O   0  0  0  0  0  0
  -23.5554  -32.1333   23.7153 O   0  0  0  0  0  0
  -28.8913  -19.6915   21.7784 C   0  0  0  0  0  0
  -29.1650  -18.2746   21.8147 C   0  0  0  0  0  0
  -29.4806  -19.7729   19.4894 C   0  0  0  0  0  0
  -29.0126  -20.5376   20.6304 C   0  0  0  0  0  0
  -29.6168  -17.5018   20.7013 C   0  0  0  0  0  0
  -29.7599  -18.3260   19.5283 C   0  0  0  0  0  0
  -29.6034  -20.4651   18.1409 C   0  0  0  0  0  0
  -28.8799  -23.3416   20.1254 C   0  0  0  0  0  0
  -27.9792  -24.6990   20.5283 C   0  0  0  0  0  0
  -29.6498  -15.9762   20.7887 N   0  0  0  0  0  0
  -28.5621  -21.9533   20.7568 N   0  0  0  0  0  0
  -30.1918  -17.5129   18.0603 Cl  0  0  0  0  0  0
  -31.4881  -12.7297   19.2015 H   0  0  0  0  0  0
  -30.4424  -11.5899   19.9989 H   0  0  0  0  0  0
  -29.8529  -11.7717   17.5563 H   0  0  0  0  0  0
  -29.6282  -13.4972   17.7245 H   0  0  0  0  0  0
  -27.9387  -11.2873   18.9289 H   0  0  0  0  0  0
  -27.4040  -12.5106   17.8025 H   0  0  0  0  0  0
  -27.6240  -14.2548   19.4587 H   0  0  0  0  0  0
  -28.7551  -12.1926   21.4143 H   0  0  0  0  0  0
  -28.3808  -13.8461   21.8135 H   0  0  0  0  0  0
  -25.2788   -9.5686   22.4734 H   0  0  0  0  0  0
  -24.0015   -7.4642   22.7477 H   0  0  0  0  0  0
  -21.0840   -8.8782   19.8954 H   0  0  0  0  0  0
  -22.3723  -10.9664   19.6147 H   0  0  0  0  0  0
  -21.2012   -7.6147   23.9719 H   0  0  0  0  0  0
  -21.1483   -6.0516   25.9077 H   0  0  0  0  0  0
  -22.0601   -2.7609   23.2841 H   0  0  0  0  0  0
  -22.4112  -11.9894   22.4824 H   0  0  0  0  0  0
  -21.1077  -13.1233   22.2582 H   0  0  0  0  0  0
  -24.6436  -15.8393   20.5161 H   0  0  0  0  0  0
  -26.2576  -15.6368   20.0659 H   0  0  0  0  0  0
  -26.7282  -32.5321   23.1040 H   0  0  0  0  0  0
  -25.0060  -33.9620   25.0345 H   0  0  0  0  0  0
  -22.7457  -31.2936   21.3872 H   0  0  0  0  0  0
  -23.3746  -35.9592   23.3267 H   0  0  0  0  0  0
  -24.3577  -36.8941   22.2063 H   0  0  0  0  0  0
  -23.7196  -37.6448   23.6692 H   0  0  0  0  0  0
  -26.1457  -31.4737   20.6030 H   0  0  0  0  0  0
  -26.8703  -30.7813   22.0210 H   0  0  0  0  0  0
  -28.1221  -28.8170   21.2462 H   0  0  0  0  0  0
  -25.9394  -25.8705   18.9706 H   0  0  0  0  0  0
  -23.9821  -27.3142   18.9588 H   0  0  0  0  0  0
  -23.8023  -30.5745   19.3990 H   0  0  0  0  0  0
  -22.7796  -29.2436   19.8455 H   0  0  0  0  0  0
  -25.1270  -36.1887   25.0812 H   0  0  0  0  0  0
  -21.0010  -28.3310   24.1362 H   0  0  0  0  0  0
  -20.5678  -26.2348   23.3631 H   0  0  0  0  0  0
  -21.6650  -26.7442   22.1205 H   0  0  0  0  0  0
  -19.6916  -25.6295   21.1260 H   0  0  0  0  0  0
  -19.6680  -27.3186   20.6738 H   0  0  0  0  0  0
  -17.4214  -26.6698   21.4031 H   0  0  0  0  0  0
  -18.0331  -26.0082   22.9026 H   0  0  0  0  0  0
  -19.7954  -30.7319   24.2208 H   0  0  0  0  0  0
  -17.5026  -31.6259   24.5196 H   0  0  0  0  0  0
  -15.5370  -30.2985   23.7672 H   0  0  0  0  0  0
  -15.8693  -28.0838   22.7056 H   0  0  0  0  0  0
  -24.5879  -30.7104   25.7780 H   0  0  0  0  0  0
  -24.8910  -32.2922   26.4851 H   0  0  0  0  0  0
  -25.7996  -30.8937   27.0248 H   0  0  0  0  0  0
  -26.2989  -29.6704   24.1273 H   0  0  0  0  0  0
  -27.3988  -29.7243   25.4844 H   0  0  0  0  0  0
  -27.8894  -30.4225   23.9599 H   0  0  0  0  0  0
  -27.2633  -33.3633   26.2072 H   0  0  0  0  0  0
  -28.3869  -32.6883   25.0367 H   0  0  0  0  0  0
  -28.0705  -31.8481   26.5474 H   0  0  0  0  0  0
  -28.2563  -38.0124   24.7565 H   0  0  0  0  0  0
  -28.1110  -36.2659   24.6196 H   0  0  0  0  0  0
  -27.2333  -37.1329   25.8876 H   0  0  0  0  0  0
  -20.9484  -29.8786   21.6812 H   0  0  0  0  0  0
  -26.0140  -38.2837   24.1455 H   0  0  0  0  0  0
  -28.5362  -20.1360   22.6981 H   0  0  0  0  0  0
  -28.9780  -17.7612   22.7460 H   0  0  0  0  0  0
  -29.6196  -21.5449   18.2222 H   0  0  0  0  0  0
  -28.7638  -20.1821   17.5048 H   0  0  0  0  0  0
  -30.5261  -20.1822   17.6358 H   0  0  0  0  0  0
  -29.9228  -23.5561   20.3616 H   0  0  0  0  0  0
  -28.8338  -23.2598   19.0425 H   0  0  0  0  0  0
  -27.9215  -24.6948   21.6168 H   0  0  0  0  0  0
  -26.9621  -24.4655   20.2182 H   0  0  0  0  0  0
  -28.7952  -15.6109   21.1766 H   0  0  0  0  0  0
  -28.0486  -22.0919   21.6246 H   0  0  0  0  0  0
  1 25  1  0  0  0
  1 30  2  0  0  0
  1 80  1  0  0  0
  2  3  1  0  0  0
  2 25  1  0  0  0
  2 83  1  0  0  0
  2 84  1  0  0  0
  3  4  1  0  0  0
  3 85  1  0  0  0
  3 86  1  0  0  0
  4  5  1  0  0  0
  4 87  1  0  0  0
  4 88  1  0  0  0
  5  6  1  0  0  0
  5 26  1  0  0  0
  5 89  1  0  0  0
  6 25  1  0  0  0
  6 90  1  0  0  0
  6 91  1  0  0  0
  7  8  2  0  0  0
  7 26  1  0  0  0
  7 29  1  0  0  0
  8  9  1  0  0  0
  8 22  1  0  0  0
  9 10  1  0  0  0
  9 27  2  0  0  0
 10 11  2  0  0  0
 10 15  1  0  0  0
 11 12  1  0  0  0
 11 92  1  0  0  0
 12 13  2  0  0  0
 12 93  1  0  0  0
 13 14  1  0  0  0
 13 31  1  0  0  0
 14 15  2  0  0  0
 14 94  1  0  0  0
 15 95  1  0  0  0
 16 17  2  0  0  0
 16 21  1  0  0  0
 16 31  1  0  0  0
 17 18  1  0  0  0
 17 96  1  0  0  0
 18 19  2  0  0  0
 18 97  1  0  0  0
 19 20  1  0  0  0
 19 24  1  0  0  0
 20 21  2  0  0  0
 20 98  1  0  0  0
 21 23  1  0  0  0
 22 28  1  0  0  0
 22 32  2  0  0  0
 26 27  1  0  0  0
 28 99  1  0  0  0
 28100  1  0  0  0
 29101  1  0  0  0
 29102  1  0  0  0
 33 34  1  0  0  0
 33 66  1  0  0  0
 33 70  2  0  0  0
 34 36  1  0  0  0
 34 59  1  0  0  0
 34103  1  0  0  0
 35 44  2  0  0  0
 35 45  1  0  0  0
 35 68  1  0  0  0
 36 56  1  0  0  0
 36104  1  0  0  0
 37 39  1  0  0  0
 37 47  1  0  0  0
 37 66  1  0  0  0
 37105  1  0  0  0
 38 43  2  0  0  0
 38 46  1  0  0  0
 38 47  1  0  0  0
 39 64  1  0  0  0
 39 67  2  0  0  0
 40 52  1  0  0  0
 40 53  2  0  0  0
 40 58  1  0  0  0
 41106  1  0  0  0
 41107  1  0  0  0
 41108  1  0  0  0
 41 48  1  0  0  0
 42 43  1  0  0  0
 42 66  1  0  0  0
 42109  1  0  0  0
 42110  1  0  0  0
 43 44  1  0  0  0
 44111  1  0  0  0
 45 46  2  0  0  0
 45112  1  0  0  0
 46113  1  0  0  0
 47114  1  0  0  0
 47115  1  0  0  0
 48 56  1  0  0  0
 48 65  1  0  0  0
 48116  1  0  0  0
 49 50  1  0  0  0
 49 53  1  0  0  0
 49 64  1  0  0  0
 49117  1  0  0  0
 50 51  1  0  0  0
 50118  1  0  0  0
 50119  1  0  0  0
 51 52  1  0  0  0
 51120  1  0  0  0
 51121  1  0  0  0
 52122  1  0  0  0
 52123  1  0  0  0
 53 54  1  0  0  0
 54 55  2  0  0  0
 54124  1  0  0  0
 55 57  1  0  0  0
 55125  1  0  0  0
 56 69  2  0  0  0
 57 58  2  0  0  0
 57126  1  0  0  0
 58127  1  0  0  0
 59 60  1  0  0  0
 59 61  1  0  0  0
 59 62  1  0  0  0
 60128  1  0  0  0
 60129  1  0  0  0
 60130  1  0  0  0
 61131  1  0  0  0
 61132  1  0  0  0
 61133  1  0  0  0
 62134  1  0  0  0
 62135  1  0  0  0
 62136  1  0  0  0
 63 65  1  0  0  0
 63137  1  0  0  0
 63138  1  0  0  0
 63139  1  0  0  0
 64140  1  0  0  0
 65141  1  0  0  0
 68 79  1  0  0  0
 71 72  2  0  0  0
 71 74  1  0  0  0
 71142  1  0  0  0
 72 75  1  0  0  0
 72143  1  0  0  0
 73 74  2  0  0  0
 73 76  1  0  0  0
 73 77  1  0  0  0
 74 81  1  0  0  0
 75 76  2  0  0  0
 75 80  1  0  0  0
 76 82  1  0  0  0
 77144  1  0  0  0
 77145  1  0  0  0
 77146  1  0  0  0
 78 79  1  0  0  0
 78 81  1  0  0  0
 78147  1  0  0  0
 78148  1  0  0  0
 79149  1  0  0  0
 79150  1  0  0  0
 80151  1  0  0  0
 81152  1  0  0  0
M  ISO  4   1 100  68 101  79 101  80 100
M  END
> <chiral flag>
0

> <version>
0

> <s_m_source_file>
/data/baiqing/PycharmProjects/Reinvent-master-3.2/result/LINK_invent/BTK/process_docking_weight1_custom_product_contain_oxygen_bond_distance_aromatic_linkinvent_7_9_3/rearranged_h_0022.sdf

> <i_m_source_file_index>
30

> <r_mmod_Potential_Energy-OPLS-2005>
405.348510742188

> <r_mmod_Stretch_Energy-OPLS-2005>
208.890426635742

> <r_mmod_Bend_Energy-OPLS-2005>
275.124084472656

> <r_mmod_Torsional_Energy-OPLS-2005>
240.590927124023

> <r_mmod_Improper_Torsional_Energy-OPLS-2005>
5.62099933624268

> <r_mmod_Van_der_Waal_Energy-OPLS-2005>
135.196243286133

> <r_mmod_Electrostatic_Energy-OPLS-2005>
-401.513122558594

> <r_mmod_Solvation_Energy-OPLS-2005>
-225.738342285156

> <b_mmod_Minimization_Converged-OPLS-2005>
0

> <r_mmod_RMS_Derivative-OPLS-2005>
2.37912082672119

$$$$
31
                    3D
 Structure written by MMmdl.
158167  0  0  1  0            999 V2000
  -30.6243  -14.6131   20.5409 C   0  0  0  0  0  0
  -30.4484  -12.3962   19.4368 C   0  0  0  0  0  0
  -29.5016  -12.5194   18.2225 C   0  0  0  0  0  0
  -28.0289  -12.3483   18.6379 C   0  0  0  0  0  0
  -27.6552  -13.2123   19.8649 C   0  0  2  0  0  0
  -28.6987  -13.0328   20.9894 C   0  0  0  0  0  0
  -25.2530  -13.8172   20.5648 C   0  0  0  0  0  0
  -24.1787  -13.0463   20.9203 C   0  0  0  0  0  0
  -24.6366  -11.6957   20.8744 C   0  0  0  0  0  0
  -23.9046  -10.4304   21.0411 C   0  0  0  0  0  0
  -24.3584   -9.4225   21.9207 C   0  0  0  0  0  0
  -23.6250   -8.2253   22.0728 C   0  0  0  0  0  0
  -22.4231   -8.0270   21.3548 C   0  0  0  0  0  0
  -21.9863   -9.0246   20.4671 C   0  0  0  0  0  0
  -22.7204  -10.2125   20.3105 C   0  0  0  0  0  0
  -21.6864   -6.0691   22.5256 C   0  0  0  0  0  0
  -21.3995   -6.5573   23.8187 C   0  0  0  0  0  0
  -21.3673   -5.6740   24.9176 C   0  0  0  0  0  0
  -21.6059   -4.3005   24.7233 C   0  0  0  0  0  0
  -21.8804   -3.8103   23.4351 C   0  0  0  0  0  0
  -21.9189   -4.6922   22.3408 C   0  0  0  0  0  0
  -22.7800  -13.5294   21.1823 C   0  0  0  0  0  0
  -22.1685   -4.2098   21.1003 F   0  0  0  0  0  0
  -21.5675   -3.4526   25.7764 F   0  0  0  0  0  0
  -30.0249  -13.3856   20.4468 N   0  0  0  0  0  0
  -26.2958  -12.9353   20.3278 N   0  0  0  0  0  0
  -25.9283  -11.6527   20.5715 N   0  0  0  0  0  0
  -22.0406  -12.8334   22.0364 N   0  0  0  0  0  0
  -25.4266  -15.1869   20.4070 N   0  0  0  0  0  0
  -31.7744  -14.8082   20.1284 O   0  0  0  0  0  0
  -21.6665   -6.8844   21.4209 O   0  0  0  0  0  0
  -22.3498  -14.5626   20.6700 O   0  0  0  0  0  0
  -24.6281  -31.8579   23.1980 C   0  0  0  0  0  0
  -25.9149  -32.4749   23.8292 C   0  0  1  0  0  0
  -27.2104  -27.2847   20.1219 C   0  0  0  0  0  0
  -25.5949  -33.8551   24.2243 N   0  0  0  0  0  0
  -23.4201  -30.4792   21.5386 C   0  0  2  0  0  0
  -24.8715  -28.9240   20.1121 C   0  0  0  0  0  0
  -22.7471  -29.4603   22.4863 C   0  0  0  0  0  0
  -18.0310  -28.1347   22.8480 C   0  0  0  0  0  0
  -24.1514  -36.7287   23.2598 C   0  0  0  0  0  0
  -25.9680  -30.7754   21.3764 C   0  0  0  0  0  0
  -26.0408  -29.3984   20.7217 C   0  0  0  0  0  0
  -27.2202  -28.5891   20.7147 C   0  0  0  0  0  0
  -26.0238  -26.8663   19.4943 C   0  0  0  0  0  0
  -24.8671  -27.6659   19.4860 C   0  0  0  0  0  0
  -23.6426  -29.8093   20.1562 C   0  0  0  0  0  0
  -25.4123  -36.3080   24.0325 C   0  0  1  0  0  0
  -20.5910  -28.3673   23.1273 C   0  0  2  0  0  0
  -20.6808  -26.9351   22.5467 C   0  0  0  0  0  0
  -19.5780  -26.6268   21.5253 C   0  0  0  0  0  0
  -18.1951  -26.7856   22.1631 C   0  0  0  0  0  0
  -19.1557  -28.8821   23.2867 C   0  0  0  0  0  0
  -18.9459  -30.1445   23.8851 C   0  0  0  0  0  0
  -17.6451  -30.6548   24.0560 C   0  0  0  0  0  0
  -25.9069  -34.9441   23.5090 C   0  0  0  0  0  0
  -16.5361  -29.9047   23.6307 C   0  0  0  0  0  0
  -16.7299  -28.6469   23.0332 C   0  0  0  0  0  0
  -26.4491  -31.6560   25.0683 C   0  0  0  0  0  0
  -25.3717  -31.3845   26.1429 C   0  0  0  0  0  0
  -27.0200  -30.2891   24.6231 C   0  0  0  0  0  0
  -27.6082  -32.4220   25.7449 C   0  0  0  0  0  0
  -27.5615  -37.1777   24.8461 C   0  0  0  0  0  0
  -21.4170  -29.3053   22.3666 N   0  0  0  0  0  0
  -26.4299  -37.3776   23.9435 N   0  0  0  0  0  0
  -24.6901  -31.0569   22.0927 N   0  0  0  0  0  0
  -23.4235  -28.8154   23.2911 O   0  0  0  0  0  0
  -28.3040  -26.4049   20.0896 O   0  0  0  0  0  0
  -26.5617  -34.8933   22.4659 O   0  0  0  0  0  0
  -23.5415  -32.1375   23.7302 O   0  0  0  0  0  0
  -28.4396  -19.1554   21.0097 C   0  0  0  0  0  0
  -28.6169  -17.7597   21.2274 C   0  0  0  0  0  0
  -30.8341  -17.8640   20.2691 C   0  0  0  0  0  0
  -29.4436  -19.9372   20.3724 C   0  0  0  0  0  0
  -29.7923  -17.0667   20.8305 C   0  0  0  0  0  0
  -30.6589  -19.2638   20.0375 C   0  0  0  0  0  0
  -28.9115  -22.4042   20.6743 C   0  0  0  0  0  0
  -27.6915  -22.1046   18.0450 C   0  0  0  0  0  0
  -27.6482  -23.5329   18.6320 C   0  0  0  0  0  0
  -29.0068  -21.4154   18.4266 C   0  0  0  0  0  0
  -28.0047  -23.6123   20.1487 C   0  0  2  0  0  0
  -28.2033  -25.0910   20.7982 C   0  0  0  0  0  0
  -29.1345  -21.2884   19.8887 N   0  0  0  0  0  0
  -29.8132  -15.6155   20.9972 N   0  0  0  0  0  0
  -29.3608  -22.4706   21.8253 O   0  0  0  0  0  0
  -31.6697  -19.9511   19.4466 F   0  0  0  0  0  0
  -31.4831  -12.5318   19.1192 H   0  0  0  0  0  0
  -30.4118  -11.3920   19.8543 H   0  0  0  0  0  0
  -29.7596  -11.7929   17.4531 H   0  0  0  0  0  0
  -29.6255  -13.4966   17.7563 H   0  0  0  0  0  0
  -27.8567  -11.2955   18.8644 H   0  0  0  0  0  0
  -27.3803  -12.5982   17.7996 H   0  0  0  0  0  0
  -27.6866  -14.2480   19.5234 H   0  0  0  0  0  0
  -28.7009  -11.9989   21.3355 H   0  0  0  0  0  0
  -28.4269  -13.6357   21.8563 H   0  0  0  0  0  0
  -25.2716   -9.5710   22.4827 H   0  0  0  0  0  0
  -23.9937   -7.4643   22.7433 H   0  0  0  0  0  0
  -21.0770   -8.8805   19.8999 H   0  0  0  0  0  0
  -22.3640  -10.9672   19.6255 H   0  0  0  0  0  0
  -21.1944   -7.6074   23.9685 H   0  0  0  0  0  0
  -21.1548   -6.0482   25.9088 H   0  0  0  0  0  0
  -22.0581   -2.7558   23.2893 H   0  0  0  0  0  0
  -22.4007  -12.0083   22.4916 H   0  0  0  0  0  0
  -21.1085  -13.1530   22.2649 H   0  0  0  0  0  0
  -24.6511  -15.8346   20.4794 H   0  0  0  0  0  0
  -26.2729  -15.6180   20.0570 H   0  0  0  0  0  0
  -26.7211  -32.5453   23.1012 H   0  0  0  0  0  0
  -25.0183  -33.9682   25.0436 H   0  0  0  0  0  0
  -22.7107  -31.2961   21.3884 H   0  0  0  0  0  0
  -23.3768  -35.9627   23.3253 H   0  0  0  0  0  0
  -24.3613  -36.8887   22.2012 H   0  0  0  0  0  0
  -23.7254  -37.6481   23.6611 H   0  0  0  0  0  0
  -26.1194  -31.5382   20.6132 H   0  0  0  0  0  0
  -26.8366  -30.8136   22.0192 H   0  0  0  0  0  0
  -28.1275  -28.9483   21.1795 H   0  0  0  0  0  0
  -25.9947  -25.9058   19.0116 H   0  0  0  0  0  0
  -23.9778  -27.2925   19.0021 H   0  0  0  0  0  0
  -23.7808  -30.5839   19.4010 H   0  0  0  0  0  0
  -22.7586  -29.2481   19.8434 H   0  0  0  0  0  0
  -25.1275  -36.1909   25.0798 H   0  0  0  0  0  0
  -20.9992  -28.3330   24.1402 H   0  0  0  0  0  0
  -20.5607  -26.2280   23.3704 H   0  0  0  0  0  0
  -21.6706  -26.7338   22.1354 H   0  0  0  0  0  0
  -19.6912  -25.6112   21.1429 H   0  0  0  0  0  0
  -19.6742  -27.2938   20.6678 H   0  0  0  0  0  0
  -17.4196  -26.6545   21.4086 H   0  0  0  0  0  0
  -18.0422  -25.9992   22.9031 H   0  0  0  0  0  0
  -19.7955  -30.7305   24.2131 H   0  0  0  0  0  0
  -17.5010  -31.6218   24.5161 H   0  0  0  0  0  0
  -15.5355  -30.2953   23.7554 H   0  0  0  0  0  0
  -15.8720  -28.0786   22.7045 H   0  0  0  0  0  0
  -24.6018  -30.6963   25.7944 H   0  0  0  0  0  0
  -24.8733  -32.3032   26.4548 H   0  0  0  0  0  0
  -25.8051  -30.9392   27.0401 H   0  0  0  0  0  0
  -26.2757  -29.6706   24.1197 H   0  0  0  0  0  0
  -27.3674  -29.7111   25.4812 H   0  0  0  0  0  0
  -27.8777  -30.3978   23.9571 H   0  0  0  0  0  0
  -27.2738  -33.3526   26.2069 H   0  0  0  0  0  0
  -28.3892  -32.6739   25.0257 H   0  0  0  0  0  0
  -28.0764  -31.8301   26.5332 H   0  0  0  0  0  0
  -28.2619  -38.0081   24.7476 H   0  0  0  0  0  0
  -28.1083  -36.2598   24.6256 H   0  0  0  0  0  0
  -27.2363  -37.1451   25.8868 H   0  0  0  0  0  0
  -20.9267  -29.8800   21.6954 H   0  0  0  0  0  0
  -26.0184  -38.2859   24.1386 H   0  0  0  0  0  0
  -27.4839  -19.6034   21.2653 H   0  0  0  0  0  0
  -27.7945  -17.2146   21.6753 H   0  0  0  0  0  0
  -31.7750  -17.4173   19.9766 H   0  0  0  0  0  0
  -27.5854  -22.1315   16.9562 H   0  0  0  0  0  0
  -26.8482  -21.5074   18.4102 H   0  0  0  0  0  0
  -26.6303  -23.8981   18.4690 H   0  0  0  0  0  0
  -28.3011  -24.1843   18.0490 H   0  0  0  0  0  0
  -29.8586  -21.9734   18.0264 H   0  0  0  0  0  0
  -29.0547  -20.4340   17.9494 H   0  0  0  0  0  0
  -27.0714  -23.2881   20.6166 H   0  0  0  0  0  0
  -29.1175  -25.0609   21.3929 H   0  0  0  0  0  0
  -27.4312  -25.1947   21.5639 H   0  0  0  0  0  0
  -28.9411  -15.2413   21.3389 H   0  0  0  0  0  0
  1 25  1  0  0  0
  1 30  2  0  0  0
  1 84  1  0  0  0
  2  3  1  0  0  0
  2 25  1  0  0  0
  2 87  1  0  0  0
  2 88  1  0  0  0
  3  4  1  0  0  0
  3 89  1  0  0  0
  3 90  1  0  0  0
  4  5  1  0  0  0
  4 91  1  0  0  0
  4 92  1  0  0  0
  5  6  1  0  0  0
  5 26  1  0  0  0
  5 93  1  0  0  0
  6 25  1  0  0  0
  6 94  1  0  0  0
  6 95  1  0  0  0
  7  8  2  0  0  0
  7 26  1  0  0  0
  7 29  1  0  0  0
  8  9  1  0  0  0
  8 22  1  0  0  0
  9 10  1  0  0  0
  9 27  2  0  0  0
 10 11  2  0  0  0
 10 15  1  0  0  0
 11 12  1  0  0  0
 11 96  1  0  0  0
 12 13  2  0  0  0
 12 97  1  0  0  0
 13 14  1  0  0  0
 13 31  1  0  0  0
 14 15  2  0  0  0
 14 98  1  0  0  0
 15 99  1  0  0  0
 16 17  2  0  0  0
 16 21  1  0  0  0
 16 31  1  0  0  0
 17 18  1  0  0  0
 17100  1  0  0  0
 18 19  2  0  0  0
 18101  1  0  0  0
 19 20  1  0  0  0
 19 24  1  0  0  0
 20 21  2  0  0  0
 20102  1  0  0  0
 21 23  1  0  0  0
 22 28  1  0  0  0
 22 32  2  0  0  0
 26 27  1  0  0  0
 28103  1  0  0  0
 28104  1  0  0  0
 29105  1  0  0  0
 29106  1  0  0  0
 33 34  1  0  0  0
 33 66  1  0  0  0
 33 70  2  0  0  0
 34 36  1  0  0  0
 34 59  1  0  0  0
 34107  1  0  0  0
 35 44  2  0  0  0
 35 45  1  0  0  0
 35 68  1  0  0  0
 36 56  1  0  0  0
 36108  1  0  0  0
 37 39  1  0  0  0
 37 47  1  0  0  0
 37 66  1  0  0  0
 37109  1  0  0  0
 38 43  2  0  0  0
 38 46  1  0  0  0
 38 47  1  0  0  0
 39 64  1  0  0  0
 39 67  2  0  0  0
 40 52  1  0  0  0
 40 53  2  0  0  0
 40 58  1  0  0  0
 41110  1  0  0  0
 41111  1  0  0  0
 41112  1  0  0  0
 41 48  1  0  0  0
 42 43  1  0  0  0
 42 66  1  0  0  0
 42113  1  0  0  0
 42114  1  0  0  0
 43 44  1  0  0  0
 44115  1  0  0  0
 45 46  2  0  0  0
 45116  1  0  0  0
 46117  1  0  0  0
 47118  1  0  0  0
 47119  1  0  0  0
 48 56  1  0  0  0
 48 65  1  0  0  0
 48120  1  0  0  0
 49 50  1  0  0  0
 49 53  1  0  0  0
 49 64  1  0  0  0
 49121  1  0  0  0
 50 51  1  0  0  0
 50122  1  0  0  0
 50123  1  0  0  0
 51 52  1  0  0  0
 51124  1  0  0  0
 51125  1  0  0  0
 52126  1  0  0  0
 52127  1  0  0  0
 53 54  1  0  0  0
 54 55  2  0  0  0
 54128  1  0  0  0
 55 57  1  0  0  0
 55129  1  0  0  0
 56 69  2  0  0  0
 57 58  2  0  0  0
 57130  1  0  0  0
 58131  1  0  0  0
 59 60  1  0  0  0
 59 61  1  0  0  0
 59 62  1  0  0  0
 60132  1  0  0  0
 60133  1  0  0  0
 60134  1  0  0  0
 61135  1  0  0  0
 61136  1  0  0  0
 61137  1  0  0  0
 62138  1  0  0  0
 62139  1  0  0  0
 62140  1  0  0  0
 63 65  1  0  0  0
 63141  1  0  0  0
 63142  1  0  0  0
 63143  1  0  0  0
 64144  1  0  0  0
 65145  1  0  0  0
 68 82  1  0  0  0
 71 72  2  0  0  0
 71 74  1  0  0  0
 71146  1  0  0  0
 72 75  1  0  0  0
 72147  1  0  0  0
 73 75  2  0  0  0
 73 76  1  0  0  0
 73148  1  0  0  0
 74 76  2  0  0  0
 74 83  1  0  0  0
 75 84  1  0  0  0
 76 86  1  0  0  0
 77 81  1  0  0  0
 77 83  1  0  0  0
 77 85  2  0  0  0
 78 79  1  0  0  0
 78 80  1  0  0  0
 78149  1  0  0  0
 78150  1  0  0  0
 79 81  1  0  0  0
 79151  1  0  0  0
 79152  1  0  0  0
 80 83  1  0  0  0
 80153  1  0  0  0
 80154  1  0  0  0
 81 82  1  0  0  0
 81155  1  0  0  0
 82156  1  0  0  0
 82157  1  0  0  0
 84158  1  0  0  0
M  ISO  4   1 100  68 101  82 101  84 100
M  END
> <chiral flag>
0

> <version>
0

> <s_m_source_file>
/data/baiqing/PycharmProjects/Reinvent-master-3.2/result/LINK_invent/BTK/process_docking_weight1_custom_product_contain_oxygen_bond_distance_aromatic_linkinvent_7_9_3/rearranged_h_0022.sdf

> <i_m_source_file_index>
31

> <r_mmod_Potential_Energy-OPLS-2005>
240.714477539062

> <r_mmod_Stretch_Energy-OPLS-2005>
96.2031555175781

> <r_mmod_Bend_Energy-OPLS-2005>
173.957412719727

> <r_mmod_Torsional_Energy-OPLS-2005>
331.731506347656

> <r_mmod_Improper_Torsional_Energy-OPLS-2005>
5.76158475875854

> <r_mmod_Van_der_Waal_Energy-OPLS-2005>
139.327911376953

> <r_mmod_Electrostatic_Energy-OPLS-2005>
-338.388824462891

> <r_mmod_Solvation_Energy-OPLS-2005>
-219.654388427734

> <b_mmod_Minimization_Converged-OPLS-2005>
0

> <r_mmod_RMS_Derivative-OPLS-2005>
9.48785305023193

$$$$
32
                    3D
 Structure written by MMmdl.
179187  0  0  1  0            999 V2000
  -30.6947  -14.4516   20.5716 C   0  0  0  0  0  0
  -30.4191  -12.2940   19.4263 C   0  0  0  0  0  0
  -29.4924  -12.5209   18.2128 C   0  0  0  0  0  0
  -28.0117  -12.3858   18.6192 C   0  0  0  0  0  0
  -27.6632  -13.2086   19.8880 C   0  0  2  0  0  0
  -28.7034  -12.9696   21.0084 C   0  0  0  0  0  0
  -25.2579  -13.8173   20.5677 C   0  0  0  0  0  0
  -24.1836  -13.0455   20.9166 C   0  0  0  0  0  0
  -24.6392  -11.6918   20.8756 C   0  0  0  0  0  0
  -23.9068  -10.4299   21.0432 C   0  0  0  0  0  0
  -24.3617   -9.4212   21.9210 C   0  0  0  0  0  0
  -23.6287   -8.2248   22.0761 C   0  0  0  0  0  0
  -22.4277   -8.0291   21.3538 C   0  0  0  0  0  0
  -21.9920   -9.0278   20.4653 C   0  0  0  0  0  0
  -22.7248  -10.2153   20.3076 C   0  0  0  0  0  0
  -21.6849   -6.0746   22.5277 C   0  0  0  0  0  0
  -21.4021   -6.5643   23.8215 C   0  0  0  0  0  0
  -21.3661   -5.6791   24.9176 C   0  0  0  0  0  0
  -21.6038   -4.3054   24.7218 C   0  0  0  0  0  0
  -21.8825   -3.8155   23.4332 C   0  0  0  0  0  0
  -21.9191   -4.6973   22.3395 C   0  0  0  0  0  0
  -22.7855  -13.5249   21.1821 C   0  0  0  0  0  0
  -22.1659   -4.2154   21.0971 F   0  0  0  0  0  0
  -21.5629   -3.4534   25.7729 F   0  0  0  0  0  0
  -30.0391  -13.2667   20.4621 N   0  0  0  0  0  0
  -26.3034  -12.9357   20.3434 N   0  0  0  0  0  0
  -25.9324  -11.6516   20.5814 N   0  0  0  0  0  0
  -22.0480  -12.8262   22.0381 N   0  0  0  0  0  0
  -25.4315  -15.1900   20.4039 N   0  0  0  0  0  0
  -31.8110  -14.6493   20.0812 O   0  0  0  0  0  0
  -21.6638   -6.8891   21.4239 O   0  0  0  0  0  0
  -22.3559  -14.5561   20.6657 O   0  0  0  0  0  0
  -24.6160  -31.8695   23.2096 C   0  0  0  0  0  0
  -25.9072  -32.4835   23.8423 C   0  0  1  0  0  0
  -27.2508  -27.4469   20.0993 C   0  0  0  0  0  0
  -25.5906  -33.8623   24.2367 N   0  0  0  0  0  0
  -23.4095  -30.4866   21.5484 C   0  0  2  0  0  0
  -24.8557  -28.9552   20.1139 C   0  0  0  0  0  0
  -22.7517  -29.4602   22.4996 C   0  0  0  0  0  0
  -18.0296  -28.1341   22.8442 C   0  0  0  0  0  0
  -24.1489  -36.7300   23.2649 C   0  0  0  0  0  0
  -25.9380  -30.8292   21.3724 C   0  0  0  0  0  0
  -26.0137  -29.4711   20.7088 C   0  0  0  0  0  0
  -27.2094  -28.7234   20.6970 C   0  0  0  0  0  0
  -26.0706  -26.9318   19.5110 C   0  0  0  0  0  0
  -24.8807  -27.6860   19.5119 C   0  0  0  0  0  0
  -23.6152  -29.8161   20.1631 C   0  0  0  0  0  0
  -25.4126  -36.3163   24.0359 C   0  0  1  0  0  0
  -20.5884  -28.3675   23.1242 C   0  0  2  0  0  0
  -20.6794  -26.9422   22.5349 C   0  0  0  0  0  0
  -19.5766  -26.6378   21.5151 C   0  0  0  0  0  0
  -18.1943  -26.7883   22.1566 C   0  0  0  0  0  0
  -19.1528  -28.8829   23.2832 C   0  0  0  0  0  0
  -18.9467  -30.1411   23.8896 C   0  0  0  0  0  0
  -17.6475  -30.6564   24.0518 C   0  0  0  0  0  0
  -25.9032  -34.9493   23.5177 C   0  0  0  0  0  0
  -16.5366  -29.9055   23.6301 C   0  0  0  0  0  0
  -16.7276  -28.6445   23.0360 C   0  0  0  0  0  0
  -26.4497  -31.6628   25.0759 C   0  0  0  0  0  0
  -25.3735  -31.3626   26.1479 C   0  0  0  0  0  0
  -27.0396  -30.3094   24.6155 C   0  0  0  0  0  0
  -27.6082  -32.4378   25.7476 C   0  0  0  0  0  0
  -27.5630  -37.1823   24.8496 C   0  0  0  0  0  0
  -21.4242  -29.3017   22.3692 N   0  0  0  0  0  0
  -26.4367  -37.3811   23.9385 N   0  0  0  0  0  0
  -24.6710  -31.0808   22.0979 N   0  0  0  0  0  0
  -23.4264  -28.8174   23.3076 O   0  0  0  0  0  0
  -28.4548  -26.7748   20.1201 O   0  0  0  0  0  0
  -26.5621  -34.8954   22.4753 O   0  0  0  0  0  0
  -23.5338  -32.1434   23.7485 O   0  0  0  0  0  0
  -29.4434  -19.1654   21.4927 C   0  0  0  0  0  0
  -30.3279  -17.5959   23.1191 C   0  0  0  0  0  0
  -29.9518  -17.8856   21.7949 C   0  0  0  0  0  0
  -29.2887  -20.1575   22.4881 C   0  0  0  0  0  0
  -29.7053  -19.8691   23.8183 C   0  0  0  0  0  0
  -30.2239  -18.5802   24.1195 C   0  0  0  0  0  0
  -26.6639  -22.2543   20.6604 C   0  0  0  0  0  0
  -25.3275  -21.8722   20.0645 C   0  0  0  0  0  0
  -28.1404  -20.2391   26.6953 C   0  0  0  0  0  0
  -31.4973  -21.6864   26.3004 C   0  0  0  0  0  0
  -26.4609  -20.2826   22.0944 C   0  0  0  0  0  0
  -30.1355  -16.8658   20.6768 C   0  0  0  0  0  0
  -28.6600  -21.5027   22.0727 C   0  0  0  0  0  0
  -28.4218  -21.1659   25.5044 C   0  0  0  0  0  0
  -30.8457  -21.7216   24.9129 C   0  0  0  0  0  0
  -28.1661  -24.3748   20.7124 C   0  0  0  0  0  0
  -28.5515  -25.4302   19.6461 C   0  0  0  0  0  0
  -29.9601  -15.4618   21.0639 N   0  0  0  0  0  0
  -29.6774  -20.8493   24.8275 N   0  0  0  0  0  0
  -27.2583  -21.4134   21.5702 N   0  0  0  0  0  0
  -27.1130  -23.4611   20.2294 N   0  3  0  0  0  0
  -30.7731  -18.1747   25.7105 Cl  0  0  0  0  0  0
  -31.4638  -12.3901   19.1273 H   0  0  0  0  0  0
  -30.3126  -11.2789   19.8111 H   0  0  0  0  0  0
  -29.7290  -11.8154   17.4164 H   0  0  0  0  0  0
  -29.6654  -13.5170   17.8012 H   0  0  0  0  0  0
  -27.8041  -11.3292   18.7921 H   0  0  0  0  0  0
  -27.3679  -12.6888   17.7916 H   0  0  0  0  0  0
  -27.7124  -14.2614   19.6069 H   0  0  0  0  0  0
  -28.6691  -11.9314   21.3406 H   0  0  0  0  0  0
  -28.4708  -13.5638   21.8933 H   0  0  0  0  0  0
  -25.2764   -9.5680   22.4789 H   0  0  0  0  0  0
  -23.9986   -7.4647   22.7488 H   0  0  0  0  0  0
  -21.0842   -8.8813   19.8960 H   0  0  0  0  0  0
  -22.3723  -10.9701   19.6181 H   0  0  0  0  0  0
  -21.2026   -7.6154   23.9715 H   0  0  0  0  0  0
  -21.1472   -6.0522   25.9072 H   0  0  0  0  0  0
  -22.0603   -2.7610   23.2833 H   0  0  0  0  0  0
  -22.4057  -11.9905   22.4759 H   0  0  0  0  0  0
  -21.1114  -13.1349   22.2590 H   0  0  0  0  0  0
  -24.6648  -15.8469   20.4976 H   0  0  0  0  0  0
  -26.2879  -15.6221   20.0787 H   0  0  0  0  0  0
  -26.7208  -32.5558   23.1230 H   0  0  0  0  0  0
  -25.0125  -33.9755   25.0582 H   0  0  0  0  0  0
  -22.6933  -31.2964   21.4088 H   0  0  0  0  0  0
  -23.3803  -35.9589   23.3335 H   0  0  0  0  0  0
  -24.3584  -36.8840   22.2056 H   0  0  0  0  0  0
  -23.7149  -37.6480   23.6623 H   0  0  0  0  0  0
  -26.0865  -31.6067   20.6224 H   0  0  0  0  0  0
  -26.8102  -30.8579   22.0129 H   0  0  0  0  0  0
  -28.1082  -29.1168   21.1521 H   0  0  0  0  0  0
  -26.0359  -25.9614   19.0452 H   0  0  0  0  0  0
  -23.9934  -27.2766   19.0458 H   0  0  0  0  0  0
  -23.7144  -30.5811   19.3922 H   0  0  0  0  0  0
  -22.7414  -29.2250   19.8851 H   0  0  0  0  0  0
  -25.1284  -36.2111   25.0852 H   0  0  0  0  0  0
  -20.9947  -28.3290   24.1361 H   0  0  0  0  0  0
  -20.5677  -26.2329   23.3568 H   0  0  0  0  0  0
  -21.6678  -26.7453   22.1152 H   0  0  0  0  0  0
  -19.6944  -25.6286   21.1197 H   0  0  0  0  0  0
  -19.6671  -27.3166   20.6660 H   0  0  0  0  0  0
  -17.4215  -26.6585   21.3984 H   0  0  0  0  0  0
  -18.0357  -26.0016   22.8949 H   0  0  0  0  0  0
  -19.7947  -30.7153   24.2332 H   0  0  0  0  0  0
  -17.5039  -31.6237   24.5130 H   0  0  0  0  0  0
  -15.5358  -30.2951   23.7632 H   0  0  0  0  0  0
  -15.8655  -28.0740   22.7131 H   0  0  0  0  0  0
  -24.5909  -30.7026   25.7713 H   0  0  0  0  0  0
  -24.8920  -32.2714   26.5100 H   0  0  0  0  0  0
  -25.8052  -30.8628   27.0162 H   0  0  0  0  0  0
  -26.2954  -29.6747   24.1325 H   0  0  0  0  0  0
  -27.4302  -29.7438   25.4636 H   0  0  0  0  0  0
  -27.8735  -30.4423   23.9243 H   0  0  0  0  0  0
  -27.2745  -33.3691   26.2072 H   0  0  0  0  0  0
  -28.3832  -32.6907   25.0226 H   0  0  0  0  0  0
  -28.0866  -31.8510   26.5331 H   0  0  0  0  0  0
  -28.2691  -38.0102   24.7601 H   0  0  0  0  0  0
  -28.1094  -36.2628   24.6319 H   0  0  0  0  0  0
  -27.2323  -37.1436   25.8899 H   0  0  0  0  0  0
  -20.9529  -29.8731   21.6818 H   0  0  0  0  0  0
  -26.0315  -38.2920   24.1342 H   0  0  0  0  0  0
  -29.1563  -19.3937   20.4752 H   0  0  0  0  0  0
  -30.7319  -16.6279   23.3722 H   0  0  0  0  0  0
  -25.2880  -20.8154   19.8003 H   0  0  0  0  0  0
  -25.1106  -22.4264   19.1505 H   0  0  0  0  0  0
  -24.5333  -22.0909   20.7761 H   0  0  0  0  0  0
  -27.2444  -20.5602   27.2277 H   0  0  0  0  0  0
  -28.9645  -20.2422   27.4094 H   0  0  0  0  0  0
  -27.9735  -19.2105   26.3756 H   0  0  0  0  0  0
  -32.3535  -22.3612   26.3381 H   0  0  0  0  0  0
  -31.8617  -20.6884   26.5436 H   0  0  0  0  0  0
  -30.8006  -21.9905   27.0816 H   0  0  0  0  0  0
  -25.4349  -20.5881   22.2924 H   0  0  0  0  0  0
  -26.8505  -19.9157   23.0415 H   0  0  0  0  0  0
  -26.4507  -19.4558   21.3847 H   0  0  0  0  0  0
  -31.1140  -17.0424   20.2267 H   0  0  0  0  0  0
  -29.4084  -17.0764   19.8913 H   0  0  0  0  0  0
  -29.2985  -21.8724   21.2739 H   0  0  0  0  0  0
  -28.7012  -22.2319   22.8800 H   0  0  0  0  0  0
  -28.4669  -22.1965   25.8591 H   0  0  0  0  0  0
  -27.5873  -21.1255   24.8050 H   0  0  0  0  0  0
  -31.5868  -21.4345   24.1649 H   0  0  0  0  0  0
  -30.5494  -22.7421   24.6681 H   0  0  0  0  0  0
  -27.7953  -24.8625   21.6141 H   0  0  0  0  0  0
  -29.0687  -23.8477   21.0009 H   0  0  0  0  0  0
  -28.0485  -25.2928   18.6884 H   0  0  0  0  0  0
  -29.6068  -25.2789   19.4151 H   0  0  0  0  0  0
  -29.0736  -15.2145   21.4760 H   0  0  0  0  0  0
  -26.5259  -23.8971   19.5297 H   0  0  0  0  0  0
  1 25  1  0  0  0
  1 30  2  0  0  0
  1 88  1  0  0  0
  2  3  1  0  0  0
  2 25  1  0  0  0
  2 93  1  0  0  0
  2 94  1  0  0  0
  3  4  1  0  0  0
  3 95  1  0  0  0
  3 96  1  0  0  0
  4  5  1  0  0  0
  4 97  1  0  0  0
  4 98  1  0  0  0
  5  6  1  0  0  0
  5 26  1  0  0  0
  5 99  1  0  0  0
  6 25  1  0  0  0
  6100  1  0  0  0
  6101  1  0  0  0
  7  8  2  0  0  0
  7 26  1  0  0  0
  7 29  1  0  0  0
  8  9  1  0  0  0
  8 22  1  0  0  0
  9 10  1  0  0  0
  9 27  2  0  0  0
 10 11  2  0  0  0
 10 15  1  0  0  0
 11 12  1  0  0  0
 11102  1  0  0  0
 12 13  2  0  0  0
 12103  1  0  0  0
 13 14  1  0  0  0
 13 31  1  0  0  0
 14 15  2  0  0  0
 14104  1  0  0  0
 15105  1  0  0  0
 16 17  2  0  0  0
 16 21  1  0  0  0
 16 31  1  0  0  0
 17 18  1  0  0  0
 17106  1  0  0  0
 18 19  2  0  0  0
 18107  1  0  0  0
 19 20  1  0  0  0
 19 24  1  0  0  0
 20 21  2  0  0  0
 20108  1  0  0  0
 21 23  1  0  0  0
 22 28  1  0  0  0
 22 32  2  0  0  0
 26 27  1  0  0  0
 28109  1  0  0  0
 28110  1  0  0  0
 29111  1  0  0  0
 29112  1  0  0  0
 33 34  1  0  0  0
 33 66  1  0  0  0
 33 70  2  0  0  0
 34 36  1  0  0  0
 34 59  1  0  0  0
 34113  1  0  0  0
 35 44  2  0  0  0
 35 45  1  0  0  0
 35 68  1  0  0  0
 36 56  1  0  0  0
 36114  1  0  0  0
 37 39  1  0  0  0
 37 47  1  0  0  0
 37 66  1  0  0  0
 37115  1  0  0  0
 38 43  2  0  0  0
 38 46  1  0  0  0
 38 47  1  0  0  0
 39 64  1  0  0  0
 39 67  2  0  0  0
 40 52  1  0  0  0
 40 53  2  0  0  0
 40 58  1  0  0  0
 41116  1  0  0  0
 41117  1  0  0  0
 41118  1  0  0  0
 41 48  1  0  0  0
 42 43  1  0  0  0
 42 66  1  0  0  0
 42119  1  0  0  0
 42120  1  0  0  0
 43 44  1  0  0  0
 44121  1  0  0  0
 45 46  2  0  0  0
 45122  1  0  0  0
 46123  1  0  0  0
 47124  1  0  0  0
 47125  1  0  0  0
 48 56  1  0  0  0
 48 65  1  0  0  0
 48126  1  0  0  0
 49 50  1  0  0  0
 49 53  1  0  0  0
 49 64  1  0  0  0
 49127  1  0  0  0
 50 51  1  0  0  0
 50128  1  0  0  0
 50129  1  0  0  0
 51 52  1  0  0  0
 51130  1  0  0  0
 51131  1  0  0  0
 52132  1  0  0  0
 52133  1  0  0  0
 53 54  1  0  0  0
 54 55  2  0  0  0
 54134  1  0  0  0
 55 57  1  0  0  0
 55135  1  0  0  0
 56 69  2  0  0  0
 57 58  2  0  0  0
 57136  1  0  0  0
 58137  1  0  0  0
 59 60  1  0  0  0
 59 61  1  0  0  0
 59 62  1  0  0  0
 60138  1  0  0  0
 60139  1  0  0  0
 60140  1  0  0  0
 61141  1  0  0  0
 61142  1  0  0  0
 61143  1  0  0  0
 62144  1  0  0  0
 62145  1  0  0  0
 62146  1  0  0  0
 63 65  1  0  0  0
 63147  1  0  0  0
 63148  1  0  0  0
 63149  1  0  0  0
 64150  1  0  0  0
 65151  1  0  0  0
 68 87  1  0  0  0
 71 73  2  0  0  0
 71 74  1  0  0  0
 71152  1  0  0  0
 72 73  1  0  0  0
 72 76  2  0  0  0
 72153  1  0  0  0
 73 82  1  0  0  0
 74 75  2  0  0  0
 74 83  1  0  0  0
 75 76  1  0  0  0
 75 89  1  0  0  0
 76 92  1  0  0  0
 77 78  1  0  0  0
 77 90  1  0  0  0
 77 91  2  0  0  0
 78154  1  0  0  0
 78155  1  0  0  0
 78156  1  0  0  0
 79 84  1  0  0  0
 79157  1  0  0  0
 79158  1  0  0  0
 79159  1  0  0  0
 80 85  1  0  0  0
 80160  1  0  0  0
 80161  1  0  0  0
 80162  1  0  0  0
 81 90  1  0  0  0
 81163  1  0  0  0
 81164  1  0  0  0
 81165  1  0  0  0
 82 88  1  0  0  0
 82166  1  0  0  0
 82167  1  0  0  0
 83 90  1  0  0  0
 83168  1  0  0  0
 83169  1  0  0  0
 84 89  1  0  0  0
 84170  1  0  0  0
 84171  1  0  0  0
 85 89  1  0  0  0
 85172  1  0  0  0
 85173  1  0  0  0
 86 87  1  0  0  0
 86 91  1  0  0  0
 86174  1  0  0  0
 86175  1  0  0  0
 87176  1  0  0  0
 87177  1  0  0  0
 88178  1  0  0  0
 91179  1  0  0  0
M  CHG  1  91   1
M  ISO  4   1 100  68 101  87 101  88 100
M  END
> <chiral flag>
0

> <version>
0

> <s_m_source_file>
/data/baiqing/PycharmProjects/Reinvent-master-3.2/result/LINK_invent/BTK/process_docking_weight1_custom_product_contain_oxygen_bond_distance_aromatic_linkinvent_7_9_3/rearranged_h_0022.sdf

> <i_m_source_file_index>
32

> <r_mmod_Potential_Energy-OPLS-2005>
-47.8118324279785

> <r_mmod_Stretch_Energy-OPLS-2005>
42.4037742614746

> <r_mmod_Bend_Energy-OPLS-2005>
137.962600708008

> <r_mmod_Torsional_Energy-OPLS-2005>
252.285797119141

> <r_mmod_Improper_Torsional_Energy-OPLS-2005>
6.76067399978638

> <r_mmod_Van_der_Waal_Energy-OPLS-2005>
161.384750366211

> <r_mmod_Electrostatic_Energy-OPLS-2005>
-231.314834594727

> <r_mmod_Solvation_Energy-OPLS-2005>
-428.730010986328

> <b_mmod_Minimization_Converged-OPLS-2005>
0

> <r_mmod_RMS_Derivative-OPLS-2005>
4.25240278244019

$$$$
33
                    3D
 Structure written by MMmdl.
165174  0  0  1  0            999 V2000
  -30.7953  -14.5764   20.5365 C   0  0  0  0  0  0
  -30.4209  -12.3665   19.4643 C   0  0  0  0  0  0
  -29.5112  -12.5054   18.2302 C   0  0  0  0  0  0
  -28.0405  -12.3468   18.6475 C   0  0  0  0  0  0
  -27.6651  -13.2318   19.8639 C   0  0  2  0  0  0
  -28.7197  -13.1507   20.9968 C   0  0  0  0  0  0
  -25.2619  -13.8189   20.5731 C   0  0  0  0  0  0
  -24.1912  -13.0489   20.9167 C   0  0  0  0  0  0
  -24.6460  -11.6925   20.8731 C   0  0  0  0  0  0
  -23.9120  -10.4316   21.0393 C   0  0  0  0  0  0
  -24.3638   -9.4217   21.9179 C   0  0  0  0  0  0
  -23.6290   -8.2261   22.0770 C   0  0  0  0  0  0
  -22.4266   -8.0285   21.3555 C   0  0  0  0  0  0
  -21.9907   -9.0277   20.4663 C   0  0  0  0  0  0
  -22.7268  -10.2148   20.3057 C   0  0  0  0  0  0
  -21.6861   -6.0736   22.5276 C   0  0  0  0  0  0
  -21.4027   -6.5636   23.8216 C   0  0  0  0  0  0
  -21.3644   -5.6791   24.9177 C   0  0  0  0  0  0
  -21.6046   -4.3054   24.7230 C   0  0  0  0  0  0
  -21.8819   -3.8143   23.4342 C   0  0  0  0  0  0
  -21.9189   -4.6960   22.3396 C   0  0  0  0  0  0
  -22.7901  -13.5254   21.1805 C   0  0  0  0  0  0
  -22.1675   -4.2139   21.0980 F   0  0  0  0  0  0
  -21.5606   -3.4529   25.7744 F   0  0  0  0  0  0
  -30.0466  -13.4287   20.4263 N   0  0  0  0  0  0
  -26.3106  -12.9441   20.3367 N   0  0  0  0  0  0
  -25.9416  -11.6571   20.5809 N   0  0  0  0  0  0
  -22.0519  -12.8288   22.0326 N   0  0  0  0  0  0
  -25.4333  -15.1930   20.4175 N   0  0  0  0  0  0
  -31.9140  -14.6372   20.0210 O   0  0  0  0  0  0
  -21.6633   -6.8865   21.4234 O   0  0  0  0  0  0
  -22.3579  -14.5562   20.6625 O   0  0  0  0  0  0
  -24.6378  -31.8650   23.2018 C   0  0  0  0  0  0
  -25.9198  -32.4758   23.8375 C   0  0  1  0  0  0
  -27.1833  -27.2573   20.0876 C   0  0  0  0  0  0
  -25.5982  -33.8553   24.2276 N   0  0  0  0  0  0
  -23.4237  -30.4979   21.5530 C   0  0  2  0  0  0
  -24.8541  -28.9627   20.0966 C   0  0  0  0  0  0
  -22.7510  -29.4682   22.4976 C   0  0  0  0  0  0
  -18.0302  -28.1364   22.8460 C   0  0  0  0  0  0
  -24.1503  -36.7246   23.2643 C   0  0  0  0  0  0
  -25.9776  -30.7577   21.3979 C   0  0  0  0  0  0
  -26.0311  -29.3928   20.7187 C   0  0  0  0  0  0
  -27.1936  -28.5555   20.7015 C   0  0  0  0  0  0
  -25.9740  -26.9090   19.4332 C   0  0  0  0  0  0
  -24.8333  -27.7281   19.4433 C   0  0  0  0  0  0
  -23.6311  -29.8545   20.1590 C   0  0  0  0  0  0
  -25.4127  -36.3068   24.0324 C   0  0  1  0  0  0
  -20.5913  -28.3714   23.1334 C   0  0  2  0  0  0
  -20.6814  -26.9467   22.5370 C   0  0  0  0  0  0
  -19.5832  -26.6636   21.5065 C   0  0  0  0  0  0
  -18.1974  -26.7999   22.1414 C   0  0  0  0  0  0
  -19.1534  -28.8842   23.2903 C   0  0  0  0  0  0
  -18.9416  -30.1428   23.8935 C   0  0  0  0  0  0
  -17.6400  -30.6509   24.0621 C   0  0  0  0  0  0
  -25.9083  -34.9439   23.5090 C   0  0  0  0  0  0
  -16.5307  -29.9003   23.6315 C   0  0  0  0  0  0
  -16.7263  -28.6448   23.0275 C   0  0  0  0  0  0
  -26.4525  -31.6605   25.0792 C   0  0  0  0  0  0
  -25.3650  -31.3805   26.1436 C   0  0  0  0  0  0
  -27.0368  -30.2997   24.6363 C   0  0  0  0  0  0
  -27.6138  -32.4355   25.7494 C   0  0  0  0  0  0
  -27.5572  -37.1785   24.8461 C   0  0  0  0  0  0
  -21.4216  -29.3114   22.3753 N   0  0  0  0  0  0
  -26.4303  -37.3758   23.9386 N   0  0  0  0  0  0
  -24.7000  -31.0591   22.1035 N   0  0  0  0  0  0
  -23.4215  -28.8245   23.3086 O   0  0  0  0  0  0
  -28.2773  -26.3546   20.1406 O   0  0  0  0  0  0
  -26.5697  -34.8922   22.4683 O   0  0  0  0  0  0
  -23.5532  -32.1567   23.7277 O   0  0  0  0  0  0
  -29.3297  -19.0151   21.8514 C   0  0  0  0  0  0
  -29.0755  -20.4122   21.6695 C   0  0  0  0  0  0
  -29.3019  -18.0795   20.7802 C   0  0  0  0  0  0
  -29.0919  -18.6489   19.4888 C   0  0  0  0  0  0
  -28.7602  -20.9779   20.3990 C   0  0  0  0  0  0
  -28.8174  -20.0478   19.3137 C   0  0  0  0  0  0
  -26.3958  -23.0406   21.7225 C   0  0  0  0  0  0
  -27.7032  -23.7786   21.9891 C   0  0  0  0  0  0
  -26.7051  -22.1254   20.5308 C   0  0  0  0  0  0
  -28.5297  -23.6487   20.6962 C   0  0  2  0  0  0
  -29.0624  -17.7412   18.2678 C   0  0  0  0  0  0
  -31.3944  -16.1778   22.2471 C   0  0  0  0  0  0
  -29.2185  -16.5185   21.0477 C   0  0  0  0  0  0
  -28.1464  -24.9021   19.7307 C   0  0  0  0  0  0
  -28.1307  -22.2767   20.1953 N   0  0  0  0  0  0
  -30.3937  -15.6296   21.3199 N   0  0  0  0  0  0
  -28.5053  -20.4916   18.0692 F   0  0  0  0  0  0
  -31.4692  -12.4097   19.1644 H   0  0  0  0  0  0
  -30.2950  -11.3820   19.9226 H   0  0  0  0  0  0
  -29.7730  -11.7563   17.4826 H   0  0  0  0  0  0
  -29.6734  -13.4728   17.7533 H   0  0  0  0  0  0
  -27.8898  -11.2984   18.8997 H   0  0  0  0  0  0
  -27.3836  -12.5598   17.8027 H   0  0  0  0  0  0
  -27.6601  -14.2511   19.4825 H   0  0  0  0  0  0
  -28.7103  -12.1643   21.4584 H   0  0  0  0  0  0
  -28.4842  -13.8589   21.7912 H   0  0  0  0  0  0
  -25.2773   -9.5694   22.4757 H   0  0  0  0  0  0
  -23.9980   -7.4664   22.7512 H   0  0  0  0  0  0
  -21.0812   -8.8805   19.8986 H   0  0  0  0  0  0
  -22.3709  -10.9681   19.6156 H   0  0  0  0  0  0
  -21.2051   -7.6153   23.9727 H   0  0  0  0  0  0
  -21.1461   -6.0512   25.9079 H   0  0  0  0  0  0
  -22.0606   -2.7590   23.2854 H   0  0  0  0  0  0
  -22.4070  -11.9917   22.4733 H   0  0  0  0  0  0
  -21.1155  -13.1366   22.2554 H   0  0  0  0  0  0
  -24.6693  -15.8471   20.5487 H   0  0  0  0  0  0
  -26.2851  -15.6343   20.1026 H   0  0  0  0  0  0
  -26.7244  -32.5383   23.1100 H   0  0  0  0  0  0
  -25.0011  -33.9681   25.0341 H   0  0  0  0  0  0
  -22.7187  -31.3240   21.4268 H   0  0  0  0  0  0
  -23.3776  -35.9564   23.3334 H   0  0  0  0  0  0
  -24.3604  -36.8855   22.2058 H   0  0  0  0  0  0
  -23.7234  -37.6442   23.6634 H   0  0  0  0  0  0
  -26.1467  -31.5337   20.6507 H   0  0  0  0  0  0
  -26.8401  -30.7697   22.0513 H   0  0  0  0  0  0
  -28.0928  -28.8902   21.2002 H   0  0  0  0  0  0
  -25.8393  -25.9961   18.8806 H   0  0  0  0  0  0
  -23.9403  -27.4194   18.9148 H   0  0  0  0  0  0
  -23.7059  -30.6418   19.4062 H   0  0  0  0  0  0
  -22.7581  -29.2710   19.8697 H   0  0  0  0  0  0
  -25.1300  -36.1920   25.0812 H   0  0  0  0  0  0
  -20.9910  -28.3265   24.1492 H   0  0  0  0  0  0
  -20.5685  -26.2278   23.3490 H   0  0  0  0  0  0
  -21.6718  -26.7567   22.1212 H   0  0  0  0  0  0
  -19.7120  -25.6762   21.0656 H   0  0  0  0  0  0
  -19.6787  -27.3820   20.6908 H   0  0  0  0  0  0
  -17.4375  -26.6997   21.3637 H   0  0  0  0  0  0
  -18.0238  -25.9948   22.8576 H   0  0  0  0  0  0
  -19.7898  -30.7236   24.2309 H   0  0  0  0  0  0
  -17.4910  -31.6178   24.5257 H   0  0  0  0  0  0
  -15.5287  -30.2872   23.7603 H   0  0  0  0  0  0
  -15.8705  -28.0780   22.6872 H   0  0  0  0  0  0
  -24.5842  -30.7181   25.7658 H   0  0  0  0  0  0
  -24.8827  -32.3008   26.4755 H   0  0  0  0  0  0
  -25.7857  -30.8993   27.0278 H   0  0  0  0  0  0
  -26.2989  -29.6758   24.1330 H   0  0  0  0  0  0
  -27.3936  -29.7253   25.4926 H   0  0  0  0  0  0
  -27.8914  -30.4233   23.9708 H   0  0  0  0  0  0
  -27.2797  -33.3670   26.2064 H   0  0  0  0  0  0
  -28.3876  -32.6932   25.0233 H   0  0  0  0  0  0
  -28.0872  -31.8494   26.5387 H   0  0  0  0  0  0
  -28.2628  -38.0061   24.7503 H   0  0  0  0  0  0
  -28.1051  -36.2601   24.6289 H   0  0  0  0  0  0
  -27.2301  -37.1416   25.8879 H   0  0  0  0  0  0
  -20.9425  -29.8827   21.6929 H   0  0  0  0  0  0
  -26.0204  -38.2838   24.1375 H   0  0  0  0  0  0
  -29.4414  -18.6440   22.8615 H   0  0  0  0  0  0
  -29.0075  -21.0045   22.5664 H   0  0  0  0  0  0
  -25.5595  -23.6998   21.4753 H   0  0  0  0  0  0
  -26.1039  -22.4960   22.6258 H   0  0  0  0  0  0
  -28.1694  -23.2359   22.8098 H   0  0  0  0  0  0
  -27.5359  -24.8034   22.3285 H   0  0  0  0  0  0
  -26.0546  -22.3729   19.6868 H   0  0  0  0  0  0
  -26.4705  -21.1033   20.8316 H   0  0  0  0  0  0
  -29.6023  -23.6533   20.9047 H   0  0  0  0  0  0
  -29.9867  -17.1679   18.2095 H   0  0  0  0  0  0
  -28.9643  -18.3007   17.3400 H   0  0  0  0  0  0
  -28.2238  -17.0442   18.3044 H   0  0  0  0  0  0
  -32.0196  -16.9278   21.7646 H   0  0  0  0  0  0
  -32.0690  -15.3979   22.6193 H   0  0  0  0  0  0
  -30.9222  -16.6266   23.1189 H   0  0  0  0  0  0
  -28.6629  -16.0632   20.2373 H   0  0  0  0  0  0
  -28.5753  -16.3919   21.9185 H   0  0  0  0  0  0
  -27.1248  -24.6722   19.4638 H   0  0  0  0  0  0
  -28.6944  -24.7877   18.7916 H   0  0  0  0  0  0
  1 25  1  0  0  0
  1 30  2  0  0  0
  1 86  1  0  0  0
  2  3  1  0  0  0
  2 25  1  0  0  0
  2 88  1  0  0  0
  2 89  1  0  0  0
  3  4  1  0  0  0
  3 90  1  0  0  0
  3 91  1  0  0  0
  4  5  1  0  0  0
  4 92  1  0  0  0
  4 93  1  0  0  0
  5  6  1  0  0  0
  5 26  1  0  0  0
  5 94  1  0  0  0
  6 25  1  0  0  0
  6 95  1  0  0  0
  6 96  1  0  0  0
  7  8  2  0  0  0
  7 26  1  0  0  0
  7 29  1  0  0  0
  8  9  1  0  0  0
  8 22  1  0  0  0
  9 10  1  0  0  0
  9 27  2  0  0  0
 10 11  2  0  0  0
 10 15  1  0  0  0
 11 12  1  0  0  0
 11 97  1  0  0  0
 12 13  2  0  0  0
 12 98  1  0  0  0
 13 14  1  0  0  0
 13 31  1  0  0  0
 14 15  2  0  0  0
 14 99  1  0  0  0
 15100  1  0  0  0
 16 17  2  0  0  0
 16 21  1  0  0  0
 16 31  1  0  0  0
 17 18  1  0  0  0
 17101  1  0  0  0
 18 19  2  0  0  0
 18102  1  0  0  0
 19 20  1  0  0  0
 19 24  1  0  0  0
 20 21  2  0  0  0
 20103  1  0  0  0
 21 23  1  0  0  0
 22 28  1  0  0  0
 22 32  2  0  0  0
 26 27  1  0  0  0
 28104  1  0  0  0
 28105  1  0  0  0
 29106  1  0  0  0
 29107  1  0  0  0
 33 34  1  0  0  0
 33 66  1  0  0  0
 33 70  2  0  0  0
 34 36  1  0  0  0
 34 59  1  0  0  0
 34108  1  0  0  0
 35 44  2  0  0  0
 35 45  1  0  0  0
 35 68  1  0  0  0
 36 56  1  0  0  0
 36109  1  0  0  0
 37 39  1  0  0  0
 37 47  1  0  0  0
 37 66  1  0  0  0
 37110  1  0  0  0
 38 43  2  0  0  0
 38 46  1  0  0  0
 38 47  1  0  0  0
 39 64  1  0  0  0
 39 67  2  0  0  0
 40 52  1  0  0  0
 40 53  2  0  0  0
 40 58  1  0  0  0
 41111  1  0  0  0
 41112  1  0  0  0
 41113  1  0  0  0
 41 48  1  0  0  0
 42 43  1  0  0  0
 42 66  1  0  0  0
 42114  1  0  0  0
 42115  1  0  0  0
 43 44  1  0  0  0
 44116  1  0  0  0
 45 46  2  0  0  0
 45117  1  0  0  0
 46118  1  0  0  0
 47119  1  0  0  0
 47120  1  0  0  0
 48 56  1  0  0  0
 48 65  1  0  0  0
 48121  1  0  0  0
 49 50  1  0  0  0
 49 53  1  0  0  0
 49 64  1  0  0  0
 49122  1  0  0  0
 50 51  1  0  0  0
 50123  1  0  0  0
 50124  1  0  0  0
 51 52  1  0  0  0
 51125  1  0  0  0
 51126  1  0  0  0
 52127  1  0  0  0
 52128  1  0  0  0
 53 54  1  0  0  0
 54 55  2  0  0  0
 54129  1  0  0  0
 55 57  1  0  0  0
 55130  1  0  0  0
 56 69  2  0  0  0
 57 58  2  0  0  0
 57131  1  0  0  0
 58132  1  0  0  0
 59 60  1  0  0  0
 59 61  1  0  0  0
 59 62  1  0  0  0
 60133  1  0  0  0
 60134  1  0  0  0
 60135  1  0  0  0
 61136  1  0  0  0
 61137  1  0  0  0
 61138  1  0  0  0
 62139  1  0  0  0
 62140  1  0  0  0
 62141  1  0  0  0
 63 65  1  0  0  0
 63142  1  0  0  0
 63143  1  0  0  0
 63144  1  0  0  0
 64145  1  0  0  0
 65146  1  0  0  0
 68 84  1  0  0  0
 71 72  2  0  0  0
 71 73  1  0  0  0
 71147  1  0  0  0
 72 75  1  0  0  0
 72148  1  0  0  0
 73 74  2  0  0  0
 73 83  1  0  0  0
 74 76  1  0  0  0
 74 81  1  0  0  0
 75 76  2  0  0  0
 75 85  1  0  0  0
 76 87  1  0  0  0
 77 78  1  0  0  0
 77 79  1  0  0  0
 77149  1  0  0  0
 77150  1  0  0  0
 78 80  1  0  0  0
 78151  1  0  0  0
 78152  1  0  0  0
 79 85  1  0  0  0
 79153  1  0  0  0
 79154  1  0  0  0
 80 84  1  0  0  0
 80 85  1  0  0  0
 80155  1  0  0  0
 81156  1  0  0  0
 81157  1  0  0  0
 81158  1  0  0  0
 82 86  1  0  0  0
 82159  1  0  0  0
 82160  1  0  0  0
 82161  1  0  0  0
 83 86  1  0  0  0
 83162  1  0  0  0
 83163  1  0  0  0
 84164  1  0  0  0
 84165  1  0  0  0
M  ISO  4   1 100  68 101  84 101  86 100
M  END
> <chiral flag>
0

> <version>
0

> <s_m_source_file>
/data/baiqing/PycharmProjects/Reinvent-master-3.2/result/LINK_invent/BTK/process_docking_weight1_custom_product_contain_oxygen_bond_distance_aromatic_linkinvent_7_9_3/rearranged_h_0022.sdf

> <i_m_source_file_index>
33

> <r_mmod_Potential_Energy-OPLS-2005>
463.240203857422

> <r_mmod_Stretch_Energy-OPLS-2005>
111.515571594238

> <r_mmod_Bend_Energy-OPLS-2005>
223.225326538086

> <r_mmod_Torsional_Energy-OPLS-2005>
370.059417724609

> <r_mmod_Improper_Torsional_Energy-OPLS-2005>
12.8535289764404

> <r_mmod_Van_der_Waal_Energy-OPLS-2005>
147.185485839844

> <r_mmod_Electrostatic_Energy-OPLS-2005>
-261.609710693359

> <r_mmod_Solvation_Energy-OPLS-2005>
-203.790786743164

> <b_mmod_Minimization_Converged-OPLS-2005>
0

> <r_mmod_RMS_Derivative-OPLS-2005>
9.77008533477783

$$$$
34
                    3D
 Structure written by MMmdl.
160169  0  0  1  0            999 V2000
  -30.6258  -14.6272   20.5019 C   0  0  0  0  0  0
  -30.4398  -12.3866   19.4465 C   0  0  0  0  0  0
  -29.5070  -12.5087   18.2208 C   0  0  0  0  0  0
  -28.0291  -12.3478   18.6334 C   0  0  0  0  0  0
  -27.6544  -13.2157   19.8650 C   0  0  2  0  0  0
  -28.7002  -13.0600   20.9922 C   0  0  0  0  0  0
  -25.2562  -13.8166   20.5697 C   0  0  0  0  0  0
  -24.1824  -13.0430   20.9181 C   0  0  0  0  0  0
  -24.6393  -11.6901   20.8729 C   0  0  0  0  0  0
  -23.9063  -10.4286   21.0401 C   0  0  0  0  0  0
  -24.3613   -9.4206   21.9180 C   0  0  0  0  0  0
  -23.6290   -8.2243   22.0751 C   0  0  0  0  0  0
  -22.4274   -8.0279   21.3541 C   0  0  0  0  0  0
  -21.9908   -9.0252   20.4641 C   0  0  0  0  0  0
  -22.7238  -10.2130   20.3048 C   0  0  0  0  0  0
  -21.6849   -6.0737   22.5281 C   0  0  0  0  0  0
  -21.4012   -6.5638   23.8215 C   0  0  0  0  0  0
  -21.3658   -5.6790   24.9179 C   0  0  0  0  0  0
  -21.6044   -4.3053   24.7225 C   0  0  0  0  0  0
  -21.8822   -3.8148   23.4345 C   0  0  0  0  0  0
  -21.9192   -4.6967   22.3402 C   0  0  0  0  0  0
  -22.7844  -13.5227   21.1851 C   0  0  0  0  0  0
  -22.1664   -4.2153   21.0980 F   0  0  0  0  0  0
  -21.5627   -3.4535   25.7738 F   0  0  0  0  0  0
  -30.0175  -13.4019   20.4304 N   0  0  0  0  0  0
  -26.2995  -12.9348   20.3334 N   0  0  0  0  0  0
  -25.9321  -11.6501   20.5749 N   0  0  0  0  0  0
  -22.0480  -12.8214   22.0400 N   0  0  0  0  0  0
  -25.4273  -15.1892   20.4182 N   0  0  0  0  0  0
  -31.7876  -14.7907   20.1182 O   0  0  0  0  0  0
  -21.6635   -6.8878   21.4242 O   0  0  0  0  0  0
  -22.3531  -14.5538   20.6708 O   0  0  0  0  0  0
  -24.6254  -31.8604   23.2029 C   0  0  0  0  0  0
  -25.9105  -32.4786   23.8354 C   0  0  1  0  0  0
  -27.2234  -27.3286   20.1073 C   0  0  0  0  0  0
  -25.5926  -33.8583   24.2281 N   0  0  0  0  0  0
  -23.4186  -30.4874   21.5452 C   0  0  2  0  0  0
  -24.8639  -28.9466   20.1099 C   0  0  0  0  0  0
  -22.7478  -29.4637   22.4926 C   0  0  0  0  0  0
  -18.0294  -28.1397   22.8492 C   0  0  0  0  0  0
  -24.1479  -36.7284   23.2638 C   0  0  0  0  0  0
  -25.9598  -30.7965   21.3704 C   0  0  0  0  0  0
  -26.0352  -29.4251   20.7118 C   0  0  0  0  0  0
  -27.2187  -28.6290   20.6989 C   0  0  0  0  0  0
  -26.0254  -26.9044   19.4837 C   0  0  0  0  0  0
  -24.8608  -27.6921   19.4861 C   0  0  0  0  0  0
  -23.6329  -29.8271   20.1591 C   0  0  0  0  0  0
  -25.4108  -36.3082   24.0332 C   0  0  1  0  0  0
  -20.5896  -28.3693   23.1283 C   0  0  2  0  0  0
  -20.6778  -26.9415   22.5407 C   0  0  0  0  0  0
  -19.5750  -26.6398   21.5208 C   0  0  0  0  0  0
  -18.1930  -26.7945   22.1624 C   0  0  0  0  0  0
  -19.1547  -28.8863   23.2885 C   0  0  0  0  0  0
  -18.9471  -30.1469   23.8903 C   0  0  0  0  0  0
  -17.6470  -30.6596   24.0581 C   0  0  0  0  0  0
  -25.9050  -34.9456   23.5108 C   0  0  0  0  0  0
  -16.5359  -29.9097   23.6346 C   0  0  0  0  0  0
  -16.7283  -28.6515   23.0359 C   0  0  0  0  0  0
  -26.4492  -31.6591   25.0712 C   0  0  0  0  0  0
  -25.3734  -31.3722   26.1440 C   0  0  0  0  0  0
  -27.0321  -30.3022   24.6124 C   0  0  0  0  0  0
  -27.6047  -32.4319   25.7495 C   0  0  0  0  0  0
  -27.5570  -37.1805   24.8470 C   0  0  0  0  0  0
  -21.4195  -29.3050   22.3682 N   0  0  0  0  0  0
  -26.4277  -37.3783   23.9418 N   0  0  0  0  0  0
  -24.6870  -31.0638   22.0974 N   0  0  0  0  0  0
  -23.4205  -28.8176   23.2999 O   0  0  0  0  0  0
  -28.3433  -26.4804   20.1439 O   0  0  0  0  0  0
  -26.5611  -34.8923   22.4666 O   0  0  0  0  0  0
  -23.5422  -32.1389   23.7377 O   0  0  0  0  0  0
  -32.2967  -19.8886   19.7480 C   0  0  0  0  0  0
  -31.0495  -17.8434   20.2787 C   0  0  0  0  0  0
  -28.8012  -19.3259   21.0515 C   0  0  0  0  0  0
  -31.0668  -19.2725   20.2345 C   0  0  0  0  0  0
  -29.9451  -20.0694   20.6518 C   0  0  0  0  0  0
  -29.9202  -17.1206   20.7367 C   0  0  0  0  0  0
  -28.7940  -17.9014   21.1000 C   0  0  0  0  0  0
  -29.7729  -22.2725   23.0163 C   0  0  0  0  0  0
  -28.4695  -22.5154   22.2453 C   0  0  0  0  0  0
  -30.7994  -21.8637   21.9516 C   0  0  0  0  0  0
  -28.8933  -22.4877   20.7686 C   0  0  1  0  0  0
  -29.2732  -23.9866   20.3343 C   0  0  0  0  0  0
  -28.0885  -25.0217   20.1132 C   0  0  0  0  0  0
  -33.2775  -20.3729   19.3622 N   0  0  0  0  0  0
  -30.0313  -21.5134   20.7577 N   0  0  0  0  0  0
  -29.8139  -15.6677   20.8580 N   0  0  0  0  0  0
  -27.6765  -17.2609   21.5209 F   0  0  0  0  0  0
  -31.4806  -12.5133   19.1428 H   0  0  0  0  0  0
  -30.3766  -11.3885   19.8822 H   0  0  0  0  0  0
  -29.7699  -11.7606   17.4714 H   0  0  0  0  0  0
  -29.6508  -13.4801   17.7449 H   0  0  0  0  0  0
  -27.8642  -11.2939   18.8606 H   0  0  0  0  0  0
  -27.3751  -12.5816   17.7924 H   0  0  0  0  0  0
  -27.6741  -14.2525   19.5289 H   0  0  0  0  0  0
  -28.7083  -12.0347   21.3647 H   0  0  0  0  0  0
  -28.4479  -13.6840   21.8508 H   0  0  0  0  0  0
  -25.2758   -9.5685   22.4752 H   0  0  0  0  0  0
  -24.0000   -7.4634   22.7466 H   0  0  0  0  0  0
  -21.0840   -8.8768   19.8942 H   0  0  0  0  0  0
  -22.3700  -10.9665   19.6149 H   0  0  0  0  0  0
  -21.2001   -7.6144   23.9721 H   0  0  0  0  0  0
  -21.1476   -6.0518   25.9082 H   0  0  0  0  0  0
  -22.0600   -2.7611   23.2845 H   0  0  0  0  0  0
  -22.4079  -11.9864   22.4779 H   0  0  0  0  0  0
  -21.1092  -13.1230   22.2584 H   0  0  0  0  0  0
  -24.6727  -15.8461   20.5814 H   0  0  0  0  0  0
  -26.3001  -15.6455   20.1870 H   0  0  0  0  0  0
  -26.7176  -32.5466   23.1111 H   0  0  0  0  0  0
  -25.0098  -33.9732   25.0441 H   0  0  0  0  0  0
  -22.7123  -31.3084   21.4059 H   0  0  0  0  0  0
  -23.3741  -35.9615   23.3311 H   0  0  0  0  0  0
  -24.3570  -36.8892   22.2049 H   0  0  0  0  0  0
  -23.7225  -37.6488   23.6650 H   0  0  0  0  0  0
  -26.0874  -31.5608   20.6015 H   0  0  0  0  0  0
  -26.8430  -30.8483   21.9953 H   0  0  0  0  0  0
  -28.1182  -28.9955   21.1753 H   0  0  0  0  0  0
  -25.9519  -25.9523   18.9834 H   0  0  0  0  0  0
  -23.9655  -27.3225   19.0050 H   0  0  0  0  0  0
  -23.7546  -30.6055   19.4046 H   0  0  0  0  0  0
  -22.7526  -29.2587   19.8542 H   0  0  0  0  0  0
  -25.1291  -36.1932   25.0825 H   0  0  0  0  0  0
  -21.0008  -28.3259   24.1398 H   0  0  0  0  0  0
  -20.5676  -26.2300   23.3604 H   0  0  0  0  0  0
  -21.6645  -26.7445   22.1199 H   0  0  0  0  0  0
  -19.6898  -25.6309   21.1232 H   0  0  0  0  0  0
  -19.6684  -27.3221   20.6748 H   0  0  0  0  0  0
  -17.4202  -26.6716   21.4018 H   0  0  0  0  0  0
  -18.0324  -26.0087   22.9024 H   0  0  0  0  0  0
  -19.7943  -30.7298   24.2254 H   0  0  0  0  0  0
  -17.5023  -31.6274   24.5192 H   0  0  0  0  0  0
  -15.5360  -30.3008   23.7658 H   0  0  0  0  0  0
  -15.8686  -28.0847   22.7059 H   0  0  0  0  0  0
  -24.5935  -30.7032   25.7787 H   0  0  0  0  0  0
  -24.8892  -32.2880   26.4837 H   0  0  0  0  0  0
  -25.8079  -30.8941   27.0226 H   0  0  0  0  0  0
  -26.2874  -29.6792   24.1155 H   0  0  0  0  0  0
  -27.4050  -29.7254   25.4598 H   0  0  0  0  0  0
  -27.8736  -30.4327   23.9315 H   0  0  0  0  0  0
  -27.2655  -33.3628   26.2046 H   0  0  0  0  0  0
  -28.3881  -32.6856   25.0344 H   0  0  0  0  0  0
  -28.0674  -31.8450   26.5437 H   0  0  0  0  0  0
  -28.2599  -38.0092   24.7516 H   0  0  0  0  0  0
  -28.1057  -36.2627   24.6305 H   0  0  0  0  0  0
  -27.2295  -37.1470   25.8875 H   0  0  0  0  0  0
  -20.9363  -29.8778   21.6906 H   0  0  0  0  0  0
  -26.0157  -38.2852   24.1432 H   0  0  0  0  0  0
  -31.9325  -17.3055   19.9658 H   0  0  0  0  0  0
  -27.9083  -19.8352   21.3729 H   0  0  0  0  0  0
  -29.6360  -21.4863   23.7600 H   0  0  0  0  0  0
  -30.1059  -23.1687   23.5417 H   0  0  0  0  0  0
  -27.9906  -23.4482   22.5432 H   0  0  0  0  0  0
  -27.7548  -21.7225   22.4608 H   0  0  0  0  0  0
  -31.4324  -21.0539   22.3217 H   0  0  0  0  0  0
  -31.4640  -22.6965   21.7157 H   0  0  0  0  0  0
  -28.0811  -22.1213   20.1383 H   0  0  0  0  0  0
  -29.8536  -23.9482   19.4123 H   0  0  0  0  0  0
  -29.9478  -24.4129   21.0768 H   0  0  0  0  0  0
  -27.3152  -24.8173   20.8536 H   0  0  0  0  0  0
  -27.6610  -24.7589   19.1459 H   0  0  0  0  0  0
  -28.9052  -15.3649   21.1758 H   0  0  0  0  0  0
  1 25  1  0  0  0
  1 30  2  0  0  0
  1 86  1  0  0  0
  2  3  1  0  0  0
  2 25  1  0  0  0
  2 88  1  0  0  0
  2 89  1  0  0  0
  3  4  1  0  0  0
  3 90  1  0  0  0
  3 91  1  0  0  0
  4  5  1  0  0  0
  4 92  1  0  0  0
  4 93  1  0  0  0
  5  6  1  0  0  0
  5 26  1  0  0  0
  5 94  1  0  0  0
  6 25  1  0  0  0
  6 95  1  0  0  0
  6 96  1  0  0  0
  7  8  2  0  0  0
  7 26  1  0  0  0
  7 29  1  0  0  0
  8  9  1  0  0  0
  8 22  1  0  0  0
  9 10  1  0  0  0
  9 27  2  0  0  0
 10 11  2  0  0  0
 10 15  1  0  0  0
 11 12  1  0  0  0
 11 97  1  0  0  0
 12 13  2  0  0  0
 12 98  1  0  0  0
 13 14  1  0  0  0
 13 31  1  0  0  0
 14 15  2  0  0  0
 14 99  1  0  0  0
 15100  1  0  0  0
 16 17  2  0  0  0
 16 21  1  0  0  0
 16 31  1  0  0  0
 17 18  1  0  0  0
 17101  1  0  0  0
 18 19  2  0  0  0
 18102  1  0  0  0
 19 20  1  0  0  0
 19 24  1  0  0  0
 20 21  2  0  0  0
 20103  1  0  0  0
 21 23  1  0  0  0
 22 28  1  0  0  0
 22 32  2  0  0  0
 26 27  1  0  0  0
 28104  1  0  0  0
 28105  1  0  0  0
 29106  1  0  0  0
 29107  1  0  0  0
 33 34  1  0  0  0
 33 66  1  0  0  0
 33 70  2  0  0  0
 34 36  1  0  0  0
 34 59  1  0  0  0
 34108  1  0  0  0
 35 44  2  0  0  0
 35 45  1  0  0  0
 35 68  1  0  0  0
 36 56  1  0  0  0
 36109  1  0  0  0
 37 39  1  0  0  0
 37 47  1  0  0  0
 37 66  1  0  0  0
 37110  1  0  0  0
 38 43  2  0  0  0
 38 46  1  0  0  0
 38 47  1  0  0  0
 39 64  1  0  0  0
 39 67  2  0  0  0
 40 52  1  0  0  0
 40 53  2  0  0  0
 40 58  1  0  0  0
 41111  1  0  0  0
 41112  1  0  0  0
 41113  1  0  0  0
 41 48  1  0  0  0
 42 43  1  0  0  0
 42 66  1  0  0  0
 42114  1  0  0  0
 42115  1  0  0  0
 43 44  1  0  0  0
 44116  1  0  0  0
 45 46  2  0  0  0
 45117  1  0  0  0
 46118  1  0  0  0
 47119  1  0  0  0
 47120  1  0  0  0
 48 56  1  0  0  0
 48 65  1  0  0  0
 48121  1  0  0  0
 49 50  1  0  0  0
 49 53  1  0  0  0
 49 64  1  0  0  0
 49122  1  0  0  0
 50 51  1  0  0  0
 50123  1  0  0  0
 50124  1  0  0  0
 51 52  1  0  0  0
 51125  1  0  0  0
 51126  1  0  0  0
 52127  1  0  0  0
 52128  1  0  0  0
 53 54  1  0  0  0
 54 55  2  0  0  0
 54129  1  0  0  0
 55 57  1  0  0  0
 55130  1  0  0  0
 56 69  2  0  0  0
 57 58  2  0  0  0
 57131  1  0  0  0
 58132  1  0  0  0
 59 60  1  0  0  0
 59 61  1  0  0  0
 59 62  1  0  0  0
 60133  1  0  0  0
 60134  1  0  0  0
 60135  1  0  0  0
 61136  1  0  0  0
 61137  1  0  0  0
 61138  1  0  0  0
 62139  1  0  0  0
 62140  1  0  0  0
 62141  1  0  0  0
 63 65  1  0  0  0
 63142  1  0  0  0
 63143  1  0  0  0
 63144  1  0  0  0
 64145  1  0  0  0
 65146  1  0  0  0
 68 83  1  0  0  0
 71 74  1  0  0  0
 71 84  3  0  0  0
 72 74  2  0  0  0
 72 76  1  0  0  0
 72147  1  0  0  0
 73 75  2  0  0  0
 73 77  1  0  0  0
 73148  1  0  0  0
 74 75  1  0  0  0
 75 85  1  0  0  0
 76 77  2  0  0  0
 76 86  1  0  0  0
 77 87  1  0  0  0
 78 79  1  0  0  0
 78 80  1  0  0  0
 78149  1  0  0  0
 78150  1  0  0  0
 79 81  1  0  0  0
 79151  1  0  0  0
 79152  1  0  0  0
 80 85  1  0  0  0
 80153  1  0  0  0
 80154  1  0  0  0
 81 82  1  0  0  0
 81 85  1  0  0  0
 81155  1  0  0  0
 82 83  1  0  0  0
 82156  1  0  0  0
 82157  1  0  0  0
 83158  1  0  0  0
 83159  1  0  0  0
 86160  1  0  0  0
M  ISO  4   1 100  68 101  83 101  86 100
M  END
> <chiral flag>
0

> <version>
0

> <s_m_source_file>
/data/baiqing/PycharmProjects/Reinvent-master-3.2/result/LINK_invent/BTK/process_docking_weight1_custom_product_contain_oxygen_bond_distance_aromatic_linkinvent_7_9_3/rearranged_h_0022.sdf

> <i_m_source_file_index>
34

> <r_mmod_Potential_Energy-OPLS-2005>
165.07780456543

> <r_mmod_Stretch_Energy-OPLS-2005>
80.9717712402344

> <r_mmod_Bend_Energy-OPLS-2005>
176.816619873047

> <r_mmod_Torsional_Energy-OPLS-2005>
294.146453857422

> <r_mmod_Improper_Torsional_Energy-OPLS-2005>
9.70106315612793

> <r_mmod_Van_der_Waal_Energy-OPLS-2005>
151.387664794922

> <r_mmod_Electrostatic_Energy-OPLS-2005>
-374.276245117188

> <r_mmod_Solvation_Energy-OPLS-2005>
-218.078964233398

> <b_mmod_Minimization_Converged-OPLS-2005>
0

> <r_mmod_RMS_Derivative-OPLS-2005>
1.39812004566193

$$$$
35
                    3D
 Structure written by MMmdl.
171180  0  0  1  0            999 V2000
  -30.5518  -15.0768   20.4028 C   0  0  0  0  0  0
  -30.4227  -12.6779   19.5144 C   0  0  0  0  0  0
  -29.5244  -12.5548   18.2617 C   0  0  0  0  0  0
  -28.0608  -12.3131   18.6752 C   0  0  0  0  0  0
  -27.6095  -13.2494   19.8261 C   0  0  2  0  0  0
  -28.6531  -13.3806   20.9607 C   0  0  0  0  0  0
  -25.2346  -13.8156   20.5733 C   0  0  0  0  0  0
  -24.1696  -13.0380   20.9269 C   0  0  0  0  0  0
  -24.6337  -11.6876   20.8773 C   0  0  0  0  0  0
  -23.9046  -10.4269   21.0423 C   0  0  0  0  0  0
  -24.3608   -9.4186   21.9191 C   0  0  0  0  0  0
  -23.6267   -8.2234   22.0759 C   0  0  0  0  0  0
  -22.4235   -8.0301   21.3561 C   0  0  0  0  0  0
  -21.9871   -9.0273   20.4645 C   0  0  0  0  0  0
  -22.7222  -10.2141   20.3048 C   0  0  0  0  0  0
  -21.6835   -6.0731   22.5281 C   0  0  0  0  0  0
  -21.4002   -6.5622   23.8217 C   0  0  0  0  0  0
  -21.3666   -5.6776   24.9173 C   0  0  0  0  0  0
  -21.6052   -4.3041   24.7218 C   0  0  0  0  0  0
  -21.8819   -3.8132   23.4330 C   0  0  0  0  0  0
  -21.9180   -4.6963   22.3386 C   0  0  0  0  0  0
  -22.7729  -13.5183   21.1899 C   0  0  0  0  0  0
  -22.1675   -4.2152   21.0971 F   0  0  0  0  0  0
  -21.5625   -3.4527   25.7725 F   0  0  0  0  0  0
  -29.9112  -13.8229   20.3388 N   0  0  0  0  0  0
  -26.2781  -12.9388   20.3218 N   0  0  0  0  0  0
  -25.9258  -11.6530   20.5686 N   0  0  0  0  0  0
  -22.0373  -12.8218   22.0475 N   0  0  0  0  0  0
  -25.3876  -15.1882   20.4151 N   0  0  0  0  0  0
  -31.7681  -15.0212   20.1725 O   0  0  0  0  0  0
  -21.6610   -6.8892   21.4244 O   0  0  0  0  0  0
  -22.3464  -14.5524   20.6766 O   0  0  0  0  0  0
  -24.6452  -31.8420   23.1840 C   0  0  0  0  0  0
  -25.9180  -32.4707   23.8283 C   0  0  1  0  0  0
  -27.2211  -27.0809   20.1699 C   0  0  0  0  0  0
  -25.5900  -33.8517   24.2193 N   0  0  0  0  0  0
  -23.4543  -30.4563   21.5277 C   0  0  2  0  0  0
  -24.9075  -28.8720   20.1093 C   0  0  0  0  0  0
  -22.7592  -29.4532   22.4828 C   0  0  0  0  0  0
  -18.0305  -28.1394   22.8462 C   0  0  0  0  0  0
  -24.1472  -36.7267   23.2650 C   0  0  0  0  0  0
  -26.0130  -30.6972   21.3941 C   0  0  0  0  0  0
  -26.0827  -29.3012   20.7378 C   0  0  0  0  0  0
  -27.2331  -28.4191   20.7534 C   0  0  0  0  0  0
  -26.0218  -26.7685   19.4912 C   0  0  0  0  0  0
  -24.8928  -27.6212   19.4710 C   0  0  0  0  0  0
  -23.6873  -29.7804   20.1492 C   0  0  0  0  0  0
  -25.4115  -36.3068   24.0325 C   0  0  1  0  0  0
  -20.5923  -28.3740   23.1203 C   0  0  2  0  0  0
  -20.6784  -26.9436   22.5396 C   0  0  0  0  0  0
  -19.5766  -26.6376   21.5196 C   0  0  0  0  0  0
  -18.1943  -26.7927   22.1613 C   0  0  0  0  0  0
  -19.1562  -28.8889   23.2828 C   0  0  0  0  0  0
  -18.9487  -30.1462   23.8884 C   0  0  0  0  0  0
  -17.6486  -30.6601   24.0553 C   0  0  0  0  0  0
  -25.9065  -34.9430   23.5087 C   0  0  0  0  0  0
  -16.5374  -29.9097   23.6325 C   0  0  0  0  0  0
  -16.7289  -28.6505   23.0374 C   0  0  0  0  0  0
  -26.4483  -31.6602   25.0751 C   0  0  0  0  0  0
  -25.3641  -31.3786   26.1433 C   0  0  0  0  0  0
  -27.0332  -30.2992   24.6345 C   0  0  0  0  0  0
  -27.6026  -32.4383   25.7515 C   0  0  0  0  0  0
  -27.5589  -37.1791   24.8472 C   0  0  0  0  0  0
  -21.4282  -29.3060   22.3585 N   0  0  0  0  0  0
  -26.4294  -37.3775   23.9413 N   0  0  0  0  0  0
  -24.7238  -31.0213   22.0904 N   0  0  0  0  0  0
  -23.4212  -28.8095   23.3016 O   0  0  0  0  0  0
  -28.2732  -26.0823   20.3070 O   0  0  0  0  0  0
  -26.5677  -34.8918   22.4683 O   0  0  0  0  0  0
  -23.5555  -32.1322   23.7006 O   0  0  0  0  0  0
  -30.8974  -20.1293   21.7589 C   0  0  0  0  0  0
  -31.5713  -17.4475   21.9069 C   0  0  0  0  0  0
  -32.0037  -19.7478   22.5317 C   0  0  0  0  0  0
  -30.0742  -19.2361   21.0207 C   0  0  0  0  0  0
  -30.4435  -17.7308   21.0767 C   0  0  0  0  0  0
  -32.3318  -18.3962   22.5988 C   0  0  0  0  0  0
  -32.7481  -21.9341   26.8321 C   0  0  0  0  0  0
  -33.7556  -20.7816   26.8383 C   0  0  0  0  0  0
  -32.5255  -22.1796   25.3387 C   0  0  0  0  0  0
  -33.4174  -19.9746   25.5739 C   0  0  0  0  0  0
  -28.6456  -16.5570   19.7556 C   0  0  0  0  0  0
  -32.8283  -20.7955   23.2734 C   0  0  0  0  0  0
  -28.5971  -23.0810   20.6573 C   0  0  0  0  0  0
  -29.0169  -21.5894   19.9068 C   0  0  0  0  0  0
  -28.2789  -24.5667   19.8382 C   0  0  0  0  0  0
  -28.9986  -20.0859   20.4440 N   0  0  0  0  0  0
  -29.8935  -16.3879   20.4959 N   0  0  0  0  0  0
  -32.5378  -20.8278   24.7302 N   0  3  0  0  0  0
  -33.3800  -17.9874   23.3506 F   0  0  0  0  0  0
  -31.4598  -12.8118   19.2080 H   0  0  0  0  0  0
  -30.4100  -11.7538   20.0946 H   0  0  0  0  0  0
  -29.8742  -11.7452   17.6210 H   0  0  0  0  0  0
  -29.5959  -13.4611   17.6574 H   0  0  0  0  0  0
  -27.9744  -11.2750   18.9907 H   0  0  0  0  0  0
  -27.4032  -12.4313   17.8131 H   0  0  0  0  0  0
  -27.5108  -14.2138   19.3467 H   0  0  0  0  0  0
  -28.7802  -12.4350   21.4878 H   0  0  0  0  0  0
  -28.3222  -14.1103   21.7035 H   0  0  0  0  0  0
  -25.2780   -9.5633   22.4756 H   0  0  0  0  0  0
  -23.9983   -7.4595   22.7453 H   0  0  0  0  0  0
  -21.0813   -8.8826   19.8920 H   0  0  0  0  0  0
  -22.3744  -10.9703   19.6159 H   0  0  0  0  0  0
  -21.2010   -7.6129   23.9736 H   0  0  0  0  0  0
  -21.1486   -6.0480   25.9086 H   0  0  0  0  0  0
  -22.0578   -2.7591   23.2802 H   0  0  0  0  0  0
  -22.3974  -11.9916   22.4936 H   0  0  0  0  0  0
  -21.0990  -13.1287   22.2646 H   0  0  0  0  0  0
  -24.6012  -15.8210   20.5202 H   0  0  0  0  0  0
  -26.2162  -15.6424   20.0610 H   0  0  0  0  0  0
  -26.7250  -32.5301   23.1024 H   0  0  0  0  0  0
  -24.9960  -33.9618   25.0281 H   0  0  0  0  0  0
  -22.7570  -31.2814   21.3635 H   0  0  0  0  0  0
  -23.3758  -35.9577   23.3316 H   0  0  0  0  0  0
  -24.3566  -36.8903   22.2070 H   0  0  0  0  0  0
  -23.7184  -37.6442   23.6685 H   0  0  0  0  0  0
  -26.1721  -31.4458   20.6170 H   0  0  0  0  0  0
  -26.8850  -30.7551   22.0350 H   0  0  0  0  0  0
  -28.1227  -28.7375   21.2783 H   0  0  0  0  0  0
  -25.9086  -25.8173   18.9965 H   0  0  0  0  0  0
  -23.9954  -27.2839   18.9681 H   0  0  0  0  0  0
  -23.8298  -30.5512   19.3905 H   0  0  0  0  0  0
  -22.8031  -29.2218   19.8399 H   0  0  0  0  0  0
  -25.1290  -36.1921   25.0817 H   0  0  0  0  0  0
  -20.9986  -28.3325   24.1335 H   0  0  0  0  0  0
  -20.5611  -26.2373   23.3626 H   0  0  0  0  0  0
  -21.6656  -26.7396   22.1238 H   0  0  0  0  0  0
  -19.6923  -25.6260   21.1289 H   0  0  0  0  0  0
  -19.6695  -27.3134   20.6676 H   0  0  0  0  0  0
  -17.4192  -26.6639   21.4038 H   0  0  0  0  0  0
  -18.0366  -26.0087   22.9033 H   0  0  0  0  0  0
  -19.7966  -30.7262   24.2278 H   0  0  0  0  0  0
  -17.5052  -31.6275   24.5155 H   0  0  0  0  0  0
  -15.5377  -30.3017   23.7644 H   0  0  0  0  0  0
  -15.8680  -28.0800   22.7150 H   0  0  0  0  0  0
  -24.5800  -30.7170   25.7734 H   0  0  0  0  0  0
  -24.8829  -32.2949   26.4860 H   0  0  0  0  0  0
  -25.7897  -30.8938   27.0223 H   0  0  0  0  0  0
  -26.2928  -29.6744   24.1324 H   0  0  0  0  0  0
  -27.3893  -29.7290   25.4935 H   0  0  0  0  0  0
  -27.8880  -30.4248   23.9696 H   0  0  0  0  0  0
  -27.2633  -33.3717   26.2024 H   0  0  0  0  0  0
  -28.3842  -32.6905   25.0334 H   0  0  0  0  0  0
  -28.0675  -31.8547   26.5469 H   0  0  0  0  0  0
  -28.2603  -38.0095   24.7540 H   0  0  0  0  0  0
  -28.1084  -36.2626   24.6266 H   0  0  0  0  0  0
  -27.2310  -37.1409   25.8876 H   0  0  0  0  0  0
  -20.9500  -29.8782   21.6764 H   0  0  0  0  0  0
  -26.0176  -38.2849   24.1414 H   0  0  0  0  0  0
  -30.6706  -21.1864   21.7767 H   0  0  0  0  0  0
  -31.9192  -16.4452   22.0768 H   0  0  0  0  0  0
  -33.1018  -22.8210   27.3590 H   0  0  0  0  0  0
  -31.8128  -21.6209   27.3025 H   0  0  0  0  0  0
  -33.7146  -20.1789   27.7479 H   0  0  0  0  0  0
  -34.7708  -21.1756   26.7553 H   0  0  0  0  0  0
  -33.3455  -22.7783   24.9336 H   0  0  0  0  0  0
  -31.5923  -22.7112   25.1385 H   0  0  0  0  0  0
  -32.8904  -19.0533   25.8247 H   0  0  0  0  0  0
  -34.3394  -19.6906   25.0637 H   0  0  0  0  0  0
  -28.5196  -17.5804   19.4031 H   0  0  0  0  0  0
  -27.7998  -16.3262   20.3976 H   0  0  0  0  0  0
  -28.6217  -15.9429   18.8562 H   0  0  0  0  0  0
  -32.6130  -21.7735   22.8397 H   0  0  0  0  0  0
  -33.8909  -20.6288   23.0879 H   0  0  0  0  0  0
  -29.3828  -23.2932   21.3851 H   0  0  0  0  0  0
  -27.7126  -22.8893   21.2652 H   0  0  0  0  0  0
  -29.9922  -21.7338   19.4422 H   0  0  0  0  0  0
  -28.3352  -21.5352   19.0568 H   0  0  0  0  0  0
  -27.3735  -24.3828   19.2672 H   0  0  0  0  0  0
  -29.0448  -24.5908   19.0631 H   0  0  0  0  0  0
  -28.2242  -19.5420   20.0703 H   0  0  0  0  0  0
  -31.5979  -20.4804   24.8488 H   0  0  0  0  0  0
  1 25  1  0  0  0
  1 30  2  0  0  0
  1 87  1  0  0  0
  2  3  1  0  0  0
  2 25  1  0  0  0
  2 90  1  0  0  0
  2 91  1  0  0  0
  3  4  1  0  0  0
  3 92  1  0  0  0
  3 93  1  0  0  0
  4  5  1  0  0  0
  4 94  1  0  0  0
  4 95  1  0  0  0
  5  6  1  0  0  0
  5 26  1  0  0  0
  5 96  1  0  0  0
  6 25  1  0  0  0
  6 97  1  0  0  0
  6 98  1  0  0  0
  7  8  2  0  0  0
  7 26  1  0  0  0
  7 29  1  0  0  0
  8  9  1  0  0  0
  8 22  1  0  0  0
  9 10  1  0  0  0
  9 27  2  0  0  0
 10 11  2  0  0  0
 10 15  1  0  0  0
 11 12  1  0  0  0
 11 99  1  0  0  0
 12 13  2  0  0  0
 12100  1  0  0  0
 13 14  1  0  0  0
 13 31  1  0  0  0
 14 15  2  0  0  0
 14101  1  0  0  0
 15102  1  0  0  0
 16 17  2  0  0  0
 16 21  1  0  0  0
 16 31  1  0  0  0
 17 18  1  0  0  0
 17103  1  0  0  0
 18 19  2  0  0  0
 18104  1  0  0  0
 19 20  1  0  0  0
 19 24  1  0  0  0
 20 21  2  0  0  0
 20105  1  0  0  0
 21 23  1  0  0  0
 22 28  1  0  0  0
 22 32  2  0  0  0
 26 27  1  0  0  0
 28106  1  0  0  0
 28107  1  0  0  0
 29108  1  0  0  0
 29109  1  0  0  0
 33 34  1  0  0  0
 33 66  1  0  0  0
 33 70  2  0  0  0
 34 36  1  0  0  0
 34 59  1  0  0  0
 34110  1  0  0  0
 35 44  2  0  0  0
 35 45  1  0  0  0
 35 68  1  0  0  0
 36 56  1  0  0  0
 36111  1  0  0  0
 37 39  1  0  0  0
 37 47  1  0  0  0
 37 66  1  0  0  0
 37112  1  0  0  0
 38 43  2  0  0  0
 38 46  1  0  0  0
 38 47  1  0  0  0
 39 64  1  0  0  0
 39 67  2  0  0  0
 40 52  1  0  0  0
 40 53  2  0  0  0
 40 58  1  0  0  0
 41113  1  0  0  0
 41114  1  0  0  0
 41115  1  0  0  0
 41 48  1  0  0  0
 42 43  1  0  0  0
 42 66  1  0  0  0
 42116  1  0  0  0
 42117  1  0  0  0
 43 44  1  0  0  0
 44118  1  0  0  0
 45 46  2  0  0  0
 45119  1  0  0  0
 46120  1  0  0  0
 47121  1  0  0  0
 47122  1  0  0  0
 48 56  1  0  0  0
 48 65  1  0  0  0
 48123  1  0  0  0
 49 50  1  0  0  0
 49 53  1  0  0  0
 49 64  1  0  0  0
 49124  1  0  0  0
 50 51  1  0  0  0
 50125  1  0  0  0
 50126  1  0  0  0
 51 52  1  0  0  0
 51127  1  0  0  0
 51128  1  0  0  0
 52129  1  0  0  0
 52130  1  0  0  0
 53 54  1  0  0  0
 54 55  2  0  0  0
 54131  1  0  0  0
 55 57  1  0  0  0
 55132  1  0  0  0
 56 69  2  0  0  0
 57 58  2  0  0  0
 57133  1  0  0  0
 58134  1  0  0  0
 59 60  1  0  0  0
 59 61  1  0  0  0
 59 62  1  0  0  0
 60135  1  0  0  0
 60136  1  0  0  0
 60137  1  0  0  0
 61138  1  0  0  0
 61139  1  0  0  0
 61140  1  0  0  0
 62141  1  0  0  0
 62142  1  0  0  0
 62143  1  0  0  0
 63 65  1  0  0  0
 63144  1  0  0  0
 63145  1  0  0  0
 63146  1  0  0  0
 64147  1  0  0  0
 65148  1  0  0  0
 68 85  1  0  0  0
 71 73  2  0  0  0
 71 74  1  0  0  0
 71149  1  0  0  0
 72 75  1  0  0  0
 72 76  2  0  0  0
 72150  1  0  0  0
 73 76  1  0  0  0
 73 82  1  0  0  0
 74 75  2  0  0  0
 74 86  1  0  0  0
 75 87  1  0  0  0
 76 89  1  0  0  0
 77 78  1  0  0  0
 77 79  1  0  0  0
 77151  1  0  0  0
 77152  1  0  0  0
 78 80  1  0  0  0
 78153  1  0  0  0
 78154  1  0  0  0
 79 88  1  0  0  0
 79155  1  0  0  0
 79156  1  0  0  0
 80 88  1  0  0  0
 80157  1  0  0  0
 80158  1  0  0  0
 81 87  1  0  0  0
 81159  1  0  0  0
 81160  1  0  0  0
 81161  1  0  0  0
 82162  1  0  0  0
 82163  1  0  0  0
 82 88  1  0  0  0
 83 84  1  0  0  0
 83 85  1  0  0  0
 83164  1  0  0  0
 83165  1  0  0  0
 84 86  1  0  0  0
 84166  1  0  0  0
 84167  1  0  0  0
 85168  1  0  0  0
 85169  1  0  0  0
 86170  1  0  0  0
 88171  1  0  0  0
M  CHG  1  88   1
M  ISO  4   1 100  68 101  85 101  87 100
M  END
> <chiral flag>
0

> <version>
0

> <s_m_source_file>
/data/baiqing/PycharmProjects/Reinvent-master-3.2/result/LINK_invent/BTK/process_docking_weight1_custom_product_contain_oxygen_bond_distance_aromatic_linkinvent_7_9_3/rearranged_h_0022.sdf

> <i_m_source_file_index>
35

> <r_mmod_Potential_Energy-OPLS-2005>
881.804931640625

> <r_mmod_Stretch_Energy-OPLS-2005>
380.429748535156

> <r_mmod_Bend_Energy-OPLS-2005>
441.085601806641

> <r_mmod_Torsional_Energy-OPLS-2005>
330.087188720703

> <r_mmod_Improper_Torsional_Energy-OPLS-2005>
6.53704357147217

> <r_mmod_Van_der_Waal_Energy-OPLS-2005>
149.274322509766

> <r_mmod_Electrostatic_Energy-OPLS-2005>
-261.434143066406

> <r_mmod_Solvation_Energy-OPLS-2005>
-433.077026367188

> <b_mmod_Minimization_Converged-OPLS-2005>
0

> <r_mmod_RMS_Derivative-OPLS-2005>
4.43247842788696

$$$$
36
                    3D
 Structure written by MMmdl.
161169  0  0  1  0            999 V2000
  -30.6642  -14.6556   20.5111 C   0  0  0  0  0  0
  -30.4187  -12.4118   19.4576 C   0  0  0  0  0  0
  -29.4975  -12.5068   18.2243 C   0  0  0  0  0  0
  -28.0242  -12.3401   18.6395 C   0  0  0  0  0  0
  -27.6429  -13.2253   19.8561 C   0  0  2  0  0  0
  -28.6870  -13.1287   20.9895 C   0  0  0  0  0  0
  -25.2509  -13.8187   20.5699 C   0  0  0  0  0  0
  -24.1797  -13.0441   20.9210 C   0  0  0  0  0  0
  -24.6380  -11.6914   20.8752 C   0  0  0  0  0  0
  -23.9059  -10.4296   21.0408 C   0  0  0  0  0  0
  -24.3615   -9.4211   21.9185 C   0  0  0  0  0  0
  -23.6292   -8.2244   22.0755 C   0  0  0  0  0  0
  -22.4275   -8.0281   21.3543 C   0  0  0  0  0  0
  -21.9907   -9.0253   20.4645 C   0  0  0  0  0  0
  -22.7232  -10.2136   20.3056 C   0  0  0  0  0  0
  -21.6853   -6.0733   22.5279 C   0  0  0  0  0  0
  -21.4012   -6.5640   23.8211 C   0  0  0  0  0  0
  -21.3658   -5.6792   24.9174 C   0  0  0  0  0  0
  -21.6046   -4.3055   24.7221 C   0  0  0  0  0  0
  -21.8822   -3.8147   23.4343 C   0  0  0  0  0  0
  -21.9195   -4.6962   22.3401 C   0  0  0  0  0  0
  -22.7820  -13.5228   21.1863 C   0  0  0  0  0  0
  -22.1664   -4.2149   21.0977 F   0  0  0  0  0  0
  -21.5630   -3.4540   25.7735 F   0  0  0  0  0  0
  -29.9955  -13.4600   20.4127 N   0  0  0  0  0  0
  -26.2934  -12.9382   20.3308 N   0  0  0  0  0  0
  -25.9310  -11.6530   20.5766 N   0  0  0  0  0  0
  -22.0466  -12.8217   22.0416 N   0  0  0  0  0  0
  -25.4190  -15.1903   20.4100 N   0  0  0  0  0  0
  -31.8262  -14.7494   20.1012 O   0  0  0  0  0  0
  -21.6642   -6.8874   21.4241 O   0  0  0  0  0  0
  -22.3507  -14.5534   20.6711 O   0  0  0  0  0  0
  -24.6281  -31.8566   23.2014 C   0  0  0  0  0  0
  -25.9128  -32.4754   23.8350 C   0  0  1  0  0  0
  -27.2179  -27.2973   20.1134 C   0  0  0  0  0  0
  -25.5941  -33.8561   24.2272 N   0  0  0  0  0  0
  -23.4209  -30.4832   21.5424 C   0  0  2  0  0  0
  -24.8642  -28.9340   20.1078 C   0  0  0  0  0  0
  -22.7467  -29.4624   22.4903 C   0  0  0  0  0  0
  -18.0290  -28.1371   22.8490 C   0  0  0  0  0  0
  -24.1492  -36.7290   23.2643 C   0  0  0  0  0  0
  -25.9639  -30.7811   21.3742 C   0  0  0  0  0  0
  -26.0332  -29.4080   20.7132 C   0  0  0  0  0  0
  -27.2095  -28.6006   20.7069 C   0  0  0  0  0  0
  -26.0183  -26.8709   19.4996 C   0  0  0  0  0  0
  -24.8592  -27.6722   19.4939 C   0  0  0  0  0  0
  -23.6356  -29.8189   20.1569 C   0  0  0  0  0  0
  -25.4111  -36.3067   24.0327 C   0  0  1  0  0  0
  -20.5890  -28.3690   23.1259 C   0  0  2  0  0  0
  -20.6768  -26.9406   22.5398 C   0  0  0  0  0  0
  -19.5750  -26.6372   21.5199 C   0  0  0  0  0  0
  -18.1932  -26.7915   22.1616 C   0  0  0  0  0  0
  -19.1543  -28.8846   23.2877 C   0  0  0  0  0  0
  -18.9469  -30.1447   23.8900 C   0  0  0  0  0  0
  -17.6470  -30.6581   24.0566 C   0  0  0  0  0  0
  -25.9048  -34.9439   23.5097 C   0  0  0  0  0  0
  -16.5362  -29.9079   23.6327 C   0  0  0  0  0  0
  -16.7275  -28.6491   23.0357 C   0  0  0  0  0  0
  -26.4507  -31.6573   25.0733 C   0  0  0  0  0  0
  -25.3746  -31.3712   26.1470 C   0  0  0  0  0  0
  -27.0358  -30.2995   24.6213 C   0  0  0  0  0  0
  -27.6069  -32.4314   25.7500 C   0  0  0  0  0  0
  -27.5577  -37.1792   24.8456 C   0  0  0  0  0  0
  -21.4182  -29.3052   22.3648 N   0  0  0  0  0  0
  -26.4283  -37.3768   23.9415 N   0  0  0  0  0  0
  -24.6900  -31.0575   22.0962 N   0  0  0  0  0  0
  -23.4185  -28.8148   23.2978 O   0  0  0  0  0  0
  -28.3527  -26.4706   20.1908 O   0  0  0  0  0  0
  -26.5619  -34.8917   22.4665 O   0  0  0  0  0  0
  -23.5439  -32.1377   23.7334 O   0  0  0  0  0  0
  -29.2663  -19.1602   21.3508 C   0  0  0  0  0  0
  -29.2281  -20.5855   21.1736 C   0  0  0  0  0  0
  -28.9855  -18.8646   18.9951 C   0  0  0  0  0  0
  -29.1722  -18.2471   20.2586 C   0  0  0  0  0  0
  -28.9320  -20.2788   18.8085 C   0  0  0  0  0  0
  -29.0789  -21.1944   19.8954 C   0  0  0  0  0  0
  -28.7048  -20.7935   17.3944 C   0  0  0  0  0  0
  -30.5355  -22.8819   19.0548 C   0  0  0  0  0  0
  -30.7246  -16.3750   22.2171 C   0  0  0  0  0  0
  -29.0698  -16.6621   20.3611 C   0  0  0  0  0  0
  -28.6154  -23.7691   20.3921 C   0  0  0  0  0  0
  -28.4577  -25.1354   19.5472 C   0  0  0  0  0  0
  -29.2213  -22.6112   19.6411 N   0  0  0  0  0  0
  -30.0461  -15.7548   21.0783 N   0  0  0  0  0  0
  -31.4616  -12.5156   19.1538 H   0  0  0  0  0  0
  -30.3438  -11.4269   19.9207 H   0  0  0  0  0  0
  -29.7678  -11.7458   17.4909 H   0  0  0  0  0  0
  -29.6355  -13.4706   17.7316 H   0  0  0  0  0  0
  -27.8693  -11.2887   18.8836 H   0  0  0  0  0  0
  -27.3672  -12.5546   17.7959 H   0  0  0  0  0  0
  -27.6455  -14.2521   19.4933 H   0  0  0  0  0  0
  -28.7054  -12.1249   21.4159 H   0  0  0  0  0  0
  -28.4292  -13.8021   21.8082 H   0  0  0  0  0  0
  -25.2761   -9.5693   22.4760 H   0  0  0  0  0  0
  -24.0008   -7.4633   22.7470 H   0  0  0  0  0  0
  -21.0842   -8.8765   19.8945 H   0  0  0  0  0  0
  -22.3689  -10.9673   19.6164 H   0  0  0  0  0  0
  -21.2001   -7.6147   23.9713 H   0  0  0  0  0  0
  -21.1478   -6.0522   25.9077 H   0  0  0  0  0  0
  -22.0601   -2.7608   23.2843 H   0  0  0  0  0  0
  -22.4087  -11.9882   22.4806 H   0  0  0  0  0  0
  -21.1079  -13.1231   22.2615 H   0  0  0  0  0  0
  -24.6508  -15.8423   20.5256 H   0  0  0  0  0  0
  -26.2632  -15.6312   20.0712 H   0  0  0  0  0  0
  -26.7189  -32.5414   23.1088 H   0  0  0  0  0  0
  -25.0110  -33.9698   25.0433 H   0  0  0  0  0  0
  -22.7180  -31.3062   21.3975 H   0  0  0  0  0  0
  -23.3746  -35.9634   23.3305 H   0  0  0  0  0  0
  -24.3586  -36.8907   22.2056 H   0  0  0  0  0  0
  -23.7247  -37.6495   23.6666 H   0  0  0  0  0  0
  -26.1019  -31.5441   20.6067 H   0  0  0  0  0  0
  -26.8428  -30.8254   22.0069 H   0  0  0  0  0  0
  -28.1074  -28.9609   21.1899 H   0  0  0  0  0  0
  -25.9227  -25.8982   19.0457 H   0  0  0  0  0  0
  -23.9581  -27.2982   19.0281 H   0  0  0  0  0  0
  -23.7594  -30.5971   19.4030 H   0  0  0  0  0  0
  -22.7539  -29.2536   19.8505 H   0  0  0  0  0  0
  -25.1279  -36.1916   25.0813 H   0  0  0  0  0  0
  -21.0010  -28.3278   24.1366 H   0  0  0  0  0  0
  -20.5641  -26.2310   23.3608 H   0  0  0  0  0  0
  -21.6637  -26.7405   22.1210 H   0  0  0  0  0  0
  -19.6915  -25.6280   21.1232 H   0  0  0  0  0  0
  -19.6689  -27.3182   20.6730 H   0  0  0  0  0  0
  -17.4196  -26.6680   21.4019 H   0  0  0  0  0  0
  -18.0342  -26.0040   22.8996 H   0  0  0  0  0  0
  -19.7948  -30.7258   24.2275 H   0  0  0  0  0  0
  -17.5026  -31.6263   24.5162 H   0  0  0  0  0  0
  -15.5364  -30.2988   23.7637 H   0  0  0  0  0  0
  -15.8674  -28.0802   22.7080 H   0  0  0  0  0  0
  -24.5897  -30.7092   25.7795 H   0  0  0  0  0  0
  -24.8983  -32.2885   26.4947 H   0  0  0  0  0  0
  -25.8070  -30.8838   27.0220 H   0  0  0  0  0  0
  -26.2943  -29.6738   24.1236 H   0  0  0  0  0  0
  -27.4036  -29.7261   25.4732 H   0  0  0  0  0  0
  -27.8819  -30.4268   23.9457 H   0  0  0  0  0  0
  -27.2669  -33.3593   26.2116 H   0  0  0  0  0  0
  -28.3861  -32.6906   25.0319 H   0  0  0  0  0  0
  -28.0783  -31.8430   26.5385 H   0  0  0  0  0  0
  -28.2561  -38.0122   24.7523 H   0  0  0  0  0  0
  -28.1091  -36.2643   24.6231 H   0  0  0  0  0  0
  -27.2305  -37.1385   25.8862 H   0  0  0  0  0  0
  -20.9354  -29.8802   21.6886 H   0  0  0  0  0  0
  -26.0152  -38.2835   24.1440 H   0  0  0  0  0  0
  -29.3585  -18.7799   22.3564 H   0  0  0  0  0  0
  -29.3483  -21.2154   22.0432 H   0  0  0  0  0  0
  -28.8535  -18.2297   18.1297 H   0  0  0  0  0  0
  -28.2953  -20.0185   16.7456 H   0  0  0  0  0  0
  -29.6425  -21.1377   16.9594 H   0  0  0  0  0  0
  -27.9997  -21.6257   17.3921 H   0  0  0  0  0  0
  -31.1632  -21.9914   18.9815 H   0  0  0  0  0  0
  -31.0869  -23.6100   19.6517 H   0  0  0  0  0  0
  -30.4257  -23.2888   18.0489 H   0  0  0  0  0  0
  -29.9980  -16.6884   22.9666 H   0  0  0  0  0  0
  -31.3087  -17.2400   21.9015 H   0  0  0  0  0  0
  -31.4090  -15.6830   22.7134 H   0  0  0  0  0  0
  -28.9780  -16.2856   19.3409 H   0  0  0  0  0  0
  -28.0986  -16.4595   20.8126 H   0  0  0  0  0  0
  -27.6470  -23.4721   20.7967 H   0  0  0  0  0  0
  -29.2507  -23.9654   21.2573 H   0  0  0  0  0  0
  -27.7185  -24.9801   18.7668 H   0  0  0  0  0  0
  -29.3759  -25.2535   18.9748 H   0  0  0  0  0  0
  1 25  1  0  0  0
  1 30  2  0  0  0
  1 84  1  0  0  0
  2  3  1  0  0  0
  2 25  1  0  0  0
  2 85  1  0  0  0
  2 86  1  0  0  0
  3  4  1  0  0  0
  3 87  1  0  0  0
  3 88  1  0  0  0
  4  5  1  0  0  0
  4 89  1  0  0  0
  4 90  1  0  0  0
  5  6  1  0  0  0
  5 26  1  0  0  0
  5 91  1  0  0  0
  6 25  1  0  0  0
  6 92  1  0  0  0
  6 93  1  0  0  0
  7  8  2  0  0  0
  7 26  1  0  0  0
  7 29  1  0  0  0
  8  9  1  0  0  0
  8 22  1  0  0  0
  9 10  1  0  0  0
  9 27  2  0  0  0
 10 11  2  0  0  0
 10 15  1  0  0  0
 11 12  1  0  0  0
 11 94  1  0  0  0
 12 13  2  0  0  0
 12 95  1  0  0  0
 13 14  1  0  0  0
 13 31  1  0  0  0
 14 15  2  0  0  0
 14 96  1  0  0  0
 15 97  1  0  0  0
 16 17  2  0  0  0
 16 21  1  0  0  0
 16 31  1  0  0  0
 17 18  1  0  0  0
 17 98  1  0  0  0
 18 19  2  0  0  0
 18 99  1  0  0  0
 19 20  1  0  0  0
 19 24  1  0  0  0
 20 21  2  0  0  0
 20100  1  0  0  0
 21 23  1  0  0  0
 22 28  1  0  0  0
 22 32  2  0  0  0
 26 27  1  0  0  0
 28101  1  0  0  0
 28102  1  0  0  0
 29103  1  0  0  0
 29104  1  0  0  0
 33 34  1  0  0  0
 33 66  1  0  0  0
 33 70  2  0  0  0
 34 36  1  0  0  0
 34 59  1  0  0  0
 34105  1  0  0  0
 35 44  2  0  0  0
 35 45  1  0  0  0
 35 68  1  0  0  0
 36 56  1  0  0  0
 36106  1  0  0  0
 37 39  1  0  0  0
 37 47  1  0  0  0
 37 66  1  0  0  0
 37107  1  0  0  0
 38 43  2  0  0  0
 38 46  1  0  0  0
 38 47  1  0  0  0
 39 64  1  0  0  0
 39 67  2  0  0  0
 40 52  1  0  0  0
 40 53  2  0  0  0
 40 58  1  0  0  0
 41108  1  0  0  0
 41109  1  0  0  0
 41110  1  0  0  0
 41 48  1  0  0  0
 42 43  1  0  0  0
 42 66  1  0  0  0
 42111  1  0  0  0
 42112  1  0  0  0
 43 44  1  0  0  0
 44113  1  0  0  0
 45 46  2  0  0  0
 45114  1  0  0  0
 46115  1  0  0  0
 47116  1  0  0  0
 47117  1  0  0  0
 48 56  1  0  0  0
 48 65  1  0  0  0
 48118  1  0  0  0
 49 50  1  0  0  0
 49 53  1  0  0  0
 49 64  1  0  0  0
 49119  1  0  0  0
 50 51  1  0  0  0
 50120  1  0  0  0
 50121  1  0  0  0
 51 52  1  0  0  0
 51122  1  0  0  0
 51123  1  0  0  0
 52124  1  0  0  0
 52125  1  0  0  0
 53 54  1  0  0  0
 54 55  2  0  0  0
 54126  1  0  0  0
 55 57  1  0  0  0
 55127  1  0  0  0
 56 69  2  0  0  0
 57 58  2  0  0  0
 57128  1  0  0  0
 58129  1  0  0  0
 59 60  1  0  0  0
 59 61  1  0  0  0
 59 62  1  0  0  0
 60130  1  0  0  0
 60131  1  0  0  0
 60132  1  0  0  0
 61133  1  0  0  0
 61134  1  0  0  0
 61135  1  0  0  0
 62136  1  0  0  0
 62137  1  0  0  0
 62138  1  0  0  0
 63 65  1  0  0  0
 63139  1  0  0  0
 63140  1  0  0  0
 63141  1  0  0  0
 64142  1  0  0  0
 65143  1  0  0  0
 68 82  1  0  0  0
 71 72  2  0  0  0
 71 74  1  0  0  0
 71144  1  0  0  0
 72 76  1  0  0  0
 72145  1  0  0  0
 73 74  2  0  0  0
 73 75  1  0  0  0
 73146  1  0  0  0
 74 80  1  0  0  0
 75 76  2  0  0  0
 75 77  1  0  0  0
 76 83  1  0  0  0
 77147  1  0  0  0
 77148  1  0  0  0
 77149  1  0  0  0
 78 83  1  0  0  0
 78150  1  0  0  0
 78151  1  0  0  0
 78152  1  0  0  0
 79 84  1  0  0  0
 79153  1  0  0  0
 79154  1  0  0  0
 79155  1  0  0  0
 80 84  1  0  0  0
 80156  1  0  0  0
 80157  1  0  0  0
 81 82  1  0  0  0
 81 83  1  0  0  0
 81158  1  0  0  0
 81159  1  0  0  0
 82160  1  0  0  0
 82161  1  0  0  0
M  ISO  4   1 100  68 101  82 101  84 100
M  END
> <chiral flag>
0

> <version>
0

> <s_m_source_file>
/data/baiqing/PycharmProjects/Reinvent-master-3.2/result/LINK_invent/BTK/process_docking_weight1_custom_product_contain_oxygen_bond_distance_aromatic_linkinvent_7_9_3/rearranged_h_0022.sdf

> <i_m_source_file_index>
36

> <r_mmod_Potential_Energy-OPLS-2005>
253.662857055664

> <r_mmod_Stretch_Energy-OPLS-2005>
95.2290954589844

> <r_mmod_Bend_Energy-OPLS-2005>
186.348251342773

> <r_mmod_Torsional_Energy-OPLS-2005>
289.415313720703

> <r_mmod_Improper_Torsional_Energy-OPLS-2005>
6.71953153610229

> <r_mmod_Van_der_Waal_Energy-OPLS-2005>
147.236053466797

> <r_mmod_Electrostatic_Energy-OPLS-2005>
-319.552795410156

> <r_mmod_Solvation_Energy-OPLS-2005>
-206.986358642578

> <b_mmod_Minimization_Converged-OPLS-2005>
0

> <r_mmod_RMS_Derivative-OPLS-2005>
1.36861276626587

$$$$
37
                    3D
 Structure written by MMmdl.
152161  0  0  1  0            999 V2000
  -30.5831  -14.7404   20.4505 C   0  0  0  0  0  0
  -30.4431  -12.4463   19.4709 C   0  0  0  0  0  0
  -29.5137  -12.5056   18.2369 C   0  0  0  0  0  0
  -28.0386  -12.3310   18.6501 C   0  0  0  0  0  0
  -27.6469  -13.2248   19.8558 C   0  0  2  0  0  0
  -28.6923  -13.1347   20.9897 C   0  0  0  0  0  0
  -25.2542  -13.8182   20.5706 C   0  0  0  0  0  0
  -24.1823  -13.0437   20.9221 C   0  0  0  0  0  0
  -24.6403  -11.6907   20.8765 C   0  0  0  0  0  0
  -23.9068  -10.4285   21.0421 C   0  0  0  0  0  0
  -24.3617   -9.4199   21.9198 C   0  0  0  0  0  0
  -23.6293   -8.2233   22.0758 C   0  0  0  0  0  0
  -22.4274   -8.0277   21.3546 C   0  0  0  0  0  0
  -21.9910   -9.0251   20.4647 C   0  0  0  0  0  0
  -22.7240  -10.2133   20.3067 C   0  0  0  0  0  0
  -21.6846   -6.0735   22.5280 C   0  0  0  0  0  0
  -21.4005   -6.5643   23.8212 C   0  0  0  0  0  0
  -21.3664   -5.6799   24.9179 C   0  0  0  0  0  0
  -21.6046   -4.3059   24.7230 C   0  0  0  0  0  0
  -21.8819   -3.8150   23.4351 C   0  0  0  0  0  0
  -21.9190   -4.6964   22.3407 C   0  0  0  0  0  0
  -22.7843  -13.5221   21.1881 C   0  0  0  0  0  0
  -22.1662   -4.2148   21.0984 F   0  0  0  0  0  0
  -21.5633   -3.4546   25.7745 F   0  0  0  0  0  0
  -29.9971  -13.4950   20.4152 N   0  0  0  0  0  0
  -26.2960  -12.9373   20.3297 N   0  0  0  0  0  0
  -25.9331  -11.6522   20.5776 N   0  0  0  0  0  0
  -22.0483  -12.8203   22.0429 N   0  0  0  0  0  0
  -25.4249  -15.1905   20.4117 N   0  0  0  0  0  0
  -31.7618  -14.8796   20.1083 O   0  0  0  0  0  0
  -21.6634   -6.8878   21.4240 O   0  0  0  0  0  0
  -22.3528  -14.5526   20.6729 O   0  0  0  0  0  0
  -24.6316  -31.8534   23.1977 C   0  0  0  0  0  0
  -25.9144  -32.4738   23.8325 C   0  0  1  0  0  0
  -27.2225  -27.2646   20.1298 C   0  0  0  0  0  0
  -25.5939  -33.8539   24.2245 N   0  0  0  0  0  0
  -23.4285  -30.4757   21.5411 C   0  0  2  0  0  0
  -24.8763  -28.9205   20.1104 C   0  0  0  0  0  0
  -22.7508  -29.4598   22.4918 C   0  0  0  0  0  0
  -18.0294  -28.1386   22.8477 C   0  0  0  0  0  0
  -24.1494  -36.7276   23.2644 C   0  0  0  0  0  0
  -25.9746  -30.7663   21.3782 C   0  0  0  0  0  0
  -26.0476  -29.3900   20.7185 C   0  0  0  0  0  0
  -27.2254  -28.5762   20.7130 C   0  0  0  0  0  0
  -26.0305  -26.8615   19.4898 C   0  0  0  0  0  0
  -24.8723  -27.6640   19.4847 C   0  0  0  0  0  0
  -23.6466  -29.8068   20.1578 C   0  0  0  0  0  0
  -25.4122  -36.3054   24.0324 C   0  0  1  0  0  0
  -20.5897  -28.3696   23.1262 C   0  0  2  0  0  0
  -20.6781  -26.9413   22.5406 C   0  0  0  0  0  0
  -19.5759  -26.6382   21.5207 C   0  0  0  0  0  0
  -18.1940  -26.7926   22.1620 C   0  0  0  0  0  0
  -19.1547  -28.8861   23.2862 C   0  0  0  0  0  0
  -18.9468  -30.1464   23.8875 C   0  0  0  0  0  0
  -17.6464  -30.6584   24.0560 C   0  0  0  0  0  0
  -25.9057  -34.9426   23.5088 C   0  0  0  0  0  0
  -16.5355  -29.9077   23.6335 C   0  0  0  0  0  0
  -16.7280  -28.6500   23.0346 C   0  0  0  0  0  0
  -26.4505  -31.6567   25.0723 C   0  0  0  0  0  0
  -25.3725  -31.3723   26.1446 C   0  0  0  0  0  0
  -27.0365  -30.2981   24.6232 C   0  0  0  0  0  0
  -27.6053  -32.4317   25.7501 C   0  0  0  0  0  0
  -27.5572  -37.1806   24.8470 C   0  0  0  0  0  0
  -21.4216  -29.3039   22.3657 N   0  0  0  0  0  0
  -26.4293  -37.3753   23.9397 N   0  0  0  0  0  0
  -24.6973  -31.0504   22.0952 N   0  0  0  0  0  0
  -23.4206  -28.8150   23.3026 O   0  0  0  0  0  0
  -28.3134  -26.3684   20.1820 O   0  0  0  0  0  0
  -26.5629  -34.8902   22.4657 O   0  0  0  0  0  0
  -23.5469  -32.1357   23.7275 O   0  0  0  0  0  0
  -28.7004  -19.5598   20.6239 C   0  0  0  0  0  0
  -28.7194  -18.1337   20.8326 C   0  0  0  0  0  0
  -30.9279  -17.9897   19.9360 C   0  0  0  0  0  0
  -29.8050  -20.2519   20.0565 C   0  0  0  0  0  0
  -29.8261  -17.2887   20.4954 C   0  0  0  0  0  0
  -30.9129  -19.4085   19.7262 C   0  0  0  0  0  0
  -28.3615  -23.9090   19.2408 C   0  0  0  0  0  0
  -29.0334  -23.9948   21.1745 C   0  0  0  0  0  0
  -28.0234  -24.9042   20.4091 C   0  0  1  0  0  0
  -29.9085  -21.8080   19.6958 C   0  0  0  0  0  0
  -28.9993  -22.9768   20.0722 N   0  0  0  0  0  0
  -29.7472  -15.8161   20.7114 N   0  0  0  0  0  0
  -28.1986  -23.8984   18.0368 O   0  0  0  0  0  0
  -32.0091  -19.9749   19.1671 F   0  0  0  0  0  0
  -31.4825  -12.5812   19.1657 H   0  0  0  0  0  0
  -30.3969  -11.4651   19.9457 H   0  0  0  0  0  0
  -29.7936  -11.7343   17.5173 H   0  0  0  0  0  0
  -29.6404  -13.4616   17.7267 H   0  0  0  0  0  0
  -27.8942  -11.2819   18.9108 H   0  0  0  0  0  0
  -27.3801  -12.5280   17.8032 H   0  0  0  0  0  0
  -27.6469  -14.2492   19.4833 H   0  0  0  0  0  0
  -28.7245  -12.1274   21.4078 H   0  0  0  0  0  0
  -28.4257  -13.7954   21.8161 H   0  0  0  0  0  0
  -25.2762   -9.5671   22.4775 H   0  0  0  0  0  0
  -24.0002   -7.4620   22.7474 H   0  0  0  0  0  0
  -21.0848   -8.8782   19.8946 H   0  0  0  0  0  0
  -22.3713  -10.9681   19.6180 H   0  0  0  0  0  0
  -21.1987   -7.6148   23.9716 H   0  0  0  0  0  0
  -21.1491   -6.0529   25.9083 H   0  0  0  0  0  0
  -22.0592   -2.7610   23.2855 H   0  0  0  0  0  0
  -22.4096  -11.9854   22.4800 H   0  0  0  0  0  0
  -21.1105  -13.1234   22.2653 H   0  0  0  0  0  0
  -24.6521  -15.8399   20.5101 H   0  0  0  0  0  0
  -26.2603  -15.6241   20.0405 H   0  0  0  0  0  0
  -26.7216  -32.5384   23.1071 H   0  0  0  0  0  0
  -25.0088  -33.9670   25.0392 H   0  0  0  0  0  0
  -22.7255  -31.2989   21.3949 H   0  0  0  0  0  0
  -23.3739  -35.9626   23.3319 H   0  0  0  0  0  0
  -24.3578  -36.8887   22.2054 H   0  0  0  0  0  0
  -23.7271  -37.6493   23.6661 H   0  0  0  0  0  0
  -26.1179  -31.5292   20.6115 H   0  0  0  0  0  0
  -26.8496  -30.8108   22.0158 H   0  0  0  0  0  0
  -28.1220  -28.9293   21.2025 H   0  0  0  0  0  0
  -25.9762  -25.9004   18.9993 H   0  0  0  0  0  0
  -23.9761  -27.2994   19.0013 H   0  0  0  0  0  0
  -23.7698  -30.5819   19.4002 H   0  0  0  0  0  0
  -22.7650  -29.2386   19.8538 H   0  0  0  0  0  0
  -25.1311  -36.1900   25.0817 H   0  0  0  0  0  0
  -20.9978  -28.3269   24.1385 H   0  0  0  0  0  0
  -20.5671  -26.2305   23.3609 H   0  0  0  0  0  0
  -21.6650  -26.7433   22.1206 H   0  0  0  0  0  0
  -19.6919  -25.6289   21.1245 H   0  0  0  0  0  0
  -19.6697  -27.3182   20.6728 H   0  0  0  0  0  0
  -17.4208  -26.6663   21.4026 H   0  0  0  0  0  0
  -18.0350  -26.0072   22.9022 H   0  0  0  0  0  0
  -19.7946  -30.7294   24.2221 H   0  0  0  0  0  0
  -17.5018  -31.6259   24.5170 H   0  0  0  0  0  0
  -15.5354  -30.2968   23.7675 H   0  0  0  0  0  0
  -15.8684  -28.0816   22.7055 H   0  0  0  0  0  0
  -24.5902  -30.7068   25.7779 H   0  0  0  0  0  0
  -24.8915  -32.2893   26.4859 H   0  0  0  0  0  0
  -25.8041  -30.8913   27.0233 H   0  0  0  0  0  0
  -26.2962  -29.6723   24.1240 H   0  0  0  0  0  0
  -27.4020  -29.7257   25.4768 H   0  0  0  0  0  0
  -27.8848  -30.4253   23.9504 H   0  0  0  0  0  0
  -27.2649  -33.3620   26.2063 H   0  0  0  0  0  0
  -28.3869  -32.6876   25.0333 H   0  0  0  0  0  0
  -28.0715  -31.8455   26.5433 H   0  0  0  0  0  0
  -28.2614  -38.0077   24.7467 H   0  0  0  0  0  0
  -28.1047  -36.2606   24.6363 H   0  0  0  0  0  0
  -27.2284  -37.1531   25.8875 H   0  0  0  0  0  0
  -20.9410  -29.8750   21.6848 H   0  0  0  0  0  0
  -26.0170  -38.2835   24.1357 H   0  0  0  0  0  0
  -27.8158  -20.1200   20.8906 H   0  0  0  0  0  0
  -27.8357  -17.6811   21.2613 H   0  0  0  0  0  0
  -31.8117  -17.4433   19.6418 H   0  0  0  0  0  0
  -28.6490  -23.6322   22.1298 H   0  0  0  0  0  0
  -30.0115  -24.4604   21.3096 H   0  0  0  0  0  0
  -27.0230  -24.7522   20.8162 H   0  0  0  0  0  0
  -29.9778  -21.8258   18.6065 H   0  0  0  0  0  0
  -30.9015  -22.1157   20.0265 H   0  0  0  0  0  0
  -28.8422  -15.5033   21.0282 H   0  0  0  0  0  0
  1 25  1  0  0  0
  1 30  2  0  0  0
  1 82  1  0  0  0
  2  3  1  0  0  0
  2 25  1  0  0  0
  2 85  1  0  0  0
  2 86  1  0  0  0
  3  4  1  0  0  0
  3 87  1  0  0  0
  3 88  1  0  0  0
  4  5  1  0  0  0
  4 89  1  0  0  0
  4 90  1  0  0  0
  5  6  1  0  0  0
  5 26  1  0  0  0
  5 91  1  0  0  0
  6 25  1  0  0  0
  6 92  1  0  0  0
  6 93  1  0  0  0
  7  8  2  0  0  0
  7 26  1  0  0  0
  7 29  1  0  0  0
  8  9  1  0  0  0
  8 22  1  0  0  0
  9 10  1  0  0  0
  9 27  2  0  0  0
 10 11  2  0  0  0
 10 15  1  0  0  0
 11 12  1  0  0  0
 11 94  1  0  0  0
 12 13  2  0  0  0
 12 95  1  0  0  0
 13 14  1  0  0  0
 13 31  1  0  0  0
 14 15  2  0  0  0
 14 96  1  0  0  0
 15 97  1  0  0  0
 16 17  2  0  0  0
 16 21  1  0  0  0
 16 31  1  0  0  0
 17 18  1  0  0  0
 17 98  1  0  0  0
 18 19  2  0  0  0
 18 99  1  0  0  0
 19 20  1  0  0  0
 19 24  1  0  0  0
 20 21  2  0  0  0
 20100  1  0  0  0
 21 23  1  0  0  0
 22 28  1  0  0  0
 22 32  2  0  0  0
 26 27  1  0  0  0
 28101  1  0  0  0
 28102  1  0  0  0
 29103  1  0  0  0
 29104  1  0  0  0
 33 34  1  0  0  0
 33 66  1  0  0  0
 33 70  2  0  0  0
 34 36  1  0  0  0
 34 59  1  0  0  0
 34105  1  0  0  0
 35 44  2  0  0  0
 35 45  1  0  0  0
 35 68  1  0  0  0
 36 56  1  0  0  0
 36106  1  0  0  0
 37 39  1  0  0  0
 37 47  1  0  0  0
 37 66  1  0  0  0
 37107  1  0  0  0
 38 43  2  0  0  0
 38 46  1  0  0  0
 38 47  1  0  0  0
 39 64  1  0  0  0
 39 67  2  0  0  0
 40 52  1  0  0  0
 40 53  2  0  0  0
 40 58  1  0  0  0
 41108  1  0  0  0
 41109  1  0  0  0
 41110  1  0  0  0
 41 48  1  0  0  0
 42 43  1  0  0  0
 42 66  1  0  0  0
 42111  1  0  0  0
 42112  1  0  0  0
 43 44  1  0  0  0
 44113  1  0  0  0
 45 46  2  0  0  0
 45114  1  0  0  0
 46115  1  0  0  0
 47116  1  0  0  0
 47117  1  0  0  0
 48 56  1  0  0  0
 48 65  1  0  0  0
 48118  1  0  0  0
 49 50  1  0  0  0
 49 53  1  0  0  0
 49 64  1  0  0  0
 49119  1  0  0  0
 50 51  1  0  0  0
 50120  1  0  0  0
 50121  1  0  0  0
 51 52  1  0  0  0
 51122  1  0  0  0
 51123  1  0  0  0
 52124  1  0  0  0
 52125  1  0  0  0
 53 54  1  0  0  0
 54 55  2  0  0  0
 54126  1  0  0  0
 55 57  1  0  0  0
 55127  1  0  0  0
 56 69  2  0  0  0
 57 58  2  0  0  0
 57128  1  0  0  0
 58129  1  0  0  0
 59 60  1  0  0  0
 59 61  1  0  0  0
 59 62  1  0  0  0
 60130  1  0  0  0
 60131  1  0  0  0
 60132  1  0  0  0
 61133  1  0  0  0
 61134  1  0  0  0
 61135  1  0  0  0
 62136  1  0  0  0
 62137  1  0  0  0
 62138  1  0  0  0
 63 65  1  0  0  0
 63139  1  0  0  0
 63140  1  0  0  0
 63141  1  0  0  0
 64142  1  0  0  0
 65143  1  0  0  0
 68 79  1  0  0  0
 71 72  2  0  0  0
 71 74  1  0  0  0
 71144  1  0  0  0
 72 75  1  0  0  0
 72145  1  0  0  0
 73 75  2  0  0  0
 73 76  1  0  0  0
 73146  1  0  0  0
 74 76  2  0  0  0
 74 80  1  0  0  0
 75 82  1  0  0  0
 76 84  1  0  0  0
 77 79  1  0  0  0
 77 81  1  0  0  0
 77 83  2  0  0  0
 78 79  1  0  0  0
 78 81  1  0  0  0
 78147  1  0  0  0
 78148  1  0  0  0
 79149  1  0  0  0
 80 81  1  0  0  0
 80150  1  0  0  0
 80151  1  0  0  0
 82152  1  0  0  0
M  ISO  4   1 100  68 101  79 101  82 100
M  END
> <chiral flag>
0

> <version>
0

> <s_m_source_file>
/data/baiqing/PycharmProjects/Reinvent-master-3.2/result/LINK_invent/BTK/process_docking_weight1_custom_product_contain_oxygen_bond_distance_aromatic_linkinvent_7_9_3/rearranged_h_0022.sdf

> <i_m_source_file_index>
37

> <r_mmod_Potential_Energy-OPLS-2005>
178.666427612305

> <r_mmod_Stretch_Energy-OPLS-2005>
110.205055236816

> <r_mmod_Bend_Energy-OPLS-2005>
190.903625488281

> <r_mmod_Torsional_Energy-OPLS-2005>
232.662841796875

> <r_mmod_Improper_Torsional_Energy-OPLS-2005>
6.26124382019043

> <r_mmod_Van_der_Waal_Energy-OPLS-2005>
132.702011108398

> <r_mmod_Electrostatic_Energy-OPLS-2005>
-344.664978027344

> <r_mmod_Solvation_Energy-OPLS-2005>
-233.244079589844

> <b_mmod_Minimization_Converged-OPLS-2005>
0

> <r_mmod_RMS_Derivative-OPLS-2005>
1.42149615287781

$$$$
38
                    3D
 Structure written by MMmdl.
158166  0  0  1  0            999 V2000
  -30.6280  -14.7054   20.5771 C   0  0  0  0  0  0
  -30.4379  -12.4622   19.4658 C   0  0  0  0  0  0
  -29.5112  -12.5305   18.2310 C   0  0  0  0  0  0
  -28.0290  -12.3563   18.6287 C   0  0  0  0  0  0
  -27.6416  -13.2235   19.8529 C   0  0  2  0  0  0
  -28.6808  -13.0717   20.9778 C   0  0  0  0  0  0
  -25.2504  -13.8175   20.5662 C   0  0  0  0  0  0
  -24.1792  -13.0423   20.9195 C   0  0  0  0  0  0
  -24.6379  -11.6892   20.8722 C   0  0  0  0  0  0
  -23.9059  -10.4280   21.0398 C   0  0  0  0  0  0
  -24.3608   -9.4203   21.9177 C   0  0  0  0  0  0
  -23.6306   -8.2235   22.0735 C   0  0  0  0  0  0
  -22.4280   -8.0276   21.3553 C   0  0  0  0  0  0
  -21.9910   -9.0240   20.4635 C   0  0  0  0  0  0
  -22.7229  -10.2127   20.3042 C   0  0  0  0  0  0
  -21.6837   -6.0755   22.5301 C   0  0  0  0  0  0
  -21.4011   -6.5652   23.8239 C   0  0  0  0  0  0
  -21.3657   -5.6800   24.9205 C   0  0  0  0  0  0
  -21.6037   -4.3057   24.7239 C   0  0  0  0  0  0
  -21.8819   -3.8164   23.4358 C   0  0  0  0  0  0
  -21.9181   -4.6994   22.3415 C   0  0  0  0  0  0
  -22.7823  -13.5226   21.1882 C   0  0  0  0  0  0
  -22.1636   -4.2183   21.1001 F   0  0  0  0  0  0
  -21.5625   -3.4533   25.7749 F   0  0  0  0  0  0
  -29.9870  -13.4869   20.4403 N   0  0  0  0  0  0
  -26.2906  -12.9346   20.3238 N   0  0  0  0  0  0
  -25.9298  -11.6496   20.5715 N   0  0  0  0  0  0
  -22.0472  -12.8224   22.0440 N   0  0  0  0  0  0
  -25.4226  -15.1902   20.4103 N   0  0  0  0  0  0
  -31.7609  -14.8434   20.1036 O   0  0  0  0  0  0
  -21.6634   -6.8893   21.4262 O   0  0  0  0  0  0
  -22.3496  -14.5517   20.6713 O   0  0  0  0  0  0
  -24.6284  -31.8579   23.2034 C   0  0  0  0  0  0
  -25.9119  -32.4782   23.8357 C   0  0  1  0  0  0
  -27.2075  -27.2768   20.1080 C   0  0  0  0  0  0
  -25.5921  -33.8587   24.2272 N   0  0  0  0  0  0
  -23.4209  -30.4849   21.5482 C   0  0  2  0  0  0
  -24.8643  -28.9393   20.1055 C   0  0  0  0  0  0
  -22.7473  -29.4625   22.4944 C   0  0  0  0  0  0
  -18.0283  -28.1390   22.8493 C   0  0  0  0  0  0
  -24.1480  -36.7285   23.2638 C   0  0  0  0  0  0
  -25.9677  -30.7728   21.3809 C   0  0  0  0  0  0
  -26.0373  -29.3997   20.7162 C   0  0  0  0  0  0
  -27.2106  -28.5795   20.7106 C   0  0  0  0  0  0
  -26.0139  -26.8959   19.4483 C   0  0  0  0  0  0
  -24.8552  -27.6930   19.4644 C   0  0  0  0  0  0
  -23.6356  -29.8268   20.1610 C   0  0  0  0  0  0
  -25.4109  -36.3084   24.0318 C   0  0  1  0  0  0
  -20.5881  -28.3689   23.1287 C   0  0  2  0  0  0
  -20.6778  -26.9414   22.5423 C   0  0  0  0  0  0
  -19.5768  -26.6373   21.5218 C   0  0  0  0  0  0
  -18.1936  -26.7926   22.1619 C   0  0  0  0  0  0
  -19.1537  -28.8863   23.2882 C   0  0  0  0  0  0
  -18.9457  -30.1462   23.8889 C   0  0  0  0  0  0
  -17.6463  -30.6593   24.0561 C   0  0  0  0  0  0
  -25.9053  -34.9458   23.5100 C   0  0  0  0  0  0
  -16.5351  -29.9085   23.6348 C   0  0  0  0  0  0
  -16.7266  -28.6508   23.0354 C   0  0  0  0  0  0
  -26.4493  -31.6603   25.0740 C   0  0  0  0  0  0
  -25.3717  -31.3724   26.1455 C   0  0  0  0  0  0
  -27.0336  -30.3027   24.6207 C   0  0  0  0  0  0
  -27.6068  -32.4328   25.7492 C   0  0  0  0  0  0
  -27.5573  -37.1802   24.8466 C   0  0  0  0  0  0
  -21.4191  -29.3027   22.3675 N   0  0  0  0  0  0
  -26.4286  -37.3780   23.9398 N   0  0  0  0  0  0
  -24.6914  -31.0536   22.1018 N   0  0  0  0  0  0
  -23.4188  -28.8160   23.3029 O   0  0  0  0  0  0
  -28.2956  -26.3731   20.1830 O   0  0  0  0  0  0
  -26.5631  -34.8924   22.4670 O   0  0  0  0  0  0
  -23.5450  -32.1401   23.7353 O   0  0  0  0  0  0
  -28.7816  -19.3666   18.8475 C   0  0  0  0  0  0
  -29.1483  -16.9525   19.0879 C   0  0  0  0  0  0
  -29.7860  -18.4805   20.8819 C   0  0  0  0  0  0
  -29.3233  -19.6414   20.1214 C   0  0  0  0  0  0
  -29.6721  -17.0956   20.3924 C   0  0  0  0  0  0
  -28.7158  -18.0581   18.3337 C   0  0  0  0  0  0
  -30.4548  -18.7790   22.2168 C   0  0  0  0  0  0
  -29.5576  -15.7073   22.5280 C   0  0  0  0  0  0
  -28.9760  -23.7199   20.4713 C   0  0  0  0  0  0
  -28.7421  -22.2187   19.8983 C   0  0  0  0  0  0
  -28.0596  -24.9147   19.8929 C   0  0  0  0  0  0
  -29.4010  -21.0255   20.5687 N   0  0  0  0  0  0
  -29.9564  -15.8123   21.1124 N   0  0  0  0  0  0
  -28.0777  -17.7910   16.7531 Cl  0  0  0  0  0  0
  -31.4763  -12.6059   19.1612 H   0  0  0  0  0  0
  -30.4078  -11.4677   19.9158 H   0  0  0  0  0  0
  -29.7928  -11.7639   17.5078 H   0  0  0  0  0  0
  -29.6469  -13.4921   17.7296 H   0  0  0  0  0  0
  -27.8663  -11.3022   18.8595 H   0  0  0  0  0  0
  -27.3811  -12.5834   17.7803 H   0  0  0  0  0  0
  -27.6544  -14.2611   19.5193 H   0  0  0  0  0  0
  -28.7285  -12.0313   21.3037 H   0  0  0  0  0  0
  -28.3651  -13.6210   21.8550 H   0  0  0  0  0  0
  -25.2745   -9.5679   22.4779 H   0  0  0  0  0  0
  -24.0011   -7.4627   22.7453 H   0  0  0  0  0  0
  -21.0830   -8.8750   19.8960 H   0  0  0  0  0  0
  -22.3671  -10.9665   19.6155 H   0  0  0  0  0  0
  -21.1996   -7.6158   23.9755 H   0  0  0  0  0  0
  -21.1476   -6.0537   25.9122 H   0  0  0  0  0  0
  -22.0590   -2.7629   23.2862 H   0  0  0  0  0  0
  -22.4033  -11.9872   22.4838 H   0  0  0  0  0  0
  -21.1095  -13.1292   22.2640 H   0  0  0  0  0  0
  -24.6568  -15.8467   20.5195 H   0  0  0  0  0  0
  -26.2867  -15.6308   20.1177 H   0  0  0  0  0  0
  -26.7184  -32.5428   23.1093 H   0  0  0  0  0  0
  -25.0060  -33.9747   25.0411 H   0  0  0  0  0  0
  -22.7171  -31.3085   21.4107 H   0  0  0  0  0  0
  -23.3762  -35.9608   23.3318 H   0  0  0  0  0  0
  -24.3576  -36.8897   22.2055 H   0  0  0  0  0  0
  -23.7217  -37.6476   23.6666 H   0  0  0  0  0  0
  -26.1048  -31.5405   20.6175 H   0  0  0  0  0  0
  -26.8473  -30.8185   22.0119 H   0  0  0  0  0  0
  -28.1065  -28.9209   21.2081 H   0  0  0  0  0  0
  -25.9340  -25.9597   18.9173 H   0  0  0  0  0  0
  -23.9550  -27.3420   18.9776 H   0  0  0  0  0  0
  -23.7589  -30.6111   19.4120 H   0  0  0  0  0  0
  -22.7511  -29.2658   19.8549 H   0  0  0  0  0  0
  -25.1299  -36.1933   25.0814 H   0  0  0  0  0  0
  -20.9969  -28.3250   24.1403 H   0  0  0  0  0  0
  -20.5674  -26.2289   23.3610 H   0  0  0  0  0  0
  -21.6646  -26.7443   22.1215 H   0  0  0  0  0  0
  -19.6920  -25.6273   21.1262 H   0  0  0  0  0  0
  -19.6703  -27.3183   20.6750 H   0  0  0  0  0  0
  -17.4196  -26.6680   21.4014 H   0  0  0  0  0  0
  -18.0334  -26.0062   22.9018 H   0  0  0  0  0  0
  -19.7932  -30.7293   24.2233 H   0  0  0  0  0  0
  -17.5009  -31.6276   24.5163 H   0  0  0  0  0  0
  -15.5353  -30.2983   23.7678 H   0  0  0  0  0  0
  -15.8660  -28.0828   22.7063 H   0  0  0  0  0  0
  -24.5886  -30.7088   25.7750 H   0  0  0  0  0  0
  -24.8909  -32.2883   26.4903 H   0  0  0  0  0  0
  -25.8021  -30.8856   27.0214 H   0  0  0  0  0  0
  -26.2905  -29.6773   24.1231 H   0  0  0  0  0  0
  -27.4023  -29.7289   25.4721 H   0  0  0  0  0  0
  -27.8797  -30.4314   23.9452 H   0  0  0  0  0  0
  -27.2710  -33.3646   26.2048 H   0  0  0  0  0  0
  -28.3874  -32.6842   25.0304 H   0  0  0  0  0  0
  -28.0735  -31.8448   26.5401 H   0  0  0  0  0  0
  -28.2611  -38.0093   24.7524 H   0  0  0  0  0  0
  -28.1060  -36.2619   24.6288 H   0  0  0  0  0  0
  -27.2303  -37.1450   25.8880 H   0  0  0  0  0  0
  -20.9351  -29.8729   21.6882 H   0  0  0  0  0  0
  -26.0173  -38.2850   24.1430 H   0  0  0  0  0  0
  -28.4247  -20.1668   18.2177 H   0  0  0  0  0  0
  -29.0321  -15.9759   18.6425 H   0  0  0  0  0  0
  -30.9791  -19.7336   22.1930 H   0  0  0  0  0  0
  -31.2142  -18.0389   22.4600 H   0  0  0  0  0  0
  -29.7097  -18.8241   23.0120 H   0  0  0  0  0  0
  -29.9437  -14.8027   22.9992 H   0  0  0  0  0  0
  -29.9084  -16.5104   23.1608 H   0  0  0  0  0  0
  -28.4704  -15.6873   22.6133 H   0  0  0  0  0  0
  -30.0180  -23.9904   20.3096 H   0  0  0  0  0  0
  -28.8351  -23.7057   21.5518 H   0  0  0  0  0  0
  -29.0557  -22.2259   18.8530 H   0  0  0  0  0  0
  -27.6690  -22.0291   19.8761 H   0  0  0  0  0  0
  -27.0589  -24.6613   20.2439 H   0  0  0  0  0  0
  -28.0249  -24.8041   18.8077 H   0  0  0  0  0  0
  -29.8896  -21.2047   21.4425 H   0  0  0  0  0  0
  1 25  1  0  0  0
  1 30  2  0  0  0
  1 83  1  0  0  0
  2  3  1  0  0  0
  2 25  1  0  0  0
  2 85  1  0  0  0
  2 86  1  0  0  0
  3  4  1  0  0  0
  3 87  1  0  0  0
  3 88  1  0  0  0
  4  5  1  0  0  0
  4 89  1  0  0  0
  4 90  1  0  0  0
  5  6  1  0  0  0
  5 26  1  0  0  0
  5 91  1  0  0  0
  6 25  1  0  0  0
  6 92  1  0  0  0
  6 93  1  0  0  0
  7  8  2  0  0  0
  7 26  1  0  0  0
  7 29  1  0  0  0
  8  9  1  0  0  0
  8 22  1  0  0  0
  9 10  1  0  0  0
  9 27  2  0  0  0
 10 11  2  0  0  0
 10 15  1  0  0  0
 11 12  1  0  0  0
 11 94  1  0  0  0
 12 13  2  0  0  0
 12 95  1  0  0  0
 13 14  1  0  0  0
 13 31  1  0  0  0
 14 15  2  0  0  0
 14 96  1  0  0  0
 15 97  1  0  0  0
 16 17  2  0  0  0
 16 21  1  0  0  0
 16 31  1  0  0  0
 17 18  1  0  0  0
 17 98  1  0  0  0
 18 19  2  0  0  0
 18 99  1  0  0  0
 19 20  1  0  0  0
 19 24  1  0  0  0
 20 21  2  0  0  0
 20100  1  0  0  0
 21 23  1  0  0  0
 22 28  1  0  0  0
 22 32  2  0  0  0
 26 27  1  0  0  0
 28101  1  0  0  0
 28102  1  0  0  0
 29103  1  0  0  0
 29104  1  0  0  0
 33 34  1  0  0  0
 33 66  1  0  0  0
 33 70  2  0  0  0
 34 36  1  0  0  0
 34 59  1  0  0  0
 34105  1  0  0  0
 35 44  2  0  0  0
 35 45  1  0  0  0
 35 68  1  0  0  0
 36 56  1  0  0  0
 36106  1  0  0  0
 37 39  1  0  0  0
 37 47  1  0  0  0
 37 66  1  0  0  0
 37107  1  0  0  0
 38 43  2  0  0  0
 38 46  1  0  0  0
 38 47  1  0  0  0
 39 64  1  0  0  0
 39 67  2  0  0  0
 40 52  1  0  0  0
 40 53  2  0  0  0
 40 58  1  0  0  0
 41108  1  0  0  0
 41109  1  0  0  0
 41110  1  0  0  0
 41 48  1  0  0  0
 42 43  1  0  0  0
 42 66  1  0  0  0
 42111  1  0  0  0
 42112  1  0  0  0
 43 44  1  0  0  0
 44113  1  0  0  0
 45 46  2  0  0  0
 45114  1  0  0  0
 46115  1  0  0  0
 47116  1  0  0  0
 47117  1  0  0  0
 48 56  1  0  0  0
 48 65  1  0  0  0
 48118  1  0  0  0
 49 50  1  0  0  0
 49 53  1  0  0  0
 49 64  1  0  0  0
 49119  1  0  0  0
 50 51  1  0  0  0
 50120  1  0  0  0
 50121  1  0  0  0
 51 52  1  0  0  0
 51122  1  0  0  0
 51123  1  0  0  0
 52124  1  0  0  0
 52125  1  0  0  0
 53 54  1  0  0  0
 54 55  2  0  0  0
 54126  1  0  0  0
 55 57  1  0  0  0
 55127  1  0  0  0
 56 69  2  0  0  0
 57 58  2  0  0  0
 57128  1  0  0  0
 58129  1  0  0  0
 59 60  1  0  0  0
 59 61  1  0  0  0
 59 62  1  0  0  0
 60130  1  0  0  0
 60131  1  0  0  0
 60132  1  0  0  0
 61133  1  0  0  0
 61134  1  0  0  0
 61135  1  0  0  0
 62136  1  0  0  0
 62137  1  0  0  0
 62138  1  0  0  0
 63 65  1  0  0  0
 63139  1  0  0  0
 63140  1  0  0  0
 63141  1  0  0  0
 64142  1  0  0  0
 65143  1  0  0  0
 68 81  1  0  0  0
 71 74  2  0  0  0
 71 76  1  0  0  0
 71144  1  0  0  0
 72 75  1  0  0  0
 72 76  2  0  0  0
 72145  1  0  0  0
 73 74  1  0  0  0
 73 75  2  0  0  0
 73 77  1  0  0  0
 74 82  1  0  0  0
 75 83  1  0  0  0
 76 84  1  0  0  0
 77146  1  0  0  0
 77147  1  0  0  0
 77148  1  0  0  0
 78 83  1  0  0  0
 78149  1  0  0  0
 78150  1  0  0  0
 78151  1  0  0  0
 79 80  1  0  0  0
 79 81  1  0  0  0
 79152  1  0  0  0
 79153  1  0  0  0
 80 82  1  0  0  0
 80154  1  0  0  0
 80155  1  0  0  0
 81156  1  0  0  0
 81157  1  0  0  0
 82158  1  0  0  0
M  ISO  4   1 100  68 101  81 101  83 100
M  END
> <chiral flag>
0

> <version>
0

> <s_m_source_file>
/data/baiqing/PycharmProjects/Reinvent-master-3.2/result/LINK_invent/BTK/process_docking_weight1_custom_product_contain_oxygen_bond_distance_aromatic_linkinvent_7_9_3/rearranged_h_0022.sdf

> <i_m_source_file_index>
38

> <r_mmod_Potential_Energy-OPLS-2005>
333.571960449219

> <r_mmod_Stretch_Energy-OPLS-2005>
133.381652832031

> <r_mmod_Bend_Energy-OPLS-2005>
177.321029663086

> <r_mmod_Torsional_Energy-OPLS-2005>
282.078155517578

> <r_mmod_Improper_Torsional_Energy-OPLS-2005>
3.16106677055359

> <r_mmod_Van_der_Waal_Energy-OPLS-2005>
152.027221679688

> <r_mmod_Electrostatic_Energy-OPLS-2005>
-282.477416992188

> <r_mmod_Solvation_Energy-OPLS-2005>
-202.863830566406

> <b_mmod_Minimization_Converged-OPLS-2005>
0

> <r_mmod_RMS_Derivative-OPLS-2005>
3.85103249549866

$$$$
39
                    3D
 Structure written by MMmdl.
149158  0  0  1  0            999 V2000
  -30.1793  -16.1167   20.3040 C   0  0  0  0  0  0
  -30.3624  -13.4621   19.5146 C   0  0  0  0  0  0
  -29.5495  -12.7862   18.3601 C   0  0  0  0  0  0
  -28.1753  -12.3195   18.8449 C   0  0  0  0  0  0
  -27.5772  -13.3626   19.8068 C   0  0  2  0  0  0
  -28.5624  -13.9211   20.8790 C   0  0  0  0  0  0
  -25.2240  -13.8375   20.5903 C   0  0  0  0  0  0
  -24.1679  -13.0449   20.9335 C   0  0  0  0  0  0
  -24.6454  -11.6983   20.8771 C   0  0  0  0  0  0
  -23.9164  -10.4304   21.0377 C   0  0  0  0  0  0
  -24.3681   -9.4213   21.9167 C   0  0  0  0  0  0
  -23.6330   -8.2259   22.0750 C   0  0  0  0  0  0
  -22.4307   -8.0299   21.3544 C   0  0  0  0  0  0
  -21.9964   -9.0276   20.4640 C   0  0  0  0  0  0
  -22.7321  -10.2142   20.3037 C   0  0  0  0  0  0
  -21.6864   -6.0748   22.5278 C   0  0  0  0  0  0
  -21.4025   -6.5647   23.8213 C   0  0  0  0  0  0
  -21.3663   -5.6795   24.9171 C   0  0  0  0  0  0
  -21.6043   -4.3058   24.7220 C   0  0  0  0  0  0
  -21.8817   -3.8153   23.4339 C   0  0  0  0  0  0
  -21.9196   -4.6974   22.3398 C   0  0  0  0  0  0
  -22.7674  -13.5134   21.1937 C   0  0  0  0  0  0
  -22.1661   -4.2158   21.0976 F   0  0  0  0  0  0
  -21.5626   -3.4540   25.7732 F   0  0  0  0  0  0
  -29.6362  -14.6984   20.1654 N   0  0  0  0  0  0
  -26.2757  -12.9815   20.3367 N   0  0  0  0  0  0
  -25.9427  -11.6818   20.5705 N   0  0  0  0  0  0
  -22.0348  -12.8101   22.0484 N   0  0  0  0  0  0
  -25.3760  -15.2127   20.4353 N   0  0  0  0  0  0
  -31.4132  -15.8651   20.2398 O   0  0  0  0  0  0
  -21.6657   -6.8901   21.4244 O   0  0  0  0  0  0
  -22.3336  -14.5425   20.6763 O   0  0  0  0  0  0
  -24.7150  -31.7610   23.1238 C   0  0  0  0  0  0
  -25.9574  -32.4275   23.7906 C   0  0  1  0  0  0
  -27.2370  -26.3697   20.2421 C   0  0  0  0  0  0
  -25.6016  -33.8120   24.1760 N   0  0  0  0  0  0
  -23.5561  -30.3482   21.4857 C   0  0  2  0  0  0
  -25.0158  -28.6187   20.1270 C   0  0  0  0  0  0
  -22.7906  -29.4107   22.4620 C   0  0  0  0  0  0
  -18.0358  -28.1439   22.8439 C   0  0  0  0  0  0
  -24.1499  -36.7070   23.2662 C   0  0  0  0  0  0
  -26.1491  -30.3835   21.4382 C   0  0  0  0  0  0
  -26.2101  -28.9112   20.7943 C   0  0  0  0  0  0
  -27.2884  -27.8259   20.8092 C   0  0  0  0  0  0
  -26.0071  -26.3722   19.5097 C   0  0  0  0  0  0
  -24.9734  -27.3790   19.4592 C   0  0  0  0  0  0
  -23.8281  -29.6148   20.1354 C   0  0  0  0  0  0
  -25.4163  -36.2785   24.0257 C   0  0  1  0  0  0
  -20.6009  -28.3811   23.1083 C   0  0  2  0  0  0
  -20.6808  -26.9441   22.5409 C   0  0  0  0  0  0
  -19.5790  -26.6362   21.5221 C   0  0  0  0  0  0
  -18.1972  -26.7960   22.1616 C   0  0  0  0  0  0
  -19.1631  -28.8957   23.2733 C   0  0  0  0  0  0
  -18.9531  -30.1532   23.8793 C   0  0  0  0  0  0
  -17.6517  -30.6613   24.0544 C   0  0  0  0  0  0
  -25.9160  -34.9183   23.4872 C   0  0  0  0  0  0
  -16.5404  -29.9088   23.6359 C   0  0  0  0  0  0
  -16.7336  -28.6513   23.0374 C   0  0  0  0  0  0
  -26.4651  -31.6450   25.0663 C   0  0  0  0  0  0
  -25.3633  -31.3859   26.1218 C   0  0  0  0  0  0
  -27.0634  -30.2754   24.6797 C   0  0  0  0  0  0
  -27.6039  -32.4387   25.7499 C   0  0  0  0  0  0
  -27.5552  -37.1697   24.8471 C   0  0  0  0  0  0
  -21.4523  -29.2993   22.3366 N   0  0  0  0  0  0
  -26.4264  -37.3580   23.9400 N   0  0  0  0  0  0
  -24.8343  -30.8725   22.0675 N   0  0  0  0  0  0
  -23.4194  -28.7763   23.3118 O   0  0  0  0  0  0
  -28.1621  -25.0039   20.3141 O   0  0  0  0  0  0
  -26.5847  -34.8824   22.4520 O   0  0  0  0  0  0
  -23.6100  -32.0839   23.5987 O   0  0  0  0  0  0
  -31.1502  -18.6055   18.3135 C   0  0  0  0  0  0
  -28.6264  -19.1558   20.4807 C   0  0  0  0  0  0
  -30.1383  -19.3266   17.4271 C   0  0  0  0  0  0
  -28.9454  -21.1030   20.3746 C   0  0  1  0  0  0
  -30.6261  -18.8619   19.7186 C   0  0  1  0  0  0
  -30.1219  -20.4555   19.4968 C   0  0  1  0  0  0
  -28.0877  -23.0757   20.1615 C   0  0  0  0  0  0
  -29.6825  -17.7270   20.1794 N   0  0  0  0  0  0
  -29.7514  -20.5141   18.1180 O   0  0  0  0  0  0
  -31.3089  -13.7785   19.0754 H   0  0  0  0  0  0
  -30.6531  -12.7254   20.2659 H   0  0  0  0  0  0
  -30.1059  -11.9501   17.9341 H   0  0  0  0  0  0
  -29.4183  -13.5091   17.5537 H   0  0  0  0  0  0
  -28.3022  -11.3732   19.3724 H   0  0  0  0  0  0
  -27.5083  -12.1233   18.0042 H   0  0  0  0  0  0
  -27.3668  -14.2067   19.1477 H   0  0  0  0  0  0
  -28.9447  -13.1370   21.5350 H   0  0  0  0  0  0
  -28.0363  -14.6187   21.5317 H   0  0  0  0  0  0
  -25.2816   -9.5685   22.4756 H   0  0  0  0  0  0
  -24.0024   -7.4655   22.7482 H   0  0  0  0  0  0
  -21.0891   -8.8811   19.8949 H   0  0  0  0  0  0
  -22.3777  -10.9682   19.6149 H   0  0  0  0  0  0
  -21.2024   -7.6155   23.9720 H   0  0  0  0  0  0
  -21.1485   -6.0523   25.9075 H   0  0  0  0  0  0
  -22.0592   -2.7616   23.2836 H   0  0  0  0  0  0
  -22.4005  -11.9794   22.4897 H   0  0  0  0  0  0
  -21.0943  -13.1073   22.2666 H   0  0  0  0  0  0
  -24.6039  -15.8593   20.5553 H   0  0  0  0  0  0
  -26.2266  -15.6644   20.1250 H   0  0  0  0  0  0
  -26.7688  -32.4672   23.0633 H   0  0  0  0  0  0
  -25.0022  -33.9099   24.9822 H   0  0  0  0  0  0
  -22.9004  -31.1938   21.2678 H   0  0  0  0  0  0
  -23.3780  -35.9379   23.3271 H   0  0  0  0  0  0
  -24.3546  -36.8805   22.2086 H   0  0  0  0  0  0
  -23.7249  -37.6219   23.6800 H   0  0  0  0  0  0
  -26.3855  -31.0855   20.6374 H   0  0  0  0  0  0
  -26.9882  -30.4633   22.1160 H   0  0  0  0  0  0
  -28.1805  -28.0702   21.3681 H   0  0  0  0  0  0
  -25.7842  -25.4577   18.9783 H   0  0  0  0  0  0
  -24.0825  -27.1405   18.8946 H   0  0  0  0  0  0
  -24.0312  -30.3611   19.3666 H   0  0  0  0  0  0
  -22.9258  -29.0989   19.8027 H   0  0  0  0  0  0
  -25.1393  -36.1504   25.0747 H   0  0  0  0  0  0
  -21.0078  -28.3463   24.1216 H   0  0  0  0  0  0
  -20.5643  -26.2445   23.3700 H   0  0  0  0  0  0
  -21.6666  -26.7336   22.1247 H   0  0  0  0  0  0
  -19.6940  -25.6245   21.1319 H   0  0  0  0  0  0
  -19.6743  -27.3115   20.6706 H   0  0  0  0  0  0
  -17.4244  -26.6702   21.4016 H   0  0  0  0  0  0
  -18.0349  -26.0128   22.9035 H   0  0  0  0  0  0
  -19.8006  -30.7373   24.2121 H   0  0  0  0  0  0
  -17.5066  -31.6282   24.5166 H   0  0  0  0  0  0
  -15.5400  -30.2959   23.7744 H   0  0  0  0  0  0
  -15.8736  -28.0798   22.7148 H   0  0  0  0  0  0
  -24.5857  -30.7174   25.7504 H   0  0  0  0  0  0
  -24.8785  -32.3109   26.4349 H   0  0  0  0  0  0
  -25.7734  -30.9207   27.0191 H   0  0  0  0  0  0
  -26.3408  -29.6269   24.1837 H   0  0  0  0  0  0
  -27.3980  -29.7330   25.5651 H   0  0  0  0  0  0
  -27.9420  -30.3809   24.0432 H   0  0  0  0  0  0
  -27.2540  -33.3795   26.1758 H   0  0  0  0  0  0
  -28.4009  -32.6776   25.0444 H   0  0  0  0  0  0
  -28.0534  -31.8734   26.5673 H   0  0  0  0  0  0
  -28.2541  -38.0015   24.7487 H   0  0  0  0  0  0
  -28.1074  -36.2530   24.6344 H   0  0  0  0  0  0
  -27.2255  -37.1382   25.8871 H   0  0  0  0  0  0
  -20.9904  -29.8593   21.6335 H   0  0  0  0  0  0
  -26.0064  -38.2618   24.1397 H   0  0  0  0  0  0
  -32.1286  -19.0736   18.1968 H   0  0  0  0  0  0
  -31.2612  -17.5536   18.0511 H   0  0  0  0  0  0
  -27.7953  -18.9801   19.7958 H   0  0  0  0  0  0
  -28.1869  -18.9748   21.4617 H   0  0  0  0  0  0
  -29.2534  -18.7041   17.2864 H   0  0  0  0  0  0
  -30.5435  -19.5565   16.4410 H   0  0  0  0  0  0
  -29.3962  -21.2579   21.3552 H   0  0  0  0  0  0
  -31.4576  -18.8505   20.4253 H   0  0  0  0  0  0
  -31.0009  -21.0953   19.5916 H   0  0  0  0  0  0
  -27.1923  -22.9333   20.7661 H   0  0  0  0  0  0
  -27.7142  -23.0109   19.1394 H   0  0  0  0  0  0
  1 25  1  0  0  0
  1 30  2  0  0  0
  1 78  1  0  0  0
  2  3  1  0  0  0
  2 25  1  0  0  0
  2 80  1  0  0  0
  2 81  1  0  0  0
  3  4  1  0  0  0
  3 82  1  0  0  0
  3 83  1  0  0  0
  4  5  1  0  0  0
  4 84  1  0  0  0
  4 85  1  0  0  0
  5  6  1  0  0  0
  5 26  1  0  0  0
  5 86  1  0  0  0
  6 25  1  0  0  0
  6 87  1  0  0  0
  6 88  1  0  0  0
  7  8  2  0  0  0
  7 26  1  0  0  0
  7 29  1  0  0  0
  8  9  1  0  0  0
  8 22  1  0  0  0
  9 10  1  0  0  0
  9 27  2  0  0  0
 10 11  2  0  0  0
 10 15  1  0  0  0
 11 12  1  0  0  0
 11 89  1  0  0  0
 12 13  2  0  0  0
 12 90  1  0  0  0
 13 14  1  0  0  0
 13 31  1  0  0  0
 14 15  2  0  0  0
 14 91  1  0  0  0
 15 92  1  0  0  0
 16 17  2  0  0  0
 16 21  1  0  0  0
 16 31  1  0  0  0
 17 18  1  0  0  0
 17 93  1  0  0  0
 18 19  2  0  0  0
 18 94  1  0  0  0
 19 20  1  0  0  0
 19 24  1  0  0  0
 20 21  2  0  0  0
 20 95  1  0  0  0
 21 23  1  0  0  0
 22 28  1  0  0  0
 22 32  2  0  0  0
 26 27  1  0  0  0
 28 96  1  0  0  0
 28 97  1  0  0  0
 29 98  1  0  0  0
 29 99  1  0  0  0
 33 34  1  0  0  0
 33 66  1  0  0  0
 33 70  2  0  0  0
 34 36  1  0  0  0
 34 59  1  0  0  0
 34100  1  0  0  0
 35 44  2  0  0  0
 35 45  1  0  0  0
 35 68  1  0  0  0
 36 56  1  0  0  0
 36101  1  0  0  0
 37 39  1  0  0  0
 37 47  1  0  0  0
 37 66  1  0  0  0
 37102  1  0  0  0
 38 43  2  0  0  0
 38 46  1  0  0  0
 38 47  1  0  0  0
 39 64  1  0  0  0
 39 67  2  0  0  0
 40 52  1  0  0  0
 40 53  2  0  0  0
 40 58  1  0  0  0
 41103  1  0  0  0
 41104  1  0  0  0
 41105  1  0  0  0
 41 48  1  0  0  0
 42 43  1  0  0  0
 42 66  1  0  0  0
 42106  1  0  0  0
 42107  1  0  0  0
 43 44  1  0  0  0
 44108  1  0  0  0
 45 46  2  0  0  0
 45109  1  0  0  0
 46110  1  0  0  0
 47111  1  0  0  0
 47112  1  0  0  0
 48 56  1  0  0  0
 48 65  1  0  0  0
 48113  1  0  0  0
 49 50  1  0  0  0
 49 53  1  0  0  0
 49 64  1  0  0  0
 49114  1  0  0  0
 50 51  1  0  0  0
 50115  1  0  0  0
 50116  1  0  0  0
 51 52  1  0  0  0
 51117  1  0  0  0
 51118  1  0  0  0
 52119  1  0  0  0
 52120  1  0  0  0
 53 54  1  0  0  0
 54 55  2  0  0  0
 54121  1  0  0  0
 55 57  1  0  0  0
 55122  1  0  0  0
 56 69  2  0  0  0
 57 58  2  0  0  0
 57123  1  0  0  0
 58124  1  0  0  0
 59 60  1  0  0  0
 59 61  1  0  0  0
 59 62  1  0  0  0
 60125  1  0  0  0
 60126  1  0  0  0
 60127  1  0  0  0
 61128  1  0  0  0
 61129  1  0  0  0
 61130  1  0  0  0
 62131  1  0  0  0
 62132  1  0  0  0
 62133  1  0  0  0
 63 65  1  0  0  0
 63134  1  0  0  0
 63135  1  0  0  0
 63136  1  0  0  0
 64137  1  0  0  0
 65138  1  0  0  0
 68 77  1  0  0  0
 71 73  1  0  0  0
 71139  1  0  0  0
 71140  1  0  0  0
 71 75  1  0  0  0
 72 74  1  0  0  0
 72 78  1  0  0  0
 72141  1  0  0  0
 72142  1  0  0  0
 73 79  1  0  0  0
 73143  1  0  0  0
 73144  1  0  0  0
 74 76  1  0  0  0
 74 77  1  0  0  0
 74145  1  0  0  0
 75 76  1  0  0  0
 75 78  1  0  0  0
 75146  1  0  0  0
 76 79  1  0  0  0
 76147  1  0  0  0
 77148  1  0  0  0
 77149  1  0  0  0
M  ISO  4   1 100  68 101  77 101  78 100
M  END
> <chiral flag>
0

> <version>
0

> <s_m_source_file>
/data/baiqing/PycharmProjects/Reinvent-master-3.2/result/LINK_invent/BTK/process_docking_weight1_custom_product_contain_oxygen_bond_distance_aromatic_linkinvent_7_9_3/rearranged_h_0022.sdf

> <i_m_source_file_index>
39

> <r_mmod_Potential_Energy-OPLS-2005>
4769.490234375

> <r_mmod_Stretch_Energy-OPLS-2005>
1933.56237792969

> <r_mmod_Bend_Energy-OPLS-2005>
1109.86938476562

> <r_mmod_Torsional_Energy-OPLS-2005>
370.760681152344

> <r_mmod_Improper_Torsional_Energy-OPLS-2005>
12.8551158905029

> <r_mmod_Van_der_Waal_Energy-OPLS-2005>
111.867172241211

> <r_mmod_Electrostatic_Energy-OPLS-2005>
-295.742584228516

> <r_mmod_Solvation_Energy-OPLS-2005>
-215.453125

> <b_mmod_Minimization_Converged-OPLS-2005>
0

> <r_mmod_RMS_Derivative-OPLS-2005>
0.451241701841354

$$$$
40
                    3D
 Structure written by MMmdl.
162171  0  0  1  0            999 V2000
  -30.7943  -14.5814   20.5469 C   0  0  0  0  0  0
  -30.4168  -12.3759   19.4587 C   0  0  0  0  0  0
  -29.4999  -12.4986   18.2284 C   0  0  0  0  0  0
  -28.0315  -12.3313   18.6587 C   0  0  0  0  0  0
  -27.6594  -13.2294   19.8668 C   0  0  2  0  0  0
  -28.7152  -13.1566   20.9973 C   0  0  0  0  0  0
  -25.2630  -13.8211   20.5758 C   0  0  0  0  0  0
  -24.1841  -13.0434   20.9203 C   0  0  0  0  0  0
  -24.6420  -11.6934   20.8767 C   0  0  0  0  0  0
  -23.9063  -10.4298   21.0409 C   0  0  0  0  0  0
  -24.3618   -9.4238   21.9193 C   0  0  0  0  0  0
  -23.6286   -8.2282   22.0763 C   0  0  0  0  0  0
  -22.4271   -8.0314   21.3550 C   0  0  0  0  0  0
  -21.9908   -9.0282   20.4658 C   0  0  0  0  0  0
  -22.7233  -10.2158   20.3065 C   0  0  0  0  0  0
  -21.6864   -6.0749   22.5280 C   0  0  0  0  0  0
  -21.4025   -6.5654   23.8211 C   0  0  0  0  0  0
  -21.3640   -5.6810   24.9167 C   0  0  0  0  0  0
  -21.6018   -4.3069   24.7231 C   0  0  0  0  0  0
  -21.8814   -3.8155   23.4355 C   0  0  0  0  0  0
  -21.9199   -4.6969   22.3407 C   0  0  0  0  0  0
  -22.7882  -13.5280   21.1772 C   0  0  0  0  0  0
  -22.1655   -4.2152   21.0989 F   0  0  0  0  0  0
  -21.5611   -3.4551   25.7740 F   0  0  0  0  0  0
  -30.0395  -13.4385   20.4202 N   0  0  0  0  0  0
  -26.3068  -12.9401   20.3459 N   0  0  0  0  0  0
  -25.9385  -11.6538   20.5879 N   0  0  0  0  0  0
  -22.0520  -12.8275   22.0375 N   0  0  0  0  0  0
  -25.4379  -15.1881   20.4127 N   0  0  0  0  0  0
  -31.9140  -14.6382   20.0301 O   0  0  0  0  0  0
  -21.6636   -6.8907   21.4248 O   0  0  0  0  0  0
  -22.3617  -14.5576   20.6606 O   0  0  0  0  0  0
  -24.6343  -31.8646   23.2041 C   0  0  0  0  0  0
  -25.9189  -32.4782   23.8398 C   0  0  1  0  0  0
  -27.1819  -27.2604   20.0593 C   0  0  0  0  0  0
  -25.5940  -33.8575   24.2242 N   0  0  0  0  0  0
  -23.4211  -30.4978   21.5603 C   0  0  2  0  0  0
  -24.8475  -28.9604   20.0977 C   0  0  0  0  0  0
  -22.7513  -29.4678   22.5035 C   0  0  0  0  0  0
  -18.0337  -28.1408   22.8412 C   0  0  0  0  0  0
  -24.1498  -36.7265   23.2634 C   0  0  0  0  0  0
  -25.9729  -30.7578   21.3959 C   0  0  0  0  0  0
  -26.0247  -29.3922   20.7158 C   0  0  0  0  0  0
  -27.1888  -28.5548   20.6881 C   0  0  0  0  0  0
  -25.9685  -26.9039   19.4226 C   0  0  0  0  0  0
  -24.8307  -27.7269   19.4414 C   0  0  0  0  0  0
  -23.6220  -29.8497   20.1693 C   0  0  0  0  0  0
  -25.4131  -36.3066   24.0315 C   0  0  1  0  0  0
  -20.5948  -28.3648   23.1296 C   0  0  2  0  0  0
  -20.6840  -26.9454   22.5242 C   0  0  0  0  0  0
  -19.5821  -26.6647   21.4970 C   0  0  0  0  0  0
  -18.1966  -26.8051   22.1349 C   0  0  0  0  0  0
  -19.1590  -28.8804   23.2895 C   0  0  0  0  0  0
  -18.9535  -30.1380   23.8975 C   0  0  0  0  0  0
  -17.6538  -30.6561   24.0640 C   0  0  0  0  0  0
  -25.9105  -34.9441   23.5091 C   0  0  0  0  0  0
  -16.5413  -29.9070   23.6397 C   0  0  0  0  0  0
  -16.7305  -28.6508   23.0354 C   0  0  0  0  0  0
  -26.4494  -31.6608   25.0800 C   0  0  0  0  0  0
  -25.3635  -31.3808   26.1464 C   0  0  0  0  0  0
  -27.0330  -30.2994   24.6363 C   0  0  0  0  0  0
  -27.6073  -32.4363   25.7522 C   0  0  0  0  0  0
  -27.5583  -37.1791   24.8463 C   0  0  0  0  0  0
  -21.4240  -29.3027   22.3712 N   0  0  0  0  0  0
  -26.4300  -37.3759   23.9405 N   0  0  0  0  0  0
  -24.6970  -31.0591   22.1075 N   0  0  0  0  0  0
  -23.4226  -28.8256   23.3163 O   0  0  0  0  0  0
  -28.2949  -26.3813   20.0755 O   0  0  0  0  0  0
  -26.5713  -34.8916   22.4684 O   0  0  0  0  0  0
  -23.5489  -32.1550   23.7303 O   0  0  0  0  0  0
  -28.9078  -20.0501   19.2674 C   0  0  0  0  0  0
  -29.1315  -20.4781   21.6138 C   0  0  0  0  0  0
  -29.3480  -18.1182   20.7860 C   0  0  0  0  0  0
  -28.8248  -21.0034   20.3186 C   0  0  0  0  0  0
  -29.1663  -18.6651   19.4881 C   0  0  0  0  0  0
  -29.3821  -19.0770   21.8392 C   0  0  0  0  0  0
  -26.3198  -22.9315   21.2835 C   0  0  0  0  0  0
  -27.5356  -23.7162   21.7690 C   0  0  0  0  0  0
  -26.8024  -22.1643   20.0490 C   0  0  0  0  0  0
  -28.5243  -23.6781   20.5879 C   0  0  2  0  0  0
  -31.3911  -16.1523   22.2875 C   0  0  0  0  0  0
  -29.2365  -16.5522   21.0294 C   0  0  0  0  0  0
  -28.2394  -24.9454   19.5981 C   0  0  0  0  0  0
  -28.2610  -22.3073   20.0012 N   0  0  0  0  0  0
  -30.3925  -15.6336   21.3337 N   0  0  0  0  0  0
  -29.1713  -17.8351   18.4180 F   0  0  0  0  0  0
  -29.6066  -18.6385   23.1009 F   0  0  0  0  0  0
  -31.4645  -12.4132   19.1522 H   0  0  0  0  0  0
  -30.2906  -11.3978   19.9247 H   0  0  0  0  0  0
  -29.7624  -11.7409   17.4886 H   0  0  0  0  0  0
  -29.6394  -13.4677   17.7471 H   0  0  0  0  0  0
  -27.8872  -11.2827   18.9240 H   0  0  0  0  0  0
  -27.3582  -12.5334   17.8253 H   0  0  0  0  0  0
  -27.6574  -14.2492   19.4843 H   0  0  0  0  0  0
  -28.7244  -12.1644   21.4468 H   0  0  0  0  0  0
  -28.4827  -13.8468   21.8105 H   0  0  0  0  0  0
  -25.2779   -9.5716   22.4744 H   0  0  0  0  0  0
  -23.9988   -7.4694   22.7492 H   0  0  0  0  0  0
  -21.0836   -8.8791   19.8997 H   0  0  0  0  0  0
  -22.3679  -10.9685   19.6169 H   0  0  0  0  0  0
  -21.2035   -7.6166   23.9712 H   0  0  0  0  0  0
  -21.1449   -6.0541   25.9064 H   0  0  0  0  0  0
  -22.0608   -2.7623   23.2844 H   0  0  0  0  0  0
  -22.4116  -11.9909   22.4721 H   0  0  0  0  0  0
  -21.1142  -13.1318   22.2544 H   0  0  0  0  0  0
  -24.6810  -15.8519   20.5323 H   0  0  0  0  0  0
  -26.2895  -15.6202   20.0776 H   0  0  0  0  0  0
  -26.7241  -32.5403   23.1127 H   0  0  0  0  0  0
  -24.9934  -33.9701   25.0299 H   0  0  0  0  0  0
  -22.7111  -31.3230   21.4397 H   0  0  0  0  0  0
  -23.3752  -35.9608   23.3319 H   0  0  0  0  0  0
  -24.3565  -36.8886   22.2036 H   0  0  0  0  0  0
  -23.7243  -37.6473   23.6661 H   0  0  0  0  0  0
  -26.1417  -31.5289   20.6451 H   0  0  0  0  0  0
  -26.8392  -30.7677   22.0455 H   0  0  0  0  0  0
  -28.0871  -28.8942   21.1787 H   0  0  0  0  0  0
  -25.8327  -25.9936   18.8670 H   0  0  0  0  0  0
  -23.9426  -27.4121   18.9097 H   0  0  0  0  0  0
  -23.6896  -30.6396   19.4202 H   0  0  0  0  0  0
  -22.7433  -29.2755   19.8783 H   0  0  0  0  0  0
  -25.1297  -36.1910   25.0801 H   0  0  0  0  0  0
  -20.9998  -28.3089   24.1421 H   0  0  0  0  0  0
  -20.5783  -26.2204   23.3324 H   0  0  0  0  0  0
  -21.6714  -26.7582   22.1010 H   0  0  0  0  0  0
  -19.6946  -25.6679   21.0658 H   0  0  0  0  0  0
  -19.6738  -27.3738   20.6689 H   0  0  0  0  0  0
  -17.4349  -26.6958   21.3610 H   0  0  0  0  0  0
  -18.0272  -26.0033   22.8539 H   0  0  0  0  0  0
  -19.8028  -30.7147   24.2378 H   0  0  0  0  0  0
  -17.5135  -31.6226   24.5311 H   0  0  0  0  0  0
  -15.5421  -30.3006   23.7730 H   0  0  0  0  0  0
  -15.8708  -28.0821   22.7093 H   0  0  0  0  0  0
  -24.5819  -30.7165   25.7722 H   0  0  0  0  0  0
  -24.8823  -32.3011   26.4794 H   0  0  0  0  0  0
  -25.7852  -30.8998   27.0297 H   0  0  0  0  0  0
  -26.2914  -29.6759   24.1344 H   0  0  0  0  0  0
  -27.3885  -29.7244   25.4925 H   0  0  0  0  0  0
  -27.8874  -30.4220   23.9699 H   0  0  0  0  0  0
  -27.2687  -33.3669   26.2088 H   0  0  0  0  0  0
  -28.3832  -32.6930   25.0287 H   0  0  0  0  0  0
  -28.0810  -31.8518   26.5423 H   0  0  0  0  0  0
  -28.2630  -38.0067   24.7500 H   0  0  0  0  0  0
  -28.1048  -36.2596   24.6293 H   0  0  0  0  0  0
  -27.2306  -37.1439   25.8872 H   0  0  0  0  0  0
  -20.9460  -29.8671   21.6829 H   0  0  0  0  0  0
  -26.0178  -38.2851   24.1363 H   0  0  0  0  0  0
  -28.6866  -20.3604   18.2528 H   0  0  0  0  0  0
  -29.1060  -21.1122   22.4879 H   0  0  0  0  0  0
  -25.4951  -23.5713   20.9783 H   0  0  0  0  0  0
  -25.9623  -22.3072   22.1046 H   0  0  0  0  0  0
  -27.9492  -23.1821   22.6232 H   0  0  0  0  0  0
  -27.2537  -24.7056   22.1237 H   0  0  0  0  0  0
  -26.3542  -22.5750   19.1370 H   0  0  0  0  0  0
  -26.4578  -21.1341   20.1324 H   0  0  0  0  0  0
  -29.5633  -23.7226   20.9291 H   0  0  0  0  0  0
  -31.8954  -17.0523   21.9287 H   0  0  0  0  0  0
  -32.1836  -15.4166   22.4861 H   0  0  0  0  0  0
  -30.9099  -16.3690   23.2436 H   0  0  0  0  0  0
  -28.7086  -16.1532   20.1658 H   0  0  0  0  0  0
  -28.5389  -16.3987   21.8547 H   0  0  0  0  0  0
  -27.3125  -24.7283   19.0773 H   0  0  0  0  0  0
  -28.9645  -24.8760   18.7821 H   0  0  0  0  0  0
  1 25  1  0  0  0
  1 30  2  0  0  0
  1 85  1  0  0  0
  2  3  1  0  0  0
  2 25  1  0  0  0
  2 88  1  0  0  0
  2 89  1  0  0  0
  3  4  1  0  0  0
  3 90  1  0  0  0
  3 91  1  0  0  0
  4  5  1  0  0  0
  4 92  1  0  0  0
  4 93  1  0  0  0
  5  6  1  0  0  0
  5 26  1  0  0  0
  5 94  1  0  0  0
  6 25  1  0  0  0
  6 95  1  0  0  0
  6 96  1  0  0  0
  7  8  2  0  0  0
  7 26  1  0  0  0
  7 29  1  0  0  0
  8  9  1  0  0  0
  8 22  1  0  0  0
  9 10  1  0  0  0
  9 27  2  0  0  0
 10 11  2  0  0  0
 10 15  1  0  0  0
 11 12  1  0  0  0
 11 97  1  0  0  0
 12 13  2  0  0  0
 12 98  1  0  0  0
 13 14  1  0  0  0
 13 31  1  0  0  0
 14 15  2  0  0  0
 14 99  1  0  0  0
 15100  1  0  0  0
 16 17  2  0  0  0
 16 21  1  0  0  0
 16 31  1  0  0  0
 17 18  1  0  0  0
 17101  1  0  0  0
 18 19  2  0  0  0
 18102  1  0  0  0
 19 20  1  0  0  0
 19 24  1  0  0  0
 20 21  2  0  0  0
 20103  1  0  0  0
 21 23  1  0  0  0
 22 28  1  0  0  0
 22 32  2  0  0  0
 26 27  1  0  0  0
 28104  1  0  0  0
 28105  1  0  0  0
 29106  1  0  0  0
 29107  1  0  0  0
 33 34  1  0  0  0
 33 66  1  0  0  0
 33 70  2  0  0  0
 34 36  1  0  0  0
 34 59  1  0  0  0
 34108  1  0  0  0
 35 44  2  0  0  0
 35 45  1  0  0  0
 35 68  1  0  0  0
 36 56  1  0  0  0
 36109  1  0  0  0
 37 39  1  0  0  0
 37 47  1  0  0  0
 37 66  1  0  0  0
 37110  1  0  0  0
 38 43  2  0  0  0
 38 46  1  0  0  0
 38 47  1  0  0  0
 39 64  1  0  0  0
 39 67  2  0  0  0
 40 52  1  0  0  0
 40 53  2  0  0  0
 40 58  1  0  0  0
 41111  1  0  0  0
 41112  1  0  0  0
 41113  1  0  0  0
 41 48  1  0  0  0
 42 43  1  0  0  0
 42 66  1  0  0  0
 42114  1  0  0  0
 42115  1  0  0  0
 43 44  1  0  0  0
 44116  1  0  0  0
 45 46  2  0  0  0
 45117  1  0  0  0
 46118  1  0  0  0
 47119  1  0  0  0
 47120  1  0  0  0
 48 56  1  0  0  0
 48 65  1  0  0  0
 48121  1  0  0  0
 49 50  1  0  0  0
 49 53  1  0  0  0
 49 64  1  0  0  0
 49122  1  0  0  0
 50 51  1  0  0  0
 50123  1  0  0  0
 50124  1  0  0  0
 51 52  1  0  0  0
 51125  1  0  0  0
 51126  1  0  0  0
 52127  1  0  0  0
 52128  1  0  0  0
 53 54  1  0  0  0
 54 55  2  0  0  0
 54129  1  0  0  0
 55 57  1  0  0  0
 55130  1  0  0  0
 56 69  2  0  0  0
 57 58  2  0  0  0
 57131  1  0  0  0
 58132  1  0  0  0
 59 60  1  0  0  0
 59 61  1  0  0  0
 59 62  1  0  0  0
 60133  1  0  0  0
 60134  1  0  0  0
 60135  1  0  0  0
 61136  1  0  0  0
 61137  1  0  0  0
 61138  1  0  0  0
 62139  1  0  0  0
 62140  1  0  0  0
 62141  1  0  0  0
 63 65  1  0  0  0
 63142  1  0  0  0
 63143  1  0  0  0
 63144  1  0  0  0
 64145  1  0  0  0
 65146  1  0  0  0
 68 83  1  0  0  0
 71 74  2  0  0  0
 71 75  1  0  0  0
 71147  1  0  0  0
 72 74  1  0  0  0
 72 76  2  0  0  0
 72148  1  0  0  0
 73 75  2  0  0  0
 73 76  1  0  0  0
 73 82  1  0  0  0
 74 84  1  0  0  0
 75 86  1  0  0  0
 76 87  1  0  0  0
 77 78  1  0  0  0
 77 79  1  0  0  0
 77149  1  0  0  0
 77150  1  0  0  0
 78 80  1  0  0  0
 78151  1  0  0  0
 78152  1  0  0  0
 79 84  1  0  0  0
 79153  1  0  0  0
 79154  1  0  0  0
 80 83  1  0  0  0
 80 84  1  0  0  0
 80155  1  0  0  0
 81 85  1  0  0  0
 81156  1  0  0  0
 81157  1  0  0  0
 81158  1  0  0  0
 82 85  1  0  0  0
 82159  1  0  0  0
 82160  1  0  0  0
 83161  1  0  0  0
 83162  1  0  0  0
M  ISO  4   1 100  68 101  83 101  85 100
M  END
> <chiral flag>
0

> <version>
0

> <s_m_source_file>
/data/baiqing/PycharmProjects/Reinvent-master-3.2/result/LINK_invent/BTK/process_docking_weight1_custom_product_contain_oxygen_bond_distance_aromatic_linkinvent_7_9_3/rearranged_h_0022.sdf

> <i_m_source_file_index>
40

> <r_mmod_Potential_Energy-OPLS-2005>
427.8427734375

> <r_mmod_Stretch_Energy-OPLS-2005>
112.432250976562

> <r_mmod_Bend_Energy-OPLS-2005>
233.17253112793

> <r_mmod_Torsional_Energy-OPLS-2005>
360.728118896484

> <r_mmod_Improper_Torsional_Energy-OPLS-2005>
11.3891706466675

> <r_mmod_Van_der_Waal_Energy-OPLS-2005>
141.352584838867

> <r_mmod_Electrostatic_Energy-OPLS-2005>
-288.058258056641

> <r_mmod_Solvation_Energy-OPLS-2005>
-204.731872558594

> <b_mmod_Minimization_Converged-OPLS-2005>
0

> <r_mmod_RMS_Derivative-OPLS-2005>
10.938364982605

$$$$
41
                    3D
 Structure written by MMmdl.
167175  0  0  1  0            999 V2000
  -30.7368  -14.5145   20.5068 C   0  0  0  0  0  0
  -30.4195  -12.3211   19.4511 C   0  0  0  0  0  0
  -29.4936  -12.4737   18.2283 C   0  0  0  0  0  0
  -28.0175  -12.3341   18.6380 C   0  0  0  0  0  0
  -27.6527  -13.2065   19.8679 C   0  0  2  0  0  0
  -28.7027  -13.0499   20.9955 C   0  0  0  0  0  0
  -25.2564  -13.8155   20.5692 C   0  0  0  0  0  0
  -24.1812  -13.0416   20.9223 C   0  0  0  0  0  0
  -24.6379  -11.6911   20.8800 C   0  0  0  0  0  0
  -23.9051  -10.4281   21.0441 C   0  0  0  0  0  0
  -24.3611   -9.4187   21.9188 C   0  0  0  0  0  0
  -23.6275   -8.2231   22.0755 C   0  0  0  0  0  0
  -22.4260   -8.0279   21.3549 C   0  0  0  0  0  0
  -21.9910   -9.0253   20.4657 C   0  0  0  0  0  0
  -22.7239  -10.2131   20.3076 C   0  0  0  0  0  0
  -21.6835   -6.0762   22.5273 C   0  0  0  0  0  0
  -21.4013   -6.5666   23.8212 C   0  0  0  0  0  0
  -21.3658   -5.6823   24.9170 C   0  0  0  0  0  0
  -21.6026   -4.3082   24.7222 C   0  0  0  0  0  0
  -21.8810   -3.8173   23.4340 C   0  0  0  0  0  0
  -21.9189   -4.6994   22.3398 C   0  0  0  0  0  0
  -22.7849  -13.5228   21.1870 C   0  0  0  0  0  0
  -22.1661   -4.2194   21.0976 F   0  0  0  0  0  0
  -21.5629   -3.4552   25.7726 F   0  0  0  0  0  0
  -30.0263  -13.3517   20.4239 N   0  0  0  0  0  0
  -26.2985  -12.9313   20.3381 N   0  0  0  0  0  0
  -25.9313  -11.6496   20.5850 N   0  0  0  0  0  0
  -22.0533  -12.8181   22.0439 N   0  0  0  0  0  0
  -25.4285  -15.1846   20.4071 N   0  0  0  0  0  0
  -31.9322  -14.5509   20.2028 O   0  0  0  0  0  0
  -21.6624   -6.8888   21.4226 O   0  0  0  0  0  0
  -22.3513  -14.5515   20.6720 O   0  0  0  0  0  0
  -24.6237  -31.8664   23.2071 C   0  0  0  0  0  0
  -25.9135  -32.4783   23.8341 C   0  0  1  0  0  0
  -27.2257  -27.3923   20.1020 C   0  0  0  0  0  0
  -25.5979  -33.8579   24.2300 N   0  0  0  0  0  0
  -23.4115  -30.4941   21.5457 C   0  0  2  0  0  0
  -24.8481  -28.9473   20.1225 C   0  0  0  0  0  0
  -22.7418  -29.4703   22.4928 C   0  0  0  0  0  0
  -18.0310  -28.1389   22.8491 C   0  0  0  0  0  0
  -24.1522  -36.7282   23.2637 C   0  0  0  0  0  0
  -25.9475  -30.8186   21.3687 C   0  0  0  0  0  0
  -26.0166  -29.4532   20.7044 C   0  0  0  0  0  0
  -27.2061  -28.6879   20.6772 C   0  0  0  0  0  0
  -26.0269  -26.9002   19.5327 C   0  0  0  0  0  0
  -24.8497  -27.6695   19.5370 C   0  0  0  0  0  0
  -23.6196  -29.8259   20.1641 C   0  0  0  0  0  0
  -25.4143  -36.3080   24.0333 C   0  0  1  0  0  0
  -20.5902  -28.3711   23.1273 C   0  0  2  0  0  0
  -20.6821  -26.9449   22.5389 C   0  0  0  0  0  0
  -19.5795  -26.6413   21.5198 C   0  0  0  0  0  0
  -18.1970  -26.7946   22.1611 C   0  0  0  0  0  0
  -19.1554  -28.8870   23.2874 C   0  0  0  0  0  0
  -18.9466  -30.1465   23.8893 C   0  0  0  0  0  0
  -17.6464  -30.6580   24.0578 C   0  0  0  0  0  0
  -25.9075  -34.9448   23.5102 C   0  0  0  0  0  0
  -16.5360  -29.9086   23.6326 C   0  0  0  0  0  0
  -16.7300  -28.6516   23.0338 C   0  0  0  0  0  0
  -26.4536  -31.6570   25.0702 C   0  0  0  0  0  0
  -25.3817  -31.3700   26.1494 C   0  0  0  0  0  0
  -27.0405  -30.2980   24.6167 C   0  0  0  0  0  0
  -27.6125  -32.4301   25.7442 C   0  0  0  0  0  0
  -27.5583  -37.1791   24.8463 C   0  0  0  0  0  0
  -21.4153  -29.3059   22.3619 N   0  0  0  0  0  0
  -26.4306  -37.3772   23.9407 N   0  0  0  0  0  0
  -24.6784  -31.0771   22.0959 N   0  0  0  0  0  0
  -23.4136  -28.8239   23.3007 O   0  0  0  0  0  0
  -28.4049  -26.6665   20.1166 O   0  0  0  0  0  0
  -26.5622  -34.8907   22.4636 O   0  0  0  0  0  0
  -23.5425  -32.1469   23.7433 O   0  0  0  0  0  0
  -28.1092  -18.4286   20.5717 C   0  0  0  0  0  0
  -27.9000  -19.8192   20.6678 C   0  0  0  0  0  0
  -29.3635  -19.8952   22.5973 C   0  0  0  0  0  0
  -28.9851  -17.7526   21.4550 C   0  0  0  0  0  0
  -29.6447  -18.5100   22.4593 C   0  0  0  0  0  0
  -28.5035  -20.5697   21.6983 C   0  0  0  0  0  0
  -30.6609  -17.8622   23.3937 C   0  0  0  0  0  0
  -31.4622  -17.3893   19.1315 C   0  0  0  0  0  0
  -27.0282  -22.0251   22.7933 C   0  0  0  0  0  0
  -29.1165  -16.2173   21.3611 C   0  0  0  0  0  0
  -28.0362  -24.3194   20.9926 C   0  0  0  0  0  0
  -30.2416  -16.4463   19.0973 C   0  0  0  0  0  0
  -28.1676  -22.7916   20.6971 C   0  0  0  0  0  0
  -28.4130  -25.2515   19.8026 C   0  0  0  0  0  0
  -28.1819  -21.9330   21.9004 N   0  0  0  0  0  0
  -30.0112  -15.6546   20.3272 N   0  0  0  0  0  0
  -31.4635  -12.4003   19.1417 H   0  0  0  0  0  0
  -30.3279  -11.3317   19.8988 H   0  0  0  0  0  0
  -29.7495  -11.7299   17.4746 H   0  0  0  0  0  0
  -29.6435  -13.4503   17.7682 H   0  0  0  0  0  0
  -27.8361  -11.2829   18.8626 H   0  0  0  0  0  0
  -27.3713  -12.5857   17.7976 H   0  0  0  0  0  0
  -27.6677  -14.2388   19.5189 H   0  0  0  0  0  0
  -28.6942  -12.0310   21.3866 H   0  0  0  0  0  0
  -28.4659  -13.6777   21.8520 H   0  0  0  0  0  0
  -25.2783   -9.5655   22.4738 H   0  0  0  0  0  0
  -24.0016   -7.4608   22.7441 H   0  0  0  0  0  0
  -21.0879   -8.8747   19.8926 H   0  0  0  0  0  0
  -22.3710  -10.9665   19.6175 H   0  0  0  0  0  0
  -21.2008   -7.6182   23.9723 H   0  0  0  0  0  0
  -21.1493   -6.0557   25.9072 H   0  0  0  0  0  0
  -22.0594   -2.7647   23.2820 H   0  0  0  0  0  0
  -22.4222  -11.9818   22.4715 H   0  0  0  0  0  0
  -21.1138  -13.1140   22.2724 H   0  0  0  0  0  0
  -24.6618  -15.8402   20.5132 H   0  0  0  0  0  0
  -26.2736  -15.6132   20.0503 H   0  0  0  0  0  0
  -26.7221  -32.5449   23.1108 H   0  0  0  0  0  0
  -25.0147  -33.9692   25.0477 H   0  0  0  0  0  0
  -22.7025  -31.3128   21.4019 H   0  0  0  0  0  0
  -23.3782  -35.9620   23.3339 H   0  0  0  0  0  0
  -24.3615  -36.8869   22.2046 H   0  0  0  0  0  0
  -23.7300  -37.6497   23.6638 H   0  0  0  0  0  0
  -26.1013  -31.5961   20.6202 H   0  0  0  0  0  0
  -26.8223  -30.8370   22.0085 H   0  0  0  0  0  0
  -28.1125  -29.0756   21.1161 H   0  0  0  0  0  0
  -25.9626  -25.9192   19.0882 H   0  0  0  0  0  0
  -23.9451  -27.2581   19.1097 H   0  0  0  0  0  0
  -23.7450  -30.5984   19.4058 H   0  0  0  0  0  0
  -22.7381  -29.2570   19.8612 H   0  0  0  0  0  0
  -25.1301  -36.1937   25.0825 H   0  0  0  0  0  0
  -21.0032  -28.3364   24.1384 H   0  0  0  0  0  0
  -20.5784  -26.2352   23.3600 H   0  0  0  0  0  0
  -21.6684  -26.7532   22.1137 H   0  0  0  0  0  0
  -19.6961  -25.6331   21.1220 H   0  0  0  0  0  0
  -19.6718  -27.3224   20.6720 H   0  0  0  0  0  0
  -17.4232  -26.6699   21.4006 H   0  0  0  0  0  0
  -18.0358  -26.0085   22.8998 H   0  0  0  0  0  0
  -19.7945  -30.7282   24.2249 H   0  0  0  0  0  0
  -17.5025  -31.6259   24.5185 H   0  0  0  0  0  0
  -15.5363  -30.2974   23.7665 H   0  0  0  0  0  0
  -15.8708  -28.0835   22.7035 H   0  0  0  0  0  0
  -24.5923  -30.7131   25.7822 H   0  0  0  0  0  0
  -24.9145  -32.2893   26.5085 H   0  0  0  0  0  0
  -25.8174  -30.8763   27.0183 H   0  0  0  0  0  0
  -26.3042  -29.6680   24.1159 H   0  0  0  0  0  0
  -27.4110  -29.7242   25.4648 H   0  0  0  0  0  0
  -27.8882  -30.4259   23.9454 H   0  0  0  0  0  0
  -27.2719  -33.3591   26.2067 H   0  0  0  0  0  0
  -28.3872  -32.6920   25.0217 H   0  0  0  0  0  0
  -28.0871  -31.8417   26.5306 H   0  0  0  0  0  0
  -28.2589  -38.0079   24.7481 H   0  0  0  0  0  0
  -28.1080  -36.2605   24.6339 H   0  0  0  0  0  0
  -27.2274  -37.1482   25.8850 H   0  0  0  0  0  0
  -20.9314  -29.8682   21.6754 H   0  0  0  0  0  0
  -26.0200  -38.2853   24.1399 H   0  0  0  0  0  0
  -27.5653  -17.8759   19.8176 H   0  0  0  0  0  0
  -27.2145  -20.2925   19.9821 H   0  0  0  0  0  0
  -29.8147  -20.4442   23.4119 H   0  0  0  0  0  0
  -30.2632  -16.9817   23.9013 H   0  0  0  0  0  0
  -31.0152  -18.5535   24.1562 H   0  0  0  0  0  0
  -31.5321  -17.5541   22.8111 H   0  0  0  0  0  0
  -32.2290  -17.0322   18.4423 H   0  0  0  0  0  0
  -31.9108  -17.4811   20.1220 H   0  0  0  0  0  0
  -31.1837  -18.3928   18.8071 H   0  0  0  0  0  0
  -26.9752  -21.1630   23.4627 H   0  0  0  0  0  0
  -26.0995  -22.0511   22.2207 H   0  0  0  0  0  0
  -27.0655  -22.9141   23.4247 H   0  0  0  0  0  0
  -28.1150  -15.8288   21.1838 H   0  0  0  0  0  0
  -29.4036  -15.8038   22.3271 H   0  0  0  0  0  0
  -28.6682  -24.5860   21.8379 H   0  0  0  0  0  0
  -27.0094  -24.5354   21.2954 H   0  0  0  0  0  0
  -30.3659  -15.7635   18.2579 H   0  0  0  0  0  0
  -29.3476  -16.9961   18.8299 H   0  0  0  0  0  0
  -29.0681  -22.5869   20.1111 H   0  0  0  0  0  0
  -27.3296  -22.4996   20.0631 H   0  0  0  0  0  0
  -27.8368  -25.0075   18.9117 H   0  0  0  0  0  0
  -29.4388  -25.0110   19.5230 H   0  0  0  0  0  0
  1 25  1  0  0  0
  1 30  2  0  0  0
  1 86  1  0  0  0
  2  3  1  0  0  0
  2 25  1  0  0  0
  2 87  1  0  0  0
  2 88  1  0  0  0
  3  4  1  0  0  0
  3 89  1  0  0  0
  3 90  1  0  0  0
  4  5  1  0  0  0
  4 91  1  0  0  0
  4 92  1  0  0  0
  5  6  1  0  0  0
  5 26  1  0  0  0
  5 93  1  0  0  0
  6 25  1  0  0  0
  6 94  1  0  0  0
  6 95  1  0  0  0
  7  8  2  0  0  0
  7 26  1  0  0  0
  7 29  1  0  0  0
  8  9  1  0  0  0
  8 22  1  0  0  0
  9 10  1  0  0  0
  9 27  2  0  0  0
 10 11  2  0  0  0
 10 15  1  0  0  0
 11 12  1  0  0  0
 11 96  1  0  0  0
 12 13  2  0  0  0
 12 97  1  0  0  0
 13 14  1  0  0  0
 13 31  1  0  0  0
 14 15  2  0  0  0
 14 98  1  0  0  0
 15 99  1  0  0  0
 16 17  2  0  0  0
 16 21  1  0  0  0
 16 31  1  0  0  0
 17 18  1  0  0  0
 17100  1  0  0  0
 18 19  2  0  0  0
 18101  1  0  0  0
 19 20  1  0  0  0
 19 24  1  0  0  0
 20 21  2  0  0  0
 20102  1  0  0  0
 21 23  1  0  0  0
 22 28  1  0  0  0
 22 32  2  0  0  0
 26 27  1  0  0  0
 28103  1  0  0  0
 28104  1  0  0  0
 29105  1  0  0  0
 29106  1  0  0  0
 33 34  1  0  0  0
 33 66  1  0  0  0
 33 70  2  0  0  0
 34 36  1  0  0  0
 34 59  1  0  0  0
 34107  1  0  0  0
 35 44  2  0  0  0
 35 45  1  0  0  0
 35 68  1  0  0  0
 36 56  1  0  0  0
 36108  1  0  0  0
 37 39  1  0  0  0
 37 47  1  0  0  0
 37 66  1  0  0  0
 37109  1  0  0  0
 38 43  2  0  0  0
 38 46  1  0  0  0
 38 47  1  0  0  0
 39 64  1  0  0  0
 39 67  2  0  0  0
 40 52  1  0  0  0
 40 53  2  0  0  0
 40 58  1  0  0  0
 41110  1  0  0  0
 41111  1  0  0  0
 41112  1  0  0  0
 41 48  1  0  0  0
 42 43  1  0  0  0
 42 66  1  0  0  0
 42113  1  0  0  0
 42114  1  0  0  0
 43 44  1  0  0  0
 44115  1  0  0  0
 45 46  2  0  0  0
 45116  1  0  0  0
 46117  1  0  0  0
 47118  1  0  0  0
 47119  1  0  0  0
 48 56  1  0  0  0
 48 65  1  0  0  0
 48120  1  0  0  0
 49 50  1  0  0  0
 49 53  1  0  0  0
 49 64  1  0  0  0
 49121  1  0  0  0
 50 51  1  0  0  0
 50122  1  0  0  0
 50123  1  0  0  0
 51 52  1  0  0  0
 51124  1  0  0  0
 51125  1  0  0  0
 52126  1  0  0  0
 52127  1  0  0  0
 53 54  1  0  0  0
 54 55  2  0  0  0
 54128  1  0  0  0
 55 57  1  0  0  0
 55129  1  0  0  0
 56 69  2  0  0  0
 57 58  2  0  0  0
 57130  1  0  0  0
 58131  1  0  0  0
 59 60  1  0  0  0
 59 61  1  0  0  0
 59 62  1  0  0  0
 60132  1  0  0  0
 60133  1  0  0  0
 60134  1  0  0  0
 61135  1  0  0  0
 61136  1  0  0  0
 61137  1  0  0  0
 62138  1  0  0  0
 62139  1  0  0  0
 62140  1  0  0  0
 63 65  1  0  0  0
 63141  1  0  0  0
 63142  1  0  0  0
 63143  1  0  0  0
 64144  1  0  0  0
 65145  1  0  0  0
 68 84  1  0  0  0
 71 72  2  0  0  0
 71 74  1  0  0  0
 71146  1  0  0  0
 72 76  1  0  0  0
 72147  1  0  0  0
 73 75  1  0  0  0
 73 76  2  0  0  0
 73148  1  0  0  0
 74 75  2  0  0  0
 74 80  1  0  0  0
 75 77  1  0  0  0
 76 85  1  0  0  0
 77149  1  0  0  0
 77150  1  0  0  0
 77151  1  0  0  0
 78 82  1  0  0  0
 78152  1  0  0  0
 78153  1  0  0  0
 78154  1  0  0  0
 79 85  1  0  0  0
 79155  1  0  0  0
 79156  1  0  0  0
 79157  1  0  0  0
 80 86  1  0  0  0
 80158  1  0  0  0
 80159  1  0  0  0
 81 83  1  0  0  0
 81 84  1  0  0  0
 81160  1  0  0  0
 81161  1  0  0  0
 82 86  1  0  0  0
 82162  1  0  0  0
 82163  1  0  0  0
 83 85  1  0  0  0
 83164  1  0  0  0
 83165  1  0  0  0
 84166  1  0  0  0
 84167  1  0  0  0
M  ISO  4   1 100  68 101  84 101  86 100
M  END
> <chiral flag>
0

> <version>
0

> <s_m_source_file>
/data/baiqing/PycharmProjects/Reinvent-master-3.2/result/LINK_invent/BTK/process_docking_weight1_custom_product_contain_oxygen_bond_distance_aromatic_linkinvent_7_9_3/rearranged_h_0022.sdf

> <i_m_source_file_index>
41

> <r_mmod_Potential_Energy-OPLS-2005>
182.873489379883

> <r_mmod_Stretch_Energy-OPLS-2005>
47.2637100219727

> <r_mmod_Bend_Energy-OPLS-2005>
116.060020446777

> <r_mmod_Torsional_Energy-OPLS-2005>
306.000946044922

> <r_mmod_Improper_Torsional_Energy-OPLS-2005>
25.8384552001953

> <r_mmod_Van_der_Waal_Energy-OPLS-2005>
153.530120849609

> <r_mmod_Electrostatic_Energy-OPLS-2005>
-285.571197509766

> <r_mmod_Solvation_Energy-OPLS-2005>
-207.942230224609

> <b_mmod_Minimization_Converged-OPLS-2005>
0

> <r_mmod_RMS_Derivative-OPLS-2005>
6.47611284255981

$$$$
42
                    3D
 Structure written by MMmdl.
164173  0  0  1  0            999 V2000
  -30.5949  -14.7401   20.4900 C   0  0  0  0  0  0
  -30.4360  -12.4563   19.4593 C   0  0  0  0  0  0
  -29.5097  -12.4977   18.2230 C   0  0  0  0  0  0
  -28.0345  -12.3185   18.6387 C   0  0  0  0  0  0
  -27.6383  -13.2224   19.8367 C   0  0  2  0  0  0
  -28.6822  -13.1517   20.9712 C   0  0  0  0  0  0
  -25.2527  -13.8178   20.5691 C   0  0  0  0  0  0
  -24.1813  -13.0426   20.9214 C   0  0  0  0  0  0
  -24.6383  -11.6897   20.8741 C   0  0  0  0  0  0
  -23.9051  -10.4283   21.0385 C   0  0  0  0  0  0
  -24.3607   -9.4204   21.9168 C   0  0  0  0  0  0
  -23.6282   -8.2237   22.0745 C   0  0  0  0  0  0
  -22.4268   -8.0264   21.3530 C   0  0  0  0  0  0
  -21.9906   -9.0232   20.4640 C   0  0  0  0  0  0
  -22.7228  -10.2109   20.3034 C   0  0  0  0  0  0
  -21.6871   -6.0716   22.5276 C   0  0  0  0  0  0
  -21.4015   -6.5624   23.8205 C   0  0  0  0  0  0
  -21.3651   -5.6788   24.9176 C   0  0  0  0  0  0
  -21.6051   -4.3047   24.7247 C   0  0  0  0  0  0
  -21.8810   -3.8125   23.4374 C   0  0  0  0  0  0
  -21.9189   -4.6937   22.3422 C   0  0  0  0  0  0
  -22.7838  -13.5214   21.1850 C   0  0  0  0  0  0
  -22.1662   -4.2125   21.1012 F   0  0  0  0  0  0
  -21.5629   -3.4527   25.7757 F   0  0  0  0  0  0
  -29.9776  -13.5149   20.3862 N   0  0  0  0  0  0
  -26.2917  -12.9355   20.3206 N   0  0  0  0  0  0
  -25.9306  -11.6501   20.5702 N   0  0  0  0  0  0
  -22.0486  -12.8211   22.0414 N   0  0  0  0  0  0
  -25.4248  -15.1912   20.4116 N   0  0  0  0  0  0
  -31.7982  -14.8420   20.2327 O   0  0  0  0  0  0
  -21.6639   -6.8859   21.4234 O   0  0  0  0  0  0
  -22.3528  -14.5518   20.6690 O   0  0  0  0  0  0
  -24.6335  -31.8532   23.1988 C   0  0  0  0  0  0
  -25.9154  -32.4742   23.8323 C   0  0  1  0  0  0
  -27.2056  -27.2388   20.1337 C   0  0  0  0  0  0
  -25.5933  -33.8550   24.2259 N   0  0  0  0  0  0
  -23.4302  -30.4773   21.5432 C   0  0  2  0  0  0
  -24.8756  -28.9316   20.1039 C   0  0  0  0  0  0
  -22.7535  -29.4557   22.4893 C   0  0  0  0  0  0
  -18.0299  -28.1401   22.8437 C   0  0  0  0  0  0
  -24.1496  -36.7298   23.2645 C   0  0  0  0  0  0
  -25.9781  -30.7590   21.3837 C   0  0  0  0  0  0
  -26.0452  -29.3798   20.7293 C   0  0  0  0  0  0
  -27.2083  -28.5420   20.7413 C   0  0  0  0  0  0
  -26.0222  -26.8805   19.4447 C   0  0  0  0  0  0
  -24.8713  -27.6918   19.4486 C   0  0  0  0  0  0
  -23.6491  -29.8231   20.1545 C   0  0  0  0  0  0
  -25.4119  -36.3076   24.0338 C   0  0  1  0  0  0
  -20.5906  -28.3683   23.1289 C   0  0  2  0  0  0
  -20.6797  -26.9386   22.5442 C   0  0  0  0  0  0
  -19.5785  -26.6378   21.5233 C   0  0  0  0  0  0
  -18.1932  -26.7920   22.1600 C   0  0  0  0  0  0
  -19.1549  -28.8866   23.2849 C   0  0  0  0  0  0
  -18.9465  -30.1463   23.8841 C   0  0  0  0  0  0
  -17.6459  -30.6579   24.0558 C   0  0  0  0  0  0
  -25.9056  -34.9448   23.5121 C   0  0  0  0  0  0
  -16.5349  -29.9065   23.6358 C   0  0  0  0  0  0
  -16.7280  -28.6530   23.0306 C   0  0  0  0  0  0
  -26.4482  -31.6575   25.0727 C   0  0  0  0  0  0
  -25.3679  -31.3747   26.1442 C   0  0  0  0  0  0
  -27.0367  -30.3013   24.6218 C   0  0  0  0  0  0
  -27.6071  -32.4313   25.7487 C   0  0  0  0  0  0
  -27.5578  -37.1803   24.8472 C   0  0  0  0  0  0
  -21.4237  -29.3005   22.3647 N   0  0  0  0  0  0
  -26.4299  -37.3795   23.9404 N   0  0  0  0  0  0
  -24.7007  -31.0476   22.0969 N   0  0  0  0  0  0
  -23.4250  -28.8070   23.2972 O   0  0  0  0  0  0
  -28.2951  -26.3343   20.2405 O   0  0  0  0  0  0
  -26.5656  -34.8915   22.4702 O   0  0  0  0  0  0
  -23.5506  -32.1369   23.7281 O   0  0  0  0  0  0
  -31.2258  -18.6911   22.6535 C   0  0  0  0  0  0
  -31.0371  -17.4426   22.0327 C   0  0  0  0  0  0
  -30.4706  -19.8363   22.3009 C   0  0  0  0  0  0
  -30.0678  -17.2592   21.0262 C   0  0  0  0  0  0
  -29.5328  -19.7719   21.2304 C   0  0  0  0  0  0
  -29.3285  -18.4538   20.6204 C   0  0  0  0  0  0
  -30.2036  -20.7224   25.4115 C   0  0  0  0  0  0
  -31.6932  -21.0059   25.2030 C   0  0  0  0  0  0
  -29.5362  -21.1534   24.1059 C   0  0  0  0  0  0
  -31.8351  -21.3494   23.7121 C   0  0  0  0  0  0
  -28.7617  -23.6577   20.7594 C   0  0  0  0  0  0
  -28.9535  -22.1598   20.1417 C   0  0  0  0  0  0
  -28.1864  -24.8762   19.8524 C   0  0  0  0  0  0
  -30.5601  -21.0281   23.0704 N   0  0  0  0  0  0
  -29.7867  -15.8664   20.5801 N   0  0  0  0  0  0
  -28.7344  -20.9779   21.0591 N   0  0  0  0  0  0
  -28.3636  -18.3115   19.6789 F   0  0  0  0  0  0
  -31.4754  -12.5908   19.1551 H   0  0  0  0  0  0
  -30.3921  -11.4795   19.9434 H   0  0  0  0  0  0
  -29.7981  -11.7229   17.5126 H   0  0  0  0  0  0
  -29.6349  -13.4519   17.7073 H   0  0  0  0  0  0
  -27.8976  -11.2698   18.9075 H   0  0  0  0  0  0
  -27.3751  -12.4967   17.7888 H   0  0  0  0  0  0
  -27.6312  -14.2418   19.4518 H   0  0  0  0  0  0
  -28.7242  -12.1509   21.4037 H   0  0  0  0  0  0
  -28.4147  -13.8249   21.7846 H   0  0  0  0  0  0
  -25.2741   -9.5679   22.4742 H   0  0  0  0  0  0
  -23.9985   -7.4635   22.7472 H   0  0  0  0  0  0
  -21.0835   -8.8737   19.8966 H   0  0  0  0  0  0
  -22.3671  -10.9631   19.6130 H   0  0  0  0  0  0
  -21.2002   -7.6118   23.9708 H   0  0  0  0  0  0
  -21.1490   -6.0518   25.9088 H   0  0  0  0  0  0
  -22.0597   -2.7577   23.2893 H   0  0  0  0  0  0
  -22.4094  -11.9863   22.4800 H   0  0  0  0  0  0
  -21.1056  -13.1193   22.2555 H   0  0  0  0  0  0
  -24.6564  -15.8415   20.5339 H   0  0  0  0  0  0
  -26.2594  -15.6347   20.0514 H   0  0  0  0  0  0
  -26.7191  -32.5371   23.1019 H   0  0  0  0  0  0
  -24.9988  -33.9673   25.0338 H   0  0  0  0  0  0
  -22.7256  -31.3012   21.3977 H   0  0  0  0  0  0
  -23.3754  -35.9622   23.3317 H   0  0  0  0  0  0
  -24.3604  -36.8939   22.2069 H   0  0  0  0  0  0
  -23.7264  -37.6495   23.6662 H   0  0  0  0  0  0
  -26.1256  -31.5163   20.6143 H   0  0  0  0  0  0
  -26.8555  -30.8110   22.0161 H   0  0  0  0  0  0
  -28.0970  -28.8653   21.2658 H   0  0  0  0  0  0
  -25.9403  -25.9590   18.8890 H   0  0  0  0  0  0
  -23.9788  -27.3586   18.9368 H   0  0  0  0  0  0
  -23.7814  -30.6103   19.4130 H   0  0  0  0  0  0
  -22.7661  -29.2675   19.8327 H   0  0  0  0  0  0
  -25.1297  -36.1933   25.0828 H   0  0  0  0  0  0
  -20.9972  -28.3235   24.1438 H   0  0  0  0  0  0
  -20.5792  -26.2209   23.3609 H   0  0  0  0  0  0
  -21.6635  -26.7449   22.1149 H   0  0  0  0  0  0
  -19.6972  -25.6302   21.1242 H   0  0  0  0  0  0
  -19.6794  -27.3188   20.6753 H   0  0  0  0  0  0
  -17.4225  -26.6696   21.3968 H   0  0  0  0  0  0
  -18.0278  -26.0105   22.9026 H   0  0  0  0  0  0
  -19.7957  -30.7311   24.2167 H   0  0  0  0  0  0
  -17.5018  -31.6261   24.5146 H   0  0  0  0  0  0
  -15.5333  -30.2944   23.7753 H   0  0  0  0  0  0
  -15.8670  -28.0879   22.6968 H   0  0  0  0  0  0
  -24.5990  -30.6916   25.7802 H   0  0  0  0  0  0
  -24.8679  -32.2892   26.4654 H   0  0  0  0  0  0
  -25.7995  -30.9156   27.0354 H   0  0  0  0  0  0
  -26.2952  -29.6763   24.1203 H   0  0  0  0  0  0
  -27.4046  -29.7296   25.4747 H   0  0  0  0  0  0
  -27.8816  -30.4331   23.9467 H   0  0  0  0  0  0
  -27.2742  -33.3698   26.1909 H   0  0  0  0  0  0
  -28.3898  -32.6728   25.0304 H   0  0  0  0  0  0
  -28.0645  -31.8516   26.5517 H   0  0  0  0  0  0
  -28.2579  -38.0103   24.7493 H   0  0  0  0  0  0
  -28.1092  -36.2635   24.6286 H   0  0  0  0  0  0
  -27.2309  -37.1444   25.8886 H   0  0  0  0  0  0
  -20.9423  -29.8771   21.6858 H   0  0  0  0  0  0
  -26.0191  -38.2875   24.1401 H   0  0  0  0  0  0
  -31.9296  -18.7229   23.4729 H   0  0  0  0  0  0
  -31.6045  -16.6020   22.4008 H   0  0  0  0  0  0
  -29.7903  -21.2503   26.2750 H   0  0  0  0  0  0
  -30.0539  -19.6541   25.5729 H   0  0  0  0  0  0
  -32.2878  -20.1320   25.4796 H   0  0  0  0  0  0
  -32.0338  -21.8365   25.8247 H   0  0  0  0  0  0
  -29.2233  -22.1980   24.1745 H   0  0  0  0  0  0
  -28.6445  -20.5552   23.9020 H   0  0  0  0  0  0
  -32.6913  -20.8455   23.2558 H   0  0  0  0  0  0
  -32.0186  -22.4198   23.6058 H   0  0  0  0  0  0
  -29.7271  -23.9634   21.1643 H   0  0  0  0  0  0
  -28.1105  -23.5835   21.6310 H   0  0  0  0  0  0
  -29.9467  -22.0861   19.6958 H   0  0  0  0  0  0
  -28.2533  -22.0507   19.3118 H   0  0  0  0  0  0
  -27.1484  -24.5919   19.7212 H   0  0  0  0  0  0
  -28.6288  -24.7997   18.8588 H   0  0  0  0  0  0
  -28.8139  -15.6804   20.3947 H   0  0  0  0  0  0
  -28.8593  -21.3801   21.9876 H   0  0  0  0  0  0
  1 25  1  0  0  0
  1 30  2  0  0  0
  1 85  1  0  0  0
  2  3  1  0  0  0
  2 25  1  0  0  0
  2 88  1  0  0  0
  2 89  1  0  0  0
  3  4  1  0  0  0
  3 90  1  0  0  0
  3 91  1  0  0  0
  4  5  1  0  0  0
  4 92  1  0  0  0
  4 93  1  0  0  0
  5  6  1  0  0  0
  5 26  1  0  0  0
  5 94  1  0  0  0
  6 25  1  0  0  0
  6 95  1  0  0  0
  6 96  1  0  0  0
  7  8  2  0  0  0
  7 26  1  0  0  0
  7 29  1  0  0  0
  8  9  1  0  0  0
  8 22  1  0  0  0
  9 10  1  0  0  0
  9 27  2  0  0  0
 10 11  2  0  0  0
 10 15  1  0  0  0
 11 12  1  0  0  0
 11 97  1  0  0  0
 12 13  2  0  0  0
 12 98  1  0  0  0
 13 14  1  0  0  0
 13 31  1  0  0  0
 14 15  2  0  0  0
 14 99  1  0  0  0
 15100  1  0  0  0
 16 17  2  0  0  0
 16 21  1  0  0  0
 16 31  1  0  0  0
 17 18  1  0  0  0
 17101  1  0  0  0
 18 19  2  0  0  0
 18102  1  0  0  0
 19 20  1  0  0  0
 19 24  1  0  0  0
 20 21  2  0  0  0
 20103  1  0  0  0
 21 23  1  0  0  0
 22 28  1  0  0  0
 22 32  2  0  0  0
 26 27  1  0  0  0
 28104  1  0  0  0
 28105  1  0  0  0
 29106  1  0  0  0
 29107  1  0  0  0
 33 34  1  0  0  0
 33 66  1  0  0  0
 33 70  2  0  0  0
 34 36  1  0  0  0
 34 59  1  0  0  0
 34108  1  0  0  0
 35 44  2  0  0  0
 35 45  1  0  0  0
 35 68  1  0  0  0
 36 56  1  0  0  0
 36109  1  0  0  0
 37 39  1  0  0  0
 37 47  1  0  0  0
 37 66  1  0  0  0
 37110  1  0  0  0
 38 43  2  0  0  0
 38 46  1  0  0  0
 38 47  1  0  0  0
 39 64  1  0  0  0
 39 67  2  0  0  0
 40 52  1  0  0  0
 40 53  2  0  0  0
 40 58  1  0  0  0
 41111  1  0  0  0
 41112  1  0  0  0
 41113  1  0  0  0
 41 48  1  0  0  0
 42 43  1  0  0  0
 42 66  1  0  0  0
 42114  1  0  0  0
 42115  1  0  0  0
 43 44  1  0  0  0
 44116  1  0  0  0
 45 46  2  0  0  0
 45117  1  0  0  0
 46118  1  0  0  0
 47119  1  0  0  0
 47120  1  0  0  0
 48 56  1  0  0  0
 48 65  1  0  0  0
 48121  1  0  0  0
 49 50  1  0  0  0
 49 53  1  0  0  0
 49 64  1  0  0  0
 49122  1  0  0  0
 50 51  1  0  0  0
 50123  1  0  0  0
 50124  1  0  0  0
 51 52  1  0  0  0
 51125  1  0  0  0
 51126  1  0  0  0
 52127  1  0  0  0
 52128  1  0  0  0
 53 54  1  0  0  0
 54 55  2  0  0  0
 54129  1  0  0  0
 55 57  1  0  0  0
 55130  1  0  0  0
 56 69  2  0  0  0
 57 58  2  0  0  0
 57131  1  0  0  0
 58132  1  0  0  0
 59 60  1  0  0  0
 59 61  1  0  0  0
 59 62  1  0  0  0
 60133  1  0  0  0
 60134  1  0  0  0
 60135  1  0  0  0
 61136  1  0  0  0
 61137  1  0  0  0
 61138  1  0  0  0
 62139  1  0  0  0
 62140  1  0  0  0
 62141  1  0  0  0
 63 65  1  0  0  0
 63142  1  0  0  0
 63143  1  0  0  0
 63144  1  0  0  0
 64145  1  0  0  0
 65146  1  0  0  0
 68 83  1  0  0  0
 71 72  2  0  0  0
 71 73  1  0  0  0
 71147  1  0  0  0
 72 74  1  0  0  0
 72148  1  0  0  0
 73 75  2  0  0  0
 73 84  1  0  0  0
 74 76  2  0  0  0
 74 85  1  0  0  0
 75 76  1  0  0  0
 75 86  1  0  0  0
 76 87  1  0  0  0
 77 78  1  0  0  0
 77 79  1  0  0  0
 77149  1  0  0  0
 77150  1  0  0  0
 78 80  1  0  0  0
 78151  1  0  0  0
 78152  1  0  0  0
 79 84  1  0  0  0
 79153  1  0  0  0
 79154  1  0  0  0
 80 84  1  0  0  0
 80155  1  0  0  0
 80156  1  0  0  0
 81 82  1  0  0  0
 81 83  1  0  0  0
 81157  1  0  0  0
 81158  1  0  0  0
 82 86  1  0  0  0
 82159  1  0  0  0
 82160  1  0  0  0
 83161  1  0  0  0
 83162  1  0  0  0
 85163  1  0  0  0
 86164  1  0  0  0
M  ISO  4   1 100  68 101  83 101  85 100
M  END
> <chiral flag>
0

> <version>
0

> <s_m_source_file>
/data/baiqing/PycharmProjects/Reinvent-master-3.2/result/LINK_invent/BTK/process_docking_weight1_custom_product_contain_oxygen_bond_distance_aromatic_linkinvent_7_9_3/rearranged_h_0022.sdf

> <i_m_source_file_index>
42

> <r_mmod_Potential_Energy-OPLS-2005>
382.769622802734

> <r_mmod_Stretch_Energy-OPLS-2005>
132.940994262695

> <r_mmod_Bend_Energy-OPLS-2005>
223.499313354492

> <r_mmod_Torsional_Energy-OPLS-2005>
336.702453613281

> <r_mmod_Improper_Torsional_Energy-OPLS-2005>
22.2551746368408

> <r_mmod_Van_der_Waal_Energy-OPLS-2005>
147.147277832031

> <r_mmod_Electrostatic_Energy-OPLS-2005>
-355.383880615234

> <r_mmod_Solvation_Energy-OPLS-2005>
-219.87190246582

> <b_mmod_Minimization_Converged-OPLS-2005>
0

> <r_mmod_RMS_Derivative-OPLS-2005>
4.39017200469971

$$$$
43
                    3D
 Structure written by MMmdl.
167176  0  0  1  0            999 V2000
  -30.6973  -14.5292   20.5590 C   0  0  0  0  0  0
  -30.4311  -12.3399   19.4315 C   0  0  0  0  0  0
  -29.4989  -12.5067   18.2130 C   0  0  0  0  0  0
  -28.0216  -12.3568   18.6269 C   0  0  0  0  0  0
  -27.6568  -13.2113   19.8700 C   0  0  2  0  0  0
  -28.7052  -13.0253   20.9931 C   0  0  0  0  0  0
  -25.2457  -13.8040   20.5631 C   0  0  0  0  0  0
  -24.1774  -13.0324   20.9214 C   0  0  0  0  0  0
  -24.6390  -11.6830   20.8764 C   0  0  0  0  0  0
  -23.9064  -10.4232   21.0406 C   0  0  0  0  0  0
  -24.3613   -9.4159   21.9189 C   0  0  0  0  0  0
  -23.6277   -8.2207   22.0755 C   0  0  0  0  0  0
  -22.4261   -8.0259   21.3542 C   0  0  0  0  0  0
  -21.9895   -9.0231   20.4642 C   0  0  0  0  0  0
  -22.7237  -10.2099   20.3052 C   0  0  0  0  0  0
  -21.6842   -6.0723   22.5278 C   0  0  0  0  0  0
  -21.4012   -6.5630   23.8212 C   0  0  0  0  0  0
  -21.3654   -5.6783   24.9172 C   0  0  0  0  0  0
  -21.6040   -4.3047   24.7223 C   0  0  0  0  0  0
  -21.8823   -3.8137   23.4346 C   0  0  0  0  0  0
  -21.9190   -4.6953   22.3401 C   0  0  0  0  0  0
  -22.7802  -13.5143   21.1865 C   0  0  0  0  0  0
  -22.1660   -4.2140   21.0977 F   0  0  0  0  0  0
  -21.5624   -3.4531   25.7737 F   0  0  0  0  0  0
  -30.0345  -13.3403   20.4372 N   0  0  0  0  0  0
  -26.2984  -12.9306   20.3348 N   0  0  0  0  0  0
  -25.9331  -11.6459   20.5798 N   0  0  0  0  0  0
  -22.0440  -12.8170   22.0440 N   0  0  0  0  0  0
  -25.3869  -15.1715   20.3895 N   0  0  0  0  0  0
  -31.8354  -14.6969   20.1135 O   0  0  0  0  0  0
  -21.6620   -6.8864   21.4241 O   0  0  0  0  0  0
  -22.3501  -14.5453   20.6703 O   0  0  0  0  0  0
  -24.6177  -31.8664   23.2096 C   0  0  0  0  0  0
  -25.9060  -32.4814   23.8397 C   0  0  1  0  0  0
  -27.2375  -27.4051   20.0926 C   0  0  0  0  0  0
  -25.5908  -33.8613   24.2328 N   0  0  0  0  0  0
  -23.4070  -30.4914   21.5509 C   0  0  2  0  0  0
  -24.8527  -28.9567   20.1154 C   0  0  0  0  0  0
  -22.7428  -29.4653   22.4978 C   0  0  0  0  0  0
  -18.0278  -28.1380   22.8487 C   0  0  0  0  0  0
  -24.1487  -36.7309   23.2637 C   0  0  0  0  0  0
  -25.9403  -30.8221   21.3682 C   0  0  0  0  0  0
  -26.0165  -29.4553   20.7128 C   0  0  0  0  0  0
  -27.2086  -28.6879   20.6980 C   0  0  0  0  0  0
  -26.0445  -26.9317   19.4909 C   0  0  0  0  0  0
  -24.8631  -27.6948   19.5026 C   0  0  0  0  0  0
  -23.6169  -29.8272   20.1650 C   0  0  0  0  0  0
  -25.4106  -36.3104   24.0338 C   0  0  1  0  0  0
  -20.5869  -28.3671   23.1304 C   0  0  2  0  0  0
  -20.6767  -26.9404   22.5411 C   0  0  0  0  0  0
  -19.5747  -26.6387   21.5206 C   0  0  0  0  0  0
  -18.1926  -26.7927   22.1618 C   0  0  0  0  0  0
  -19.1526  -28.8841   23.2894 C   0  0  0  0  0  0
  -18.9455  -30.1445   23.8913 C   0  0  0  0  0  0
  -17.6456  -30.6582   24.0566 C   0  0  0  0  0  0
  -25.9035  -34.9469   23.5129 C   0  0  0  0  0  0
  -16.5349  -29.9086   23.6323 C   0  0  0  0  0  0
  -16.7266  -28.6501   23.0348 C   0  0  0  0  0  0
  -26.4478  -31.6598   25.0732 C   0  0  0  0  0  0
  -25.3741  -31.3716   26.1484 C   0  0  0  0  0  0
  -27.0305  -30.3035   24.6122 C   0  0  0  0  0  0
  -27.6062  -32.4314   25.7482 C   0  0  0  0  0  0
  -27.5580  -37.1808   24.8464 C   0  0  0  0  0  0
  -21.4151  -29.3038   22.3710 N   0  0  0  0  0  0
  -26.4293  -37.3788   23.9408 N   0  0  0  0  0  0
  -24.6737  -31.0745   22.1011 N   0  0  0  0  0  0
  -23.4186  -28.8188   23.3023 O   0  0  0  0  0  0
  -28.4093  -26.6548   20.1136 O   0  0  0  0  0  0
  -26.5594  -34.8921   22.4689 O   0  0  0  0  0  0
  -23.5363  -32.1429   23.7474 O   0  0  0  0  0  0
  -31.6648  -18.9150   21.4109 C   0  0  0  0  0  0
  -31.4775  -17.5206   21.2917 C   0  0  0  0  0  0
  -30.5793  -19.8200   21.3557 C   0  0  0  0  0  0
  -29.2768  -19.2934   21.1486 C   0  0  0  0  0  0
  -29.0907  -17.8823   20.9849 C   0  0  0  0  0  0
  -30.1902  -16.9745   21.0871 C   0  0  0  0  0  0
  -29.8086  -23.5394   21.0127 C   0  0  0  0  0  0
  -29.8428  -23.4297   18.6428 C   0  0  0  0  0  0
  -30.5712  -22.2234   19.2589 C   0  0  0  0  0  0
  -29.6601  -24.4504   19.7819 C   0  0  1  0  0  0
  -28.0924  -20.2631   21.1204 C   0  0  0  0  0  0
  -27.3519  -17.5883   19.1692 C   0  0  0  0  0  0
  -27.7045  -17.3427   20.6459 C   0  0  0  0  0  0
  -30.8529  -21.3199   21.6298 C   0  0  0  0  0  0
  -28.3428  -25.2810   19.6628 C   0  0  0  0  0  0
  -30.3297  -22.3354   20.6877 N   0  0  0  0  0  0
  -29.9587  -15.5472   21.0603 N   0  0  0  0  0  0
  -29.5233  -23.9096   22.1546 O   0  0  0  0  0  0
  -31.4735  -12.4455   19.1262 H   0  0  0  0  0  0
  -30.3448  -11.3353   19.8480 H   0  0  0  0  0  0
  -29.7470  -11.7717   17.4459 H   0  0  0  0  0  0
  -29.6569  -13.4871   17.7604 H   0  0  0  0  0  0
  -27.8458  -11.3020   18.8413 H   0  0  0  0  0  0
  -27.3684  -12.6089   17.7909 H   0  0  0  0  0  0
  -27.6857  -14.2525   19.5504 H   0  0  0  0  0  0
  -28.6953  -11.9955   21.3528 H   0  0  0  0  0  0
  -28.4594  -13.6375   21.8620 H   0  0  0  0  0  0
  -25.2754   -9.5633   22.4770 H   0  0  0  0  0  0
  -23.9971   -7.4595   22.7476 H   0  0  0  0  0  0
  -21.0823   -8.8757   19.8953 H   0  0  0  0  0  0
  -22.3700  -10.9644   19.6166 H   0  0  0  0  0  0
  -21.2014   -7.6141   23.9714 H   0  0  0  0  0  0
  -21.1467   -6.0512   25.9074 H   0  0  0  0  0  0
  -22.0610   -2.7601   23.2848 H   0  0  0  0  0  0
  -22.4042  -11.9834   22.4845 H   0  0  0  0  0  0
  -21.1067  -13.1224   22.2644 H   0  0  0  0  0  0
  -24.5929  -15.7967   20.4727 H   0  0  0  0  0  0
  -26.1960  -15.6112   19.9737 H   0  0  0  0  0  0
  -26.7128  -32.5516   23.1156 H   0  0  0  0  0  0
  -25.0068  -33.9772   25.0481 H   0  0  0  0  0  0
  -22.6969  -31.3093   21.4124 H   0  0  0  0  0  0
  -23.3744  -35.9648   23.3310 H   0  0  0  0  0  0
  -24.3580  -36.8912   22.2049 H   0  0  0  0  0  0
  -23.7248  -37.6521   23.6644 H   0  0  0  0  0  0
  -26.0586  -31.5885   20.6011 H   0  0  0  0  0  0
  -26.8261  -30.8730   21.9895 H   0  0  0  0  0  0
  -28.1057  -29.0715   21.1639 H   0  0  0  0  0  0
  -25.9914  -25.9698   19.0041 H   0  0  0  0  0  0
  -23.9681  -27.3045   19.0380 H   0  0  0  0  0  0
  -23.7291  -30.6043   19.4080 H   0  0  0  0  0  0
  -22.7393  -29.2512   19.8659 H   0  0  0  0  0  0
  -25.1283  -36.1970   25.0831 H   0  0  0  0  0  0
  -20.9960  -28.3243   24.1426 H   0  0  0  0  0  0
  -20.5661  -26.2282   23.3601 H   0  0  0  0  0  0
  -21.6641  -26.7441   22.1211 H   0  0  0  0  0  0
  -19.6909  -25.6302   21.1226 H   0  0  0  0  0  0
  -19.6687  -27.3203   20.6741 H   0  0  0  0  0  0
  -17.4195  -26.6671   21.4024 H   0  0  0  0  0  0
  -18.0331  -26.0067   22.9011 H   0  0  0  0  0  0
  -19.7931  -30.7253   24.2294 H   0  0  0  0  0  0
  -17.5013  -31.6264   24.5167 H   0  0  0  0  0  0
  -15.5350  -30.2994   23.7639 H   0  0  0  0  0  0
  -15.8665  -28.0823   22.7061 H   0  0  0  0  0  0
  -24.5907  -30.7067   25.7829 H   0  0  0  0  0  0
  -24.8942  -32.2877   26.4938 H   0  0  0  0  0  0
  -25.8094  -30.8883   27.0239 H   0  0  0  0  0  0
  -26.2850  -29.6797   24.1175 H   0  0  0  0  0  0
  -27.4066  -29.7272   25.4585 H   0  0  0  0  0  0
  -27.8692  -30.4347   23.9281 H   0  0  0  0  0  0
  -27.2695  -33.3608   26.2087 H   0  0  0  0  0  0
  -28.3850  -32.6882   25.0289 H   0  0  0  0  0  0
  -28.0753  -31.8421   26.5371 H   0  0  0  0  0  0
  -28.2610  -38.0094   24.7498 H   0  0  0  0  0  0
  -28.1064  -36.2628   24.6300 H   0  0  0  0  0  0
  -27.2299  -37.1473   25.8868 H   0  0  0  0  0  0
  -20.9314  -29.8770   21.6938 H   0  0  0  0  0  0
  -26.0183  -38.2866   24.1409 H   0  0  0  0  0  0
  -32.6649  -19.2866   21.5862 H   0  0  0  0  0  0
  -32.3384  -16.8743   21.3861 H   0  0  0  0  0  0
  -28.8709  -23.1061   18.2660 H   0  0  0  0  0  0
  -30.3934  -23.8483   17.7998 H   0  0  0  0  0  0
  -31.6447  -22.2756   19.0711 H   0  0  0  0  0  0
  -30.2017  -21.2782   18.8588 H   0  0  0  0  0  0
  -30.5133  -25.1293   19.7773 H   0  0  0  0  0  0
  -28.2153  -21.0514   21.8618 H   0  0  0  0  0  0
  -27.1307  -19.8163   21.3526 H   0  0  0  0  0  0
  -28.0096  -20.7304   20.1392 H   0  0  0  0  0  0
  -26.3502  -17.2366   18.9266 H   0  0  0  0  0  0
  -28.0538  -17.0759   18.5106 H   0  0  0  0  0  0
  -27.3841  -18.6485   18.9203 H   0  0  0  0  0  0
  -26.9465  -17.7577   21.3066 H   0  0  0  0  0  0
  -27.6498  -16.2809   20.8572 H   0  0  0  0  0  0
  -31.9301  -21.4789   21.6921 H   0  0  0  0  0  0
  -30.4795  -21.5297   22.6334 H   0  0  0  0  0  0
  -27.5442  -24.7557   20.1903 H   0  0  0  0  0  0
  -28.0629  -25.3024   18.6087 H   0  0  0  0  0  0
  -29.0261  -15.2630   21.3131 H   0  0  0  0  0  0
  1 25  1  0  0  0
  1 30  2  0  0  0
  1 87  1  0  0  0
  2  3  1  0  0  0
  2 25  1  0  0  0
  2 89  1  0  0  0
  2 90  1  0  0  0
  3  4  1  0  0  0
  3 91  1  0  0  0
  3 92  1  0  0  0
  4  5  1  0  0  0
  4 93  1  0  0  0
  4 94  1  0  0  0
  5  6  1  0  0  0
  5 26  1  0  0  0
  5 95  1  0  0  0
  6 25  1  0  0  0
  6 96  1  0  0  0
  6 97  1  0  0  0
  7  8  2  0  0  0
  7 26  1  0  0  0
  7 29  1  0  0  0
  8  9  1  0  0  0
  8 22  1  0  0  0
  9 10  1  0  0  0
  9 27  2  0  0  0
 10 11  2  0  0  0
 10 15  1  0  0  0
 11 12  1  0  0  0
 11 98  1  0  0  0
 12 13  2  0  0  0
 12 99  1  0  0  0
 13 14  1  0  0  0
 13 31  1  0  0  0
 14 15  2  0  0  0
 14100  1  0  0  0
 15101  1  0  0  0
 16 17  2  0  0  0
 16 21  1  0  0  0
 16 31  1  0  0  0
 17 18  1  0  0  0
 17102  1  0  0  0
 18 19  2  0  0  0
 18103  1  0  0  0
 19 20  1  0  0  0
 19 24  1  0  0  0
 20 21  2  0  0  0
 20104  1  0  0  0
 21 23  1  0  0  0
 22 28  1  0  0  0
 22 32  2  0  0  0
 26 27  1  0  0  0
 28105  1  0  0  0
 28106  1  0  0  0
 29107  1  0  0  0
 29108  1  0  0  0
 33 34  1  0  0  0
 33 66  1  0  0  0
 33 70  2  0  0  0
 34 36  1  0  0  0
 34 59  1  0  0  0
 34109  1  0  0  0
 35 44  2  0  0  0
 35 45  1  0  0  0
 35 68  1  0  0  0
 36 56  1  0  0  0
 36110  1  0  0  0
 37 39  1  0  0  0
 37 47  1  0  0  0
 37 66  1  0  0  0
 37111  1  0  0  0
 38 43  2  0  0  0
 38 46  1  0  0  0
 38 47  1  0  0  0
 39 64  1  0  0  0
 39 67  2  0  0  0
 40 52  1  0  0  0
 40 53  2  0  0  0
 40 58  1  0  0  0
 41112  1  0  0  0
 41113  1  0  0  0
 41114  1  0  0  0
 41 48  1  0  0  0
 42 43  1  0  0  0
 42 66  1  0  0  0
 42115  1  0  0  0
 42116  1  0  0  0
 43 44  1  0  0  0
 44117  1  0  0  0
 45 46  2  0  0  0
 45118  1  0  0  0
 46119  1  0  0  0
 47120  1  0  0  0
 47121  1  0  0  0
 48 56  1  0  0  0
 48 65  1  0  0  0
 48122  1  0  0  0
 49 50  1  0  0  0
 49 53  1  0  0  0
 49 64  1  0  0  0
 49123  1  0  0  0
 50 51  1  0  0  0
 50124  1  0  0  0
 50125  1  0  0  0
 51 52  1  0  0  0
 51126  1  0  0  0
 51127  1  0  0  0
 52128  1  0  0  0
 52129  1  0  0  0
 53 54  1  0  0  0
 54 55  2  0  0  0
 54130  1  0  0  0
 55 57  1  0  0  0
 55131  1  0  0  0
 56 69  2  0  0  0
 57 58  2  0  0  0
 57132  1  0  0  0
 58133  1  0  0  0
 59 60  1  0  0  0
 59 61  1  0  0  0
 59 62  1  0  0  0
 60134  1  0  0  0
 60135  1  0  0  0
 60136  1  0  0  0
 61137  1  0  0  0
 61138  1  0  0  0
 61139  1  0  0  0
 62140  1  0  0  0
 62141  1  0  0  0
 62142  1  0  0  0
 63 65  1  0  0  0
 63143  1  0  0  0
 63144  1  0  0  0
 63145  1  0  0  0
 64146  1  0  0  0
 65147  1  0  0  0
 68 85  1  0  0  0
 71 72  2  0  0  0
 71 73  1  0  0  0
 71148  1  0  0  0
 72 76  1  0  0  0
 72149  1  0  0  0
 73 74  2  0  0  0
 73 84  1  0  0  0
 74 75  1  0  0  0
 74 81  1  0  0  0
 75 76  2  0  0  0
 75 83  1  0  0  0
 76 87  1  0  0  0
 77 80  1  0  0  0
 77 86  1  0  0  0
 77 88  2  0  0  0
 78 79  1  0  0  0
 78 80  1  0  0  0
 78150  1  0  0  0
 78151  1  0  0  0
 79 86  1  0  0  0
 79152  1  0  0  0
 79153  1  0  0  0
 80 85  1  0  0  0
 80154  1  0  0  0
 81155  1  0  0  0
 81156  1  0  0  0
 81157  1  0  0  0
 82 83  1  0  0  0
 82158  1  0  0  0
 82159  1  0  0  0
 82160  1  0  0  0
 83161  1  0  0  0
 83162  1  0  0  0
 84 86  1  0  0  0
 84163  1  0  0  0
 84164  1  0  0  0
 85165  1  0  0  0
 85166  1  0  0  0
 87167  1  0  0  0
M  ISO  4   1 100  68 101  85 101  87 100
M  END
> <chiral flag>
0

> <version>
0

> <s_m_source_file>
/data/baiqing/PycharmProjects/Reinvent-master-3.2/result/LINK_invent/BTK/process_docking_weight1_custom_product_contain_oxygen_bond_distance_aromatic_linkinvent_7_9_3/rearranged_h_0022.sdf

> <i_m_source_file_index>
43

> <r_mmod_Potential_Energy-OPLS-2005>
1.38367092609406

> <r_mmod_Stretch_Energy-OPLS-2005>
50.3546829223633

> <r_mmod_Bend_Energy-OPLS-2005>
139.41047668457

> <r_mmod_Torsional_Energy-OPLS-2005>
239.748809814453

> <r_mmod_Improper_Torsional_Energy-OPLS-2005>
5.09626197814941

> <r_mmod_Van_der_Waal_Energy-OPLS-2005>
157.967300415039

> <r_mmod_Electrostatic_Energy-OPLS-2005>
-386.354187011719

> <r_mmod_Solvation_Energy-OPLS-2005>
-224.242691040039

> <b_mmod_Minimization_Converged-OPLS-2005>
0

> <r_mmod_RMS_Derivative-OPLS-2005>
0.663868367671967

$$$$
44
                    3D
 Structure written by MMmdl.
176185  0  0  1  0            999 V2000
  -30.6517  -14.6412   20.5494 C   0  0  0  0  0  0
  -30.4359  -12.4137   19.4520 C   0  0  0  0  0  0
  -29.5052  -12.5387   18.2257 C   0  0  0  0  0  0
  -28.0282  -12.3711   18.6338 C   0  0  0  0  0  0
  -27.6557  -13.2215   19.8761 C   0  0  2  0  0  0
  -28.6986  -13.0486   20.9985 C   0  0  0  0  0  0
  -25.2559  -13.8186   20.5705 C   0  0  0  0  0  0
  -24.1819  -13.0439   20.9183 C   0  0  0  0  0  0
  -24.6402  -11.6920   20.8742 C   0  0  0  0  0  0
  -23.9083  -10.4291   21.0406 C   0  0  0  0  0  0
  -24.3631   -9.4206   21.9184 C   0  0  0  0  0  0
  -23.6299   -8.2243   22.0752 C   0  0  0  0  0  0
  -22.4279   -8.0285   21.3545 C   0  0  0  0  0  0
  -21.9924   -9.0256   20.4640 C   0  0  0  0  0  0
  -22.7257  -10.2132   20.3051 C   0  0  0  0  0  0
  -21.6855   -6.0741   22.5275 C   0  0  0  0  0  0
  -21.4007   -6.5641   23.8206 C   0  0  0  0  0  0
  -21.3661   -5.6798   24.9173 C   0  0  0  0  0  0
  -21.6050   -4.3060   24.7229 C   0  0  0  0  0  0
  -21.8818   -3.8153   23.4344 C   0  0  0  0  0  0
  -21.9185   -4.6969   22.3400 C   0  0  0  0  0  0
  -22.7839  -13.5217   21.1853 C   0  0  0  0  0  0
  -22.1659   -4.2152   21.0977 F   0  0  0  0  0  0
  -21.5635   -3.4546   25.7739 F   0  0  0  0  0  0
  -30.0120  -13.4250   20.4470 N   0  0  0  0  0  0
  -26.2999  -12.9376   20.3389 N   0  0  0  0  0  0
  -25.9332  -11.6522   20.5781 N   0  0  0  0  0  0
  -22.0510  -12.8160   22.0403 N   0  0  0  0  0  0
  -25.4283  -15.1898   20.4126 N   0  0  0  0  0  0
  -31.7754  -14.7933   20.0595 O   0  0  0  0  0  0
  -21.6637   -6.8883   21.4239 O   0  0  0  0  0  0
  -22.3506  -14.5535   20.6744 O   0  0  0  0  0  0
  -24.6243  -31.8603   23.2028 C   0  0  0  0  0  0
  -25.9099  -32.4778   23.8355 C   0  0  1  0  0  0
  -27.2290  -27.3271   20.1248 C   0  0  0  0  0  0
  -25.5917  -33.8581   24.2288 N   0  0  0  0  0  0
  -23.4174  -30.4833   21.5450 C   0  0  2  0  0  0
  -24.8659  -28.9376   20.1111 C   0  0  0  0  0  0
  -22.7470  -29.4617   22.4943 C   0  0  0  0  0  0
  -18.0283  -28.1370   22.8474 C   0  0  0  0  0  0
  -24.1491  -36.7303   23.2639 C   0  0  0  0  0  0
  -25.9565  -30.7944   21.3719 C   0  0  0  0  0  0
  -26.0321  -29.4207   20.7175 C   0  0  0  0  0  0
  -27.2161  -28.6273   20.7139 C   0  0  0  0  0  0
  -26.0450  -26.9006   19.4800 C   0  0  0  0  0  0
  -24.8735  -27.6824   19.4824 C   0  0  0  0  0  0
  -23.6331  -29.8170   20.1602 C   0  0  0  0  0  0
  -25.4113  -36.3089   24.0331 C   0  0  1  0  0  0
  -20.5880  -28.3676   23.1285 C   0  0  2  0  0  0
  -20.6765  -26.9403   22.5407 C   0  0  0  0  0  0
  -19.5749  -26.6378   21.5196 C   0  0  0  0  0  0
  -18.1925  -26.7909   22.1610 C   0  0  0  0  0  0
  -19.1532  -28.8839   23.2870 C   0  0  0  0  0  0
  -18.9463  -30.1439   23.8889 C   0  0  0  0  0  0
  -17.6468  -30.6575   24.0557 C   0  0  0  0  0  0
  -25.9047  -34.9450   23.5108 C   0  0  0  0  0  0
  -16.5358  -29.9081   23.6323 C   0  0  0  0  0  0
  -16.7270  -28.6498   23.0339 C   0  0  0  0  0  0
  -26.4485  -31.6576   25.0718 C   0  0  0  0  0  0
  -25.3727  -31.3686   26.1451 C   0  0  0  0  0  0
  -27.0328  -30.3010   24.6136 C   0  0  0  0  0  0
  -27.6045  -32.4305   25.7496 C   0  0  0  0  0  0
  -27.5579  -37.1810   24.8466 C   0  0  0  0  0  0
  -21.4184  -29.3037   22.3689 N   0  0  0  0  0  0
  -26.4294  -37.3782   23.9402 N   0  0  0  0  0  0
  -24.6849  -31.0625   22.0968 N   0  0  0  0  0  0
  -23.4203  -28.8145   23.3005 O   0  0  0  0  0  0
  -28.3644  -26.5038   20.1630 O   0  0  0  0  0  0
  -26.5624  -34.8918   22.4682 O   0  0  0  0  0  0
  -23.5415  -32.1397   23.7366 O   0  0  0  0  0  0
  -29.5385  -19.6578   20.4462 C   0  0  0  0  0  0
  -31.3895  -18.4360   21.4675 C   0  0  0  0  0  0
  -31.1322  -20.8369   21.8424 C   0  0  0  0  0  0
  -30.2168  -18.4031   20.6933 C   0  0  0  0  0  0
  -29.9795  -20.9098   21.0165 C   0  0  0  0  0  0
  -31.8320  -19.6296   22.0579 C   0  0  0  0  0  0
  -28.6345  -24.5115   21.7233 C   0  0  0  0  0  0
  -28.9379  -24.1644   19.2495 C   0  0  0  0  0  0
  -29.6365  -23.3051   21.7553 C   0  0  0  0  0  0
  -28.8205  -22.6129   19.5122 C   0  0  0  0  0  0
  -28.2142  -25.0342   20.3190 C   0  0  0  0  0  0
  -34.6826  -21.1127   21.9238 C   0  0  0  0  0  0
  -33.1312  -18.7382   25.1823 C   0  0  0  0  0  0
  -29.4587  -15.8765   22.3265 C   0  0  0  0  0  0
  -29.7616  -17.0141   20.1215 C   0  0  0  0  0  0
  -34.2623  -19.6634   22.1998 C   0  0  0  0  0  0
  -32.8029  -19.9321   24.2798 C   0  0  0  0  0  0
  -29.3240  -22.1885   20.8331 N   0  0  0  0  0  0
  -32.9707  -19.5847   22.8730 N   0  0  0  0  0  0
  -29.9129  -15.7437   20.9358 N   0  0  0  0  0  0
  -31.4739  -12.5435   19.1424 H   0  0  0  0  0  0
  -30.3809  -11.4118   19.8800 H   0  0  0  0  0  0
  -29.7738  -11.8012   17.4685 H   0  0  0  0  0  0
  -29.6460  -13.5171   17.7616 H   0  0  0  0  0  0
  -27.8602  -11.3153   18.8474 H   0  0  0  0  0  0
  -27.3726  -12.6212   17.7989 H   0  0  0  0  0  0
  -27.6832  -14.2663   19.5666 H   0  0  0  0  0  0
  -28.7198  -12.0143   21.3445 H   0  0  0  0  0  0
  -28.4131  -13.6259   21.8730 H   0  0  0  0  0  0
  -25.2786   -9.5666   22.4746 H   0  0  0  0  0  0
  -24.0014   -7.4628   22.7462 H   0  0  0  0  0  0
  -21.0863   -8.8772   19.8930 H   0  0  0  0  0  0
  -22.3737  -10.9666   19.6144 H   0  0  0  0  0  0
  -21.1997   -7.6151   23.9709 H   0  0  0  0  0  0
  -21.1486   -6.0533   25.9076 H   0  0  0  0  0  0
  -22.0594   -2.7613   23.2846 H   0  0  0  0  0  0
  -22.4167  -11.9814   22.4745 H   0  0  0  0  0  0
  -21.1120  -13.1133   22.2652 H   0  0  0  0  0  0
  -24.6692  -15.8520   20.5287 H   0  0  0  0  0  0
  -26.2902  -15.6251   20.1092 H   0  0  0  0  0  0
  -26.7164  -32.5460   23.1106 H   0  0  0  0  0  0
  -25.0048  -33.9719   25.0420 H   0  0  0  0  0  0
  -22.7097  -31.3022   21.4019 H   0  0  0  0  0  0
  -23.3751  -35.9636   23.3299 H   0  0  0  0  0  0
  -24.3580  -36.8935   22.2053 H   0  0  0  0  0  0
  -23.7244  -37.6501   23.6668 H   0  0  0  0  0  0
  -26.0836  -31.5563   20.6015 H   0  0  0  0  0  0
  -26.8380  -30.8470   21.9988 H   0  0  0  0  0  0
  -28.1119  -28.9940   21.1945 H   0  0  0  0  0  0
  -26.0085  -25.9535   18.9614 H   0  0  0  0  0  0
  -23.9827  -27.3131   18.9933 H   0  0  0  0  0  0
  -23.7525  -30.5944   19.4047 H   0  0  0  0  0  0
  -22.7527  -29.2472   19.8566 H   0  0  0  0  0  0
  -25.1290  -36.1942   25.0825 H   0  0  0  0  0  0
  -20.9959  -28.3243   24.1411 H   0  0  0  0  0  0
  -20.5650  -26.2286   23.3602 H   0  0  0  0  0  0
  -21.6637  -26.7415   22.1218 H   0  0  0  0  0  0
  -19.6918  -25.6289   21.1223 H   0  0  0  0  0  0
  -19.6688  -27.3186   20.6723 H   0  0  0  0  0  0
  -17.4195  -26.6651   21.4016 H   0  0  0  0  0  0
  -18.0332  -26.0044   22.9002 H   0  0  0  0  0  0
  -19.7945  -30.7238   24.2270 H   0  0  0  0  0  0
  -17.5031  -31.6254   24.5159 H   0  0  0  0  0  0
  -15.5359  -30.2986   23.7643 H   0  0  0  0  0  0
  -15.8668  -28.0820   22.7056 H   0  0  0  0  0  0
  -24.5937  -30.6988   25.7789 H   0  0  0  0  0  0
  -24.8866  -32.2831   26.4859 H   0  0  0  0  0  0
  -25.8072  -30.8897   27.0238 H   0  0  0  0  0  0
  -26.2887  -29.6761   24.1180 H   0  0  0  0  0  0
  -27.4071  -29.7253   25.4610 H   0  0  0  0  0  0
  -27.8737  -30.4312   23.9320 H   0  0  0  0  0  0
  -27.2670  -33.3635   26.2023 H   0  0  0  0  0  0
  -28.3888  -32.6813   25.0341 H   0  0  0  0  0  0
  -28.0668  -31.8450   26.5454 H   0  0  0  0  0  0
  -28.2594  -38.0112   24.7512 H   0  0  0  0  0  0
  -28.1082  -36.2638   24.6297 H   0  0  0  0  0  0
  -27.2299  -37.1471   25.8872 H   0  0  0  0  0  0
  -20.9355  -29.8803   21.6943 H   0  0  0  0  0  0
  -26.0181  -38.2863   24.1389 H   0  0  0  0  0  0
  -28.6510  -19.6541   19.8299 H   0  0  0  0  0  0
  -31.9424  -17.5229   21.6391 H   0  0  0  0  0  0
  -31.5299  -21.7204   22.3173 H   0  0  0  0  0  0
  -29.0632  -25.3303   22.3020 H   0  0  0  0  0  0
  -27.7309  -24.2272   22.2649 H   0  0  0  0  0  0
  -28.5276  -24.3977   18.2662 H   0  0  0  0  0  0
  -29.9905  -24.4472   19.2021 H   0  0  0  0  0  0
  -29.6798  -22.9290   22.7783 H   0  0  0  0  0  0
  -30.6360  -23.6762   21.5231 H   0  0  0  0  0  0
  -29.3498  -22.0689   18.7281 H   0  0  0  0  0  0
  -27.7724  -22.3197   19.4402 H   0  0  0  0  0  0
  -27.1651  -24.7579   20.2432 H   0  0  0  0  0  0
  -35.6159  -21.1422   21.3616 H   0  0  0  0  0  0
  -34.8390  -21.6671   22.8495 H   0  0  0  0  0  0
  -33.9349  -21.6446   21.3356 H   0  0  0  0  0  0
  -32.9964  -18.9977   26.2327 H   0  0  0  0  0  0
  -34.1629  -18.4103   25.0540 H   0  0  0  0  0  0
  -32.4794  -17.8904   24.9668 H   0  0  0  0  0  0
  -29.7798  -15.0408   22.9504 H   0  0  0  0  0  0
  -28.3708  -15.9341   22.3639 H   0  0  0  0  0  0
  -29.8476  -16.7721   22.8067 H   0  0  0  0  0  0
  -30.2755  -16.8787   19.1678 H   0  0  0  0  0  0
  -28.7050  -17.0975   19.8656 H   0  0  0  0  0  0
  -35.0195  -19.1700   22.8113 H   0  0  0  0  0  0
  -34.2235  -19.1060   21.2619 H   0  0  0  0  0  0
  -33.4472  -20.7755   24.5333 H   0  0  0  0  0  0
  -31.7789  -20.2575   24.4748 H   0  0  0  0  0  0
  1 25  1  0  0  0
  1 30  2  0  0  0
  1 90  1  0  0  0
  2  3  1  0  0  0
  2 25  1  0  0  0
  2 91  1  0  0  0
  2 92  1  0  0  0
  3  4  1  0  0  0
  3 93  1  0  0  0
  3 94  1  0  0  0
  4  5  1  0  0  0
  4 95  1  0  0  0
  4 96  1  0  0  0
  5  6  1  0  0  0
  5 26  1  0  0  0
  5 97  1  0  0  0
  6 25  1  0  0  0
  6 98  1  0  0  0
  6 99  1  0  0  0
  7  8  2  0  0  0
  7 26  1  0  0  0
  7 29  1  0  0  0
  8  9  1  0  0  0
  8 22  1  0  0  0
  9 10  1  0  0  0
  9 27  2  0  0  0
 10 11  2  0  0  0
 10 15  1  0  0  0
 11 12  1  0  0  0
 11100  1  0  0  0
 12 13  2  0  0  0
 12101  1  0  0  0
 13 14  1  0  0  0
 13 31  1  0  0  0
 14 15  2  0  0  0
 14102  1  0  0  0
 15103  1  0  0  0
 16 17  2  0  0  0
 16 21  1  0  0  0
 16 31  1  0  0  0
 17 18  1  0  0  0
 17104  1  0  0  0
 18 19  2  0  0  0
 18105  1  0  0  0
 19 20  1  0  0  0
 19 24  1  0  0  0
 20 21  2  0  0  0
 20106  1  0  0  0
 21 23  1  0  0  0
 22 28  1  0  0  0
 22 32  2  0  0  0
 26 27  1  0  0  0
 28107  1  0  0  0
 28108  1  0  0  0
 29109  1  0  0  0
 29110  1  0  0  0
 33 34  1  0  0  0
 33 66  1  0  0  0
 33 70  2  0  0  0
 34 36  1  0  0  0
 34 59  1  0  0  0
 34111  1  0  0  0
 35 44  2  0  0  0
 35 45  1  0  0  0
 35 68  1  0  0  0
 36 56  1  0  0  0
 36112  1  0  0  0
 37 39  1  0  0  0
 37 47  1  0  0  0
 37 66  1  0  0  0
 37113  1  0  0  0
 38 43  2  0  0  0
 38 46  1  0  0  0
 38 47  1  0  0  0
 39 64  1  0  0  0
 39 67  2  0  0  0
 40 52  1  0  0  0
 40 53  2  0  0  0
 40 58  1  0  0  0
 41114  1  0  0  0
 41115  1  0  0  0
 41116  1  0  0  0
 41 48  1  0  0  0
 42 43  1  0  0  0
 42 66  1  0  0  0
 42117  1  0  0  0
 42118  1  0  0  0
 43 44  1  0  0  0
 44119  1  0  0  0
 45 46  2  0  0  0
 45120  1  0  0  0
 46121  1  0  0  0
 47122  1  0  0  0
 47123  1  0  0  0
 48 56  1  0  0  0
 48 65  1  0  0  0
 48124  1  0  0  0
 49 50  1  0  0  0
 49 53  1  0  0  0
 49 64  1  0  0  0
 49125  1  0  0  0
 50 51  1  0  0  0
 50126  1  0  0  0
 50127  1  0  0  0
 51 52  1  0  0  0
 51128  1  0  0  0
 51129  1  0  0  0
 52130  1  0  0  0
 52131  1  0  0  0
 53 54  1  0  0  0
 54 55  2  0  0  0
 54132  1  0  0  0
 55 57  1  0  0  0
 55133  1  0  0  0
 56 69  2  0  0  0
 57 58  2  0  0  0
 57134  1  0  0  0
 58135  1  0  0  0
 59 60  1  0  0  0
 59 61  1  0  0  0
 59 62  1  0  0  0
 60136  1  0  0  0
 60137  1  0  0  0
 60138  1  0  0  0
 61139  1  0  0  0
 61140  1  0  0  0
 61141  1  0  0  0
 62142  1  0  0  0
 62143  1  0  0  0
 62144  1  0  0  0
 63 65  1  0  0  0
 63145  1  0  0  0
 63146  1  0  0  0
 63147  1  0  0  0
 64148  1  0  0  0
 65149  1  0  0  0
 68 81  1  0  0  0
 71 74  2  0  0  0
 71 75  1  0  0  0
 71150  1  0  0  0
 72 74  1  0  0  0
 72 76  2  0  0  0
 72151  1  0  0  0
 73 75  2  0  0  0
 73 76  1  0  0  0
 73152  1  0  0  0
 74 85  1  0  0  0
 75 88  1  0  0  0
 76 89  1  0  0  0
 77 79  1  0  0  0
 77 81  1  0  0  0
 77153  1  0  0  0
 77154  1  0  0  0
 78 80  1  0  0  0
 78 81  1  0  0  0
 78155  1  0  0  0
 78156  1  0  0  0
 79 88  1  0  0  0
 79157  1  0  0  0
 79158  1  0  0  0
 80 88  1  0  0  0
 80159  1  0  0  0
 80160  1  0  0  0
 81161  1  0  0  0
 82 86  1  0  0  0
 82162  1  0  0  0
 82163  1  0  0  0
 82164  1  0  0  0
 83 87  1  0  0  0
 83165  1  0  0  0
 83166  1  0  0  0
 83167  1  0  0  0
 84 90  1  0  0  0
 84168  1  0  0  0
 84169  1  0  0  0
 84170  1  0  0  0
 85 90  1  0  0  0
 85171  1  0  0  0
 85172  1  0  0  0
 86 89  1  0  0  0
 86173  1  0  0  0
 86174  1  0  0  0
 87 89  1  0  0  0
 87175  1  0  0  0
 87176  1  0  0  0
M  ISO  4   1 100  68 101  81 101  90 100
M  END
> <chiral flag>
0

> <version>
0

> <s_m_source_file>
/data/baiqing/PycharmProjects/Reinvent-master-3.2/result/LINK_invent/BTK/process_docking_weight1_custom_product_contain_oxygen_bond_distance_aromatic_linkinvent_7_9_3/rearranged_h_0022.sdf

> <i_m_source_file_index>
44

> <r_mmod_Potential_Energy-OPLS-2005>
262.177001953125

> <r_mmod_Stretch_Energy-OPLS-2005>
87.7614898681641

> <r_mmod_Bend_Energy-OPLS-2005>
155.076736450195

> <r_mmod_Torsional_Energy-OPLS-2005>
350.992858886719

> <r_mmod_Improper_Torsional_Energy-OPLS-2005>
10.1720008850098

> <r_mmod_Van_der_Waal_Energy-OPLS-2005>
156.288269042969

> <r_mmod_Electrostatic_Energy-OPLS-2005>
-327.108947753906

> <r_mmod_Solvation_Energy-OPLS-2005>
-214.143737792969

> <b_mmod_Minimization_Converged-OPLS-2005>
0

> <r_mmod_RMS_Derivative-OPLS-2005>
1.79827535152435

$$$$
45
                    3D
 Structure written by MMmdl.
155163  0  0  1  0            999 V2000
  -30.7095  -14.4413   20.6520 C   0  0  0  0  0  0
  -30.4234  -12.3235   19.3975 C   0  0  0  0  0  0
  -29.4856  -12.5349   18.1918 C   0  0  0  0  0  0
  -28.0088  -12.3815   18.6067 C   0  0  0  0  0  0
  -27.6625  -13.2023   19.8774 C   0  0  2  0  0  0
  -28.7028  -12.9484   20.9893 C   0  0  0  0  0  0
  -25.2592  -13.8157   20.5628 C   0  0  0  0  0  0
  -24.1833  -13.0430   20.9156 C   0  0  0  0  0  0
  -24.6387  -11.6912   20.8733 C   0  0  0  0  0  0
  -23.9045  -10.4289   21.0406 C   0  0  0  0  0  0
  -24.3609   -9.4213   21.9183 C   0  0  0  0  0  0
  -23.6294   -8.2245   22.0752 C   0  0  0  0  0  0
  -22.4275   -8.0278   21.3546 C   0  0  0  0  0  0
  -21.9902   -9.0242   20.4648 C   0  0  0  0  0  0
  -22.7222  -10.2130   20.3055 C   0  0  0  0  0  0
  -21.6850   -6.0736   22.5284 C   0  0  0  0  0  0
  -21.4008   -6.5637   23.8214 C   0  0  0  0  0  0
  -21.3659   -5.6794   24.9178 C   0  0  0  0  0  0
  -21.6044   -4.3061   24.7236 C   0  0  0  0  0  0
  -21.8817   -3.8150   23.4351 C   0  0  0  0  0  0
  -21.9190   -4.6964   22.3407 C   0  0  0  0  0  0
  -22.7866  -13.5258   21.1808 C   0  0  0  0  0  0
  -22.1658   -4.2147   21.0989 F   0  0  0  0  0  0
  -21.5633   -3.4543   25.7750 F   0  0  0  0  0  0
  -30.0312  -13.2789   20.4464 N   0  0  0  0  0  0
  -26.3021  -12.9308   20.3369 N   0  0  0  0  0  0
  -25.9310  -11.6473   20.5767 N   0  0  0  0  0  0
  -22.0492  -12.8237   22.0356 N   0  0  0  0  0  0
  -25.4317  -15.1852   20.3942 N   0  0  0  0  0  0
  -31.7982  -14.6793   20.1207 O   0  0  0  0  0  0
  -21.6635   -6.8880   21.4248 O   0  0  0  0  0  0
  -22.3557  -14.5566   20.6673 O   0  0  0  0  0  0
  -24.6180  -31.8657   23.2071 C   0  0  0  0  0  0
  -25.9074  -32.4799   23.8376 C   0  0  1  0  0  0
  -27.2424  -27.3979   20.1190 C   0  0  0  0  0  0
  -25.5952  -33.8599   24.2334 N   0  0  0  0  0  0
  -23.4069  -30.4886   21.5496 C   0  0  2  0  0  0
  -24.8554  -28.9470   20.1167 C   0  0  0  0  0  0
  -22.7431  -29.4661   22.5000 C   0  0  0  0  0  0
  -18.0289  -28.1332   22.8515 C   0  0  0  0  0  0
  -24.1492  -36.7317   23.2609 C   0  0  0  0  0  0
  -25.9353  -30.8263   21.3573 C   0  0  0  0  0  0
  -26.0177  -29.4545   20.7132 C   0  0  0  0  0  0
  -27.2107  -28.6898   20.7047 C   0  0  0  0  0  0
  -26.0601  -26.9193   19.5062 C   0  0  0  0  0  0
  -24.8759  -27.6836   19.5037 C   0  0  0  0  0  0
  -23.6168  -29.8151   20.1667 C   0  0  0  0  0  0
  -25.4098  -36.3111   24.0332 C   0  0  1  0  0  0
  -20.5876  -28.3650   23.1317 C   0  0  2  0  0  0
  -20.6785  -26.9391   22.5410 C   0  0  0  0  0  0
  -19.5752  -26.6365   21.5215 C   0  0  0  0  0  0
  -18.1935  -26.7886   22.1627 C   0  0  0  0  0  0
  -19.1525  -28.8813   23.2920 C   0  0  0  0  0  0
  -18.9454  -30.1431   23.8921 C   0  0  0  0  0  0
  -17.6452  -30.6562   24.0557 C   0  0  0  0  0  0
  -25.9045  -34.9467   23.5134 C   0  0  0  0  0  0
  -16.5356  -29.9054   23.6307 C   0  0  0  0  0  0
  -16.7277  -28.6454   23.0356 C   0  0  0  0  0  0
  -26.4458  -31.6537   25.0695 C   0  0  0  0  0  0
  -25.3693  -31.3688   26.1431 C   0  0  0  0  0  0
  -27.0172  -30.2941   24.6036 C   0  0  0  0  0  0
  -27.6162  -32.4105   25.7380 C   0  0  0  0  0  0
  -27.5587  -37.1802   24.8432 C   0  0  0  0  0  0
  -21.4152  -29.3036   22.3736 N   0  0  0  0  0  0
  -26.4274  -37.3818   23.9426 N   0  0  0  0  0  0
  -24.6736  -31.0724   22.0991 N   0  0  0  0  0  0
  -23.4178  -28.8213   23.3065 O   0  0  0  0  0  0
  -28.4164  -26.6535   20.1455 O   0  0  0  0  0  0
  -26.5608  -34.8925   22.4690 O   0  0  0  0  0  0
  -23.5372  -32.1417   23.7453 O   0  0  0  0  0  0
  -30.7611  -20.0905   20.6098 C   0  0  0  0  0  0
  -28.7955  -19.8717   21.9945 C   0  0  0  0  0  0
  -30.2581  -17.9176   21.6756 C   0  0  0  0  0  0
  -29.6385  -20.7041   21.2180 C   0  0  0  0  0  0
  -31.0710  -18.7266   20.8453 C   0  0  0  0  0  0
  -29.0880  -18.5029   22.2209 C   0  0  0  0  0  0
  -30.7363  -16.5074   22.0876 C   0  0  0  0  0  0
  -29.7298  -24.5309   20.4192 C   0  0  0  0  0  0
  -29.8487  -23.0004   20.0849 C   0  0  0  0  0  0
  -28.3250  -25.2058   20.2384 C   0  0  0  0  0  0
  -29.3381  -22.0937   21.1316 N   0  0  0  0  0  0
  -30.1063  -15.3312   21.4626 N   0  0  0  0  0  0
  -32.1949  -18.2014   20.2986 F   0  0  0  0  0  0
  -28.0209  -17.5795   23.2193 Cl  0  0  0  0  0  0
  -31.4629  -12.4443   19.0901 H   0  0  0  0  0  0
  -30.3463  -11.3010   19.7681 H   0  0  0  0  0  0
  -29.7279  -11.8333   17.3920 H   0  0  0  0  0  0
  -29.6460  -13.5334   17.7798 H   0  0  0  0  0  0
  -27.8171  -11.3223   18.7822 H   0  0  0  0  0  0
  -27.3574  -12.6759   17.7826 H   0  0  0  0  0  0
  -27.7179  -14.2567   19.6039 H   0  0  0  0  0  0
  -28.6851  -11.8981   21.2848 H   0  0  0  0  0  0
  -28.4511  -13.5017   21.8938 H   0  0  0  0  0  0
  -25.2760   -9.5688   22.4746 H   0  0  0  0  0  0
  -24.0005   -7.4639   22.7464 H   0  0  0  0  0  0
  -21.0836   -8.8760   19.8950 H   0  0  0  0  0  0
  -22.3686  -10.9664   19.6155 H   0  0  0  0  0  0
  -21.1989   -7.6145   23.9723 H   0  0  0  0  0  0
  -21.1482   -6.0523   25.9085 H   0  0  0  0  0  0
  -22.0595   -2.7605   23.2862 H   0  0  0  0  0  0
  -22.4075  -11.9878   22.4737 H   0  0  0  0  0  0
  -21.1097  -13.1251   22.2536 H   0  0  0  0  0  0
  -24.6623  -15.8415   20.4738 H   0  0  0  0  0  0
  -26.2847  -15.6155   20.0585 H   0  0  0  0  0  0
  -26.7153  -32.5497   23.1155 H   0  0  0  0  0  0
  -25.0168  -33.9754   25.0517 H   0  0  0  0  0  0
  -22.7029  -31.3102   21.4060 H   0  0  0  0  0  0
  -23.3765  -35.9632   23.3228 H   0  0  0  0  0  0
  -24.3647  -36.8967   22.2044 H   0  0  0  0  0  0
  -23.7225  -37.6518   23.6614 H   0  0  0  0  0  0
  -26.0279  -31.5852   20.5792 H   0  0  0  0  0  0
  -26.8318  -30.8980   21.9620 H   0  0  0  0  0  0
  -28.1072  -29.0805   21.1662 H   0  0  0  0  0  0
  -26.0402  -25.9593   19.0146 H   0  0  0  0  0  0
  -23.9846  -27.2985   19.0265 H   0  0  0  0  0  0
  -23.7268  -30.5861   19.4039 H   0  0  0  0  0  0
  -22.7408  -29.2340   19.8724 H   0  0  0  0  0  0
  -25.1250  -36.1973   25.0826 H   0  0  0  0  0  0
  -20.9979  -28.3202   24.1432 H   0  0  0  0  0  0
  -20.5710  -26.2265   23.3604 H   0  0  0  0  0  0
  -21.6659  -26.7456   22.1192 H   0  0  0  0  0  0
  -19.6950  -25.6278   21.1235 H   0  0  0  0  0  0
  -19.6660  -27.3194   20.6757 H   0  0  0  0  0  0
  -17.4220  -26.6657   21.4023 H   0  0  0  0  0  0
  -18.0349  -25.9973   22.8968 H   0  0  0  0  0  0
  -19.7922  -30.7244   24.2293 H   0  0  0  0  0  0
  -17.4984  -31.6244   24.5135 H   0  0  0  0  0  0
  -15.5344  -30.2954   23.7578 H   0  0  0  0  0  0
  -15.8681  -28.0763   22.7068 H   0  0  0  0  0  0
  -24.5996  -30.6857   25.7808 H   0  0  0  0  0  0
  -24.8692  -32.2815   26.4676 H   0  0  0  0  0  0
  -25.8023  -30.9061   27.0304 H   0  0  0  0  0  0
  -26.2687  -29.6823   24.0986 H   0  0  0  0  0  0
  -27.3813  -29.7065   25.4476 H   0  0  0  0  0  0
  -27.8582  -30.4225   23.9216 H   0  0  0  0  0  0
  -27.3069  -33.3555   26.1837 H   0  0  0  0  0  0
  -28.4031  -32.6343   25.0161 H   0  0  0  0  0  0
  -28.0694  -31.8177   26.5342 H   0  0  0  0  0  0
  -28.2555  -38.0149   24.7614 H   0  0  0  0  0  0
  -28.1139  -36.2723   24.6051 H   0  0  0  0  0  0
  -27.2364  -37.1235   25.8841 H   0  0  0  0  0  0
  -20.9326  -29.8747   21.6944 H   0  0  0  0  0  0
  -26.0149  -38.2885   24.1460 H   0  0  0  0  0  0
  -31.4406  -20.6559   19.9924 H   0  0  0  0  0  0
  -27.9145  -20.2869   22.4621 H   0  0  0  0  0  0
  -30.5741  -16.4041   23.1623 H   0  0  0  0  0  0
  -31.8215  -16.4551   21.9835 H   0  0  0  0  0  0
  -30.4203  -25.0368   19.7398 H   0  0  0  0  0  0
  -30.1333  -24.7438   21.4127 H   0  0  0  0  0  0
  -30.9007  -22.7829   19.8781 H   0  0  0  0  0  0
  -29.3190  -22.7946   19.1508 H   0  0  0  0  0  0
  -27.6769  -24.9405   21.0818 H   0  0  0  0  0  0
  -27.8585  -24.8024   19.3380 H   0  0  0  0  0  0
  -28.5352  -22.4276   21.6594 H   0  0  0  0  0  0
  -29.2082  -15.0525   21.8290 H   0  0  0  0  0  0
  1 25  1  0  0  0
  1 30  2  0  0  0
  1 82  1  0  0  0
  2  3  1  0  0  0
  2 25  1  0  0  0
  2 85  1  0  0  0
  2 86  1  0  0  0
  3  4  1  0  0  0
  3 87  1  0  0  0
  3 88  1  0  0  0
  4  5  1  0  0  0
  4 89  1  0  0  0
  4 90  1  0  0  0
  5  6  1  0  0  0
  5 26  1  0  0  0
  5 91  1  0  0  0
  6 25  1  0  0  0
  6 92  1  0  0  0
  6 93  1  0  0  0
  7  8  2  0  0  0
  7 26  1  0  0  0
  7 29  1  0  0  0
  8  9  1  0  0  0
  8 22  1  0  0  0
  9 10  1  0  0  0
  9 27  2  0  0  0
 10 11  2  0  0  0
 10 15  1  0  0  0
 11 12  1  0  0  0
 11 94  1  0  0  0
 12 13  2  0  0  0
 12 95  1  0  0  0
 13 14  1  0  0  0
 13 31  1  0  0  0
 14 15  2  0  0  0
 14 96  1  0  0  0
 15 97  1  0  0  0
 16 17  2  0  0  0
 16 21  1  0  0  0
 16 31  1  0  0  0
 17 18  1  0  0  0
 17 98  1  0  0  0
 18 19  2  0  0  0
 18 99  1  0  0  0
 19 20  1  0  0  0
 19 24  1  0  0  0
 20 21  2  0  0  0
 20100  1  0  0  0
 21 23  1  0  0  0
 22 28  1  0  0  0
 22 32  2  0  0  0
 26 27  1  0  0  0
 28101  1  0  0  0
 28102  1  0  0  0
 29103  1  0  0  0
 29104  1  0  0  0
 33 34  1  0  0  0
 33 66  1  0  0  0
 33 70  2  0  0  0
 34 36  1  0  0  0
 34 59  1  0  0  0
 34105  1  0  0  0
 35 44  2  0  0  0
 35 45  1  0  0  0
 35 68  1  0  0  0
 36 56  1  0  0  0
 36106  1  0  0  0
 37 39  1  0  0  0
 37 47  1  0  0  0
 37 66  1  0  0  0
 37107  1  0  0  0
 38 43  2  0  0  0
 38 46  1  0  0  0
 38 47  1  0  0  0
 39 64  1  0  0  0
 39 67  2  0  0  0
 40 52  1  0  0  0
 40 53  2  0  0  0
 40 58  1  0  0  0
 41108  1  0  0  0
 41109  1  0  0  0
 41110  1  0  0  0
 41 48  1  0  0  0
 42 43  1  0  0  0
 42 66  1  0  0  0
 42111  1  0  0  0
 42112  1  0  0  0
 43 44  1  0  0  0
 44113  1  0  0  0
 45 46  2  0  0  0
 45114  1  0  0  0
 46115  1  0  0  0
 47116  1  0  0  0
 47117  1  0  0  0
 48 56  1  0  0  0
 48 65  1  0  0  0
 48118  1  0  0  0
 49 50  1  0  0  0
 49 53  1  0  0  0
 49 64  1  0  0  0
 49119  1  0  0  0
 50 51  1  0  0  0
 50120  1  0  0  0
 50121  1  0  0  0
 51 52  1  0  0  0
 51122  1  0  0  0
 51123  1  0  0  0
 52124  1  0  0  0
 52125  1  0  0  0
 53 54  1  0  0  0
 54 55  2  0  0  0
 54126  1  0  0  0
 55 57  1  0  0  0
 55127  1  0  0  0
 56 69  2  0  0  0
 57 58  2  0  0  0
 57128  1  0  0  0
 58129  1  0  0  0
 59 60  1  0  0  0
 59 61  1  0  0  0
 59 62  1  0  0  0
 60130  1  0  0  0
 60131  1  0  0  0
 60132  1  0  0  0
 61133  1  0  0  0
 61134  1  0  0  0
 61135  1  0  0  0
 62136  1  0  0  0
 62137  1  0  0  0
 62138  1  0  0  0
 63 65  1  0  0  0
 63139  1  0  0  0
 63140  1  0  0  0
 63141  1  0  0  0
 64142  1  0  0  0
 65143  1  0  0  0
 68 80  1  0  0  0
 71 74  2  0  0  0
 71 75  1  0  0  0
 71144  1  0  0  0
 72 74  1  0  0  0
 72 76  2  0  0  0
 72145  1  0  0  0
 73 75  2  0  0  0
 73 76  1  0  0  0
 73 77  1  0  0  0
 74 81  1  0  0  0
 75 83  1  0  0  0
 76 84  1  0  0  0
 77 82  1  0  0  0
 77146  1  0  0  0
 77147  1  0  0  0
 78 79  1  0  0  0
 78 80  1  0  0  0
 78148  1  0  0  0
 78149  1  0  0  0
 79 81  1  0  0  0
 79150  1  0  0  0
 79151  1  0  0  0
 80152  1  0  0  0
 80153  1  0  0  0
 81154  1  0  0  0
 82155  1  0  0  0
M  ISO  4   1 100  68 101  80 101  82 100
M  END
> <chiral flag>
0

> <version>
0

> <s_m_source_file>
/data/baiqing/PycharmProjects/Reinvent-master-3.2/result/LINK_invent/BTK/process_docking_weight1_custom_product_contain_oxygen_bond_distance_aromatic_linkinvent_7_9_3/rearranged_h_0022.sdf

> <i_m_source_file_index>
45

> <r_mmod_Potential_Energy-OPLS-2005>
-21.7732925415039

> <r_mmod_Stretch_Energy-OPLS-2005>
47.4494667053223

> <r_mmod_Bend_Energy-OPLS-2005>
118.044593811035

> <r_mmod_Torsional_Energy-OPLS-2005>
207.058380126953

> <r_mmod_Improper_Torsional_Energy-OPLS-2005>
3.76859021186829

> <r_mmod_Van_der_Waal_Energy-OPLS-2005>
145.899337768555

> <r_mmod_Electrostatic_Energy-OPLS-2005>
-341.130737304688

> <r_mmod_Solvation_Energy-OPLS-2005>
-216.348709106445

> <b_mmod_Minimization_Converged-OPLS-2005>
0

> <r_mmod_RMS_Derivative-OPLS-2005>
5.02771663665771

$$$$
46
                    3D
 Structure written by MMmdl.
152161  0  0  1  0            999 V2000
  -30.5988  -14.7086   20.4823 C   0  0  0  0  0  0
  -30.4389  -12.4347   19.4605 C   0  0  0  0  0  0
  -29.5099  -12.5129   18.2276 C   0  0  0  0  0  0
  -28.0325  -12.3445   18.6369 C   0  0  0  0  0  0
  -27.6455  -13.2266   19.8529 C   0  0  2  0  0  0
  -28.6901  -13.1125   20.9854 C   0  0  0  0  0  0
  -25.2520  -13.8187   20.5705 C   0  0  0  0  0  0
  -24.1785  -13.0433   20.9192 C   0  0  0  0  0  0
  -24.6369  -11.6909   20.8709 C   0  0  0  0  0  0
  -23.9048  -10.4290   21.0379 C   0  0  0  0  0  0
  -24.3596   -9.4205   21.9165 C   0  0  0  0  0  0
  -23.6267   -8.2243   22.0753 C   0  0  0  0  0  0
  -22.4252   -8.0274   21.3552 C   0  0  0  0  0  0
  -21.9884   -9.0243   20.4654 C   0  0  0  0  0  0
  -22.7217  -10.2119   20.3041 C   0  0  0  0  0  0
  -21.6861   -6.0710   22.5263 C   0  0  0  0  0  0
  -21.4032   -6.5618   23.8188 C   0  0  0  0  0  0
  -21.3661   -5.6780   24.9158 C   0  0  0  0  0  0
  -21.6040   -4.3041   24.7223 C   0  0  0  0  0  0
  -21.8818   -3.8125   23.4346 C   0  0  0  0  0  0
  -21.9196   -4.6941   22.3395 C   0  0  0  0  0  0
  -22.7811  -13.5224   21.1847 C   0  0  0  0  0  0
  -22.1662   -4.2117   21.0976 F   0  0  0  0  0  0
  -21.5616   -3.4533   25.7737 F   0  0  0  0  0  0
  -30.0027  -13.4702   20.4208 N   0  0  0  0  0  0
  -26.2936  -12.9384   20.3263 N   0  0  0  0  0  0
  -25.9295  -11.6527   20.5693 N   0  0  0  0  0  0
  -22.0459  -12.8215   22.0422 N   0  0  0  0  0  0
  -25.4218  -15.1911   20.4173 N   0  0  0  0  0  0
  -31.7665  -14.8686   20.1124 O   0  0  0  0  0  0
  -21.6638   -6.8853   21.4227 O   0  0  0  0  0  0
  -22.3497  -14.5523   20.6694 O   0  0  0  0  0  0
  -24.6315  -31.8569   23.1988 C   0  0  0  0  0  0
  -25.9152  -32.4747   23.8353 C   0  0  1  0  0  0
  -27.2405  -27.2846   20.1233 C   0  0  0  0  0  0
  -25.5951  -33.8547   24.2273 N   0  0  0  0  0  0
  -23.4305  -30.4796   21.5392 C   0  0  2  0  0  0
  -24.8822  -28.9316   20.1092 C   0  0  0  0  0  0
  -22.7516  -29.4632   22.4888 C   0  0  0  0  0  0
  -18.0315  -28.1427   22.8475 C   0  0  0  0  0  0
  -24.1488  -36.7269   23.2636 C   0  0  0  0  0  0
  -25.9750  -30.7762   21.3792 C   0  0  0  0  0  0
  -26.0521  -29.4030   20.7165 C   0  0  0  0  0  0
  -27.2322  -28.5927   20.7121 C   0  0  0  0  0  0
  -26.0398  -26.8751   19.4936 C   0  0  0  0  0  0
  -24.8787  -27.6728   19.4922 C   0  0  0  0  0  0
  -23.6520  -29.8174   20.1534 C   0  0  0  0  0  0
  -25.4108  -36.3049   24.0329 C   0  0  1  0  0  0
  -20.5914  -28.3739   23.1257 C   0  0  2  0  0  0
  -20.6794  -26.9446   22.5409 C   0  0  0  0  0  0
  -19.5768  -26.6411   21.5212 C   0  0  0  0  0  0
  -18.1952  -26.7970   22.1625 C   0  0  0  0  0  0
  -19.1563  -28.8898   23.2868 C   0  0  0  0  0  0
  -18.9483  -30.1488   23.8901 C   0  0  0  0  0  0
  -17.6476  -30.6605   24.0589 C   0  0  0  0  0  0
  -25.9056  -34.9422   23.5095 C   0  0  0  0  0  0
  -16.5371  -29.9109   23.6332 C   0  0  0  0  0  0
  -16.7299  -28.6540   23.0330 C   0  0  0  0  0  0
  -26.4506  -31.6567   25.0746 C   0  0  0  0  0  0
  -25.3734  -31.3720   26.1475 C   0  0  0  0  0  0
  -27.0365  -30.2978   24.6252 C   0  0  0  0  0  0
  -27.6061  -32.4311   25.7508 C   0  0  0  0  0  0
  -27.5576  -37.1778   24.8457 C   0  0  0  0  0  0
  -21.4222  -29.3076   22.3631 N   0  0  0  0  0  0
  -26.4273  -37.3757   23.9425 N   0  0  0  0  0  0
  -24.6973  -31.0551   22.0957 N   0  0  0  0  0  0
  -23.4204  -28.8190   23.3015 O   0  0  0  0  0  0
  -28.3546  -26.4132   20.1899 O   0  0  0  0  0  0
  -26.5618  -34.8900   22.4655 O   0  0  0  0  0  0
  -23.5463  -32.1423   23.7269 O   0  0  0  0  0  0
  -28.7296  -19.4048   21.3254 C   0  0  0  0  0  0
  -28.8124  -17.9820   21.3858 C   0  0  0  0  0  0
  -30.7477  -18.0406   20.0025 C   0  0  0  0  0  0
  -29.6213  -20.2451   20.5982 C   0  0  0  0  0  0
  -29.8261  -17.2353   20.7323 C   0  0  0  0  0  0
  -30.6378  -19.4779   19.9334 C   0  0  0  0  0  0
  -28.6822  -22.6700   21.2677 C   0  0  0  0  0  0
  -29.6279  -22.5855   19.4382 C   0  0  0  0  0  0
  -29.2302  -23.8243   20.3341 C   0  0  1  0  0  0
  -28.1753  -24.9541   19.8896 C   0  0  0  0  0  0
  -29.4975  -21.7258   20.6234 N   0  0  0  0  0  0
  -29.7727  -15.7575   20.8240 N   0  0  0  0  0  0
  -27.8371  -22.5421   22.1299 O   0  0  0  0  0  0
  -31.5674  -20.1468   19.2087 F   0  0  0  0  0  0
  -31.4804  -12.5671   19.1624 H   0  0  0  0  0  0
  -30.3814  -11.4479   19.9216 H   0  0  0  0  0  0
  -29.7821  -11.7462   17.5002 H   0  0  0  0  0  0
  -29.6425  -13.4723   17.7250 H   0  0  0  0  0  0
  -27.8714  -11.2922   18.8753 H   0  0  0  0  0  0
  -27.3803  -12.5644   17.7912 H   0  0  0  0  0  0
  -27.6481  -14.2562   19.4933 H   0  0  0  0  0  0
  -28.7097  -12.0969   21.3823 H   0  0  0  0  0  0
  -28.4223  -13.7542   21.8270 H   0  0  0  0  0  0
  -25.2739   -9.5674   22.4742 H   0  0  0  0  0  0
  -23.9969   -7.4642   22.7476 H   0  0  0  0  0  0
  -21.0811   -8.8755   19.8968 H   0  0  0  0  0  0
  -22.3666  -10.9641   19.6144 H   0  0  0  0  0  0
  -21.2044   -7.6132   23.9683 H   0  0  0  0  0  0
  -21.1482   -6.0518   25.9058 H   0  0  0  0  0  0
  -22.0602   -2.7586   23.2854 H   0  0  0  0  0  0
  -22.4095  -11.9893   22.4814 H   0  0  0  0  0  0
  -21.1074  -13.1222   22.2638 H   0  0  0  0  0  0
  -24.6555  -15.8434   20.5429 H   0  0  0  0  0  0
  -26.2622  -15.6326   20.0665 H   0  0  0  0  0  0
  -26.7233  -32.5383   23.1111 H   0  0  0  0  0  0
  -25.0072  -33.9688   25.0398 H   0  0  0  0  0  0
  -22.7305  -31.3031   21.3920 H   0  0  0  0  0  0
  -23.3752  -35.9597   23.3276 H   0  0  0  0  0  0
  -24.3588  -36.8913   22.2057 H   0  0  0  0  0  0
  -23.7248  -37.6461   23.6681 H   0  0  0  0  0  0
  -26.1185  -31.5448   20.6187 H   0  0  0  0  0  0
  -26.8483  -30.8189   22.0181 H   0  0  0  0  0  0
  -28.1244  -28.9511   21.2050 H   0  0  0  0  0  0
  -25.9587  -25.9135   19.0108 H   0  0  0  0  0  0
  -23.9803  -27.3023   19.0198 H   0  0  0  0  0  0
  -23.7814  -30.5998   19.4034 H   0  0  0  0  0  0
  -22.7730  -29.2533   19.8367 H   0  0  0  0  0  0
  -25.1281  -36.1876   25.0819 H   0  0  0  0  0  0
  -21.0016  -28.3312   24.1377 H   0  0  0  0  0  0
  -20.5690  -26.2339   23.3614 H   0  0  0  0  0  0
  -21.6661  -26.7462   22.1212 H   0  0  0  0  0  0
  -19.6913  -25.6316   21.1252 H   0  0  0  0  0  0
  -19.6705  -27.3212   20.6733 H   0  0  0  0  0  0
  -17.4211  -26.6726   21.4034 H   0  0  0  0  0  0
  -18.0349  -26.0130   22.9038 H   0  0  0  0  0  0
  -19.7948  -30.7314   24.2270 H   0  0  0  0  0  0
  -17.5025  -31.6269   24.5225 H   0  0  0  0  0  0
  -15.5373  -30.3008   23.7661 H   0  0  0  0  0  0
  -15.8710  -28.0871   22.7017 H   0  0  0  0  0  0
  -24.5906  -30.7070   25.7810 H   0  0  0  0  0  0
  -24.8935  -32.2890   26.4902 H   0  0  0  0  0  0
  -25.8059  -30.8901   27.0256 H   0  0  0  0  0  0
  -26.2964  -29.6706   24.1274 H   0  0  0  0  0  0
  -27.4038  -29.7257   25.4784 H   0  0  0  0  0  0
  -27.8843  -30.4242   23.9518 H   0  0  0  0  0  0
  -27.2672  -33.3606   26.2093 H   0  0  0  0  0  0
  -28.3857  -32.6881   25.0325 H   0  0  0  0  0  0
  -28.0761  -31.8447   26.5418 H   0  0  0  0  0  0
  -28.2550  -38.0113   24.7530 H   0  0  0  0  0  0
  -28.1115  -36.2641   24.6230 H   0  0  0  0  0  0
  -27.2315  -37.1368   25.8865 H   0  0  0  0  0  0
  -20.9418  -29.8787   21.6813 H   0  0  0  0  0  0
  -26.0135  -38.2811   24.1470 H   0  0  0  0  0  0
  -27.9232  -19.8703   21.8720 H   0  0  0  0  0  0
  -28.0612  -17.4634   21.9649 H   0  0  0  0  0  0
  -31.5578  -17.5678   19.4670 H   0  0  0  0  0  0
  -30.6396  -22.6468   19.0320 H   0  0  0  0  0  0
  -28.8942  -22.3528   18.6616 H   0  0  0  0  0  0
  -30.1400  -24.2757   20.7293 H   0  0  0  0  0  0
  -27.2116  -24.6599   20.3058 H   0  0  0  0  0  0
  -28.0494  -24.8816   18.8096 H   0  0  0  0  0  0
  -28.8807  -15.4135   21.1470 H   0  0  0  0  0  0
  1 25  1  0  0  0
  1 30  2  0  0  0
  1 82  1  0  0  0
  2  3  1  0  0  0
  2 25  1  0  0  0
  2 85  1  0  0  0
  2 86  1  0  0  0
  3  4  1  0  0  0
  3 87  1  0  0  0
  3 88  1  0  0  0
  4  5  1  0  0  0
  4 89  1  0  0  0
  4 90  1  0  0  0
  5  6  1  0  0  0
  5 26  1  0  0  0
  5 91  1  0  0  0
  6 25  1  0  0  0
  6 92  1  0  0  0
  6 93  1  0  0  0
  7  8  2  0  0  0
  7 26  1  0  0  0
  7 29  1  0  0  0
  8  9  1  0  0  0
  8 22  1  0  0  0
  9 10  1  0  0  0
  9 27  2  0  0  0
 10 11  2  0  0  0
 10 15  1  0  0  0
 11 12  1  0  0  0
 11 94  1  0  0  0
 12 13  2  0  0  0
 12 95  1  0  0  0
 13 14  1  0  0  0
 13 31  1  0  0  0
 14 15  2  0  0  0
 14 96  1  0  0  0
 15 97  1  0  0  0
 16 17  2  0  0  0
 16 21  1  0  0  0
 16 31  1  0  0  0
 17 18  1  0  0  0
 17 98  1  0  0  0
 18 19  2  0  0  0
 18 99  1  0  0  0
 19 20  1  0  0  0
 19 24  1  0  0  0
 20 21  2  0  0  0
 20100  1  0  0  0
 21 23  1  0  0  0
 22 28  1  0  0  0
 22 32  2  0  0  0
 26 27  1  0  0  0
 28101  1  0  0  0
 28102  1  0  0  0
 29103  1  0  0  0
 29104  1  0  0  0
 33 34  1  0  0  0
 33 66  1  0  0  0
 33 70  2  0  0  0
 34 36  1  0  0  0
 34 59  1  0  0  0
 34105  1  0  0  0
 35 44  2  0  0  0
 35 45  1  0  0  0
 35 68  1  0  0  0
 36 56  1  0  0  0
 36106  1  0  0  0
 37 39  1  0  0  0
 37 47  1  0  0  0
 37 66  1  0  0  0
 37107  1  0  0  0
 38 43  2  0  0  0
 38 46  1  0  0  0
 38 47  1  0  0  0
 39 64  1  0  0  0
 39 67  2  0  0  0
 40 52  1  0  0  0
 40 53  2  0  0  0
 40 58  1  0  0  0
 41108  1  0  0  0
 41109  1  0  0  0
 41110  1  0  0  0
 41 48  1  0  0  0
 42 43  1  0  0  0
 42 66  1  0  0  0
 42111  1  0  0  0
 42112  1  0  0  0
 43 44  1  0  0  0
 44113  1  0  0  0
 45 46  2  0  0  0
 45114  1  0  0  0
 46115  1  0  0  0
 47116  1  0  0  0
 47117  1  0  0  0
 48 56  1  0  0  0
 48 65  1  0  0  0
 48118  1  0  0  0
 49 50  1  0  0  0
 49 53  1  0  0  0
 49 64  1  0  0  0
 49119  1  0  0  0
 50 51  1  0  0  0
 50120  1  0  0  0
 50121  1  0  0  0
 51 52  1  0  0  0
 51122  1  0  0  0
 51123  1  0  0  0
 52124  1  0  0  0
 52125  1  0  0  0
 53 54  1  0  0  0
 54 55  2  0  0  0
 54126  1  0  0  0
 55 57  1  0  0  0
 55127  1  0  0  0
 56 69  2  0  0  0
 57 58  2  0  0  0
 57128  1  0  0  0
 58129  1  0  0  0
 59 60  1  0  0  0
 59 61  1  0  0  0
 59 62  1  0  0  0
 60130  1  0  0  0
 60131  1  0  0  0
 60132  1  0  0  0
 61133  1  0  0  0
 61134  1  0  0  0
 61135  1  0  0  0
 62136  1  0  0  0
 62137  1  0  0  0
 62138  1  0  0  0
 63 65  1  0  0  0
 63139  1  0  0  0
 63140  1  0  0  0
 63141  1  0  0  0
 64142  1  0  0  0
 65143  1  0  0  0
 68 80  1  0  0  0
 71 72  2  0  0  0
 71 74  1  0  0  0
 71144  1  0  0  0
 72 75  1  0  0  0
 72145  1  0  0  0
 73 75  2  0  0  0
 73 76  1  0  0  0
 73146  1  0  0  0
 74 76  2  0  0  0
 74 81  1  0  0  0
 75 82  1  0  0  0
 76 84  1  0  0  0
 77 79  1  0  0  0
 77 81  1  0  0  0
 77 83  2  0  0  0
 78 79  1  0  0  0
 78 81  1  0  0  0
 78147  1  0  0  0
 78148  1  0  0  0
 79 80  1  0  0  0
 79149  1  0  0  0
 80150  1  0  0  0
 80151  1  0  0  0
 82152  1  0  0  0
M  ISO  4   1 100  68 101  80 101  82 100
M  END
> <chiral flag>
0

> <version>
0

> <s_m_source_file>
/data/baiqing/PycharmProjects/Reinvent-master-3.2/result/LINK_invent/BTK/process_docking_weight1_custom_product_contain_oxygen_bond_distance_aromatic_linkinvent_7_9_3/rearranged_h_0022.sdf

> <i_m_source_file_index>
46

> <r_mmod_Potential_Energy-OPLS-2005>
118.740814208984

> <r_mmod_Stretch_Energy-OPLS-2005>
101.580436706543

> <r_mmod_Bend_Energy-OPLS-2005>
190.460372924805

> <r_mmod_Torsional_Energy-OPLS-2005>
222.773406982422

> <r_mmod_Improper_Torsional_Energy-OPLS-2005>
6.88095712661743

> <r_mmod_Van_der_Waal_Energy-OPLS-2005>
140.034194946289

> <r_mmod_Electrostatic_Energy-OPLS-2005>
-391.376373291016

> <r_mmod_Solvation_Energy-OPLS-2005>
-222.143630981445

> <b_mmod_Minimization_Converged-OPLS-2005>
0

> <r_mmod_RMS_Derivative-OPLS-2005>
2.56409692764282

$$$$
47
                    3D
 Structure written by MMmdl.
173182  0  0  1  0            999 V2000
  -30.7607  -14.4447   20.6373 C   0  0  0  0  0  0
  -30.4302  -12.3157   19.4233 C   0  0  0  0  0  0
  -29.5009  -12.5079   18.2098 C   0  0  0  0  0  0
  -28.0245  -12.3643   18.6279 C   0  0  0  0  0  0
  -27.6706  -13.2097   19.8815 C   0  0  2  0  0  0
  -28.7146  -12.9972   21.0026 C   0  0  0  0  0  0
  -25.2634  -13.8171   20.5704 C   0  0  0  0  0  0
  -24.1869  -13.0451   20.9176 C   0  0  0  0  0  0
  -24.6422  -11.6914   20.8747 C   0  0  0  0  0  0
  -23.9078  -10.4298   21.0402 C   0  0  0  0  0  0
  -24.3622   -9.4213   21.9182 C   0  0  0  0  0  0
  -23.6289   -8.2246   22.0754 C   0  0  0  0  0  0
  -22.4270   -8.0290   21.3549 C   0  0  0  0  0  0
  -21.9917   -9.0266   20.4650 C   0  0  0  0  0  0
  -22.7248  -10.2136   20.3053 C   0  0  0  0  0  0
  -21.6855   -6.0737   22.5277 C   0  0  0  0  0  0
  -21.4007   -6.5639   23.8212 C   0  0  0  0  0  0
  -21.3658   -5.6797   24.9179 C   0  0  0  0  0  0
  -21.6040   -4.3055   24.7228 C   0  0  0  0  0  0
  -21.8822   -3.8146   23.4349 C   0  0  0  0  0  0
  -21.9190   -4.6964   22.3403 C   0  0  0  0  0  0
  -22.7878  -13.5247   21.1832 C   0  0  0  0  0  0
  -22.1661   -4.2147   21.0981 F   0  0  0  0  0  0
  -21.5632   -3.4540   25.7739 F   0  0  0  0  0  0
  -30.0482  -13.2981   20.4512 N   0  0  0  0  0  0
  -26.3091  -12.9346   20.3422 N   0  0  0  0  0  0
  -25.9361  -11.6503   20.5798 N   0  0  0  0  0  0
  -22.0514  -12.8247   22.0379 N   0  0  0  0  0  0
  -25.4379  -15.1883   20.4113 N   0  0  0  0  0  0
  -31.8389  -14.6549   20.0758 O   0  0  0  0  0  0
  -21.6638   -6.8881   21.4239 O   0  0  0  0  0  0
  -22.3586  -14.5569   20.6699 O   0  0  0  0  0  0
  -24.6174  -31.8685   23.2091 C   0  0  0  0  0  0
  -25.9047  -32.4836   23.8394 C   0  0  1  0  0  0
  -27.2377  -27.4159   20.1152 C   0  0  0  0  0  0
  -25.5890  -33.8629   24.2332 N   0  0  0  0  0  0
  -23.4058  -30.4916   21.5462 C   0  0  2  0  0  0
  -24.8545  -28.9552   20.1144 C   0  0  0  0  0  0
  -22.7443  -29.4663   22.4952 C   0  0  0  0  0  0
  -18.0291  -28.1384   22.8522 C   0  0  0  0  0  0
  -24.1498  -36.7319   23.2647 C   0  0  0  0  0  0
  -25.9339  -30.8323   21.3596 C   0  0  0  0  0  0
  -26.0134  -29.4626   20.7134 C   0  0  0  0  0  0
  -27.2085  -28.7034   20.7042 C   0  0  0  0  0  0
  -26.0580  -26.9281   19.5066 C   0  0  0  0  0  0
  -24.8739  -27.6884   19.5069 C   0  0  0  0  0  0
  -23.6171  -29.8233   20.1611 C   0  0  0  0  0  0
  -25.4118  -36.3106   24.0345 C   0  0  1  0  0  0
  -20.5879  -28.3680   23.1329 C   0  0  2  0  0  0
  -20.6781  -26.9408   22.5426 C   0  0  0  0  0  0
  -19.5743  -26.6385   21.5249 C   0  0  0  0  0  0
  -18.1919  -26.7942   22.1636 C   0  0  0  0  0  0
  -19.1541  -28.8846   23.2926 C   0  0  0  0  0  0
  -18.9454  -30.1460   23.8932 C   0  0  0  0  0  0
  -17.6466  -30.6597   24.0587 C   0  0  0  0  0  0
  -25.9036  -34.9487   23.5122 C   0  0  0  0  0  0
  -16.5352  -29.9113   23.6311 C   0  0  0  0  0  0
  -16.7269  -28.6538   23.0344 C   0  0  0  0  0  0
  -26.4462  -31.6620   25.0729 C   0  0  0  0  0  0
  -25.3729  -31.3738   26.1489 C   0  0  0  0  0  0
  -27.0294  -30.3059   24.6084 C   0  0  0  0  0  0
  -27.6040  -32.4331   25.7494 C   0  0  0  0  0  0
  -27.5583  -37.1818   24.8463 C   0  0  0  0  0  0
  -21.4153  -29.3055   22.3747 N   0  0  0  0  0  0
  -26.4296  -37.3789   23.9421 N   0  0  0  0  0  0
  -24.6715  -31.0799   22.0964 N   0  0  0  0  0  0
  -23.4247  -28.8188   23.2964 O   0  0  0  0  0  0
  -28.4137  -26.6865   20.1186 O   0  0  0  0  0  0
  -26.5594  -34.8955   22.4689 O   0  0  0  0  0  0
  -23.5362  -32.1379   23.7491 O   0  0  0  0  0  0
  -31.3258  -21.1426   20.8988 C   0  0  0  0  0  0
  -30.4275  -21.2343   23.2760 C   0  0  0  0  0  0
  -31.0921  -16.4761   23.4790 C   0  0  0  0  0  0
  -31.2391  -20.3171   24.1980 C   0  0  0  0  0  0
  -31.7106  -17.7572   24.0699 C   0  0  0  0  0  0
  -30.1121  -17.9219   21.5719 C   0  0  0  0  0  0
  -30.3445  -20.4959   21.9104 C   0  0  2  0  0  0
  -30.8710  -16.5989   21.9494 C   0  0  2  0  0  0
  -30.8275  -18.9475   23.6840 C   0  0  2  0  0  0
  -33.5876  -23.0058   19.9432 C   0  0  0  0  0  0
  -29.7253  -24.6211   20.1972 C   0  0  0  0  0  0
  -32.1206  -22.9812   19.4455 C   0  0  0  0  0  0
  -29.7918  -23.0858   20.4902 C   0  0  0  0  0  0
  -28.3248  -25.2625   20.3327 C   0  0  0  0  0  0
  -30.2162  -15.3681   21.4548 N   0  0  0  0  0  0
  -31.1180  -22.3962   20.3794 N   0  0  0  0  0  0
  -30.7755  -19.0951   22.2172 N   0  3  1  0  0  0
  -32.3203  -20.4647   20.6131 O   0  0  0  0  0  0
  -31.4738  -12.4123   19.1189 H   0  0  0  0  0  0
  -30.3353  -11.3048   19.8225 H   0  0  0  0  0  0
  -29.7406  -11.7796   17.4340 H   0  0  0  0  0  0
  -29.6703  -13.4917   17.7682 H   0  0  0  0  0  0
  -27.8410  -11.3088   18.8345 H   0  0  0  0  0  0
  -27.3711  -12.6295   17.7968 H   0  0  0  0  0  0
  -27.7185  -14.2572   19.5820 H   0  0  0  0  0  0
  -28.6937  -11.9629   21.3503 H   0  0  0  0  0  0
  -28.4713  -13.6005   21.8778 H   0  0  0  0  0  0
  -25.2766   -9.5677   22.4769 H   0  0  0  0  0  0
  -23.9985   -7.4638   22.7482 H   0  0  0  0  0  0
  -21.0844   -8.8800   19.8960 H   0  0  0  0  0  0
  -22.3722  -10.9683   19.6163 H   0  0  0  0  0  0
  -21.1997   -7.6148   23.9719 H   0  0  0  0  0  0
  -21.1474   -6.0524   25.9081 H   0  0  0  0  0  0
  -22.0599   -2.7606   23.2856 H   0  0  0  0  0  0
  -22.4089  -11.9875   22.4731 H   0  0  0  0  0  0
  -21.1137  -13.1303   22.2597 H   0  0  0  0  0  0
  -24.6764  -15.8488   20.5205 H   0  0  0  0  0  0
  -26.2954  -15.6228   20.0934 H   0  0  0  0  0  0
  -26.7142  -32.5527   23.1185 H   0  0  0  0  0  0
  -25.0079  -33.9796   25.0489 H   0  0  0  0  0  0
  -22.6922  -31.3049   21.4025 H   0  0  0  0  0  0
  -23.3748  -35.9651   23.3299 H   0  0  0  0  0  0
  -24.3595  -36.8927   22.2058 H   0  0  0  0  0  0
  -23.7244  -37.6532   23.6659 H   0  0  0  0  0  0
  -26.0392  -31.5957   20.5870 H   0  0  0  0  0  0
  -26.8267  -30.8927   21.9700 H   0  0  0  0  0  0
  -28.1047  -29.0989   21.1630 H   0  0  0  0  0  0
  -26.0367  -25.9682   19.0143 H   0  0  0  0  0  0
  -23.9860  -27.2937   19.0320 H   0  0  0  0  0  0
  -23.7236  -30.5992   19.4025 H   0  0  0  0  0  0
  -22.7416  -29.2441   19.8618 H   0  0  0  0  0  0
  -25.1272  -36.1974   25.0823 H   0  0  0  0  0  0
  -20.9952  -28.3236   24.1463 H   0  0  0  0  0  0
  -20.5724  -26.2275   23.3616 H   0  0  0  0  0  0
  -21.6640  -26.7481   22.1169 H   0  0  0  0  0  0
  -19.6919  -25.6305   21.1275 H   0  0  0  0  0  0
  -19.6702  -27.3229   20.6816 H   0  0  0  0  0  0
  -17.4197  -26.6738   21.4030 H   0  0  0  0  0  0
  -18.0269  -26.0090   22.9020 H   0  0  0  0  0  0
  -19.7938  -30.7269   24.2313 H   0  0  0  0  0  0
  -17.5019  -31.6283   24.5181 H   0  0  0  0  0  0
  -15.5352  -30.3036   23.7635 H   0  0  0  0  0  0
  -15.8661  -28.0886   22.7003 H   0  0  0  0  0  0
  -24.5875  -30.7105   25.7857 H   0  0  0  0  0  0
  -24.8957  -32.2907   26.4954 H   0  0  0  0  0  0
  -25.8076  -30.8908   27.0242 H   0  0  0  0  0  0
  -26.2838  -29.6849   24.1110 H   0  0  0  0  0  0
  -27.4049  -29.7267   25.4530 H   0  0  0  0  0  0
  -27.8688  -30.4381   23.9239 H   0  0  0  0  0  0
  -27.2647  -33.3626   26.2077 H   0  0  0  0  0  0
  -28.3863  -32.6904   25.0336 H   0  0  0  0  0  0
  -28.0695  -31.8448   26.5409 H   0  0  0  0  0  0
  -28.2583  -38.0136   24.7484 H   0  0  0  0  0  0
  -28.1079  -36.2646   24.6274 H   0  0  0  0  0  0
  -27.2288  -37.1429   25.8865 H   0  0  0  0  0  0
  -20.9301  -29.8839   21.7028 H   0  0  0  0  0  0
  -26.0185  -38.2867   24.1411 H   0  0  0  0  0  0
  -30.8730  -22.2291   23.2189 H   0  0  0  0  0  0
  -29.4220  -21.3652   23.6770 H   0  0  0  0  0  0
  -30.1436  -16.2753   23.9818 H   0  0  0  0  0  0
  -31.7386  -15.6250   23.7022 H   0  0  0  0  0  0
  -31.0092  -20.4629   25.2546 H   0  0  0  0  0  0
  -32.3117  -20.4680   24.0603 H   0  0  0  0  0  0
  -32.7288  -17.8986   23.7030 H   0  0  0  0  0  0
  -31.7802  -17.6730   25.1549 H   0  0  0  0  0  0
  -29.0682  -17.8729   21.8853 H   0  0  0  0  0  0
  -30.1168  -18.0570   20.4896 H   0  0  0  0  0  0
  -29.3254  -20.5093   21.5200 H   0  0  0  0  0  0
  -31.8632  -16.6757   21.4990 H   0  0  0  0  0  0
  -29.8144  -18.7554   24.0461 H   0  0  0  0  0  0
  -34.1725  -23.7196   19.3597 H   0  0  0  0  0  0
  -34.0840  -22.0429   19.8211 H   0  0  0  0  0  0
  -33.6664  -23.3019   20.9909 H   0  0  0  0  0  0
  -30.0247  -24.8312   19.1724 H   0  0  0  0  0  0
  -30.4225  -25.1432   20.8531 H   0  0  0  0  0  0
  -32.0633  -22.4395   18.5003 H   0  0  0  0  0  0
  -31.9049  -24.0118   19.1881 H   0  0  0  0  0  0
  -29.1088  -22.5768   19.8109 H   0  0  0  0  0  0
  -29.3795  -22.9437   21.4884 H   0  0  0  0  0  0
  -27.9125  -25.0589   21.3233 H   0  0  0  0  0  0
  -27.6680  -24.7817   19.6102 H   0  0  0  0  0  0
  -29.3093  -15.1425   21.8341 H   0  0  0  0  0  0
  -31.7269  -19.1151   21.8620 H   0  0  0  0  0  0
  1 25  1  0  0  0
  1 30  2  0  0  0
  1 85  1  0  0  0
  2  3  1  0  0  0
  2 25  1  0  0  0
  2 89  1  0  0  0
  2 90  1  0  0  0
  3  4  1  0  0  0
  3 91  1  0  0  0
  3 92  1  0  0  0
  4  5  1  0  0  0
  4 93  1  0  0  0
  4 94  1  0  0  0
  5  6  1  0  0  0
  5 26  1  0  0  0
  5 95  1  0  0  0
  6 25  1  0  0  0
  6 96  1  0  0  0
  6 97  1  0  0  0
  7  8  2  0  0  0
  7 26  1  0  0  0
  7 29  1  0  0  0
  8  9  1  0  0  0
  8 22  1  0  0  0
  9 10  1  0  0  0
  9 27  2  0  0  0
 10 11  2  0  0  0
 10 15  1  0  0  0
 11 12  1  0  0  0
 11 98  1  0  0  0
 12 13  2  0  0  0
 12 99  1  0  0  0
 13 14  1  0  0  0
 13 31  1  0  0  0
 14 15  2  0  0  0
 14100  1  0  0  0
 15101  1  0  0  0
 16 17  2  0  0  0
 16 21  1  0  0  0
 16 31  1  0  0  0
 17 18  1  0  0  0
 17102  1  0  0  0
 18 19  2  0  0  0
 18103  1  0  0  0
 19 20  1  0  0  0
 19 24  1  0  0  0
 20 21  2  0  0  0
 20104  1  0  0  0
 21 23  1  0  0  0
 22 28  1  0  0  0
 22 32  2  0  0  0
 26 27  1  0  0  0
 28105  1  0  0  0
 28106  1  0  0  0
 29107  1  0  0  0
 29108  1  0  0  0
 33 34  1  0  0  0
 33 66  1  0  0  0
 33 70  2  0  0  0
 34 36  1  0  0  0
 34 59  1  0  0  0
 34109  1  0  0  0
 35 44  2  0  0  0
 35 45  1  0  0  0
 35 68  1  0  0  0
 36 56  1  0  0  0
 36110  1  0  0  0
 37 39  1  0  0  0
 37 47  1  0  0  0
 37 66  1  0  0  0
 37111  1  0  0  0
 38 43  2  0  0  0
 38 46  1  0  0  0
 38 47  1  0  0  0
 39 64  1  0  0  0
 39 67  2  0  0  0
 40 52  1  0  0  0
 40 53  2  0  0  0
 40 58  1  0  0  0
 41112  1  0  0  0
 41113  1  0  0  0
 41114  1  0  0  0
 41 48  1  0  0  0
 42 43  1  0  0  0
 42 66  1  0  0  0
 42115  1  0  0  0
 42116  1  0  0  0
 43 44  1  0  0  0
 44117  1  0  0  0
 45 46  2  0  0  0
 45118  1  0  0  0
 46119  1  0  0  0
 47120  1  0  0  0
 47121  1  0  0  0
 48 56  1  0  0  0
 48 65  1  0  0  0
 48122  1  0  0  0
 49 50  1  0  0  0
 49 53  1  0  0  0
 49 64  1  0  0  0
 49123  1  0  0  0
 50 51  1  0  0  0
 50124  1  0  0  0
 50125  1  0  0  0
 51 52  1  0  0  0
 51126  1  0  0  0
 51127  1  0  0  0
 52128  1  0  0  0
 52129  1  0  0  0
 53 54  1  0  0  0
 54 55  2  0  0  0
 54130  1  0  0  0
 55 57  1  0  0  0
 55131  1  0  0  0
 56 69  2  0  0  0
 57 58  2  0  0  0
 57132  1  0  0  0
 58133  1  0  0  0
 59 60  1  0  0  0
 59 61  1  0  0  0
 59 62  1  0  0  0
 60134  1  0  0  0
 60135  1  0  0  0
 60136  1  0  0  0
 61137  1  0  0  0
 61138  1  0  0  0
 61139  1  0  0  0
 62140  1  0  0  0
 62141  1  0  0  0
 62142  1  0  0  0
 63 65  1  0  0  0
 63143  1  0  0  0
 63144  1  0  0  0
 63145  1  0  0  0
 64146  1  0  0  0
 65147  1  0  0  0
 68 84  1  0  0  0
 71 86  1  0  0  0
 71 88  2  0  0  0
 71 77  1  0  0  0
 72 74  1  0  0  0
 72 77  1  0  0  0
 72148  1  0  0  0
 72149  1  0  0  0
 73 75  1  0  0  0
 73 78  1  0  0  0
 73150  1  0  0  0
 73151  1  0  0  0
 74152  1  0  0  0
 74153  1  0  0  0
 74 79  1  0  0  0
 75 79  1  0  0  0
 75154  1  0  0  0
 75155  1  0  0  0
 76 78  1  0  0  0
 76156  1  0  0  0
 76157  1  0  0  0
 76 87  1  0  0  0
 77 87  1  0  0  0
 77158  1  0  0  0
 78 85  1  0  0  0
 78159  1  0  0  0
 79 87  1  0  0  0
 79160  1  0  0  0
 80 82  1  0  0  0
 80161  1  0  0  0
 80162  1  0  0  0
 80163  1  0  0  0
 81 83  1  0  0  0
 81 84  1  0  0  0
 81164  1  0  0  0
 81165  1  0  0  0
 82 86  1  0  0  0
 82166  1  0  0  0
 82167  1  0  0  0
 83 86  1  0  0  0
 83168  1  0  0  0
 83169  1  0  0  0
 84170  1  0  0  0
 84171  1  0  0  0
 85172  1  0  0  0
 87173  1  0  0  0
M  CHG  1  87   1
M  ISO  4   1 100  68 101  84 101  85 100
M  END
> <chiral flag>
0

> <version>
0

> <s_m_source_file>
/data/baiqing/PycharmProjects/Reinvent-master-3.2/result/LINK_invent/BTK/process_docking_weight1_custom_product_contain_oxygen_bond_distance_aromatic_linkinvent_7_9_3/rearranged_h_0022.sdf

> <i_m_source_file_index>
47

> <r_mmod_Potential_Energy-OPLS-2005>
-78.7428512573242

> <r_mmod_Stretch_Energy-OPLS-2005>
52.0508270263672

> <r_mmod_Bend_Energy-OPLS-2005>
151.868148803711

> <r_mmod_Torsional_Energy-OPLS-2005>
310.580352783203

> <r_mmod_Improper_Torsional_Energy-OPLS-2005>
2.24777221679688

> <r_mmod_Van_der_Waal_Energy-OPLS-2005>
155.110214233398

> <r_mmod_Electrostatic_Energy-OPLS-2005>
-323.015350341797

> <r_mmod_Solvation_Energy-OPLS-2005>
-439.616271972656

> <b_mmod_Minimization_Converged-OPLS-2005>
0

> <r_mmod_RMS_Derivative-OPLS-2005>
3.30372500419617

$$$$
48
                    3D
 Structure written by MMmdl.
156164  0  0  1  0            999 V2000
  -30.7116  -14.5329   20.4705 C   0  0  0  0  0  0
  -30.4126  -12.3197   19.4550 C   0  0  0  0  0  0
  -29.4995  -12.4804   18.2217 C   0  0  0  0  0  0
  -28.0209  -12.3440   18.6318 C   0  0  0  0  0  0
  -27.6519  -13.2208   19.8594 C   0  0  2  0  0  0
  -28.6961  -13.0898   20.9929 C   0  0  0  0  0  0
  -25.2550  -13.8186   20.5692 C   0  0  0  0  0  0
  -24.1817  -13.0446   20.9198 C   0  0  0  0  0  0
  -24.6390  -11.6919   20.8742 C   0  0  0  0  0  0
  -23.9063  -10.4300   21.0408 C   0  0  0  0  0  0
  -24.3615   -9.4213   21.9184 C   0  0  0  0  0  0
  -23.6291   -8.2245   22.0753 C   0  0  0  0  0  0
  -22.4269   -8.0283   21.3546 C   0  0  0  0  0  0
  -21.9906   -9.0258   20.4647 C   0  0  0  0  0  0
  -22.7236  -10.2138   20.3057 C   0  0  0  0  0  0
  -21.6852   -6.0734   22.5277 C   0  0  0  0  0  0
  -21.4014   -6.5637   23.8211 C   0  0  0  0  0  0
  -21.3664   -5.6788   24.9173 C   0  0  0  0  0  0
  -21.6043   -4.3049   24.7222 C   0  0  0  0  0  0
  -21.8818   -3.8143   23.4344 C   0  0  0  0  0  0
  -21.9193   -4.6961   22.3402 C   0  0  0  0  0  0
  -22.7838  -13.5238   21.1858 C   0  0  0  0  0  0
  -22.1663   -4.2150   21.0976 F   0  0  0  0  0  0
  -21.5633   -3.4533   25.7737 F   0  0  0  0  0  0
  -30.0220  -13.3590   20.4229 N   0  0  0  0  0  0
  -26.2982  -12.9382   20.3314 N   0  0  0  0  0  0
  -25.9321  -11.6533   20.5760 N   0  0  0  0  0  0
  -22.0478  -12.8235   22.0413 N   0  0  0  0  0  0
  -25.4257  -15.1909   20.4112 N   0  0  0  0  0  0
  -31.9060  -14.5983   20.1732 O   0  0  0  0  0  0
  -21.6635   -6.8875   21.4237 O   0  0  0  0  0  0
  -22.3528  -14.5543   20.6705 O   0  0  0  0  0  0
  -24.6209  -31.8674   23.2115 C   0  0  0  0  0  0
  -25.9086  -32.4821   23.8411 C   0  0  1  0  0  0
  -27.2136  -27.3799   20.0980 C   0  0  0  0  0  0
  -25.5934  -33.8621   24.2339 N   0  0  0  0  0  0
  -23.4092  -30.4973   21.5533 C   0  0  2  0  0  0
  -24.8513  -28.9708   20.1091 C   0  0  0  0  0  0
  -22.7445  -29.4672   22.4969 C   0  0  0  0  0  0
  -18.0284  -28.1380   22.8489 C   0  0  0  0  0  0
  -24.1489  -36.7309   23.2637 C   0  0  0  0  0  0
  -25.9475  -30.8147   21.3774 C   0  0  0  0  0  0
  -26.0186  -29.4496   20.7173 C   0  0  0  0  0  0
  -27.2015  -28.6618   20.7124 C   0  0  0  0  0  0
  -26.0252  -26.9586   19.4463 C   0  0  0  0  0  0
  -24.8528  -27.7269   19.4686 C   0  0  0  0  0  0
  -23.6188  -29.8443   20.1643 C   0  0  0  0  0  0
  -25.4110  -36.3109   24.0337 C   0  0  1  0  0  0
  -20.5881  -28.3681   23.1299 C   0  0  2  0  0  0
  -20.6775  -26.9414   22.5406 C   0  0  0  0  0  0
  -19.5749  -26.6387   21.5208 C   0  0  0  0  0  0
  -18.1930  -26.7925   22.1622 C   0  0  0  0  0  0
  -19.1534  -28.8846   23.2890 C   0  0  0  0  0  0
  -18.9460  -30.1447   23.8907 C   0  0  0  0  0  0
  -17.6462  -30.6586   24.0564 C   0  0  0  0  0  0
  -25.9042  -34.9473   23.5129 C   0  0  0  0  0  0
  -16.5353  -29.9087   23.6327 C   0  0  0  0  0  0
  -16.7270  -28.6501   23.0352 C   0  0  0  0  0  0
  -26.4490  -31.6605   25.0749 C   0  0  0  0  0  0
  -25.3743  -31.3730   26.1490 C   0  0  0  0  0  0
  -27.0322  -30.3037   24.6158 C   0  0  0  0  0  0
  -27.6057  -32.4334   25.7513 C   0  0  0  0  0  0
  -27.5582  -37.1813   24.8467 C   0  0  0  0  0  0
  -21.4167  -29.3047   22.3704 N   0  0  0  0  0  0
  -26.4297  -37.3794   23.9408 N   0  0  0  0  0  0
  -24.6775  -31.0744   22.1045 N   0  0  0  0  0  0
  -23.4198  -28.8193   23.3007 O   0  0  0  0  0  0
  -28.3371  -26.5516   20.1633 O   0  0  0  0  0  0
  -26.5592  -34.8928   22.4683 O   0  0  0  0  0  0
  -23.5384  -32.1452   23.7475 O   0  0  0  0  0  0
  -30.7502  -16.7260   18.4815 C   0  0  0  0  0  0
  -31.0711  -17.8389   17.6938 C   0  0  0  0  0  0
  -30.0551  -18.2031   20.3022 C   0  0  0  0  0  0
  -30.3996  -19.3432   19.5072 C   0  0  0  0  0  0
  -30.2690  -16.8746   19.8072 C   0  0  0  0  0  0
  -30.9096  -19.1340   18.2025 C   0  0  0  0  0  0
  -30.2635  -20.7587   19.9379 C   0  0  0  0  0  0
  -29.0617  -24.0114   20.3031 C   0  0  0  0  0  0
  -28.6185  -22.6763   19.6128 C   0  0  0  0  0  0
  -28.1092  -25.1518   19.8241 C   0  0  0  0  0  0
  -31.3399  -21.5384   20.0301 N   0  0  0  0  0  0
  -29.9893  -15.6800   20.5775 N   0  0  0  0  0  0
  -29.0674  -21.3458   20.1350 N   0  3  0  0  0  0
  -31.2334  -20.1808   17.4030 F   0  0  0  0  0  0
  -31.4620  -12.3866   19.1615 H   0  0  0  0  0  0
  -30.2909  -11.3300   19.8982 H   0  0  0  0  0  0
  -29.7487  -11.7320   17.4682 H   0  0  0  0  0  0
  -29.6663  -13.4519   17.7539 H   0  0  0  0  0  0
  -27.8440  -11.2931   18.8639 H   0  0  0  0  0  0
  -27.3706  -12.5819   17.7890 H   0  0  0  0  0  0
  -27.6710  -14.2540   19.5122 H   0  0  0  0  0  0
  -28.6746  -12.0874   21.4231 H   0  0  0  0  0  0
  -28.4701  -13.7758   21.8111 H   0  0  0  0  0  0
  -25.2765   -9.5686   22.4753 H   0  0  0  0  0  0
  -24.0009   -7.4630   22.7463 H   0  0  0  0  0  0
  -21.0841   -8.8768   19.8949 H   0  0  0  0  0  0
  -22.3696  -10.9670   19.6159 H   0  0  0  0  0  0
  -21.2004   -7.6143   23.9716 H   0  0  0  0  0  0
  -21.1490   -6.0518   25.9079 H   0  0  0  0  0  0
  -22.0595   -2.7608   23.2839 H   0  0  0  0  0  0
  -22.4093  -11.9905   22.4817 H   0  0  0  0  0  0
  -21.1091  -13.1255   22.2602 H   0  0  0  0  0  0
  -24.6569  -15.8437   20.5183 H   0  0  0  0  0  0
  -26.2728  -15.6308   20.0751 H   0  0  0  0  0  0
  -26.7152  -32.5509   23.1164 H   0  0  0  0  0  0
  -25.0118  -33.9784   25.0507 H   0  0  0  0  0  0
  -22.6991  -31.3162   21.4203 H   0  0  0  0  0  0
  -23.3751  -35.9643   23.3310 H   0  0  0  0  0  0
  -24.3588  -36.8909   22.2050 H   0  0  0  0  0  0
  -23.7242  -37.6518   23.6640 H   0  0  0  0  0  0
  -26.0756  -31.5829   20.6137 H   0  0  0  0  0  0
  -26.8298  -30.8587   22.0037 H   0  0  0  0  0  0
  -28.0936  -29.0209   21.2060 H   0  0  0  0  0  0
  -25.9566  -26.0232   18.9118 H   0  0  0  0  0  0
  -23.9612  -27.3592   18.9796 H   0  0  0  0  0  0
  -23.7353  -30.6267   19.4136 H   0  0  0  0  0  0
  -22.7390  -29.2742   19.8600 H   0  0  0  0  0  0
  -25.1286  -36.1977   25.0830 H   0  0  0  0  0  0
  -20.9967  -28.3247   24.1421 H   0  0  0  0  0  0
  -20.5690  -26.2290   23.3596 H   0  0  0  0  0  0
  -21.6647  -26.7461   22.1195 H   0  0  0  0  0  0
  -19.6917  -25.6300   21.1237 H   0  0  0  0  0  0
  -19.6686  -27.3197   20.6738 H   0  0  0  0  0  0
  -17.4201  -26.6675   21.4022 H   0  0  0  0  0  0
  -18.0333  -26.0065   22.9016 H   0  0  0  0  0  0
  -19.7935  -30.7255   24.2285 H   0  0  0  0  0  0
  -17.5019  -31.6268   24.5162 H   0  0  0  0  0  0
  -15.5354  -30.2992   23.7644 H   0  0  0  0  0  0
  -15.8670  -28.0818   22.7068 H   0  0  0  0  0  0
  -24.5910  -30.7083   25.7830 H   0  0  0  0  0  0
  -24.8946  -32.2894   26.4936 H   0  0  0  0  0  0
  -25.8090  -30.8899   27.0251 H   0  0  0  0  0  0
  -26.2879  -29.6804   24.1187 H   0  0  0  0  0  0
  -27.4047  -29.7271   25.4635 H   0  0  0  0  0  0
  -27.8740  -30.4341   23.9356 H   0  0  0  0  0  0
  -27.2666  -33.3625   26.2111 H   0  0  0  0  0  0
  -28.3857  -32.6914   25.0337 H   0  0  0  0  0  0
  -28.0738  -31.8452   26.5417 H   0  0  0  0  0  0
  -28.2608  -38.0101   24.7507 H   0  0  0  0  0  0
  -28.1071  -36.2635   24.6302 H   0  0  0  0  0  0
  -27.2302  -37.1473   25.8871 H   0  0  0  0  0  0
  -20.9328  -29.8789   21.6945 H   0  0  0  0  0  0
  -26.0187  -38.2878   24.1394 H   0  0  0  0  0  0
  -30.8922  -15.7497   18.0414 H   0  0  0  0  0  0
  -31.4463  -17.6996   16.6909 H   0  0  0  0  0  0
  -29.6707  -18.3537   21.3012 H   0  0  0  0  0  0
  -30.0859  -24.2555   20.0219 H   0  0  0  0  0  0
  -29.0347  -23.9193   21.3891 H   0  0  0  0  0  0
  -28.8776  -22.7296   18.5532 H   0  0  0  0  0  0
  -27.5284  -22.6376   19.6321 H   0  0  0  0  0  0
  -27.1433  -24.8446   20.2287 H   0  0  0  0  0  0
  -28.0356  -25.0982   18.7362 H   0  0  0  0  0  0
  -32.2540  -21.1511   19.8492 H   0  0  0  0  0  0
  -31.2813  -22.4715   20.3999 H   0  0  0  0  0  0
  -29.0748  -15.6128   20.9978 H   0  0  0  0  0  0
  -28.3056  -20.6892   20.2699 H   0  0  0  0  0  0
  1 25  1  0  0  0
  1 30  2  0  0  0
  1 82  1  0  0  0
  2  3  1  0  0  0
  2 25  1  0  0  0
  2 85  1  0  0  0
  2 86  1  0  0  0
  3  4  1  0  0  0
  3 87  1  0  0  0
  3 88  1  0  0  0
  4  5  1  0  0  0
  4 89  1  0  0  0
  4 90  1  0  0  0
  5  6  1  0  0  0
  5 26  1  0  0  0
  5 91  1  0  0  0
  6 25  1  0  0  0
  6 92  1  0  0  0
  6 93  1  0  0  0
  7  8  2  0  0  0
  7 26  1  0  0  0
  7 29  1  0  0  0
  8  9  1  0  0  0
  8 22  1  0  0  0
  9 10  1  0  0  0
  9 27  2  0  0  0
 10 11  2  0  0  0
 10 15  1  0  0  0
 11 12  1  0  0  0
 11 94  1  0  0  0
 12 13  2  0  0  0
 12 95  1  0  0  0
 13 14  1  0  0  0
 13 31  1  0  0  0
 14 15  2  0  0  0
 14 96  1  0  0  0
 15 97  1  0  0  0
 16 17  2  0  0  0
 16 21  1  0  0  0
 16 31  1  0  0  0
 17 18  1  0  0  0
 17 98  1  0  0  0
 18 19  2  0  0  0
 18 99  1  0  0  0
 19 20  1  0  0  0
 19 24  1  0  0  0
 20 21  2  0  0  0
 20100  1  0  0  0
 21 23  1  0  0  0
 22 28  1  0  0  0
 22 32  2  0  0  0
 26 27  1  0  0  0
 28101  1  0  0  0
 28102  1  0  0  0
 29103  1  0  0  0
 29104  1  0  0  0
 33 34  1  0  0  0
 33 66  1  0  0  0
 33 70  2  0  0  0
 34 36  1  0  0  0
 34 59  1  0  0  0
 34105  1  0  0  0
 35 44  2  0  0  0
 35 45  1  0  0  0
 35 68  1  0  0  0
 36 56  1  0  0  0
 36106  1  0  0  0
 37 39  1  0  0  0
 37 47  1  0  0  0
 37 66  1  0  0  0
 37107  1  0  0  0
 38 43  2  0  0  0
 38 46  1  0  0  0
 38 47  1  0  0  0
 39 64  1  0  0  0
 39 67  2  0  0  0
 40 52  1  0  0  0
 40 53  2  0  0  0
 40 58  1  0  0  0
 41108  1  0  0  0
 41109  1  0  0  0
 41110  1  0  0  0
 41 48  1  0  0  0
 42 43  1  0  0  0
 42 66  1  0  0  0
 42111  1  0  0  0
 42112  1  0  0  0
 43 44  1  0  0  0
 44113  1  0  0  0
 45 46  2  0  0  0
 45114  1  0  0  0
 46115  1  0  0  0
 47116  1  0  0  0
 47117  1  0  0  0
 48 56  1  0  0  0
 48 65  1  0  0  0
 48118  1  0  0  0
 49 50  1  0  0  0
 49 53  1  0  0  0
 49 64  1  0  0  0
 49119  1  0  0  0
 50 51  1  0  0  0
 50120  1  0  0  0
 50121  1  0  0  0
 51 52  1  0  0  0
 51122  1  0  0  0
 51123  1  0  0  0
 52124  1  0  0  0
 52125  1  0  0  0
 53 54  1  0  0  0
 54 55  2  0  0  0
 54126  1  0  0  0
 55 57  1  0  0  0
 55127  1  0  0  0
 56 69  2  0  0  0
 57 58  2  0  0  0
 57128  1  0  0  0
 58129  1  0  0  0
 59 60  1  0  0  0
 59 61  1  0  0  0
 59 62  1  0  0  0
 60130  1  0  0  0
 60131  1  0  0  0
 60132  1  0  0  0
 61133  1  0  0  0
 61134  1  0  0  0
 61135  1  0  0  0
 62136  1  0  0  0
 62137  1  0  0  0
 62138  1  0  0  0
 63 65  1  0  0  0
 63139  1  0  0  0
 63140  1  0  0  0
 63141  1  0  0  0
 64142  1  0  0  0
 65143  1  0  0  0
 68 80  1  0  0  0
 71 72  2  0  0  0
 71 75  1  0  0  0
 71144  1  0  0  0
 72 76  1  0  0  0
 72145  1  0  0  0
 73 74  1  0  0  0
 73 75  2  0  0  0
 73146  1  0  0  0
 74 76  2  0  0  0
 74 77  1  0  0  0
 75 82  1  0  0  0
 76 84  1  0  0  0
 77 81  1  0  0  0
 77 83  2  0  0  0
 78 79  1  0  0  0
 78 80  1  0  0  0
 78147  1  0  0  0
 78148  1  0  0  0
 79 83  1  0  0  0
 79149  1  0  0  0
 79150  1  0  0  0
 80151  1  0  0  0
 80152  1  0  0  0
 81153  1  0  0  0
 81154  1  0  0  0
 82155  1  0  0  0
 83156  1  0  0  0
M  CHG  1  83   1
M  ISO  4   1 100  68 101  80 101  82 100
M  END
> <chiral flag>
0

> <version>
0

> <s_m_source_file>
/data/baiqing/PycharmProjects/Reinvent-master-3.2/result/LINK_invent/BTK/process_docking_weight1_custom_product_contain_oxygen_bond_distance_aromatic_linkinvent_7_9_3/rearranged_h_0022.sdf

> <i_m_source_file_index>
48

> <r_mmod_Potential_Energy-OPLS-2005>
-123.755035400391

> <r_mmod_Stretch_Energy-OPLS-2005>
52.019172668457

> <r_mmod_Bend_Energy-OPLS-2005>
124.570022583008

> <r_mmod_Torsional_Energy-OPLS-2005>
285.997589111328

> <r_mmod_Improper_Torsional_Energy-OPLS-2005>
10.207070350647

> <r_mmod_Van_der_Waal_Energy-OPLS-2005>
165.048553466797

> <r_mmod_Electrostatic_Energy-OPLS-2005>
-371.361572265625

> <r_mmod_Solvation_Energy-OPLS-2005>
-423.985961914062

> <b_mmod_Minimization_Converged-OPLS-2005>
0

> <r_mmod_RMS_Derivative-OPLS-2005>
1.01034867763519

$$$$
49
                    3D
 Structure written by MMmdl.
170179  0  0  1  0            999 V2000
  -30.6944  -14.4093   20.6040 C   0  0  0  0  0  0
  -30.4281  -12.2756   19.4089 C   0  0  0  0  0  0
  -29.4925  -12.5073   18.2025 C   0  0  0  0  0  0
  -28.0125  -12.3728   18.6111 C   0  0  0  0  0  0
  -27.6661  -13.1887   19.8842 C   0  0  2  0  0  0
  -28.7054  -12.9166   20.9974 C   0  0  0  0  0  0
  -25.2630  -13.8122   20.5697 C   0  0  0  0  0  0
  -24.1846  -13.0418   20.9125 C   0  0  0  0  0  0
  -24.6364  -11.6869   20.8703 C   0  0  0  0  0  0
  -23.9031  -10.4272   21.0402 C   0  0  0  0  0  0
  -24.3590   -9.4191   21.9172 C   0  0  0  0  0  0
  -23.6270   -8.2229   22.0750 C   0  0  0  0  0  0
  -22.4261   -8.0261   21.3541 C   0  0  0  0  0  0
  -21.9891   -9.0240   20.4653 C   0  0  0  0  0  0
  -22.7207  -10.2122   20.3057 C   0  0  0  0  0  0
  -21.6849   -6.0723   22.5281 C   0  0  0  0  0  0
  -21.4007   -6.5628   23.8210 C   0  0  0  0  0  0
  -21.3659   -5.6786   24.9178 C   0  0  0  0  0  0
  -21.6045   -4.3047   24.7233 C   0  0  0  0  0  0
  -21.8821   -3.8133   23.4356 C   0  0  0  0  0  0
  -21.9190   -4.6947   22.3415 C   0  0  0  0  0  0
  -22.7886  -13.5246   21.1817 C   0  0  0  0  0  0
  -22.1668   -4.2127   21.0992 F   0  0  0  0  0  0
  -21.5629   -3.4532   25.7753 F   0  0  0  0  0  0
  -30.0472  -13.2232   20.4650 N   0  0  0  0  0  0
  -26.3038  -12.9240   20.3389 N   0  0  0  0  0  0
  -25.9278  -11.6419   20.5721 N   0  0  0  0  0  0
  -22.0525  -12.8267   22.0397 N   0  0  0  0  0  0
  -25.4410  -15.1846   20.4268 N   0  0  0  0  0  0
  -31.7799  -14.6680   20.0724 O   0  0  0  0  0  0
  -21.6632   -6.8858   21.4239 O   0  0  0  0  0  0
  -22.3577  -14.5554   20.6665 O   0  0  0  0  0  0
  -24.6096  -31.8718   23.2120 C   0  0  0  0  0  0
  -25.9017  -32.4831   23.8391 C   0  0  1  0  0  0
  -27.2380  -27.4784   20.0713 C   0  0  0  0  0  0
  -25.5897  -33.8631   24.2330 N   0  0  0  0  0  0
  -23.3929  -30.4957   21.5548 C   0  0  2  0  0  0
  -24.8363  -28.9619   20.1217 C   0  0  0  0  0  0
  -22.7373  -29.4675   22.5028 C   0  0  0  0  0  0
  -18.0263  -28.1372   22.8489 C   0  0  0  0  0  0
  -24.1492  -36.7334   23.2628 C   0  0  0  0  0  0
  -25.9161  -30.8472   21.3575 C   0  0  0  0  0  0
  -25.9937  -29.4803   20.7145 C   0  0  0  0  0  0
  -27.1923  -28.7385   20.7011 C   0  0  0  0  0  0
  -26.0525  -26.9460   19.5133 C   0  0  0  0  0  0
  -24.8559  -27.6872   19.5294 C   0  0  0  0  0  0
  -23.5970  -29.8261   20.1695 C   0  0  0  0  0  0
  -25.4107  -36.3117   24.0327 C   0  0  1  0  0  0
  -20.5849  -28.3649   23.1342 C   0  0  2  0  0  0
  -20.6761  -26.9395   22.5424 C   0  0  0  0  0  0
  -19.5749  -26.6389   21.5211 C   0  0  0  0  0  0
  -18.1924  -26.7918   22.1620 C   0  0  0  0  0  0
  -19.1512  -28.8825   23.2911 C   0  0  0  0  0  0
  -18.9439  -30.1434   23.8920 C   0  0  0  0  0  0
  -17.6446  -30.6579   24.0572 C   0  0  0  0  0  0
  -25.9036  -34.9482   23.5123 C   0  0  0  0  0  0
  -16.5338  -29.9090   23.6316 C   0  0  0  0  0  0
  -16.7255  -28.6508   23.0330 C   0  0  0  0  0  0
  -26.4458  -31.6584   25.0695 C   0  0  0  0  0  0
  -25.3730  -31.3713   26.1451 C   0  0  0  0  0  0
  -27.0256  -30.3024   24.6019 C   0  0  0  0  0  0
  -27.6040  -32.4286   25.7466 C   0  0  0  0  0  0
  -27.5585  -37.1819   24.8452 C   0  0  0  0  0  0
  -21.4113  -29.3029   22.3765 N   0  0  0  0  0  0
  -26.4296  -37.3796   23.9400 N   0  0  0  0  0  0
  -24.6580  -31.0843   22.1008 N   0  0  0  0  0  0
  -23.4170  -28.8224   23.3060 O   0  0  0  0  0  0
  -28.4401  -26.8111   20.0374 O   0  0  0  0  0  0
  -26.5598  -34.8926   22.4685 O   0  0  0  0  0  0
  -23.5306  -32.1463   23.7548 O   0  0  0  0  0  0
  -27.6826  -18.2469   20.8071 C   0  0  0  0  0  0
  -28.5094  -17.2736   21.4029 C   0  0  0  0  0  0
  -29.2057  -16.5211   19.1892 C   0  0  0  0  0  0
  -27.5854  -18.3377   19.4006 C   0  0  0  0  0  0
  -29.2724  -16.3971   20.6017 C   0  0  0  0  0  0
  -28.3476  -17.4646   18.5949 C   0  0  0  0  0  0
  -26.6569  -20.6220   19.0812 C   0  0  0  0  0  0
  -27.6447  -21.5498   19.1098 C   0  0  0  0  0  0
  -29.0786  -21.3259   18.8866 C   0  0  0  0  0  0
  -25.1979  -21.0000   19.2327 C   0  0  0  0  0  0
  -24.4335  -19.8751   18.5396 C   0  0  0  0  0  0
  -25.3781  -18.6811   18.6575 C   0  0  0  0  0  0
  -31.2106  -22.2697   18.1441 C   0  0  0  0  0  0
  -29.1527  -24.6536   19.2508 C   0  0  0  0  0  0
  -29.2192  -23.7091   18.0355 C   0  0  0  0  0  0
  -28.7582  -26.0795   18.8555 C   0  0  0  0  0  0
  -26.7101  -19.2574   18.8042 N   0  0  0  0  0  0
  -29.9964  -15.3549   21.2486 N   0  0  0  0  0  0
  -29.7699  -22.3946   18.4058 N   0  0  0  0  0  0
  -29.6677  -20.2715   19.1367 O   0  0  0  0  0  0
  -28.2574  -17.5258   17.2418 F   0  0  0  0  0  0
  -31.4692  -12.3939   19.1016 H   0  0  0  0  0  0
  -30.3401  -11.2512   19.7749 H   0  0  0  0  0  0
  -29.7243  -11.8021   17.4024 H   0  0  0  0  0  0
  -29.6664  -13.5020   17.7911 H   0  0  0  0  0  0
  -27.8095  -11.3152   18.7832 H   0  0  0  0  0  0
  -27.3669  -12.6717   17.7837 H   0  0  0  0  0  0
  -27.7148  -14.2416   19.6131 H   0  0  0  0  0  0
  -28.6704  -11.8668   21.2931 H   0  0  0  0  0  0
  -28.4648  -13.4752   21.9027 H   0  0  0  0  0  0
  -25.2746   -9.5667   22.4732 H   0  0  0  0  0  0
  -23.9975   -7.4631   22.7474 H   0  0  0  0  0  0
  -21.0808   -8.8770   19.8971 H   0  0  0  0  0  0
  -22.3667  -10.9669   19.6169 H   0  0  0  0  0  0
  -21.1994   -7.6139   23.9716 H   0  0  0  0  0  0
  -21.1483   -6.0514   25.9082 H   0  0  0  0  0  0
  -22.0604   -2.7590   23.2867 H   0  0  0  0  0  0
  -22.4115  -11.9903   22.4769 H   0  0  0  0  0  0
  -21.1160  -13.1316   22.2616 H   0  0  0  0  0  0
  -24.6842  -15.8398   20.5861 H   0  0  0  0  0  0
  -26.3302  -15.6291   20.2469 H   0  0  0  0  0  0
  -26.7088  -32.5550   23.1165 H   0  0  0  0  0  0
  -25.0041  -33.9804   25.0465 H   0  0  0  0  0  0
  -22.6777  -31.3098   21.4190 H   0  0  0  0  0  0
  -23.3739  -35.9683   23.3299 H   0  0  0  0  0  0
  -24.3593  -36.8938   22.2043 H   0  0  0  0  0  0
  -23.7263  -37.6550   23.6636 H   0  0  0  0  0  0
  -26.0097  -31.6086   20.5816 H   0  0  0  0  0  0
  -26.8125  -30.9129   21.9619 H   0  0  0  0  0  0
  -28.0880  -29.1428   21.1524 H   0  0  0  0  0  0
  -26.0389  -25.9602   19.0712 H   0  0  0  0  0  0
  -23.9594  -27.2741   19.0888 H   0  0  0  0  0  0
  -23.6953  -30.6004   19.4070 H   0  0  0  0  0  0
  -22.7211  -29.2431   19.8797 H   0  0  0  0  0  0
  -25.1276  -36.1988   25.0818 H   0  0  0  0  0  0
  -20.9922  -28.3216   24.1470 H   0  0  0  0  0  0
  -20.5665  -26.2261   23.3604 H   0  0  0  0  0  0
  -21.6639  -26.7449   22.1222 H   0  0  0  0  0  0
  -19.6917  -25.6312   21.1215 H   0  0  0  0  0  0
  -19.6693  -27.3224   20.6765 H   0  0  0  0  0  0
  -17.4194  -26.6664   21.4020 H   0  0  0  0  0  0
  -18.0320  -26.0046   22.9002 H   0  0  0  0  0  0
  -19.7920  -30.7235   24.2306 H   0  0  0  0  0  0
  -17.5004  -31.6251   24.5188 H   0  0  0  0  0  0
  -15.5341  -30.3004   23.7618 H   0  0  0  0  0  0
  -15.8658  -28.0842   22.7020 H   0  0  0  0  0  0
  -24.5909  -30.7038   25.7818 H   0  0  0  0  0  0
  -24.8912  -32.2882   26.4854 H   0  0  0  0  0  0
  -25.8089  -30.8928   27.0230 H   0  0  0  0  0  0
  -26.2781  -29.6827   24.1047 H   0  0  0  0  0  0
  -27.4022  -29.7203   25.4442 H   0  0  0  0  0  0
  -27.8617  -30.4353   23.9147 H   0  0  0  0  0  0
  -27.2661  -33.3576   26.2081 H   0  0  0  0  0  0
  -28.3851  -32.6864   25.0297 H   0  0  0  0  0  0
  -28.0702  -31.8368   26.5356 H   0  0  0  0  0  0
  -28.2600  -38.0118   24.7486 H   0  0  0  0  0  0
  -28.1082  -36.2646   24.6282 H   0  0  0  0  0  0
  -27.2302  -37.1473   25.8855 H   0  0  0  0  0  0
  -20.9261  -29.8756   21.6999 H   0  0  0  0  0  0
  -26.0185  -38.2875   24.1394 H   0  0  0  0  0  0
  -27.1013  -18.9081   21.4346 H   0  0  0  0  0  0
  -28.5382  -17.1996   22.4817 H   0  0  0  0  0  0
  -29.7685  -15.8720   18.5355 H   0  0  0  0  0  0
  -27.3145  -22.5541   19.3144 H   0  0  0  0  0  0
  -24.9731  -21.9687   18.7848 H   0  0  0  0  0  0
  -24.9491  -21.0496   20.2934 H   0  0  0  0  0  0
  -24.2901  -20.1255   17.4881 H   0  0  0  0  0  0
  -23.4495  -19.6859   18.9703 H   0  0  0  0  0  0
  -25.3140  -18.0297   17.7844 H   0  0  0  0  0  0
  -25.1173  -18.0935   19.5415 H   0  0  0  0  0  0
  -31.7227  -21.7518   18.9561 H   0  0  0  0  0  0
  -31.7000  -23.2385   18.0406 H   0  0  0  0  0  0
  -31.3791  -21.7055   17.2262 H   0  0  0  0  0  0
  -30.1201  -24.6820   19.7537 H   0  0  0  0  0  0
  -28.4459  -24.2791   19.9890 H   0  0  0  0  0  0
  -29.8349  -24.1641   17.2586 H   0  0  0  0  0  0
  -28.2378  -23.6066   17.5680 H   0  0  0  0  0  0
  -27.9696  -26.0698   18.1032 H   0  0  0  0  0  0
  -29.6048  -26.5695   18.3738 H   0  0  0  0  0  0
  -29.5352  -15.0114   22.0776 H   0  0  0  0  0  0
  1 25  1  0  0  0
  1 30  2  0  0  0
  1 88  1  0  0  0
  2  3  1  0  0  0
  2 25  1  0  0  0
  2 92  1  0  0  0
  2 93  1  0  0  0
  3  4  1  0  0  0
  3 94  1  0  0  0
  3 95  1  0  0  0
  4  5  1  0  0  0
  4 96  1  0  0  0
  4 97  1  0  0  0
  5  6  1  0  0  0
  5 26  1  0  0  0
  5 98  1  0  0  0
  6 25  1  0  0  0
  6 99  1  0  0  0
  6100  1  0  0  0
  7  8  2  0  0  0
  7 26  1  0  0  0
  7 29  1  0  0  0
  8  9  1  0  0  0
  8 22  1  0  0  0
  9 10  1  0  0  0
  9 27  2  0  0  0
 10 11  2  0  0  0
 10 15  1  0  0  0
 11 12  1  0  0  0
 11101  1  0  0  0
 12 13  2  0  0  0
 12102  1  0  0  0
 13 14  1  0  0  0
 13 31  1  0  0  0
 14 15  2  0  0  0
 14103  1  0  0  0
 15104  1  0  0  0
 16 17  2  0  0  0
 16 21  1  0  0  0
 16 31  1  0  0  0
 17 18  1  0  0  0
 17105  1  0  0  0
 18 19  2  0  0  0
 18106  1  0  0  0
 19 20  1  0  0  0
 19 24  1  0  0  0
 20 21  2  0  0  0
 20107  1  0  0  0
 21 23  1  0  0  0
 22 28  1  0  0  0
 22 32  2  0  0  0
 26 27  1  0  0  0
 28108  1  0  0  0
 28109  1  0  0  0
 29110  1  0  0  0
 29111  1  0  0  0
 33 34  1  0  0  0
 33 66  1  0  0  0
 33 70  2  0  0  0
 34 36  1  0  0  0
 34 59  1  0  0  0
 34112  1  0  0  0
 35 44  2  0  0  0
 35 45  1  0  0  0
 35 68  1  0  0  0
 36 56  1  0  0  0
 36113  1  0  0  0
 37 39  1  0  0  0
 37 47  1  0  0  0
 37 66  1  0  0  0
 37114  1  0  0  0
 38 43  2  0  0  0
 38 46  1  0  0  0
 38 47  1  0  0  0
 39 64  1  0  0  0
 39 67  2  0  0  0
 40 52  1  0  0  0
 40 53  2  0  0  0
 40 58  1  0  0  0
 41115  1  0  0  0
 41116  1  0  0  0
 41117  1  0  0  0
 41 48  1  0  0  0
 42 43  1  0  0  0
 42 66  1  0  0  0
 42118  1  0  0  0
 42119  1  0  0  0
 43 44  1  0  0  0
 44120  1  0  0  0
 45 46  2  0  0  0
 45121  1  0  0  0
 46122  1  0  0  0
 47123  1  0  0  0
 47124  1  0  0  0
 48 56  1  0  0  0
 48 65  1  0  0  0
 48125  1  0  0  0
 49 50  1  0  0  0
 49 53  1  0  0  0
 49 64  1  0  0  0
 49126  1  0  0  0
 50 51  1  0  0  0
 50127  1  0  0  0
 50128  1  0  0  0
 51 52  1  0  0  0
 51129  1  0  0  0
 51130  1  0  0  0
 52131  1  0  0  0
 52132  1  0  0  0
 53 54  1  0  0  0
 54 55  2  0  0  0
 54133  1  0  0  0
 55 57  1  0  0  0
 55134  1  0  0  0
 56 69  2  0  0  0
 57 58  2  0  0  0
 57135  1  0  0  0
 58136  1  0  0  0
 59 60  1  0  0  0
 59 61  1  0  0  0
 59 62  1  0  0  0
 60137  1  0  0  0
 60138  1  0  0  0
 60139  1  0  0  0
 61140  1  0  0  0
 61141  1  0  0  0
 61142  1  0  0  0
 62143  1  0  0  0
 62144  1  0  0  0
 62145  1  0  0  0
 63 65  1  0  0  0
 63146  1  0  0  0
 63147  1  0  0  0
 63148  1  0  0  0
 64149  1  0  0  0
 65150  1  0  0  0
 68 86  1  0  0  0
 71 72  2  0  0  0
 71 74  1  0  0  0
 71151  1  0  0  0
 72 75  1  0  0  0
 72152  1  0  0  0
 73 75  2  0  0  0
 73 76  1  0  0  0
 73153  1  0  0  0
 74 76  2  0  0  0
 74 87  1  0  0  0
 75 88  1  0  0  0
 76 91  1  0  0  0
 77 78  2  0  0  0
 77 80  1  0  0  0
 77 87  1  0  0  0
 78 79  1  0  0  0
 78154  1  0  0  0
 79 89  1  0  0  0
 79 90  2  0  0  0
 80 81  1  0  0  0
 80155  1  0  0  0
 80156  1  0  0  0
 81 82  1  0  0  0
 81157  1  0  0  0
 81158  1  0  0  0
 82 87  1  0  0  0
 82159  1  0  0  0
 82160  1  0  0  0
 83 89  1  0  0  0
 83161  1  0  0  0
 83162  1  0  0  0
 83163  1  0  0  0
 84 85  1  0  0  0
 84 86  1  0  0  0
 84164  1  0  0  0
 84165  1  0  0  0
 85 89  1  0  0  0
 85166  1  0  0  0
 85167  1  0  0  0
 86168  1  0  0  0
 86169  1  0  0  0
 88170  1  0  0  0
M  ISO  4   1 100  68 101  86 101  88 100
M  END
> <chiral flag>
0

> <version>
0

> <s_m_source_file>
/data/baiqing/PycharmProjects/Reinvent-master-3.2/result/LINK_invent/BTK/process_docking_weight1_custom_product_contain_oxygen_bond_distance_aromatic_linkinvent_7_9_3/rearranged_h_0022.sdf

> <i_m_source_file_index>
49

> <r_mmod_Potential_Energy-OPLS-2005>
141.420867919922

> <r_mmod_Stretch_Energy-OPLS-2005>
36.417163848877

> <r_mmod_Bend_Energy-OPLS-2005>
138.341903686523

> <r_mmod_Torsional_Energy-OPLS-2005>
335.808013916016

> <r_mmod_Improper_Torsional_Energy-OPLS-2005>
10.488790512085

> <r_mmod_Van_der_Waal_Energy-OPLS-2005>
162.442398071289

> <r_mmod_Electrostatic_Energy-OPLS-2005>
-315.693450927734

> <r_mmod_Solvation_Energy-OPLS-2005>
-234.967575073242

> <b_mmod_Minimization_Converged-OPLS-2005>
0

> <r_mmod_RMS_Derivative-OPLS-2005>
2.77153658866882

$$$$
50
                    3D
 Structure written by MMmdl.
155163  0  0  1  0            999 V2000
  -30.5000  -15.0553   20.3853 C   0  0  0  0  0  0
  -30.4379  -12.6520   19.5346 C   0  0  0  0  0  0
  -29.5297  -12.5455   18.2849 C   0  0  0  0  0  0
  -28.0682  -12.3089   18.7003 C   0  0  0  0  0  0
  -27.6237  -13.2620   19.8397 C   0  0  2  0  0  0
  -28.6593  -13.3395   20.9836 C   0  0  0  0  0  0
  -25.2418  -13.8248   20.5717 C   0  0  0  0  0  0
  -24.1748  -13.0459   20.9233 C   0  0  0  0  0  0
  -24.6380  -11.6942   20.8773 C   0  0  0  0  0  0
  -23.9080  -10.4299   21.0413 C   0  0  0  0  0  0
  -24.3617   -9.4212   21.9190 C   0  0  0  0  0  0
  -23.6286   -8.2253   22.0755 C   0  0  0  0  0  0
  -22.4281   -8.0287   21.3534 C   0  0  0  0  0  0
  -21.9915   -9.0261   20.4644 C   0  0  0  0  0  0
  -22.7254  -10.2136   20.3061 C   0  0  0  0  0  0
  -21.6854   -6.0735   22.5268 C   0  0  0  0  0  0
  -21.4006   -6.5637   23.8199 C   0  0  0  0  0  0
  -21.3659   -5.6788   24.9170 C   0  0  0  0  0  0
  -21.6059   -4.3046   24.7224 C   0  0  0  0  0  0
  -21.8812   -3.8141   23.4338 C   0  0  0  0  0  0
  -21.9182   -4.6957   22.3393 C   0  0  0  0  0  0
  -22.7767  -13.5206   21.1876 C   0  0  0  0  0  0
  -22.1656   -4.2138   21.0968 F   0  0  0  0  0  0
  -21.5629   -3.4528   25.7743 F   0  0  0  0  0  0
  -29.9311  -13.7713   20.3911 N   0  0  0  0  0  0
  -26.2851  -12.9505   20.3264 N   0  0  0  0  0  0
  -25.9325  -11.6625   20.5759 N   0  0  0  0  0  0
  -22.0424  -12.8207   22.0444 N   0  0  0  0  0  0
  -25.4079  -15.1987   20.4127 N   0  0  0  0  0  0
  -31.6920  -15.1047   20.0556 O   0  0  0  0  0  0
  -21.6636   -6.8891   21.4237 O   0  0  0  0  0  0
  -22.3453  -14.5510   20.6726 O   0  0  0  0  0  0
  -24.6464  -31.8351   23.1764 C   0  0  0  0  0  0
  -25.9213  -32.4632   23.8182 C   0  0  1  0  0  0
  -27.2336  -27.0774   20.1498 C   0  0  0  0  0  0
  -25.5918  -33.8446   24.2089 N   0  0  0  0  0  0
  -23.4552  -30.4442   21.5225 C   0  0  2  0  0  0
  -24.9140  -28.8543   20.0984 C   0  0  0  0  0  0
  -22.7586  -29.4476   22.4815 C   0  0  0  0  0  0
  -18.0294  -28.1380   22.8481 C   0  0  0  0  0  0
  -24.1489  -36.7259   23.2639 C   0  0  0  0  0  0
  -26.0100  -30.6851   21.3863 C   0  0  0  0  0  0
  -26.0832  -29.2895   20.7270 C   0  0  0  0  0  0
  -27.2368  -28.4132   20.7411 C   0  0  0  0  0  0
  -26.0454  -26.7540   19.4621 C   0  0  0  0  0  0
  -24.9099  -27.6056   19.4467 C   0  0  0  0  0  0
  -23.6849  -29.7562   20.1472 C   0  0  0  0  0  0
  -25.4118  -36.2994   24.0294 C   0  0  1  0  0  0
  -20.5906  -28.3719   23.1220 C   0  0  2  0  0  0
  -20.6786  -26.9402   22.5408 C   0  0  0  0  0  0
  -19.5760  -26.6369   21.5210 C   0  0  0  0  0  0
  -18.1929  -26.7932   22.1608 C   0  0  0  0  0  0
  -19.1558  -28.8867   23.2841 C   0  0  0  0  0  0
  -18.9487  -30.1455   23.8875 C   0  0  0  0  0  0
  -17.6489  -30.6599   24.0545 C   0  0  0  0  0  0
  -25.9073  -34.9366   23.5027 C   0  0  0  0  0  0
  -16.5365  -29.9083   23.6334 C   0  0  0  0  0  0
  -16.7287  -28.6486   23.0378 C   0  0  0  0  0  0
  -26.4514  -31.6555   25.0686 C   0  0  0  0  0  0
  -25.3662  -31.3815   26.1373 C   0  0  0  0  0  0
  -27.0378  -30.2909   24.6362 C   0  0  0  0  0  0
  -27.6005  -32.4367   25.7474 C   0  0  0  0  0  0
  -27.5573  -37.1744   24.8437 C   0  0  0  0  0  0
  -21.4263  -29.3020   22.3588 N   0  0  0  0  0  0
  -26.4271  -37.3715   23.9406 N   0  0  0  0  0  0
  -24.7228  -31.0111   22.0838 N   0  0  0  0  0  0
  -23.4214  -28.8058   23.3022 O   0  0  0  0  0  0
  -28.2911  -26.0961   20.3282 O   0  0  0  0  0  0
  -26.5700  -34.8894   22.4637 O   0  0  0  0  0  0
  -23.5573  -32.1266   23.6942 O   0  0  0  0  0  0
  -30.2358  -17.9143   18.7869 C   0  0  0  0  0  0
  -29.7326  -20.3600   18.7378 C   0  0  0  0  0  0
  -29.2992  -19.0344   20.7147 C   0  0  0  0  0  0
  -30.1958  -19.1663   18.1218 C   0  0  0  0  0  0
  -29.7819  -17.7369   20.1101 C   0  0  0  0  0  0
  -29.2568  -20.4039   20.0679 C   0  0  0  0  0  0
  -30.6375  -19.2223   16.6725 C   0  0  0  0  0  0
  -28.6361  -21.7393   22.0473 C   0  0  0  0  0  0
  -28.1076  -23.0070   19.9425 C   0  0  0  0  0  0
  -28.5749  -24.6579   19.7292 C   0  0  0  0  0  0
  -29.7435  -16.2623   20.6380 N   0  0  0  0  0  0
  -28.8627  -21.7683   20.6066 N   0  0  0  0  0  0
  -31.4716  -12.8090   19.2225 H   0  0  0  0  0  0
  -30.4422  -11.7148   20.0946 H   0  0  0  0  0  0
  -29.8723  -11.7426   17.6320 H   0  0  0  0  0  0
  -29.5995  -13.4681   17.7077 H   0  0  0  0  0  0
  -27.9844  -11.2744   19.0362 H   0  0  0  0  0  0
  -27.4055  -12.4027   17.8380 H   0  0  0  0  0  0
  -27.5718  -14.2516   19.3838 H   0  0  0  0  0  0
  -28.7614  -12.3775   21.4889 H   0  0  0  0  0  0
  -28.3355  -14.0530   21.7450 H   0  0  0  0  0  0
  -25.2741   -9.5687   22.4778 H   0  0  0  0  0  0
  -23.9972   -7.4653   22.7482 H   0  0  0  0  0  0
  -21.0840   -8.8808   19.8952 H   0  0  0  0  0  0
  -22.3711  -10.9690   19.6170 H   0  0  0  0  0  0
  -21.2002   -7.6144   23.9704 H   0  0  0  0  0  0
  -21.1493   -6.0518   25.9070 H   0  0  0  0  0  0
  -22.0593   -2.7601   23.2847 H   0  0  0  0  0  0
  -22.4016  -11.9859   22.4839 H   0  0  0  0  0  0
  -21.1041  -13.1245   22.2657 H   0  0  0  0  0  0
  -24.6337  -15.8496   20.5009 H   0  0  0  0  0  0
  -26.2556  -15.6376   20.0799 H   0  0  0  0  0  0
  -26.7287  -32.5190   23.0900 H   0  0  0  0  0  0
  -24.9903  -33.9524   25.0110 H   0  0  0  0  0  0
  -22.7583  -31.2700   21.3575 H   0  0  0  0  0  0
  -23.3741  -35.9593   23.3239 H   0  0  0  0  0  0
  -24.3561  -36.9009   22.2073 H   0  0  0  0  0  0
  -23.7254  -37.6419   23.6766 H   0  0  0  0  0  0
  -26.1639  -31.4377   20.6130 H   0  0  0  0  0  0
  -26.8807  -30.7378   22.0297 H   0  0  0  0  0  0
  -28.1221  -28.7350   21.2723 H   0  0  0  0  0  0
  -25.9573  -25.7913   18.9799 H   0  0  0  0  0  0
  -24.0163  -27.2706   18.9366 H   0  0  0  0  0  0
  -23.8047  -30.5225   19.3802 H   0  0  0  0  0  0
  -22.8041  -29.1883   19.8479 H   0  0  0  0  0  0
  -25.1291  -36.1799   25.0782 H   0  0  0  0  0  0
  -20.9969  -28.3355   24.1363 H   0  0  0  0  0  0
  -20.5676  -26.2334   23.3647 H   0  0  0  0  0  0
  -21.6661  -26.7420   22.1205 H   0  0  0  0  0  0
  -19.6936  -25.6269   21.1273 H   0  0  0  0  0  0
  -19.6731  -27.3177   20.6731 H   0  0  0  0  0  0
  -17.4210  -26.6686   21.4005 H   0  0  0  0  0  0
  -18.0308  -26.0064   22.8998 H   0  0  0  0  0  0
  -19.7978  -30.7235   24.2290 H   0  0  0  0  0  0
  -17.5053  -31.6299   24.5124 H   0  0  0  0  0  0
  -15.5365  -30.2965   23.7703 H   0  0  0  0  0  0
  -15.8682  -28.0792   22.7131 H   0  0  0  0  0  0
  -24.5772  -30.7275   25.7655 H   0  0  0  0  0  0
  -24.8940  -32.3044   26.4752 H   0  0  0  0  0  0
  -25.7883  -30.8959   27.0182 H   0  0  0  0  0  0
  -26.3027  -29.6579   24.1388 H   0  0  0  0  0  0
  -27.3915  -29.7282   25.5000 H   0  0  0  0  0  0
  -27.8964  -30.4043   23.9744 H   0  0  0  0  0  0
  -27.2589  -33.3726   26.1910 H   0  0  0  0  0  0
  -28.3891  -32.6857   25.0373 H   0  0  0  0  0  0
  -28.0589  -31.8602   26.5523 H   0  0  0  0  0  0
  -28.2497  -38.0117   24.7512 H   0  0  0  0  0  0
  -28.1163  -36.2629   24.6217 H   0  0  0  0  0  0
  -27.2291  -37.1333   25.8836 H   0  0  0  0  0  0
  -20.9513  -29.8702   21.6714 H   0  0  0  0  0  0
  -26.0128  -38.2769   24.1472 H   0  0  0  0  0  0
  -30.5898  -17.0515   18.2389 H   0  0  0  0  0  0
  -29.7724  -21.2767   18.1655 H   0  0  0  0  0  0
  -28.9381  -18.9702   21.7305 H   0  0  0  0  0  0
  -30.4619  -18.2665   16.1735 H   0  0  0  0  0  0
  -31.7001  -19.4555   16.5926 H   0  0  0  0  0  0
  -30.0710  -19.9808   16.1309 H   0  0  0  0  0  0
  -29.2880  -21.0406   22.5697 H   0  0  0  0  0  0
  -27.5991  -21.4626   22.2573 H   0  0  0  0  0  0
  -28.8014  -22.7228   22.4876 H   0  0  0  0  0  0
  -27.9532  -22.6549   18.9228 H   0  0  0  0  0  0
  -27.0936  -23.0182   20.3477 H   0  0  0  0  0  0
  -28.3379  -24.8324   18.6787 H   0  0  0  0  0  0
  -29.6629  -24.6244   19.7246 H   0  0  0  0  0  0
  -28.8945  -16.0545   21.1425 H   0  0  0  0  0  0
  1 25  1  0  0  0
  1 30  2  0  0  0
  1 81  1  0  0  0
  2  3  1  0  0  0
  2 25  1  0  0  0
  2 83  1  0  0  0
  2 84  1  0  0  0
  3  4  1  0  0  0
  3 85  1  0  0  0
  3 86  1  0  0  0
  4  5  1  0  0  0
  4 87  1  0  0  0
  4 88  1  0  0  0
  5  6  1  0  0  0
  5 26  1  0  0  0
  5 89  1  0  0  0
  6 25  1  0  0  0
  6 90  1  0  0  0
  6 91  1  0  0  0
  7  8  2  0  0  0
  7 26  1  0  0  0
  7 29  1  0  0  0
  8  9  1  0  0  0
  8 22  1  0  0  0
  9 10  1  0  0  0
  9 27  2  0  0  0
 10 11  2  0  0  0
 10 15  1  0  0  0
 11 12  1  0  0  0
 11 92  1  0  0  0
 12 13  2  0  0  0
 12 93  1  0  0  0
 13 14  1  0  0  0
 13 31  1  0  0  0
 14 15  2  0  0  0
 14 94  1  0  0  0
 15 95  1  0  0  0
 16 17  2  0  0  0
 16 21  1  0  0  0
 16 31  1  0  0  0
 17 18  1  0  0  0
 17 96  1  0  0  0
 18 19  2  0  0  0
 18 97  1  0  0  0
 19 20  1  0  0  0
 19 24  1  0  0  0
 20 21  2  0  0  0
 20 98  1  0  0  0
 21 23  1  0  0  0
 22 28  1  0  0  0
 22 32  2  0  0  0
 26 27  1  0  0  0
 28 99  1  0  0  0
 28100  1  0  0  0
 29101  1  0  0  0
 29102  1  0  0  0
 33 34  1  0  0  0
 33 66  1  0  0  0
 33 70  2  0  0  0
 34 36  1  0  0  0
 34 59  1  0  0  0
 34103  1  0  0  0
 35 44  2  0  0  0
 35 45  1  0  0  0
 35 68  1  0  0  0
 36 56  1  0  0  0
 36104  1  0  0  0
 37 39  1  0  0  0
 37 47  1  0  0  0
 37 66  1  0  0  0
 37105  1  0  0  0
 38 43  2  0  0  0
 38 46  1  0  0  0
 38 47  1  0  0  0
 39 64  1  0  0  0
 39 67  2  0  0  0
 40 52  1  0  0  0
 40 53  2  0  0  0
 40 58  1  0  0  0
 41106  1  0  0  0
 41107  1  0  0  0
 41108  1  0  0  0
 41 48  1  0  0  0
 42 43  1  0  0  0
 42 66  1  0  0  0
 42109  1  0  0  0
 42110  1  0  0  0
 43 44  1  0  0  0
 44111  1  0  0  0
 45 46  2  0  0  0
 45112  1  0  0  0
 46113  1  0  0  0
 47114  1  0  0  0
 47115  1  0  0  0
 48 56  1  0  0  0
 48 65  1  0  0  0
 48116  1  0  0  0
 49 50  1  0  0  0
 49 53  1  0  0  0
 49 64  1  0  0  0
 49117  1  0  0  0
 50 51  1  0  0  0
 50118  1  0  0  0
 50119  1  0  0  0
 51 52  1  0  0  0
 51120  1  0  0  0
 51121  1  0  0  0
 52122  1  0  0  0
 52123  1  0  0  0
 53 54  1  0  0  0
 54 55  2  0  0  0
 54124  1  0  0  0
 55 57  1  0  0  0
 55125  1  0  0  0
 56 69  2  0  0  0
 57 58  2  0  0  0
 57126  1  0  0  0
 58127  1  0  0  0
 59 60  1  0  0  0
 59 61  1  0  0  0
 59 62  1  0  0  0
 60128  1  0  0  0
 60129  1  0  0  0
 60130  1  0  0  0
 61131  1  0  0  0
 61132  1  0  0  0
 61133  1  0  0  0
 62134  1  0  0  0
 62135  1  0  0  0
 62136  1  0  0  0
 63 65  1  0  0  0
 63137  1  0  0  0
 63138  1  0  0  0
 63139  1  0  0  0
 64140  1  0  0  0
 65141  1  0  0  0
 68 80  1  0  0  0
 71 74  2  0  0  0
 71 75  1  0  0  0
 71142  1  0  0  0
 72 74  1  0  0  0
 72 76  2  0  0  0
 72143  1  0  0  0
 73 75  2  0  0  0
 73 76  1  0  0  0
 73144  1  0  0  0
 74 77  1  0  0  0
 75 81  1  0  0  0
 76 82  1  0  0  0
 77145  1  0  0  0
 77146  1  0  0  0
 77147  1  0  0  0
 78 82  1  0  0  0
 78148  1  0  0  0
 78149  1  0  0  0
 78150  1  0  0  0
 79 80  1  0  0  0
 79 82  1  0  0  0
 79151  1  0  0  0
 79152  1  0  0  0
 80153  1  0  0  0
 80154  1  0  0  0
 81155  1  0  0  0
M  ISO  4   1 100  68 101  80 101  81 100
M  END
> <chiral flag>
0

> <version>
0

> <s_m_source_file>
/data/baiqing/PycharmProjects/Reinvent-master-3.2/result/LINK_invent/BTK/process_docking_weight1_custom_product_contain_oxygen_bond_distance_aromatic_linkinvent_7_9_3/rearranged_h_0022.sdf

> <i_m_source_file_index>
50

> <r_mmod_Potential_Energy-OPLS-2005>
812.240600585938

> <r_mmod_Stretch_Energy-OPLS-2005>
342.781677246094

> <r_mmod_Bend_Energy-OPLS-2005>
390.194488525391

> <r_mmod_Torsional_Energy-OPLS-2005>
231.161529541016

> <r_mmod_Improper_Torsional_Energy-OPLS-2005>
5.75328254699707

> <r_mmod_Van_der_Waal_Energy-OPLS-2005>
125.624145507812

> <r_mmod_Electrostatic_Energy-OPLS-2005>
-316.856353759766

> <r_mmod_Solvation_Energy-OPLS-2005>
-232.454742431641

> <b_mmod_Minimization_Converged-OPLS-2005>
0

> <r_mmod_RMS_Derivative-OPLS-2005>
4.01463317871094

$$$$
51
                    3D
 Structure written by MMmdl.
178188  0  0  1  0            999 V2000
  -30.5111  -15.0511   20.2880 C   0  0  0  0  0  0
  -30.4549  -12.6057   19.5307 C   0  0  0  0  0  0
  -29.5338  -12.2231   18.3496 C   0  0  0  0  0  0
  -28.0417  -12.2035   18.7279 C   0  0  0  0  0  0
  -27.6168  -13.2322   19.8085 C   0  0  2  0  0  0
  -28.6646  -13.3780   20.9257 C   0  0  0  0  0  0
  -25.2452  -13.8240   20.5760 C   0  0  0  0  0  0
  -24.1751  -13.0535   20.9275 C   0  0  0  0  0  0
  -24.6319  -11.6973   20.8899 C   0  0  0  0  0  0
  -23.9014  -10.4357   21.0500 C   0  0  0  0  0  0
  -24.3561   -9.4256   21.9242 C   0  0  0  0  0  0
  -23.6262   -8.2267   22.0781 C   0  0  0  0  0  0
  -22.4258   -8.0277   21.3542 C   0  0  0  0  0  0
  -21.9886   -9.0288   20.4667 C   0  0  0  0  0  0
  -22.7207  -10.2187   20.3127 C   0  0  0  0  0  0
  -21.6862   -6.0748   22.5295 C   0  0  0  0  0  0
  -21.4005   -6.5639   23.8232 C   0  0  0  0  0  0
  -21.3686   -5.6770   24.9185 C   0  0  0  0  0  0
  -21.6039   -4.3033   24.7215 C   0  0  0  0  0  0
  -21.8822   -3.8153   23.4331 C   0  0  0  0  0  0
  -21.9167   -4.6977   22.3390 C   0  0  0  0  0  0
  -22.7759  -13.5299   21.1856 C   0  0  0  0  0  0
  -22.1653   -4.2143   21.0985 F   0  0  0  0  0  0
  -21.5631   -3.4542   25.7745 F   0  0  0  0  0  0
  -29.9012  -13.7910   20.2493 N   0  0  0  0  0  0
  -26.2833  -12.9428   20.3279 N   0  0  0  0  0  0
  -25.9247  -11.6615   20.5997 N   0  0  0  0  0  0
  -22.0317  -12.8379   22.0399 N   0  0  0  0  0  0
  -25.4180  -15.1956   20.4112 N   0  0  0  0  0  0
  -31.7484  -15.0356   20.2515 O   0  0  0  0  0  0
  -21.6637   -6.8883   21.4234 O   0  0  0  0  0  0
  -22.3489  -14.5609   20.6652 O   0  0  0  0  0  0
  -24.6474  -31.8371   23.1801 C   0  0  0  0  0  0
  -25.9234  -32.4660   23.8214 C   0  0  1  0  0  0
  -27.2389  -27.0746   20.1797 C   0  0  0  0  0  0
  -25.5947  -33.8458   24.2123 N   0  0  0  0  0  0
  -23.4538  -30.4537   21.5249 C   0  0  2  0  0  0
  -24.9057  -28.8481   20.1290 C   0  0  0  0  0  0
  -22.7580  -29.4547   22.4837 C   0  0  0  0  0  0
  -18.0312  -28.1407   22.8479 C   0  0  0  0  0  0
  -24.1458  -36.7204   23.2649 C   0  0  0  0  0  0
  -26.0139  -30.6930   21.3823 C   0  0  0  0  0  0
  -26.0897  -29.2940   20.7351 C   0  0  0  0  0  0
  -27.2539  -28.4297   20.7281 C   0  0  0  0  0  0
  -26.0241  -26.7276   19.5559 C   0  0  0  0  0  0
  -24.8887  -27.5766   19.5272 C   0  0  0  0  0  0
  -23.6838  -29.7590   20.1538 C   0  0  0  0  0  0
  -25.4100  -36.3007   24.0306 C   0  0  1  0  0  0
  -20.5942  -28.3751   23.1203 C   0  0  2  0  0  0
  -20.6779  -26.9431   22.5407 C   0  0  0  0  0  0
  -19.5752  -26.6377   21.5207 C   0  0  0  0  0  0
  -18.1942  -26.7944   22.1625 C   0  0  0  0  0  0
  -19.1586  -28.8883   23.2830 C   0  0  0  0  0  0
  -18.9501  -30.1473   23.8859 C   0  0  0  0  0  0
  -17.6507  -30.6608   24.0572 C   0  0  0  0  0  0
  -25.9064  -34.9401   23.5037 C   0  0  0  0  0  0
  -16.5384  -29.9114   23.6354 C   0  0  0  0  0  0
  -16.7297  -28.6526   23.0372 C   0  0  0  0  0  0
  -26.4516  -31.6595   25.0722 C   0  0  0  0  0  0
  -25.3672  -31.3860   26.1412 C   0  0  0  0  0  0
  -27.0417  -30.2982   24.6400 C   0  0  0  0  0  0
  -27.6003  -32.4422   25.7526 C   0  0  0  0  0  0
  -27.5542  -37.1751   24.8467 C   0  0  0  0  0  0
  -21.4269  -29.3088   22.3554 N   0  0  0  0  0  0
  -26.4261  -37.3735   23.9424 N   0  0  0  0  0  0
  -24.7260  -31.0192   22.0846 N   0  0  0  0  0  0
  -23.4181  -28.8116   23.3053 O   0  0  0  0  0  0
  -28.3484  -26.1384   20.0912 O   0  0  0  0  0  0
  -26.5673  -34.8927   22.4625 O   0  0  0  0  0  0
  -23.5592  -32.1288   23.6993 O   0  0  0  0  0  0
  -28.3750  -18.7308   22.3872 C   0  0  0  0  0  0
  -28.9381  -17.5739   21.7964 C   0  0  0  0  0  0
  -29.5558  -19.0377   19.9575 C   0  0  0  0  0  0
  -28.3979  -20.0349   21.8136 C   0  0  0  0  0  0
  -29.0387  -20.3182   20.5706 C   0  0  0  0  0  0
  -29.5152  -17.6280   20.5161 C   0  0  0  0  0  0
  -29.6713  -22.8787   18.0125 C   0  0  0  0  0  0
  -24.0373  -21.2101   23.1351 C   0  0  0  0  0  0
  -24.0962  -20.6405   21.7092 C   0  0  0  0  0  0
  -28.2473  -23.2189   18.4432 C   0  0  0  0  0  0
  -30.2606  -22.0154   19.1419 C   0  0  0  0  0  0
  -25.4706  -21.0775   23.6382 C   0  0  0  0  0  0
  -25.5862  -20.6691   21.3137 C   0  0  0  0  0  0
  -28.2649  -23.0656   19.9626 C   0  0  2  0  0  0
  -30.1491  -15.3986   17.3533 C   0  0  0  0  0  0
  -27.7524  -21.1380   22.6413 C   0  0  0  0  0  0
  -28.5336  -24.6426   20.6126 C   0  0  0  0  0  0
  -29.6128  -16.4148   18.3712 C   0  0  0  0  0  0
  -29.1914  -21.7677   20.1125 N   0  0  0  0  0  0
  -29.8272  -16.2575   19.8384 N   0  0  0  0  0  0
  -26.2899  -21.3313   22.4431 N   0  3  0  0  0  0
  -31.4597  -12.7946   19.1474 H   0  0  0  0  0  0
  -30.5598  -11.7682   20.2264 H   0  0  0  0  0  0
  -29.7958  -11.1967   18.0817 H   0  0  0  0  0  0
  -29.7241  -12.7885   17.4458 H   0  0  0  0  0  0
  -27.8699  -11.2008   19.1159 H   0  0  0  0  0  0
  -27.4094  -12.2715   17.8435 H   0  0  0  0  0  0
  -27.5536  -14.1892   19.2918 H   0  0  0  0  0  0
  -28.7977  -12.4536   21.4923 H   0  0  0  0  0  0
  -28.3534  -14.1500   21.6329 H   0  0  0  0  0  0
  -25.2690   -9.5746   22.4853 H   0  0  0  0  0  0
  -23.9988   -7.4656   22.7482 H   0  0  0  0  0  0
  -21.0849   -8.8795   19.8967 H   0  0  0  0  0  0
  -22.3642  -10.9723   19.6267 H   0  0  0  0  0  0
  -21.2024   -7.6150   23.9728 H   0  0  0  0  0  0
  -21.1504   -6.0514   25.9075 H   0  0  0  0  0  0
  -22.0565   -2.7607   23.2840 H   0  0  0  0  0  0
  -22.3841  -12.0090   22.4938 H   0  0  0  0  0  0
  -21.0925  -13.1482   22.2476 H   0  0  0  0  0  0
  -24.6471  -15.8450   20.5355 H   0  0  0  0  0  0
  -26.2729  -15.6430   20.1145 H   0  0  0  0  0  0
  -26.7312  -32.5248   23.0931 H   0  0  0  0  0  0
  -25.0069  -33.9555   25.0259 H   0  0  0  0  0  0
  -22.7624  -31.2823   21.3564 H   0  0  0  0  0  0
  -23.3753  -35.9508   23.3309 H   0  0  0  0  0  0
  -24.3522  -36.8847   22.2069 H   0  0  0  0  0  0
  -23.7186  -37.6374   23.6698 H   0  0  0  0  0  0
  -26.1764  -31.4438   20.6074 H   0  0  0  0  0  0
  -26.8774  -30.7470   22.0336 H   0  0  0  0  0  0
  -28.1686  -28.7906   21.1793 H   0  0  0  0  0  0
  -25.9523  -25.7570   19.0840 H   0  0  0  0  0  0
  -23.9866  -27.2213   19.0490 H   0  0  0  0  0  0
  -23.8210  -30.5192   19.3859 H   0  0  0  0  0  0
  -22.7968  -29.1984   19.8498 H   0  0  0  0  0  0
  -25.1298  -36.1796   25.0800 H   0  0  0  0  0  0
  -21.0031  -28.3358   24.1329 H   0  0  0  0  0  0
  -20.5645  -26.2363   23.3645 H   0  0  0  0  0  0
  -21.6647  -26.7412   22.1225 H   0  0  0  0  0  0
  -19.6903  -25.6270   21.1272 H   0  0  0  0  0  0
  -19.6695  -27.3165   20.6722 H   0  0  0  0  0  0
  -17.4200  -26.6689   21.4049 H   0  0  0  0  0  0
  -18.0350  -26.0096   22.9036 H   0  0  0  0  0  0
  -19.7978  -30.7292   24.2220 H   0  0  0  0  0  0
  -17.5070  -31.6299   24.5167 H   0  0  0  0  0  0
  -15.5386  -30.3018   23.7684 H   0  0  0  0  0  0
  -15.8688  -28.0822   22.7130 H   0  0  0  0  0  0
  -24.5807  -30.7242   25.7733 H   0  0  0  0  0  0
  -24.8918  -32.3101   26.4746 H   0  0  0  0  0  0
  -25.7938  -30.9084   27.0246 H   0  0  0  0  0  0
  -26.3100  -29.6681   24.1329 H   0  0  0  0  0  0
  -27.3894  -29.7335   25.5056 H   0  0  0  0  0  0
  -27.9049  -30.4196   23.9845 H   0  0  0  0  0  0
  -27.2525  -33.3742   26.2006 H   0  0  0  0  0  0
  -28.3871  -32.6960   25.0407 H   0  0  0  0  0  0
  -28.0598  -31.8623   26.5543 H   0  0  0  0  0  0
  -28.2565  -38.0041   24.7516 H   0  0  0  0  0  0
  -28.1029  -36.2574   24.6289 H   0  0  0  0  0  0
  -27.2260  -37.1398   25.8871 H   0  0  0  0  0  0
  -20.9449  -29.8756   21.6700 H   0  0  0  0  0  0
  -26.0097  -38.2787   24.1482 H   0  0  0  0  0  0
  -27.8775  -18.5921   23.3365 H   0  0  0  0  0  0
  -28.8661  -16.6275   22.3126 H   0  0  0  0  0  0
  -30.0125  -19.1593   18.9887 H   0  0  0  0  0  0
  -30.2635  -23.7887   17.8861 H   0  0  0  0  0  0
  -29.6554  -22.3749   17.0438 H   0  0  0  0  0  0
  -23.3190  -20.6983   23.7774 H   0  0  0  0  0  0
  -23.7658  -22.2666   23.1067 H   0  0  0  0  0  0
  -23.4840  -21.2235   21.0190 H   0  0  0  0  0  0
  -23.7191  -19.6160   21.6911 H   0  0  0  0  0  0
  -27.5493  -22.5048   18.0043 H   0  0  0  0  0  0
  -27.9336  -24.2078   18.1041 H   0  0  0  0  0  0
  -31.0554  -22.5797   19.6324 H   0  0  0  0  0  0
  -30.7324  -21.1275   18.7302 H   0  0  0  0  0  0
  -25.6449  -20.0596   23.9891 H   0  0  0  0  0  0
  -25.7017  -21.7613   24.4565 H   0  0  0  0  0  0
  -25.7312  -21.1975   20.3718 H   0  0  0  0  0  0
  -25.9189  -19.6433   21.1579 H   0  0  0  0  0  0
  -27.2576  -22.8001   20.2630 H   0  0  0  0  0  0
  -30.6484  -15.9081   16.5271 H   0  0  0  0  0  0
  -29.3047  -14.8777   16.9063 H   0  0  0  0  0  0
  -30.8841  -14.6898   17.7287 H   0  0  0  0  0  0
  -28.2576  -22.0884   22.4907 H   0  0  0  0  0  0
  -27.9443  -20.9345   23.6952 H   0  0  0  0  0  0
  -28.1279  -24.6403   21.6233 H   0  0  0  0  0  0
  -29.6113  -24.6456   20.7903 H   0  0  0  0  0  0
  -28.5384  -16.5365   18.1984 H   0  0  0  0  0  0
  -30.0590  -17.3416   18.0434 H   0  0  0  0  0  0
  -26.1854  -22.3222   22.2816 H   0  0  0  0  0  0
  1 25  1  0  0  0
  1 30  2  0  0  0
  1 90  1  0  0  0
  2  3  1  0  0  0
  2 25  1  0  0  0
  2 92  1  0  0  0
  2 93  1  0  0  0
  3  4  1  0  0  0
  3 94  1  0  0  0
  3 95  1  0  0  0
  4  5  1  0  0  0
  4 96  1  0  0  0
  4 97  1  0  0  0
  5  6  1  0  0  0
  5 26  1  0  0  0
  5 98  1  0  0  0
  6 25  1  0  0  0
  6 99  1  0  0  0
  6100  1  0  0  0
  7  8  2  0  0  0
  7 26  1  0  0  0
  7 29  1  0  0  0
  8  9  1  0  0  0
  8 22  1  0  0  0
  9 10  1  0  0  0
  9 27  2  0  0  0
 10 11  2  0  0  0
 10 15  1  0  0  0
 11 12  1  0  0  0
 11101  1  0  0  0
 12 13  2  0  0  0
 12102  1  0  0  0
 13 14  1  0  0  0
 13 31  1  0  0  0
 14 15  2  0  0  0
 14103  1  0  0  0
 15104  1  0  0  0
 16 17  2  0  0  0
 16 21  1  0  0  0
 16 31  1  0  0  0
 17 18  1  0  0  0
 17105  1  0  0  0
 18 19  2  0  0  0
 18106  1  0  0  0
 19 20  1  0  0  0
 19 24  1  0  0  0
 20 21  2  0  0  0
 20107  1  0  0  0
 21 23  1  0  0  0
 22 28  1  0  0  0
 22 32  2  0  0  0
 26 27  1  0  0  0
 28108  1  0  0  0
 28109  1  0  0  0
 29110  1  0  0  0
 29111  1  0  0  0
 33 34  1  0  0  0
 33 66  1  0  0  0
 33 70  2  0  0  0
 34 36  1  0  0  0
 34 59  1  0  0  0
 34112  1  0  0  0
 35 44  2  0  0  0
 35 45  1  0  0  0
 35 68  1  0  0  0
 36 56  1  0  0  0
 36113  1  0  0  0
 37 39  1  0  0  0
 37 47  1  0  0  0
 37 66  1  0  0  0
 37114  1  0  0  0
 38 43  2  0  0  0
 38 46  1  0  0  0
 38 47  1  0  0  0
 39 64  1  0  0  0
 39 67  2  0  0  0
 40 52  1  0  0  0
 40 53  2  0  0  0
 40 58  1  0  0  0
 41115  1  0  0  0
 41116  1  0  0  0
 41117  1  0  0  0
 41 48  1  0  0  0
 42 43  1  0  0  0
 42 66  1  0  0  0
 42118  1  0  0  0
 42119  1  0  0  0
 43 44  1  0  0  0
 44120  1  0  0  0
 45 46  2  0  0  0
 45121  1  0  0  0
 46122  1  0  0  0
 47123  1  0  0  0
 47124  1  0  0  0
 48 56  1  0  0  0
 48 65  1  0  0  0
 48125  1  0  0  0
 49 50  1  0  0  0
 49 53  1  0  0  0
 49 64  1  0  0  0
 49126  1  0  0  0
 50 51  1  0  0  0
 50127  1  0  0  0
 50128  1  0  0  0
 51 52  1  0  0  0
 51129  1  0  0  0
 51130  1  0  0  0
 52131  1  0  0  0
 52132  1  0  0  0
 53 54  1  0  0  0
 54 55  2  0  0  0
 54133  1  0  0  0
 55 57  1  0  0  0
 55134  1  0  0  0
 56 69  2  0  0  0
 57 58  2  0  0  0
 57135  1  0  0  0
 58136  1  0  0  0
 59 60  1  0  0  0
 59 61  1  0  0  0
 59 62  1  0  0  0
 60137  1  0  0  0
 60138  1  0  0  0
 60139  1  0  0  0
 61140  1  0  0  0
 61141  1  0  0  0
 61142  1  0  0  0
 62143  1  0  0  0
 62144  1  0  0  0
 62145  1  0  0  0
 63 65  1  0  0  0
 63146  1  0  0  0
 63147  1  0  0  0
 63148  1  0  0  0
 64149  1  0  0  0
 65150  1  0  0  0
 68 87  1  0  0  0
 71 72  2  0  0  0
 71 74  1  0  0  0
 71151  1  0  0  0
 72 76  1  0  0  0
 72152  1  0  0  0
 73 75  1  0  0  0
 73 76  2  0  0  0
 73153  1  0  0  0
 74 75  2  0  0  0
 74 86  1  0  0  0
 75 89  1  0  0  0
 76 90  1  0  0  0
 77 80  1  0  0  0
 77 81  1  0  0  0
 77154  1  0  0  0
 77155  1  0  0  0
 78 79  1  0  0  0
 78 82  1  0  0  0
 78156  1  0  0  0
 78157  1  0  0  0
 79 83  1  0  0  0
 79158  1  0  0  0
 79159  1  0  0  0
 80 84  1  0  0  0
 80160  1  0  0  0
 80161  1  0  0  0
 81 89  1  0  0  0
 81162  1  0  0  0
 81163  1  0  0  0
 82 91  1  0  0  0
 82164  1  0  0  0
 82165  1  0  0  0
 83 91  1  0  0  0
 83166  1  0  0  0
 83167  1  0  0  0
 84 87  1  0  0  0
 84 89  1  0  0  0
 84168  1  0  0  0
 85 88  1  0  0  0
 85169  1  0  0  0
 85170  1  0  0  0
 85171  1  0  0  0
 86172  1  0  0  0
 86173  1  0  0  0
 86 91  1  0  0  0
 87174  1  0  0  0
 87175  1  0  0  0
 88 90  1  0  0  0
 88176  1  0  0  0
 88177  1  0  0  0
 91178  1  0  0  0
M  CHG  1  91   1
M  ISO  4   1 100  68 101  87 101  90 100
M  END
> <chiral flag>
0

> <version>
0

> <s_m_source_file>
/data/baiqing/PycharmProjects/Reinvent-master-3.2/result/LINK_invent/BTK/process_docking_weight1_custom_product_contain_oxygen_bond_distance_aromatic_linkinvent_7_9_3/rearranged_h_0022.sdf

> <i_m_source_file_index>
51

> <r_mmod_Potential_Energy-OPLS-2005>
1154.88293457031

> <r_mmod_Stretch_Energy-OPLS-2005>
362.769714355469

> <r_mmod_Bend_Energy-OPLS-2005>
468.379119873047

> <r_mmod_Torsional_Energy-OPLS-2005>
483.798248291016

> <r_mmod_Improper_Torsional_Energy-OPLS-2005>
21.9400386810303

> <r_mmod_Van_der_Waal_Energy-OPLS-2005>
126.653450012207

> <r_mmod_Electrostatic_Energy-OPLS-2005>
-149.792755126953

> <r_mmod_Solvation_Energy-OPLS-2005>
-434.308074951172

> <b_mmod_Minimization_Converged-OPLS-2005>
0

> <r_mmod_RMS_Derivative-OPLS-2005>
7.67180347442627

$$$$
52
                    3D
 Structure written by MMmdl.
164173  0  0  1  0            999 V2000
  -30.6020  -14.7248   20.4783 C   0  0  0  0  0  0
  -30.4443  -12.4371   19.4820 C   0  0  0  0  0  0
  -29.5236  -12.4989   18.2411 C   0  0  0  0  0  0
  -28.0429  -12.3329   18.6379 C   0  0  0  0  0  0
  -27.6495  -13.2139   19.8535 C   0  0  2  0  0  0
  -28.6891  -13.1228   20.9938 C   0  0  0  0  0  0
  -25.2552  -13.8133   20.5616 C   0  0  0  0  0  0
  -24.1820  -13.0421   20.9137 C   0  0  0  0  0  0
  -24.6364  -11.6877   20.8677 C   0  0  0  0  0  0
  -23.9033  -10.4266   21.0370 C   0  0  0  0  0  0
  -24.3579   -9.4194   21.9169 C   0  0  0  0  0  0
  -23.6267   -8.2225   22.0762 C   0  0  0  0  0  0
  -22.4251   -8.0243   21.3544 C   0  0  0  0  0  0
  -21.9860   -9.0191   20.4645 C   0  0  0  0  0  0
  -22.7184  -10.2090   20.3053 C   0  0  0  0  0  0
  -21.6839   -6.0722   22.5272 C   0  0  0  0  0  0
  -21.3996   -6.5631   23.8216 C   0  0  0  0  0  0
  -21.3663   -5.6789   24.9172 C   0  0  0  0  0  0
  -21.6047   -4.3052   24.7229 C   0  0  0  0  0  0
  -21.8826   -3.8149   23.4345 C   0  0  0  0  0  0
  -21.9199   -4.6945   22.3402 C   0  0  0  0  0  0
  -22.7847  -13.5249   21.1812 C   0  0  0  0  0  0
  -22.1678   -4.2145   21.0970 F   0  0  0  0  0  0
  -21.5637   -3.4530   25.7743 F   0  0  0  0  0  0
  -30.0021  -13.4816   20.4369 N   0  0  0  0  0  0
  -26.2961  -12.9296   20.3217 N   0  0  0  0  0  0
  -25.9301  -11.6457   20.5692 N   0  0  0  0  0  0
  -22.0447  -12.8264   22.0361 N   0  0  0  0  0  0
  -25.4282  -15.1859   20.4093 N   0  0  0  0  0  0
  -31.7405  -14.8711   20.0258 O   0  0  0  0  0  0
  -21.6609   -6.8837   21.4252 O   0  0  0  0  0  0
  -22.3535  -14.5571   20.6703 O   0  0  0  0  0  0
  -24.6331  -31.8581   23.1963 C   0  0  0  0  0  0
  -25.9161  -32.4752   23.8273 C   0  0  1  0  0  0
  -27.2107  -27.2585   20.1070 C   0  0  0  0  0  0
  -25.5993  -33.8549   24.2221 N   0  0  0  0  0  0
  -23.4251  -30.4822   21.5460 C   0  0  2  0  0  0
  -24.8633  -28.9305   20.1075 C   0  0  0  0  0  0
  -22.7496  -29.4610   22.4932 C   0  0  0  0  0  0
  -18.0318  -28.1436   22.8495 C   0  0  0  0  0  0
  -24.1494  -36.7248   23.2630 C   0  0  0  0  0  0
  -25.9699  -30.7682   21.3715 C   0  0  0  0  0  0
  -26.0382  -29.3903   20.7143 C   0  0  0  0  0  0
  -27.2118  -28.5686   20.7022 C   0  0  0  0  0  0
  -26.0140  -26.8820   19.4498 C   0  0  0  0  0  0
  -24.8568  -27.6848   19.4677 C   0  0  0  0  0  0
  -23.6380  -29.8228   20.1611 C   0  0  0  0  0  0
  -25.4127  -36.3049   24.0316 C   0  0  1  0  0  0
  -20.5916  -28.3718   23.1336 C   0  0  2  0  0  0
  -20.6827  -26.9454   22.5436 C   0  0  0  0  0  0
  -19.5791  -26.6428   21.5258 C   0  0  0  0  0  0
  -18.1959  -26.7977   22.1645 C   0  0  0  0  0  0
  -19.1565  -28.8893   23.2905 C   0  0  0  0  0  0
  -18.9471  -30.1508   23.8898 C   0  0  0  0  0  0
  -17.6465  -30.6619   24.0603 C   0  0  0  0  0  0
  -25.9085  -34.9438   23.5057 C   0  0  0  0  0  0
  -16.5362  -29.9120   23.6371 C   0  0  0  0  0  0
  -16.7302  -28.6562   23.0345 C   0  0  0  0  0  0
  -26.4535  -31.6553   25.0637 C   0  0  0  0  0  0
  -25.3747  -31.3704   26.1332 C   0  0  0  0  0  0
  -27.0382  -30.2998   24.6048 C   0  0  0  0  0  0
  -27.6100  -32.4258   25.7432 C   0  0  0  0  0  0
  -27.5583  -37.1787   24.8470 C   0  0  0  0  0  0
  -21.4199  -29.3046   22.3671 N   0  0  0  0  0  0
  -26.4293  -37.3770   23.9413 N   0  0  0  0  0  0
  -24.6963  -31.0533   22.0956 N   0  0  0  0  0  0
  -23.4182  -28.8189   23.3063 O   0  0  0  0  0  0
  -28.3160  -26.3719   20.2057 O   0  0  0  0  0  0
  -26.5635  -34.8925   22.4610 O   0  0  0  0  0  0
  -23.5501  -32.1406   23.7298 O   0  0  0  0  0  0
  -27.8577  -18.0835   18.8426 C   0  0  0  0  0  0
  -28.6800  -17.0056   19.2223 C   0  0  0  0  0  0
  -29.6504  -18.4300   20.9284 C   0  0  0  0  0  0
  -27.8601  -19.3208   19.5366 C   0  0  0  0  0  0
  -29.4903  -17.0881   20.3703 C   0  0  0  0  0  0
  -28.9277  -19.6074   20.4453 C   0  0  0  0  0  0
  -24.6564  -20.7506   20.4676 C   0  0  0  0  0  0
  -24.5490  -20.8963   18.9537 C   0  0  0  0  0  0
  -26.1636  -20.6502   20.6890 C   0  0  0  0  0  0
  -25.6679  -19.9776   18.4680 C   0  0  0  0  0  0
  -28.8471  -23.7028   20.6956 C   0  0  0  0  0  0
  -28.9734  -22.2284   20.0321 C   0  0  0  0  0  0
  -28.2511  -24.9194   19.7991 C   0  0  0  0  0  0
  -26.7512  -20.1977   19.4201 N   0  0  0  0  0  0
  -29.8915  -15.7989   20.9892 N   0  0  0  0  0  0
  -29.1744  -20.9793   20.8924 N   0  0  0  0  0  0
  -31.4861  -12.5597   19.1780 H   0  0  0  0  0  0
  -30.3927  -11.4511   19.9479 H   0  0  0  0  0  0
  -29.8038  -11.7215   17.5280 H   0  0  0  0  0  0
  -29.6630  -13.4514   17.7276 H   0  0  0  0  0  0
  -27.8764  -11.2799   18.8696 H   0  0  0  0  0  0
  -27.4014  -12.5554   17.7833 H   0  0  0  0  0  0
  -27.6520  -14.2374   19.4865 H   0  0  0  0  0  0
  -28.7155  -12.1142   21.4103 H   0  0  0  0  0  0
  -28.4086  -13.7793   21.8161 H   0  0  0  0  0  0
  -25.2716   -9.5699   22.4764 H   0  0  0  0  0  0
  -23.9985   -7.4622   22.7489 H   0  0  0  0  0  0
  -21.0807   -8.8715   19.8941 H   0  0  0  0  0  0
  -22.3636  -10.9625   19.6176 H   0  0  0  0  0  0
  -21.1987   -7.6143   23.9710 H   0  0  0  0  0  0
  -21.1477   -6.0510   25.9078 H   0  0  0  0  0  0
  -22.0612   -2.7614   23.2820 H   0  0  0  0  0  0
  -22.4032  -11.9924   22.4770 H   0  0  0  0  0  0
  -21.1085  -13.1359   22.2551 H   0  0  0  0  0  0
  -24.6589  -15.8329   20.5418 H   0  0  0  0  0  0
  -26.2774  -15.6336   20.0924 H   0  0  0  0  0  0
  -26.7203  -32.5375   23.0988 H   0  0  0  0  0  0
  -25.0176  -33.9681   25.0389 H   0  0  0  0  0  0
  -22.7218  -31.3075   21.4104 H   0  0  0  0  0  0
  -23.3779  -35.9564   23.3286 H   0  0  0  0  0  0
  -24.3586  -36.8864   22.2046 H   0  0  0  0  0  0
  -23.7226  -37.6439   23.6651 H   0  0  0  0  0  0
  -26.1026  -31.5256   20.5964 H   0  0  0  0  0  0
  -26.8528  -30.8218   21.9964 H   0  0  0  0  0  0
  -28.1109  -28.9223   21.1854 H   0  0  0  0  0  0
  -25.9154  -25.9567   18.9059 H   0  0  0  0  0  0
  -23.9603  -27.3347   18.9755 H   0  0  0  0  0  0
  -23.7694  -30.6040   19.4126 H   0  0  0  0  0  0
  -22.7501  -29.2714   19.8506 H   0  0  0  0  0  0
  -25.1316  -36.1882   25.0820 H   0  0  0  0  0  0
  -21.0031  -28.3306   24.1455 H   0  0  0  0  0  0
  -20.5859  -26.2301   23.3610 H   0  0  0  0  0  0
  -21.6688  -26.7563   22.1177 H   0  0  0  0  0  0
  -19.6957  -25.6346   21.1296 H   0  0  0  0  0  0
  -19.6767  -27.3244   20.6799 H   0  0  0  0  0  0
  -17.4262  -26.6778   21.4002 H   0  0  0  0  0  0
  -18.0314  -26.0121   22.9038 H   0  0  0  0  0  0
  -19.7940  -30.7370   24.2218 H   0  0  0  0  0  0
  -17.5019  -31.6296   24.5217 H   0  0  0  0  0  0
  -15.5363  -30.3025   23.7705 H   0  0  0  0  0  0
  -15.8704  -28.0916   22.7003 H   0  0  0  0  0  0
  -24.5947  -30.7030   25.7635 H   0  0  0  0  0  0
  -24.8900  -32.2880   26.4693 H   0  0  0  0  0  0
  -25.8049  -30.8913   27.0133 H   0  0  0  0  0  0
  -26.2934  -29.6724   24.1124 H   0  0  0  0  0  0
  -27.4195  -29.7263   25.4502 H   0  0  0  0  0  0
  -27.8757  -30.4322   23.9187 H   0  0  0  0  0  0
  -27.2748  -33.3600   26.1958 H   0  0  0  0  0  0
  -28.3970  -32.6719   25.0285 H   0  0  0  0  0  0
  -28.0682  -31.8358   26.5384 H   0  0  0  0  0  0
  -28.2599  -38.0087   24.7542 H   0  0  0  0  0  0
  -28.1080  -36.2617   24.6281 H   0  0  0  0  0  0
  -27.2292  -37.1420   25.8871 H   0  0  0  0  0  0
  -20.9374  -29.8666   21.6797 H   0  0  0  0  0  0
  -26.0147  -38.2833   24.1449 H   0  0  0  0  0  0
  -27.1542  -17.8894   18.0461 H   0  0  0  0  0  0
  -28.5599  -16.0704   18.6982 H   0  0  0  0  0  0
  -30.3132  -18.5511   21.7734 H   0  0  0  0  0  0
  -24.1765  -19.8269   20.7980 H   0  0  0  0  0  0
  -24.2077  -21.5754   21.0233 H   0  0  0  0  0  0
  -24.7570  -21.9297   18.6722 H   0  0  0  0  0  0
  -23.5686  -20.6304   18.5590 H   0  0  0  0  0  0
  -26.3990  -19.9894   21.5259 H   0  0  0  0  0  0
  -26.5489  -21.6400   20.9369 H   0  0  0  0  0  0
  -25.9686  -20.1995   17.4432 H   0  0  0  0  0  0
  -25.3186  -18.9445   18.5097 H   0  0  0  0  0  0
  -29.8406  -23.9880   21.0397 H   0  0  0  0  0  0
  -28.2345  -23.6307   21.5949 H   0  0  0  0  0  0
  -29.8226  -22.2572   19.3487 H   0  0  0  0  0  0
  -28.1199  -22.1239   19.3694 H   0  0  0  0  0  0
  -27.2326  -24.6092   19.5863 H   0  0  0  0  0  0
  -28.7542  -24.8797   18.8334 H   0  0  0  0  0  0
  -29.1679  -15.4542   21.6055 H   0  0  0  0  0  0
  -29.8891  -21.0768   21.6079 H   0  0  0  0  0  0
  1 25  1  0  0  0
  1 30  2  0  0  0
  1 85  1  0  0  0
  2  3  1  0  0  0
  2 25  1  0  0  0
  2 87  1  0  0  0
  2 88  1  0  0  0
  3  4  1  0  0  0
  3 89  1  0  0  0
  3 90  1  0  0  0
  4  5  1  0  0  0
  4 91  1  0  0  0
  4 92  1  0  0  0
  5  6  1  0  0  0
  5 26  1  0  0  0
  5 93  1  0  0  0
  6 25  1  0  0  0
  6 94  1  0  0  0
  6 95  1  0  0  0
  7  8  2  0  0  0
  7 26  1  0  0  0
  7 29  1  0  0  0
  8  9  1  0  0  0
  8 22  1  0  0  0
  9 10  1  0  0  0
  9 27  2  0  0  0
 10 11  2  0  0  0
 10 15  1  0  0  0
 11 12  1  0  0  0
 11 96  1  0  0  0
 12 13  2  0  0  0
 12 97  1  0  0  0
 13 14  1  0  0  0
 13 31  1  0  0  0
 14 15  2  0  0  0
 14 98  1  0  0  0
 15 99  1  0  0  0
 16 17  2  0  0  0
 16 21  1  0  0  0
 16 31  1  0  0  0
 17 18  1  0  0  0
 17100  1  0  0  0
 18 19  2  0  0  0
 18101  1  0  0  0
 19 20  1  0  0  0
 19 24  1  0  0  0
 20 21  2  0  0  0
 20102  1  0  0  0
 21 23  1  0  0  0
 22 28  1  0  0  0
 22 32  2  0  0  0
 26 27  1  0  0  0
 28103  1  0  0  0
 28104  1  0  0  0
 29105  1  0  0  0
 29106  1  0  0  0
 33 34  1  0  0  0
 33 66  1  0  0  0
 33 70  2  0  0  0
 34 36  1  0  0  0
 34 59  1  0  0  0
 34107  1  0  0  0
 35 44  2  0  0  0
 35 45  1  0  0  0
 35 68  1  0  0  0
 36 56  1  0  0  0
 36108  1  0  0  0
 37 39  1  0  0  0
 37 47  1  0  0  0
 37 66  1  0  0  0
 37109  1  0  0  0
 38 43  2  0  0  0
 38 46  1  0  0  0
 38 47  1  0  0  0
 39 64  1  0  0  0
 39 67  2  0  0  0
 40 52  1  0  0  0
 40 53  2  0  0  0
 40 58  1  0  0  0
 41110  1  0  0  0
 41111  1  0  0  0
 41112  1  0  0  0
 41 48  1  0  0  0
 42 43  1  0  0  0
 42 66  1  0  0  0
 42113  1  0  0  0
 42114  1  0  0  0
 43 44  1  0  0  0
 44115  1  0  0  0
 45 46  2  0  0  0
 45116  1  0  0  0
 46117  1  0  0  0
 47118  1  0  0  0
 47119  1  0  0  0
 48 56  1  0  0  0
 48 65  1  0  0  0
 48120  1  0  0  0
 49 50  1  0  0  0
 49 53  1  0  0  0
 49 64  1  0  0  0
 49121  1  0  0  0
 50 51  1  0  0  0
 50122  1  0  0  0
 50123  1  0  0  0
 51 52  1  0  0  0
 51124  1  0  0  0
 51125  1  0  0  0
 52126  1  0  0  0
 52127  1  0  0  0
 53 54  1  0  0  0
 54 55  2  0  0  0
 54128  1  0  0  0
 55 57  1  0  0  0
 55129  1  0  0  0
 56 69  2  0  0  0
 57 58  2  0  0  0
 57130  1  0  0  0
 58131  1  0  0  0
 59 60  1  0  0  0
 59 61  1  0  0  0
 59 62  1  0  0  0
 60132  1  0  0  0
 60133  1  0  0  0
 60134  1  0  0  0
 61135  1  0  0  0
 61136  1  0  0  0
 61137  1  0  0  0
 62138  1  0  0  0
 62139  1  0  0  0
 62140  1  0  0  0
 63 65  1  0  0  0
 63141  1  0  0  0
 63142  1  0  0  0
 63143  1  0  0  0
 64144  1  0  0  0
 65145  1  0  0  0
 68 83  1  0  0  0
 71 72  2  0  0  0
 71 74  1  0  0  0
 71146  1  0  0  0
 72 75  1  0  0  0
 72147  1  0  0  0
 73 75  2  0  0  0
 73 76  1  0  0  0
 73148  1  0  0  0
 74 76  2  0  0  0
 74 84  1  0  0  0
 75 85  1  0  0  0
 76 86  1  0  0  0
 77 78  1  0  0  0
 77 79  1  0  0  0
 77149  1  0  0  0
 77150  1  0  0  0
 78 80  1  0  0  0
 78151  1  0  0  0
 78152  1  0  0  0
 79 84  1  0  0  0
 79153  1  0  0  0
 79154  1  0  0  0
 80 84  1  0  0  0
 80155  1  0  0  0
 80156  1  0  0  0
 81 82  1  0  0  0
 81 83  1  0  0  0
 81157  1  0  0  0
 81158  1  0  0  0
 82 86  1  0  0  0
 82159  1  0  0  0
 82160  1  0  0  0
 83161  1  0  0  0
 83162  1  0  0  0
 85163  1  0  0  0
 86164  1  0  0  0
M  ISO  4   1 100  68 101  83 101  85 100
M  END
> <chiral flag>
0

> <version>
0

> <s_m_source_file>
/data/baiqing/PycharmProjects/Reinvent-master-3.2/result/LINK_invent/BTK/process_docking_weight1_custom_product_contain_oxygen_bond_distance_aromatic_linkinvent_7_9_3/rearranged_h_0022.sdf

> <i_m_source_file_index>
52

> <r_mmod_Potential_Energy-OPLS-2005>
363.424865722656

> <r_mmod_Stretch_Energy-OPLS-2005>
135.001327514648

> <r_mmod_Bend_Energy-OPLS-2005>
225.680923461914

> <r_mmod_Torsional_Energy-OPLS-2005>
344.997161865234

> <r_mmod_Improper_Torsional_Energy-OPLS-2005>
13.065315246582

> <r_mmod_Van_der_Waal_Energy-OPLS-2005>
150.474212646484

> <r_mmod_Electrostatic_Energy-OPLS-2005>
-351.945953369141

> <r_mmod_Solvation_Energy-OPLS-2005>
-234.343765258789

> <b_mmod_Minimization_Converged-OPLS-2005>
0

> <r_mmod_RMS_Derivative-OPLS-2005>
5.06182765960693

$$$$
53
                    3D
 Structure written by MMmdl.
155164  0  0  1  0            999 V2000
  -30.6098  -14.6870   20.5439 C   0  0  0  0  0  0
  -30.4475  -12.4214   19.4887 C   0  0  0  0  0  0
  -29.5221  -12.5121   18.2521 C   0  0  0  0  0  0
  -28.0405  -12.3498   18.6534 C   0  0  0  0  0  0
  -27.6547  -13.2252   19.8760 C   0  0  2  0  0  0
  -28.6949  -13.0863   21.0111 C   0  0  0  0  0  0
  -25.2543  -13.8174   20.5735 C   0  0  0  0  0  0
  -24.1820  -13.0425   20.9229 C   0  0  0  0  0  0
  -24.6403  -11.6911   20.8801 C   0  0  0  0  0  0
  -23.9081  -10.4297   21.0430 C   0  0  0  0  0  0
  -24.3628   -9.4190   21.9206 C   0  0  0  0  0  0
  -23.6291   -8.2218   22.0747 C   0  0  0  0  0  0
  -22.4282   -8.0287   21.3542 C   0  0  0  0  0  0
  -21.9937   -9.0255   20.4650 C   0  0  0  0  0  0
  -22.7270  -10.2120   20.3073 C   0  0  0  0  0  0
  -21.6821   -6.0743   22.5280 C   0  0  0  0  0  0
  -21.3998   -6.5649   23.8218 C   0  0  0  0  0  0
  -21.3674   -5.6800   24.9190 C   0  0  0  0  0  0
  -21.6036   -4.3053   24.7217 C   0  0  0  0  0  0
  -21.8815   -3.8150   23.4333 C   0  0  0  0  0  0
  -21.9186   -4.6983   22.3399 C   0  0  0  0  0  0
  -22.7835  -13.5209   21.1895 C   0  0  0  0  0  0
  -22.1645   -4.2169   21.0966 F   0  0  0  0  0  0
  -21.5648   -3.4539   25.7714 F   0  0  0  0  0  0
  -30.0157  -13.4492   20.4645 N   0  0  0  0  0  0
  -26.2992  -12.9372   20.3393 N   0  0  0  0  0  0
  -25.9342  -11.6515   20.5828 N   0  0  0  0  0  0
  -22.0481  -12.8207   22.0440 N   0  0  0  0  0  0
  -25.4287  -15.1893   20.4158 N   0  0  0  0  0  0
  -31.7327  -14.8879   20.0693 O   0  0  0  0  0  0
  -21.6633   -6.8881   21.4240 O   0  0  0  0  0  0
  -22.3509  -14.5517   20.6746 O   0  0  0  0  0  0
  -24.6267  -31.8549   23.1932 C   0  0  0  0  0  0
  -25.9086  -32.4747   23.8276 C   0  0  1  0  0  0
  -27.2634  -27.3202   20.1267 C   0  0  0  0  0  0
  -25.5939  -33.8563   24.2227 N   0  0  0  0  0  0
  -23.4191  -30.4714   21.5345 C   0  0  2  0  0  0
  -24.8760  -28.9061   20.1230 C   0  0  0  0  0  0
  -22.7445  -29.4586   22.4872 C   0  0  0  0  0  0
  -18.0299  -28.1348   22.8459 C   0  0  0  0  0  0
  -24.1517  -36.7307   23.2636 C   0  0  0  0  0  0
  -25.9580  -30.7804   21.3650 C   0  0  0  0  0  0
  -26.0442  -29.4044   20.7192 C   0  0  0  0  0  0
  -27.2400  -28.6287   20.6990 C   0  0  0  0  0  0
  -26.0738  -26.8579   19.5264 C   0  0  0  0  0  0
  -24.8937  -27.6339   19.5203 C   0  0  0  0  0  0
  -23.6409  -29.7846   20.1610 C   0  0  0  0  0  0
  -25.4125  -36.3072   24.0348 C   0  0  1  0  0  0
  -20.5864  -28.3616   23.1277 C   0  0  2  0  0  0
  -20.6725  -26.9314   22.5422 C   0  0  0  0  0  0
  -19.5755  -26.6272   21.5166 C   0  0  0  0  0  0
  -18.1905  -26.7887   22.1528 C   0  0  0  0  0  0
  -19.1539  -28.8795   23.2873 C   0  0  0  0  0  0
  -18.9494  -30.1405   23.8819 C   0  0  0  0  0  0
  -17.6517  -30.6552   24.0548 C   0  0  0  0  0  0
  -25.9037  -34.9428   23.5066 C   0  0  0  0  0  0
  -16.5376  -29.9059   23.6368 C   0  0  0  0  0  0
  -16.7299  -28.6511   23.0303 C   0  0  0  0  0  0
  -26.4433  -31.6568   25.0679 C   0  0  0  0  0  0
  -25.3697  -31.3967   26.1502 C   0  0  0  0  0  0
  -27.0126  -30.2890   24.6178 C   0  0  0  0  0  0
  -27.6050  -32.4236   25.7399 C   0  0  0  0  0  0
  -27.5610  -37.1775   24.8442 C   0  0  0  0  0  0
  -21.4145  -29.3033   22.3672 N   0  0  0  0  0  0
  -26.4298  -37.3769   23.9449 N   0  0  0  0  0  0
  -24.6853  -31.0516   22.0888 N   0  0  0  0  0  0
  -23.4172  -28.8082   23.2920 O   0  0  0  0  0  0
  -28.4362  -26.5609   20.0075 O   0  0  0  0  0  0
  -26.5580  -34.8928   22.4608 O   0  0  0  0  0  0
  -23.5393  -32.1307   23.7236 O   0  0  0  0  0  0
  -28.3988  -19.1583   21.6508 C   0  0  0  0  0  0
  -30.4901  -18.0258   20.1778 C   0  0  0  0  0  0
  -29.1221  -20.0439   20.8043 C   0  0  0  0  0  0
  -29.7302  -17.1431   20.9994 C   0  0  0  0  0  0
  -28.6937  -17.7646   21.7480 C   0  0  0  0  0  0
  -30.1926  -19.4288   20.0757 C   0  0  0  0  0  0
  -29.3490  -22.6283   20.7334 C   0  0  0  0  0  0
  -27.1526  -23.2737   20.0586 C   0  0  0  0  0  0
  -27.2829  -21.7285   20.2109 C   0  0  0  0  0  0
  -28.5734  -23.8546   20.1161 C   0  0  1  0  0  0
  -28.6950  -25.3170   20.7769 C   0  0  0  0  0  0
  -28.6706  -21.4401   20.6022 N   0  0  0  0  0  0
  -29.8591  -15.6784   21.1332 N   0  0  0  0  0  0
  -30.4507  -22.7516   21.2792 O   0  0  0  0  0  0
  -27.7252  -16.7943   22.8035 Cl  0  0  0  0  0  0
  -31.1227  -20.3598   18.9570 Cl  0  0  0  0  0  0
  -31.4900  -12.5495   19.1997 H   0  0  0  0  0  0
  -30.3859  -11.4313   19.9428 H   0  0  0  0  0  0
  -29.7959  -11.7473   17.5239 H   0  0  0  0  0  0
  -29.6606  -13.4729   17.7555 H   0  0  0  0  0  0
  -27.8785  -11.2965   18.8874 H   0  0  0  0  0  0
  -27.3893  -12.5709   17.8054 H   0  0  0  0  0  0
  -27.6712  -14.2612   19.5339 H   0  0  0  0  0  0
  -28.7125  -12.0638   21.3890 H   0  0  0  0  0  0
  -28.4201  -13.7067   21.8666 H   0  0  0  0  0  0
  -25.2765   -9.5640   22.4813 H   0  0  0  0  0  0
  -24.0005   -7.4573   22.7436 H   0  0  0  0  0  0
  -21.0876   -8.8766   19.8927 H   0  0  0  0  0  0
  -22.3741  -10.9670   19.6187 H   0  0  0  0  0  0
  -21.1965   -7.6160   23.9733 H   0  0  0  0  0  0
  -21.1513   -6.0521   25.9080 H   0  0  0  0  0  0
  -22.0579   -2.7615   23.2812 H   0  0  0  0  0  0
  -22.4078  -11.9817   22.4771 H   0  0  0  0  0  0
  -21.1112  -13.1238   22.2683 H   0  0  0  0  0  0
  -24.6774  -15.8569   20.5579 H   0  0  0  0  0  0
  -26.3042  -15.6252   20.1528 H   0  0  0  0  0  0
  -26.7146  -32.5356   23.0998 H   0  0  0  0  0  0
  -25.0305  -33.9729   25.0509 H   0  0  0  0  0  0
  -22.7178  -31.2897   21.3770 H   0  0  0  0  0  0
  -23.3837  -35.9589   23.3192 H   0  0  0  0  0  0
  -24.3625  -36.8932   22.2057 H   0  0  0  0  0  0
  -23.7155  -37.6441   23.6708 H   0  0  0  0  0  0
  -26.0861  -31.5355   20.5864 H   0  0  0  0  0  0
  -26.8347  -30.8319   21.9977 H   0  0  0  0  0  0
  -28.1520  -29.0281   21.1217 H   0  0  0  0  0  0
  -26.0739  -25.8954   19.0376 H   0  0  0  0  0  0
  -24.0012  -27.2418   19.0417 H   0  0  0  0  0  0
  -23.7509  -30.5532   19.3955 H   0  0  0  0  0  0
  -22.7641  -29.2003   19.8699 H   0  0  0  0  0  0
  -25.1275  -36.1890   25.0840 H   0  0  0  0  0  0
  -20.9959  -28.3142   24.1377 H   0  0  0  0  0  0
  -20.5395  -26.2223   23.3613 H   0  0  0  0  0  0
  -21.6639  -26.7191   22.1300 H   0  0  0  0  0  0
  -19.6914  -25.6169   21.1193 H   0  0  0  0  0  0
  -19.6799  -27.3088   20.6722 H   0  0  0  0  0  0
  -17.4202  -26.6696   21.3912 H   0  0  0  0  0  0
  -18.0322  -26.0025   22.8883 H   0  0  0  0  0  0
  -19.7993  -30.7258   24.2037 H   0  0  0  0  0  0
  -17.5111  -31.6223   24.5155 H   0  0  0  0  0  0
  -15.5368  -30.2948   23.7786 H   0  0  0  0  0  0
  -15.8679  -28.0874   22.6935 H   0  0  0  0  0  0
  -24.5959  -30.7087   25.8082 H   0  0  0  0  0  0
  -24.8852  -32.3263   26.4553 H   0  0  0  0  0  0
  -25.8071  -30.9570   27.0475 H   0  0  0  0  0  0
  -26.2650  -29.6727   24.1174 H   0  0  0  0  0  0
  -27.3680  -29.7080   25.4691 H   0  0  0  0  0  0
  -27.8634  -30.4036   23.9458 H   0  0  0  0  0  0
  -27.2803  -33.3707   26.1749 H   0  0  0  0  0  0
  -28.4037  -32.6362   25.0284 H   0  0  0  0  0  0
  -28.0539  -31.8440   26.5473 H   0  0  0  0  0  0
  -28.2570  -38.0128   24.7474 H   0  0  0  0  0  0
  -28.1092  -36.2618   24.6171 H   0  0  0  0  0  0
  -27.2383  -37.1271   25.8856 H   0  0  0  0  0  0
  -20.9236  -29.8940   21.7100 H   0  0  0  0  0  0
  -26.0165  -38.2814   24.1512 H   0  0  0  0  0  0
  -27.5747  -19.5339   22.2433 H   0  0  0  0  0  0
  -31.3055  -17.6424   19.5809 H   0  0  0  0  0  0
  -26.5483  -23.6808   20.8728 H   0  0  0  0  0  0
  -26.6785  -23.5501   19.1141 H   0  0  0  0  0  0
  -27.0476  -21.2195   19.2708 H   0  0  0  0  0  0
  -26.5779  -21.3528   20.9603 H   0  0  0  0  0  0
  -28.9841  -23.9171   19.1049 H   0  0  0  0  0  0
  -29.7533  -25.4234   21.0300 H   0  0  0  0  0  0
  -28.1818  -25.3557   21.7381 H   0  0  0  0  0  0
  -29.1059  -15.2918   21.6818 H   0  0  0  0  0  0
  1 25  1  0  0  0
  1 30  2  0  0  0
  1 83  1  0  0  0
  2  3  1  0  0  0
  2 25  1  0  0  0
  2 87  1  0  0  0
  2 88  1  0  0  0
  3  4  1  0  0  0
  3 89  1  0  0  0
  3 90  1  0  0  0
  4  5  1  0  0  0
  4 91  1  0  0  0
  4 92  1  0  0  0
  5  6  1  0  0  0
  5 26  1  0  0  0
  5 93  1  0  0  0
  6 25  1  0  0  0
  6 94  1  0  0  0
  6 95  1  0  0  0
  7  8  2  0  0  0
  7 26  1  0  0  0
  7 29  1  0  0  0
  8  9  1  0  0  0
  8 22  1  0  0  0
  9 10  1  0  0  0
  9 27  2  0  0  0
 10 11  2  0  0  0
 10 15  1  0  0  0
 11 12  1  0  0  0
 11 96  1  0  0  0
 12 13  2  0  0  0
 12 97  1  0  0  0
 13 14  1  0  0  0
 13 31  1  0  0  0
 14 15  2  0  0  0
 14 98  1  0  0  0
 15 99  1  0  0  0
 16 17  2  0  0  0
 16 21  1  0  0  0
 16 31  1  0  0  0
 17 18  1  0  0  0
 17100  1  0  0  0
 18 19  2  0  0  0
 18101  1  0  0  0
 19 20  1  0  0  0
 19 24  1  0  0  0
 20 21  2  0  0  0
 20102  1  0  0  0
 21 23  1  0  0  0
 22 28  1  0  0  0
 22 32  2  0  0  0
 26 27  1  0  0  0
 28103  1  0  0  0
 28104  1  0  0  0
 29105  1  0  0  0
 29106  1  0  0  0
 33 34  1  0  0  0
 33 66  1  0  0  0
 33 70  2  0  0  0
 34 36  1  0  0  0
 34 59  1  0  0  0
 34107  1  0  0  0
 35 44  2  0  0  0
 35 45  1  0  0  0
 35 68  1  0  0  0
 36 56  1  0  0  0
 36108  1  0  0  0
 37 39  1  0  0  0
 37 47  1  0  0  0
 37 66  1  0  0  0
 37109  1  0  0  0
 38 43  2  0  0  0
 38 46  1  0  0  0
 38 47  1  0  0  0
 39 64  1  0  0  0
 39 67  2  0  0  0
 40 52  1  0  0  0
 40 53  2  0  0  0
 40 58  1  0  0  0
 41110  1  0  0  0
 41111  1  0  0  0
 41112  1  0  0  0
 41 48  1  0  0  0
 42 43  1  0  0  0
 42 66  1  0  0  0
 42113  1  0  0  0
 42114  1  0  0  0
 43 44  1  0  0  0
 44115  1  0  0  0
 45 46  2  0  0  0
 45116  1  0  0  0
 46117  1  0  0  0
 47118  1  0  0  0
 47119  1  0  0  0
 48 56  1  0  0  0
 48 65  1  0  0  0
 48120  1  0  0  0
 49 50  1  0  0  0
 49 53  1  0  0  0
 49 64  1  0  0  0
 49121  1  0  0  0
 50 51  1  0  0  0
 50122  1  0  0  0
 50123  1  0  0  0
 51 52  1  0  0  0
 51124  1  0  0  0
 51125  1  0  0  0
 52126  1  0  0  0
 52127  1  0  0  0
 53 54  1  0  0  0
 54 55  2  0  0  0
 54128  1  0  0  0
 55 57  1  0  0  0
 55129  1  0  0  0
 56 69  2  0  0  0
 57 58  2  0  0  0
 57130  1  0  0  0
 58131  1  0  0  0
 59 60  1  0  0  0
 59 61  1  0  0  0
 59 62  1  0  0  0
 60132  1  0  0  0
 60133  1  0  0  0
 60134  1  0  0  0
 61135  1  0  0  0
 61136  1  0  0  0
 61137  1  0  0  0
 62138  1  0  0  0
 62139  1  0  0  0
 62140  1  0  0  0
 63 65  1  0  0  0
 63141  1  0  0  0
 63142  1  0  0  0
 63143  1  0  0  0
 64144  1  0  0  0
 65145  1  0  0  0
 68 81  1  0  0  0
 71 73  2  0  0  0
 71 75  1  0  0  0
 71146  1  0  0  0
 72 74  1  0  0  0
 72 76  2  0  0  0
 72147  1  0  0  0
 73 76  1  0  0  0
 73 82  1  0  0  0
 74 75  2  0  0  0
 74 83  1  0  0  0
 75 85  1  0  0  0
 76 86  1  0  0  0
 77 80  1  0  0  0
 77 82  1  0  0  0
 77 84  2  0  0  0
 78 79  1  0  0  0
 78 80  1  0  0  0
 78148  1  0  0  0
 78149  1  0  0  0
 79 82  1  0  0  0
 79150  1  0  0  0
 79151  1  0  0  0
 80 81  1  0  0  0
 80152  1  0  0  0
 81153  1  0  0  0
 81154  1  0  0  0
 83155  1  0  0  0
M  ISO  4   1 100  68 101  81 101  83 100
M  END
> <chiral flag>
0

> <version>
0

> <s_m_source_file>
/data/baiqing/PycharmProjects/Reinvent-master-3.2/result/LINK_invent/BTK/process_docking_weight1_custom_product_contain_oxygen_bond_distance_aromatic_linkinvent_7_9_3/rearranged_h_0022.sdf

> <i_m_source_file_index>
53

> <r_mmod_Potential_Energy-OPLS-2005>
162.342269897461

> <r_mmod_Stretch_Energy-OPLS-2005>
93.2007598876953

> <r_mmod_Bend_Energy-OPLS-2005>
196.203765869141

> <r_mmod_Torsional_Energy-OPLS-2005>
313.490600585938

> <r_mmod_Improper_Torsional_Energy-OPLS-2005>
3.69646692276001

> <r_mmod_Van_der_Waal_Energy-OPLS-2005>
120.296493530273

> <r_mmod_Electrostatic_Energy-OPLS-2005>
-394.275634765625

> <r_mmod_Solvation_Energy-OPLS-2005>
-223.197311401367

> <b_mmod_Minimization_Converged-OPLS-2005>
0

> <r_mmod_RMS_Derivative-OPLS-2005>
7.90985822677612

$$$$
54
                    3D
 Structure written by MMmdl.
170179  0  0  1  0            999 V2000
  -30.6444  -14.7854   20.3173 C   0  0  0  0  0  0
  -30.4291  -12.4743   19.4287 C   0  0  0  0  0  0
  -29.4841  -12.4383   18.2118 C   0  0  0  0  0  0
  -28.0206  -12.2691   18.6607 C   0  0  0  0  0  0
  -27.6311  -13.1980   19.8396 C   0  0  2  0  0  0
  -28.7031  -13.2435   20.9451 C   0  0  0  0  0  0
  -25.2543  -13.8106   20.5810 C   0  0  0  0  0  0
  -24.1791  -13.0400   20.9259 C   0  0  0  0  0  0
  -24.6355  -11.6876   20.8823 C   0  0  0  0  0  0
  -23.9014  -10.4279   21.0453 C   0  0  0  0  0  0
  -24.3584   -9.4194   21.9212 C   0  0  0  0  0  0
  -23.6268   -8.2223   22.0754 C   0  0  0  0  0  0
  -22.4251   -8.0268   21.3537 C   0  0  0  0  0  0
  -21.9892   -9.0241   20.4652 C   0  0  0  0  0  0
  -22.7206  -10.2129   20.3076 C   0  0  0  0  0  0
  -21.6850   -6.0735   22.5269 C   0  0  0  0  0  0
  -21.4010   -6.5646   23.8209 C   0  0  0  0  0  0
  -21.3666   -5.6798   24.9174 C   0  0  0  0  0  0
  -21.6045   -4.3048   24.7222 C   0  0  0  0  0  0
  -21.8836   -3.8150   23.4337 C   0  0  0  0  0  0
  -21.9213   -4.6963   22.3398 C   0  0  0  0  0  0
  -22.7841  -13.5219   21.1911 C   0  0  0  0  0  0
  -22.1675   -4.2158   21.0972 F   0  0  0  0  0  0
  -21.5630   -3.4529   25.7725 F   0  0  0  0  0  0
  -29.9637  -13.5896   20.2780 N   0  0  0  0  0  0
  -26.2926  -12.9238   20.3428 N   0  0  0  0  0  0
  -25.9283  -11.6428   20.5892 N   0  0  0  0  0  0
  -22.0469  -12.8199   22.0446 N   0  0  0  0  0  0
  -25.4265  -15.1827   20.4246 N   0  0  0  0  0  0
  -31.8720  -14.7413   20.4298 O   0  0  0  0  0  0
  -21.6609   -6.8861   21.4231 O   0  0  0  0  0  0
  -22.3552  -14.5532   20.6750 O   0  0  0  0  0  0
  -24.6330  -31.8550   23.1995 C   0  0  0  0  0  0
  -25.9156  -32.4751   23.8339 C   0  0  1  0  0  0
  -27.2220  -27.2633   20.1348 C   0  0  0  0  0  0
  -25.5945  -33.8555   24.2265 N   0  0  0  0  0  0
  -23.4287  -30.4801   21.5419 C   0  0  2  0  0  0
  -24.8760  -28.9282   20.1118 C   0  0  0  0  0  0
  -22.7502  -29.4621   22.4906 C   0  0  0  0  0  0
  -18.0293  -28.1393   22.8468 C   0  0  0  0  0  0
  -24.1481  -36.7276   23.2639 C   0  0  0  0  0  0
  -25.9764  -30.7672   21.3820 C   0  0  0  0  0  0
  -26.0482  -29.3921   20.7223 C   0  0  0  0  0  0
  -27.2236  -28.5736   20.7225 C   0  0  0  0  0  0
  -26.0232  -26.8697   19.4944 C   0  0  0  0  0  0
  -24.8684  -27.6736   19.4878 C   0  0  0  0  0  0
  -23.6471  -29.8161   20.1583 C   0  0  0  0  0  0
  -25.4110  -36.3068   24.0332 C   0  0  1  0  0  0
  -20.5897  -28.3709   23.1246 C   0  0  2  0  0  0
  -20.6788  -26.9422   22.5392 C   0  0  0  0  0  0
  -19.5764  -26.6380   21.5202 C   0  0  0  0  0  0
  -18.1945  -26.7931   22.1615 C   0  0  0  0  0  0
  -19.1547  -28.8869   23.2853 C   0  0  0  0  0  0
  -18.9472  -30.1471   23.8869 C   0  0  0  0  0  0
  -17.6472  -30.6587   24.0566 C   0  0  0  0  0  0
  -25.9055  -34.9438   23.5100 C   0  0  0  0  0  0
  -16.5361  -29.9084   23.6345 C   0  0  0  0  0  0
  -16.7283  -28.6510   23.0351 C   0  0  0  0  0  0
  -26.4511  -31.6583   25.0737 C   0  0  0  0  0  0
  -25.3728  -31.3750   26.1456 C   0  0  0  0  0  0
  -27.0394  -30.2999   24.6270 C   0  0  0  0  0  0
  -27.6055  -32.4338   25.7514 C   0  0  0  0  0  0
  -27.5580  -37.1793   24.8462 C   0  0  0  0  0  0
  -21.4207  -29.3054   22.3629 N   0  0  0  0  0  0
  -26.4283  -37.3768   23.9412 N   0  0  0  0  0  0
  -24.6979  -31.0526   22.0963 N   0  0  0  0  0  0
  -23.4202  -28.8167   23.3009 O   0  0  0  0  0  0
  -28.3148  -26.3614   20.2023 O   0  0  0  0  0  0
  -26.5624  -34.8910   22.4668 O   0  0  0  0  0  0
  -23.5485  -32.1383   23.7287 O   0  0  0  0  0  0
  -27.1230  -18.0012   19.1300 C   0  0  0  0  0  0
  -27.9989  -16.9117   19.2080 C   0  0  0  0  0  0
  -29.6722  -18.3689   20.1649 C   0  0  0  0  0  0
  -27.4998  -19.3041   19.5135 C   0  0  0  0  0  0
  -29.2843  -17.0156   19.7698 C   0  0  0  0  0  0
  -28.8190  -19.5564   20.0243 C   0  0  0  0  0  0
  -24.3697  -21.2477   19.2300 C   0  0  0  0  0  0
  -25.0750  -21.5500   17.9009 C   0  0  0  0  0  0
  -25.2731  -20.2436   19.9592 C   0  0  0  0  0  0
  -26.2842  -20.6160   17.8781 C   0  0  0  0  0  0
  -31.9522  -16.9991   18.1477 C   0  0  0  0  0  0
  -29.0594  -23.6861   20.3976 C   0  0  0  0  0  0
  -30.8454  -15.9309   18.2029 C   0  0  0  0  0  0
  -28.4940  -22.2029   20.0991 C   0  0  0  0  0  0
  -28.0261  -24.8905   20.0734 C   0  0  0  0  0  0
  -26.5552  -20.3234   19.2783 N   0  0  0  0  0  0
  -29.2791  -20.9164   20.3291 N   0  0  0  0  0  0
  -30.1617  -15.8359   19.5163 N   0  0  0  0  0  0
  -31.4602  -12.6169   19.0985 H   0  0  0  0  0  0
  -30.4133  -11.5301   19.9753 H   0  0  0  0  0  0
  -29.7610  -11.6184   17.5490 H   0  0  0  0  0  0
  -29.5832  -13.3529   17.6271 H   0  0  0  0  0  0
  -27.8890  -11.2282   18.9573 H   0  0  0  0  0  0
  -27.3445  -12.4276   17.8189 H   0  0  0  0  0  0
  -27.5884  -14.1805   19.4069 H   0  0  0  0  0  0
  -28.7901  -12.2862   21.4591 H   0  0  0  0  0  0
  -28.4474  -13.9923   21.6977 H   0  0  0  0  0  0
  -25.2731   -9.5670   22.4792 H   0  0  0  0  0  0
  -24.0009   -7.4611   22.7448 H   0  0  0  0  0  0
  -21.0845   -8.8741   19.8936 H   0  0  0  0  0  0
  -22.3663  -10.9672   19.6186 H   0  0  0  0  0  0
  -21.1961   -7.6149   23.9690 H   0  0  0  0  0  0
  -21.1479   -6.0531   25.9072 H   0  0  0  0  0  0
  -22.0601   -2.7608   23.2827 H   0  0  0  0  0  0
  -22.4051  -11.9829   22.4788 H   0  0  0  0  0  0
  -21.1092  -13.1218   22.2645 H   0  0  0  0  0  0
  -24.6646  -15.8380   20.5515 H   0  0  0  0  0  0
  -26.3036  -15.6286   20.1911 H   0  0  0  0  0  0
  -26.7227  -32.5394   23.1084 H   0  0  0  0  0  0
  -25.0090  -33.9672   25.0414 H   0  0  0  0  0  0
  -22.7257  -31.3032   21.3967 H   0  0  0  0  0  0
  -23.3752  -35.9597   23.3290 H   0  0  0  0  0  0
  -24.3569  -36.8909   22.2054 H   0  0  0  0  0  0
  -23.7222  -37.6468   23.6672 H   0  0  0  0  0  0
  -26.1247  -31.5272   20.6146 H   0  0  0  0  0  0
  -26.8509  -30.8071   22.0202 H   0  0  0  0  0  0
  -28.1159  -28.9229   21.2224 H   0  0  0  0  0  0
  -25.9391  -25.9118   19.0065 H   0  0  0  0  0  0
  -23.9716  -27.3073   19.0059 H   0  0  0  0  0  0
  -23.7717  -30.5945   19.4040 H   0  0  0  0  0  0
  -22.7651  -29.2499   19.8521 H   0  0  0  0  0  0
  -25.1297  -36.1906   25.0826 H   0  0  0  0  0  0
  -21.0002  -28.3297   24.1365 H   0  0  0  0  0  0
  -20.5685  -26.2327   23.3606 H   0  0  0  0  0  0
  -21.6654  -26.7442   22.1189 H   0  0  0  0  0  0
  -19.6921  -25.6287   21.1247 H   0  0  0  0  0  0
  -19.6704  -27.3178   20.6725 H   0  0  0  0  0  0
  -17.4213  -26.6671   21.4022 H   0  0  0  0  0  0
  -18.0346  -26.0078   22.9021 H   0  0  0  0  0  0
  -19.7954  -30.7293   24.2219 H   0  0  0  0  0  0
  -17.5031  -31.6265   24.5175 H   0  0  0  0  0  0
  -15.5365  -30.2982   23.7685 H   0  0  0  0  0  0
  -15.8683  -28.0829   22.7072 H   0  0  0  0  0  0
  -24.5859  -30.7153   25.7777 H   0  0  0  0  0  0
  -24.8972  -32.2933   26.4909 H   0  0  0  0  0  0
  -25.8018  -30.8883   27.0224 H   0  0  0  0  0  0
  -26.3020  -29.6706   24.1271 H   0  0  0  0  0  0
  -27.4043  -29.7294   25.4824 H   0  0  0  0  0  0
  -27.8901  -30.4271   23.9569 H   0  0  0  0  0  0
  -27.2643  -33.3620   26.2109 H   0  0  0  0  0  0
  -28.3855  -32.6933   25.0346 H   0  0  0  0  0  0
  -28.0744  -31.8462   26.5417 H   0  0  0  0  0  0
  -28.2595  -38.0095   24.7524 H   0  0  0  0  0  0
  -28.1083  -36.2629   24.6275 H   0  0  0  0  0  0
  -27.2297  -37.1423   25.8863 H   0  0  0  0  0  0
  -20.9394  -29.8780   21.6834 H   0  0  0  0  0  0
  -26.0165  -38.2839   24.1421 H   0  0  0  0  0  0
  -26.1564  -17.8348   18.6779 H   0  0  0  0  0  0
  -27.6863  -16.0157   18.7060 H   0  0  0  0  0  0
  -30.6859  -18.5109   20.5083 H   0  0  0  0  0  0
  -23.3683  -20.8445   19.0788 H   0  0  0  0  0  0
  -24.2624  -22.1660   19.8085 H   0  0  0  0  0  0
  -25.4006  -22.5906   17.8868 H   0  0  0  0  0  0
  -24.4293  -21.3989   17.0346 H   0  0  0  0  0  0
  -24.8495  -19.2402   19.8972 H   0  0  0  0  0  0
  -25.3726  -20.4982   21.0165 H   0  0  0  0  0  0
  -27.1410  -21.0833   17.3912 H   0  0  0  0  0  0
  -26.0513  -19.7041   17.3258 H   0  0  0  0  0  0
  -32.4728  -16.9517   17.1904 H   0  0  0  0  0  0
  -32.6940  -16.8448   18.9302 H   0  0  0  0  0  0
  -31.5542  -18.0077   18.2536 H   0  0  0  0  0  0
  -29.9686  -23.8469   19.8168 H   0  0  0  0  0  0
  -29.3533  -23.7509   21.4452 H   0  0  0  0  0  0
  -31.2844  -14.9736   17.9087 H   0  0  0  0  0  0
  -30.1077  -16.1382   17.4267 H   0  0  0  0  0  0
  -28.2067  -22.2112   19.0478 H   0  0  0  0  0  0
  -27.5717  -22.1214   20.6771 H   0  0  0  0  0  0
  -27.1518  -24.6938   20.6958 H   0  0  0  0  0  0
  -27.7095  -24.7227   19.0453 H   0  0  0  0  0  0
  -30.2273  -21.0143   20.6818 H   0  0  0  0  0  0
  1 25  1  0  0  0
  1 30  2  0  0  0
  1 88  1  0  0  0
  2  3  1  0  0  0
  2 25  1  0  0  0
  2 89  1  0  0  0
  2 90  1  0  0  0
  3  4  1  0  0  0
  3 91  1  0  0  0
  3 92  1  0  0  0
  4  5  1  0  0  0
  4 93  1  0  0  0
  4 94  1  0  0  0
  5  6  1  0  0  0
  5 26  1  0  0  0
  5 95  1  0  0  0
  6 25  1  0  0  0
  6 96  1  0  0  0
  6 97  1  0  0  0
  7  8  2  0  0  0
  7 26  1  0  0  0
  7 29  1  0  0  0
  8  9  1  0  0  0
  8 22  1  0  0  0
  9 10  1  0  0  0
  9 27  2  0  0  0
 10 11  2  0  0  0
 10 15  1  0  0  0
 11 12  1  0  0  0
 11 98  1  0  0  0
 12 13  2  0  0  0
 12 99  1  0  0  0
 13 14  1  0  0  0
 13 31  1  0  0  0
 14 15  2  0  0  0
 14100  1  0  0  0
 15101  1  0  0  0
 16 17  2  0  0  0
 16 21  1  0  0  0
 16 31  1  0  0  0
 17 18  1  0  0  0
 17102  1  0  0  0
 18 19  2  0  0  0
 18103  1  0  0  0
 19 20  1  0  0  0
 19 24  1  0  0  0
 20 21  2  0  0  0
 20104  1  0  0  0
 21 23  1  0  0  0
 22 28  1  0  0  0
 22 32  2  0  0  0
 26 27  1  0  0  0
 28105  1  0  0  0
 28106  1  0  0  0
 29107  1  0  0  0
 29108  1  0  0  0
 33 34  1  0  0  0
 33 66  1  0  0  0
 33 70  2  0  0  0
 34 36  1  0  0  0
 34 59  1  0  0  0
 34109  1  0  0  0
 35 44  2  0  0  0
 35 45  1  0  0  0
 35 68  1  0  0  0
 36 56  1  0  0  0
 36110  1  0  0  0
 37 39  1  0  0  0
 37 47  1  0  0  0
 37 66  1  0  0  0
 37111  1  0  0  0
 38 43  2  0  0  0
 38 46  1  0  0  0
 38 47  1  0  0  0
 39 64  1  0  0  0
 39 67  2  0  0  0
 40 52  1  0  0  0
 40 53  2  0  0  0
 40 58  1  0  0  0
 41112  1  0  0  0
 41113  1  0  0  0
 41114  1  0  0  0
 41 48  1  0  0  0
 42 43  1  0  0  0
 42 66  1  0  0  0
 42115  1  0  0  0
 42116  1  0  0  0
 43 44  1  0  0  0
 44117  1  0  0  0
 45 46  2  0  0  0
 45118  1  0  0  0
 46119  1  0  0  0
 47120  1  0  0  0
 47121  1  0  0  0
 48 56  1  0  0  0
 48 65  1  0  0  0
 48122  1  0  0  0
 49 50  1  0  0  0
 49 53  1  0  0  0
 49 64  1  0  0  0
 49123  1  0  0  0
 50 51  1  0  0  0
 50124  1  0  0  0
 50125  1  0  0  0
 51 52  1  0  0  0
 51126  1  0  0  0
 51127  1  0  0  0
 52128  1  0  0  0
 52129  1  0  0  0
 53 54  1  0  0  0
 54 55  2  0  0  0
 54130  1  0  0  0
 55 57  1  0  0  0
 55131  1  0  0  0
 56 69  2  0  0  0
 57 58  2  0  0  0
 57132  1  0  0  0
 58133  1  0  0  0
 59 60  1  0  0  0
 59 61  1  0  0  0
 59 62  1  0  0  0
 60134  1  0  0  0
 60135  1  0  0  0
 60136  1  0  0  0
 61137  1  0  0  0
 61138  1  0  0  0
 61139  1  0  0  0
 62140  1  0  0  0
 62141  1  0  0  0
 62142  1  0  0  0
 63 65  1  0  0  0
 63143  1  0  0  0
 63144  1  0  0  0
 63145  1  0  0  0
 64146  1  0  0  0
 65147  1  0  0  0
 68 85  1  0  0  0
 71 72  2  0  0  0
 71 74  1  0  0  0
 71148  1  0  0  0
 72 75  1  0  0  0
 72149  1  0  0  0
 73 75  2  0  0  0
 73 76  1  0  0  0
 73150  1  0  0  0
 74 76  2  0  0  0
 74 86  1  0  0  0
 75 88  1  0  0  0
 76 87  1  0  0  0
 77 78  1  0  0  0
 77 79  1  0  0  0
 77151  1  0  0  0
 77152  1  0  0  0
 78 80  1  0  0  0
 78153  1  0  0  0
 78154  1  0  0  0
 79 86  1  0  0  0
 79155  1  0  0  0
 79156  1  0  0  0
 80 86  1  0  0  0
 80157  1  0  0  0
 80158  1  0  0  0
 81 83  1  0  0  0
 81159  1  0  0  0
 81160  1  0  0  0
 81161  1  0  0  0
 82 84  1  0  0  0
 82 85  1  0  0  0
 82162  1  0  0  0
 82163  1  0  0  0
 83 88  1  0  0  0
 83164  1  0  0  0
 83165  1  0  0  0
 84 87  1  0  0  0
 84166  1  0  0  0
 84167  1  0  0  0
 85168  1  0  0  0
 85169  1  0  0  0
 87170  1  0  0  0
M  ISO  4   1 100  68 101  85 101  88 100
M  END
> <chiral flag>
0

> <version>
0

> <s_m_source_file>
/data/baiqing/PycharmProjects/Reinvent-master-3.2/result/LINK_invent/BTK/process_docking_weight1_custom_product_contain_oxygen_bond_distance_aromatic_linkinvent_7_9_3/rearranged_h_0022.sdf

> <i_m_source_file_index>
54

> <r_mmod_Potential_Energy-OPLS-2005>
635.383178710938

> <r_mmod_Stretch_Energy-OPLS-2005>
137.255416870117

> <r_mmod_Bend_Energy-OPLS-2005>
239.458709716797

> <r_mmod_Torsional_Energy-OPLS-2005>
417.710418701172

> <r_mmod_Improper_Torsional_Energy-OPLS-2005>
39.8472480773926

> <r_mmod_Van_der_Waal_Energy-OPLS-2005>
152.328567504883

> <r_mmod_Electrostatic_Energy-OPLS-2005>
-263.815887451172

> <r_mmod_Solvation_Energy-OPLS-2005>
-210.495620727539

> <b_mmod_Minimization_Converged-OPLS-2005>
0

> <r_mmod_RMS_Derivative-OPLS-2005>
2.98879504203796

$$$$
55
                    3D
 Structure written by MMmdl.
159167  0  0  1  0            999 V2000
  -30.6157  -14.5638   20.5846 C   0  0  0  0  0  0
  -30.4557  -12.3700   19.4194 C   0  0  0  0  0  0
  -29.5057  -12.5213   18.2098 C   0  0  0  0  0  0
  -28.0274  -12.3619   18.6230 C   0  0  0  0  0  0
  -27.6669  -13.1978   19.8787 C   0  0  2  0  0  0
  -28.7106  -12.9543   20.9904 C   0  0  0  0  0  0
  -25.2630  -13.8144   20.5674 C   0  0  0  0  0  0
  -24.1862  -13.0437   20.9163 C   0  0  0  0  0  0
  -24.6400  -11.6898   20.8741 C   0  0  0  0  0  0
  -23.9060  -10.4292   21.0417 C   0  0  0  0  0  0
  -24.3612   -9.4205   21.9191 C   0  0  0  0  0  0
  -23.6287   -8.2242   22.0759 C   0  0  0  0  0  0
  -22.4269   -8.0285   21.3547 C   0  0  0  0  0  0
  -21.9909   -9.0261   20.4648 C   0  0  0  0  0  0
  -22.7240  -10.2136   20.3062 C   0  0  0  0  0  0
  -21.6851   -6.0744   22.5285 C   0  0  0  0  0  0
  -21.4011   -6.5645   23.8219 C   0  0  0  0  0  0
  -21.3655   -5.6795   24.9176 C   0  0  0  0  0  0
  -21.6042   -4.3060   24.7228 C   0  0  0  0  0  0
  -21.8820   -3.8154   23.4347 C   0  0  0  0  0  0
  -21.9189   -4.6973   22.3403 C   0  0  0  0  0  0
  -22.7882  -13.5248   21.1831 C   0  0  0  0  0  0
  -22.1658   -4.2161   21.0982 F   0  0  0  0  0  0
  -21.5624   -3.4540   25.7738 F   0  0  0  0  0  0
  -30.0360  -13.3307   20.4543 N   0  0  0  0  0  0
  -26.3056  -12.9281   20.3373 N   0  0  0  0  0  0
  -25.9322  -11.6452   20.5766 N   0  0  0  0  0  0
  -22.0510  -12.8246   22.0383 N   0  0  0  0  0  0
  -25.4383  -15.1857   20.4074 N   0  0  0  0  0  0
  -31.7045  -14.8502   20.0738 O   0  0  0  0  0  0
  -21.6631   -6.8885   21.4245 O   0  0  0  0  0  0
  -22.3570  -14.5559   20.6691 O   0  0  0  0  0  0
  -24.6202  -31.8623   23.2045 C   0  0  0  0  0  0
  -25.9076  -32.4790   23.8357 C   0  0  1  0  0  0
  -27.2443  -27.3816   20.1073 C   0  0  0  0  0  0
  -25.5921  -33.8585   24.2301 N   0  0  0  0  0  0
  -23.4120  -30.4835   21.5448 C   0  0  2  0  0  0
  -24.8623  -28.9352   20.1186 C   0  0  0  0  0  0
  -22.7440  -29.4633   22.4963 C   0  0  0  0  0  0
  -18.0272  -28.1362   22.8471 C   0  0  0  0  0  0
  -24.1490  -36.7296   23.2639 C   0  0  0  0  0  0
  -25.9459  -30.8123   21.3638 C   0  0  0  0  0  0
  -26.0259  -29.4413   20.7114 C   0  0  0  0  0  0
  -27.2218  -28.6754   20.6929 C   0  0  0  0  0  0
  -26.0610  -26.8992   19.5100 C   0  0  0  0  0  0
  -24.8778  -27.6662   19.5113 C   0  0  0  0  0  0
  -23.6252  -29.8090   20.1634 C   0  0  0  0  0  0
  -25.4107  -36.3090   24.0341 C   0  0  1  0  0  0
  -20.5866  -28.3656   23.1297 C   0  0  2  0  0  0
  -20.6763  -26.9389   22.5406 C   0  0  0  0  0  0
  -19.5748  -26.6371   21.5198 C   0  0  0  0  0  0
  -18.1919  -26.7902   22.1606 C   0  0  0  0  0  0
  -19.1524  -28.8820   23.2878 C   0  0  0  0  0  0
  -18.9460  -30.1423   23.8892 C   0  0  0  0  0  0
  -17.6467  -30.6569   24.0558 C   0  0  0  0  0  0
  -25.9040  -34.9458   23.5116 C   0  0  0  0  0  0
  -16.5352  -29.9075   23.6324 C   0  0  0  0  0  0
  -16.7263  -28.6490   23.0343 C   0  0  0  0  0  0
  -26.4480  -31.6585   25.0705 C   0  0  0  0  0  0
  -25.3730  -31.3704   26.1448 C   0  0  0  0  0  0
  -27.0320  -30.3028   24.6092 C   0  0  0  0  0  0
  -27.6048  -32.4310   25.7476 C   0  0  0  0  0  0
  -27.5575  -37.1800   24.8466 C   0  0  0  0  0  0
  -21.4161  -29.3027   22.3711 N   0  0  0  0  0  0
  -26.4289  -37.3780   23.9412 N   0  0  0  0  0  0
  -24.6778  -31.0679   22.0960 N   0  0  0  0  0  0
  -23.4193  -28.8167   23.3018 O   0  0  0  0  0  0
  -28.4049  -26.6190   20.0727 O   0  0  0  0  0  0
  -26.5600  -34.8923   22.4673 O   0  0  0  0  0  0
  -23.5386  -32.1394   23.7417 O   0  0  0  0  0  0
  -28.9619  -19.5687   21.9300 C   0  0  0  0  0  0
  -28.4040  -18.5340   22.6941 C   0  0  0  0  0  0
  -30.2119  -17.9116   20.6263 C   0  0  0  0  0  0
  -29.8603  -19.2878   20.8817 C   0  0  0  0  0  0
  -29.6627  -16.8512   21.4216 C   0  0  0  0  0  0
  -28.7480  -17.1960   22.4464 C   0  0  0  0  0  0
  -30.1157  -21.9121   18.1773 C   0  0  0  0  0  0
  -30.5152  -20.4916   20.1500 C   0  0  0  0  0  0
  -28.8463  -24.1068   19.6755 C   0  0  0  0  0  0
  -29.3323  -22.7743   20.3908 C   0  0  0  0  0  0
  -28.3639  -25.2674   20.6204 C   0  0  0  0  0  0
  -29.8643  -15.4245   21.3080 N   0  0  0  0  0  0
  -29.6206  -21.5524   19.5312 N   0  3  1  0  0  0
  -28.0261  -15.9737   23.4386 Cl  0  0  0  0  0  0
  -31.4889  -12.5337   19.1092 H   0  0  0  0  0  0
  -30.4197  -11.3535   19.8141 H   0  0  0  0  0  0
  -29.7574  -11.7890   17.4420 H   0  0  0  0  0  0
  -29.6502  -13.5018   17.7539 H   0  0  0  0  0  0
  -27.8512  -11.3043   18.8232 H   0  0  0  0  0  0
  -27.3727  -12.6260   17.7919 H   0  0  0  0  0  0
  -27.7148  -14.2483   19.5909 H   0  0  0  0  0  0
  -28.7157  -11.9009   21.2754 H   0  0  0  0  0  0
  -28.4405  -13.4842   21.9036 H   0  0  0  0  0  0
  -25.2757   -9.5680   22.4763 H   0  0  0  0  0  0
  -24.0000   -7.4632   22.7477 H   0  0  0  0  0  0
  -21.0841   -8.8786   19.8947 H   0  0  0  0  0  0
  -22.3712  -10.9680   19.6171 H   0  0  0  0  0  0
  -21.2006   -7.6156   23.9731 H   0  0  0  0  0  0
  -21.1470   -6.0520   25.9082 H   0  0  0  0  0  0
  -22.0602   -2.7617   23.2845 H   0  0  0  0  0  0
  -22.4099  -11.9891   22.4766 H   0  0  0  0  0  0
  -21.1138  -13.1293   22.2593 H   0  0  0  0  0  0
  -24.6816  -15.8491   20.5292 H   0  0  0  0  0  0
  -26.3048  -15.6217   20.1192 H   0  0  0  0  0  0
  -26.7145  -32.5486   23.1122 H   0  0  0  0  0  0
  -25.0100  -33.9741   25.0465 H   0  0  0  0  0  0
  -22.7032  -31.3008   21.3991 H   0  0  0  0  0  0
  -23.3754  -35.9631   23.3308 H   0  0  0  0  0  0
  -24.3589  -36.8900   22.2053 H   0  0  0  0  0  0
  -23.7251  -37.6507   23.6651 H   0  0  0  0  0  0
  -26.0615  -31.5754   20.5933 H   0  0  0  0  0  0
  -26.8333  -30.8687   21.9835 H   0  0  0  0  0  0
  -28.1232  -29.0666   21.1430 H   0  0  0  0  0  0
  -26.0552  -25.9285   19.0339 H   0  0  0  0  0  0
  -23.9860  -27.2722   19.0442 H   0  0  0  0  0  0
  -23.7385  -30.5820   19.4020 H   0  0  0  0  0  0
  -22.7478  -29.2307   19.8671 H   0  0  0  0  0  0
  -25.1286  -36.1950   25.0838 H   0  0  0  0  0  0
  -20.9948  -28.3222   24.1423 H   0  0  0  0  0  0
  -20.5646  -26.2264   23.3597 H   0  0  0  0  0  0
  -21.6632  -26.7409   22.1207 H   0  0  0  0  0  0
  -19.6922  -25.6288   21.1215 H   0  0  0  0  0  0
  -19.6696  -27.3185   20.6736 H   0  0  0  0  0  0
  -17.4188  -26.6643   21.4011 H   0  0  0  0  0  0
  -18.0326  -26.0028   22.8990 H   0  0  0  0  0  0
  -19.7942  -30.7222   24.2271 H   0  0  0  0  0  0
  -17.5033  -31.6259   24.5146 H   0  0  0  0  0  0
  -15.5353  -30.2987   23.7656 H   0  0  0  0  0  0
  -15.8652  -28.0829   22.7055 H   0  0  0  0  0  0
  -24.5920  -30.7028   25.7793 H   0  0  0  0  0  0
  -24.8897  -32.2860   26.4868 H   0  0  0  0  0  0
  -25.8072  -30.8902   27.0224 H   0  0  0  0  0  0
  -26.2868  -29.6783   24.1148 H   0  0  0  0  0  0
  -27.4098  -29.7275   25.4556 H   0  0  0  0  0  0
  -27.8699  -30.4353   23.9242 H   0  0  0  0  0  0
  -27.2671  -33.3621   26.2042 H   0  0  0  0  0  0
  -28.3869  -32.6847   25.0303 H   0  0  0  0  0  0
  -28.0703  -31.8430   26.5401 H   0  0  0  0  0  0
  -28.2588  -38.0096   24.7504 H   0  0  0  0  0  0
  -28.1074  -36.2630   24.6302 H   0  0  0  0  0  0
  -27.2294  -37.1456   25.8867 H   0  0  0  0  0  0
  -20.9325  -29.8768   21.6940 H   0  0  0  0  0  0
  -26.0175  -38.2856   24.1415 H   0  0  0  0  0  0
  -28.7039  -20.5850   22.1849 H   0  0  0  0  0  0
  -27.7136  -18.7704   23.4903 H   0  0  0  0  0  0
  -30.9130  -17.6736   19.8386 H   0  0  0  0  0  0
  -30.2800  -21.0232   17.5675 H   0  0  0  0  0  0
  -31.0579  -22.4610   18.2331 H   0  0  0  0  0  0
  -29.3986  -22.5211   17.6289 H   0  0  0  0  0  0
  -31.1496  -20.0546   19.3784 H   0  0  0  0  0  0
  -31.2172  -20.9653   20.8360 H   0  0  0  0  0  0
  -28.0374  -23.8832   18.9790 H   0  0  0  0  0  0
  -29.6693  -24.4944   19.0749 H   0  0  0  0  0  0
  -28.5864  -22.4937   21.1325 H   0  0  0  0  0  0
  -30.2335  -23.0212   20.9527 H   0  0  0  0  0  0
  -29.0201  -25.2881   21.4903 H   0  0  0  0  0  0
  -27.3764  -25.0263   21.0191 H   0  0  0  0  0  0
  -29.1539  -14.9215   21.8205 H   0  0  0  0  0  0
  -28.7367  -21.0959   19.3636 H   0  0  0  0  0  0
  1 25  1  0  0  0
  1 30  2  0  0  0
  1 82  1  0  0  0
  2  3  1  0  0  0
  2 25  1  0  0  0
  2 85  1  0  0  0
  2 86  1  0  0  0
  3  4  1  0  0  0
  3 87  1  0  0  0
  3 88  1  0  0  0
  4  5  1  0  0  0
  4 89  1  0  0  0
  4 90  1  0  0  0
  5  6  1  0  0  0
  5 26  1  0  0  0
  5 91  1  0  0  0
  6 25  1  0  0  0
  6 92  1  0  0  0
  6 93  1  0  0  0
  7  8  2  0  0  0
  7 26  1  0  0  0
  7 29  1  0  0  0
  8  9  1  0  0  0
  8 22  1  0  0  0
  9 10  1  0  0  0
  9 27  2  0  0  0
 10 11  2  0  0  0
 10 15  1  0  0  0
 11 12  1  0  0  0
 11 94  1  0  0  0
 12 13  2  0  0  0
 12 95  1  0  0  0
 13 14  1  0  0  0
 13 31  1  0  0  0
 14 15  2  0  0  0
 14 96  1  0  0  0
 15 97  1  0  0  0
 16 17  2  0  0  0
 16 21  1  0  0  0
 16 31  1  0  0  0
 17 18  1  0  0  0
 17 98  1  0  0  0
 18 19  2  0  0  0
 18 99  1  0  0  0
 19 20  1  0  0  0
 19 24  1  0  0  0
 20 21  2  0  0  0
 20100  1  0  0  0
 21 23  1  0  0  0
 22 28  1  0  0  0
 22 32  2  0  0  0
 26 27  1  0  0  0
 28101  1  0  0  0
 28102  1  0  0  0
 29103  1  0  0  0
 29104  1  0  0  0
 33 34  1  0  0  0
 33 66  1  0  0  0
 33 70  2  0  0  0
 34 36  1  0  0  0
 34 59  1  0  0  0
 34105  1  0  0  0
 35 44  2  0  0  0
 35 45  1  0  0  0
 35 68  1  0  0  0
 36 56  1  0  0  0
 36106  1  0  0  0
 37 39  1  0  0  0
 37 47  1  0  0  0
 37 66  1  0  0  0
 37107  1  0  0  0
 38 43  2  0  0  0
 38 46  1  0  0  0
 38 47  1  0  0  0
 39 64  1  0  0  0
 39 67  2  0  0  0
 40 52  1  0  0  0
 40 53  2  0  0  0
 40 58  1  0  0  0
 41108  1  0  0  0
 41109  1  0  0  0
 41110  1  0  0  0
 41 48  1  0  0  0
 42 43  1  0  0  0
 42 66  1  0  0  0
 42111  1  0  0  0
 42112  1  0  0  0
 43 44  1  0  0  0
 44113  1  0  0  0
 45 46  2  0  0  0
 45114  1  0  0  0
 46115  1  0  0  0
 47116  1  0  0  0
 47117  1  0  0  0
 48 56  1  0  0  0
 48 65  1  0  0  0
 48118  1  0  0  0
 49 50  1  0  0  0
 49 53  1  0  0  0
 49 64  1  0  0  0
 49119  1  0  0  0
 50 51  1  0  0  0
 50120  1  0  0  0
 50121  1  0  0  0
 51 52  1  0  0  0
 51122  1  0  0  0
 51123  1  0  0  0
 52124  1  0  0  0
 52125  1  0  0  0
 53 54  1  0  0  0
 54 55  2  0  0  0
 54126  1  0  0  0
 55 57  1  0  0  0
 55127  1  0  0  0
 56 69  2  0  0  0
 57 58  2  0  0  0
 57128  1  0  0  0
 58129  1  0  0  0
 59 60  1  0  0  0
 59 61  1  0  0  0
 59 62  1  0  0  0
 60130  1  0  0  0
 60131  1  0  0  0
 60132  1  0  0  0
 61133  1  0  0  0
 61134  1  0  0  0
 61135  1  0  0  0
 62136  1  0  0  0
 62137  1  0  0  0
 62138  1  0  0  0
 63 65  1  0  0  0
 63139  1  0  0  0
 63140  1  0  0  0
 63141  1  0  0  0
 64142  1  0  0  0
 65143  1  0  0  0
 68 81  1  0  0  0
 71 72  2  0  0  0
 71 74  1  0  0  0
 71144  1  0  0  0
 72 76  1  0  0  0
 72145  1  0  0  0
 73 74  2  0  0  0
 73 75  1  0  0  0
 73146  1  0  0  0
 74 78  1  0  0  0
 75 76  2  0  0  0
 75 82  1  0  0  0
 76 84  1  0  0  0
 77147  1  0  0  0
 77148  1  0  0  0
 77149  1  0  0  0
 77 83  1  0  0  0
 78 83  1  0  0  0
 78150  1  0  0  0
 78151  1  0  0  0
 79 80  1  0  0  0
 79 81  1  0  0  0
 79152  1  0  0  0
 79153  1  0  0  0
 80 83  1  0  0  0
 80154  1  0  0  0
 80155  1  0  0  0
 81156  1  0  0  0
 81157  1  0  0  0
 82158  1  0  0  0
 83159  1  0  0  0
M  CHG  1  83   1
M  ISO  4   1 100  68 101  81 101  82 100
M  END
> <chiral flag>
0

> <version>
0

> <s_m_source_file>
/data/baiqing/PycharmProjects/Reinvent-master-3.2/result/LINK_invent/BTK/process_docking_weight1_custom_product_contain_oxygen_bond_distance_aromatic_linkinvent_7_9_3/rearranged_h_0022.sdf

> <i_m_source_file_index>
55

> <r_mmod_Potential_Energy-OPLS-2005>
-126.658058166504

> <r_mmod_Stretch_Energy-OPLS-2005>
63.2896575927734

> <r_mmod_Bend_Energy-OPLS-2005>
153.30632019043

> <r_mmod_Torsional_Energy-OPLS-2005>
236.429351806641

> <r_mmod_Improper_Torsional_Energy-OPLS-2005>
2.84957313537598

> <r_mmod_Van_der_Waal_Energy-OPLS-2005>
145.799209594727

> <r_mmod_Electrostatic_Energy-OPLS-2005>
-295.200866699219

> <r_mmod_Solvation_Energy-OPLS-2005>
-459.373229980469

> <b_mmod_Minimization_Converged-OPLS-2005>
0

> <r_mmod_RMS_Derivative-OPLS-2005>
1.47396659851074

$$$$
56
                    3D
 Structure written by MMmdl.
162171  0  0  1  0            999 V2000
  -30.5422  -14.9615   20.3741 C   0  0  0  0  0  0
  -30.4534  -12.5836   19.4940 C   0  0  0  0  0  0
  -29.5319  -12.4424   18.2597 C   0  0  0  0  0  0
  -28.0526  -12.2889   18.6767 C   0  0  0  0  0  0
  -27.6261  -13.2335   19.8344 C   0  0  2  0  0  0
  -28.6778  -13.2912   20.9586 C   0  0  0  0  0  0
  -25.2492  -13.8167   20.5792 C   0  0  0  0  0  0
  -24.1780  -13.0413   20.9244 C   0  0  0  0  0  0
  -24.6368  -11.6896   20.8760 C   0  0  0  0  0  0
  -23.9045  -10.4282   21.0401 C   0  0  0  0  0  0
  -24.3613   -9.4203   21.9176 C   0  0  0  0  0  0
  -23.6294   -8.2236   22.0754 C   0  0  0  0  0  0
  -22.4276   -8.0273   21.3539 C   0  0  0  0  0  0
  -21.9896   -9.0237   20.4638 C   0  0  0  0  0  0
  -22.7218  -10.2120   20.3047 C   0  0  0  0  0  0
  -21.6858   -6.0737   22.5281 C   0  0  0  0  0  0
  -21.4007   -6.5640   23.8210 C   0  0  0  0  0  0
  -21.3660   -5.6792   24.9170 C   0  0  0  0  0  0
  -21.6057   -4.3057   24.7220 C   0  0  0  0  0  0
  -21.8818   -3.8149   23.4340 C   0  0  0  0  0  0
  -21.9192   -4.6967   22.3399 C   0  0  0  0  0  0
  -22.7805  -13.5201   21.1880 C   0  0  0  0  0  0
  -22.1669   -4.2162   21.0973 F   0  0  0  0  0  0
  -21.5631   -3.4536   25.7725 F   0  0  0  0  0  0
  -29.9410  -13.7028   20.3312 N   0  0  0  0  0  0
  -26.2893  -12.9363   20.3314 N   0  0  0  0  0  0
  -25.9306  -11.6512   20.5783 N   0  0  0  0  0  0
  -22.0456  -12.8204   22.0436 N   0  0  0  0  0  0
  -25.4206  -15.1900   20.4301 N   0  0  0  0  0  0
  -31.7743  -14.9908   20.2702 O   0  0  0  0  0  0
  -21.6648   -6.8873   21.4240 O   0  0  0  0  0  0
  -22.3507  -14.5509   20.6709 O   0  0  0  0  0  0
  -24.6405  -31.8468   23.1915 C   0  0  0  0  0  0
  -25.9181  -32.4720   23.8297 C   0  0  1  0  0  0
  -27.2211  -27.1637   20.1588 C   0  0  0  0  0  0
  -25.5940  -33.8528   24.2219 N   0  0  0  0  0  0
  -23.4435  -30.4656   21.5358 C   0  0  2  0  0  0
  -24.8942  -28.8924   20.1162 C   0  0  0  0  0  0
  -22.7549  -29.4560   22.4875 C   0  0  0  0  0  0
  -18.0298  -28.1400   22.8471 C   0  0  0  0  0  0
  -24.1487  -36.7260   23.2638 C   0  0  0  0  0  0
  -25.9961  -30.7299   21.3854 C   0  0  0  0  0  0
  -26.0697  -29.3416   20.7320 C   0  0  0  0  0  0
  -27.2369  -28.4934   20.7345 C   0  0  0  0  0  0
  -26.0233  -26.8089   19.5012 C   0  0  0  0  0  0
  -24.8819  -27.6392   19.4862 C   0  0  0  0  0  0
  -23.6694  -29.7920   20.1561 C   0  0  0  0  0  0
  -25.4120  -36.3056   24.0320 C   0  0  1  0  0  0
  -20.5908  -28.3719   23.1236 C   0  0  2  0  0  0
  -20.6787  -26.9424   22.5397 C   0  0  0  0  0  0
  -19.5763  -26.6384   21.5202 C   0  0  0  0  0  0
  -18.1944  -26.7934   22.1616 C   0  0  0  0  0  0
  -19.1555  -28.8878   23.2847 C   0  0  0  0  0  0
  -18.9473  -30.1467   23.8884 C   0  0  0  0  0  0
  -17.6472  -30.6597   24.0557 C   0  0  0  0  0  0
  -25.9066  -34.9424   23.5081 C   0  0  0  0  0  0
  -16.5362  -29.9092   23.6332 C   0  0  0  0  0  0
  -16.7282  -28.6506   23.0355 C   0  0  0  0  0  0
  -26.4510  -31.6571   25.0719 C   0  0  0  0  0  0
  -25.3699  -31.3766   26.1421 C   0  0  0  0  0  0
  -27.0348  -30.2961   24.6276 C   0  0  0  0  0  0
  -27.6062  -32.4317   25.7502 C   0  0  0  0  0  0
  -27.5580  -37.1785   24.8466 C   0  0  0  0  0  0
  -21.4247  -29.3050   22.3622 N   0  0  0  0  0  0
  -26.4292  -37.3761   23.9410 N   0  0  0  0  0  0
  -24.7128  -31.0345   22.0934 N   0  0  0  0  0  0
  -23.4193  -28.8106   23.3019 O   0  0  0  0  0  0
  -28.2935  -26.2087   20.1859 O   0  0  0  0  0  0
  -26.5656  -34.8914   22.4660 O   0  0  0  0  0  0
  -23.5525  -32.1336   23.7134 O   0  0  0  0  0  0
  -30.1021  -20.0764   19.8366 C   0  0  0  0  0  0
  -30.3853  -18.6556   19.6881 C   0  0  0  0  0  0
  -28.7702  -18.1322   21.3166 C   0  0  0  0  0  0
  -28.4717  -19.5514   21.4654 C   0  0  0  0  0  0
  -29.1171  -20.6172   20.7254 C   0  0  0  0  0  0
  -29.7382  -17.5879   20.4125 C   0  0  0  0  0  0
  -30.6292  -23.3115   21.9611 C   0  0  0  0  0  0
  -30.4492  -23.7383   20.5004 C   0  0  0  0  0  0
  -29.4234  -22.4111   22.2726 C   0  0  0  0  0  0
  -28.9965  -23.3806   20.1922 C   0  0  2  0  0  0
  -27.3660  -19.9158   22.4450 C   0  0  0  0  0  0
  -29.5564  -16.0754   18.5216 C   0  0  0  0  0  0
  -28.0434  -24.7244   20.5503 C   0  0  0  0  0  0
  -28.8213  -22.0572   20.9864 N   0  0  0  0  0  0
  -29.7879  -16.1159   19.9765 N   0  0  0  0  0  0
  -31.4806  -12.7593   19.1718 H   0  0  0  0  0  0
  -30.4778  -11.6564   20.0687 H   0  0  0  0  0  0
  -29.8354  -11.5715   17.6769 H   0  0  0  0  0  0
  -29.6613  -13.2870   17.5865 H   0  0  0  0  0  0
  -27.9276  -11.2535   18.9964 H   0  0  0  0  0  0
  -27.3967  -12.4175   17.8150 H   0  0  0  0  0  0
  -27.5604  -14.2293   19.4069 H   0  0  0  0  0  0
  -28.7741  -12.3262   21.4586 H   0  0  0  0  0  0
  -28.3829  -14.0152   21.7201 H   0  0  0  0  0  0
  -25.2764   -9.5703   22.4741 H   0  0  0  0  0  0
  -24.0025   -7.4633   22.7474 H   0  0  0  0  0  0
  -21.0829   -8.8732   19.8941 H   0  0  0  0  0  0
  -22.3661  -10.9654   19.6154 H   0  0  0  0  0  0
  -21.2003   -7.6145   23.9712 H   0  0  0  0  0  0
  -21.1484   -6.0520   25.9072 H   0  0  0  0  0  0
  -22.0599   -2.7615   23.2825 H   0  0  0  0  0  0
  -22.4094  -11.9893   22.4858 H   0  0  0  0  0  0
  -21.1042  -13.1189   22.2567 H   0  0  0  0  0  0
  -24.6621  -15.8470   20.5761 H   0  0  0  0  0  0
  -26.2862  -15.6355   20.1530 H   0  0  0  0  0  0
  -26.7244  -32.5341   23.1025 H   0  0  0  0  0  0
  -25.0054  -33.9658   25.0344 H   0  0  0  0  0  0
  -22.7438  -31.2903   21.3812 H   0  0  0  0  0  0
  -23.3768  -35.9574   23.3294 H   0  0  0  0  0  0
  -24.3562  -36.8895   22.2052 H   0  0  0  0  0  0
  -23.7222  -37.6446   23.6674 H   0  0  0  0  0  0
  -26.1435  -31.4817   20.6096 H   0  0  0  0  0  0
  -26.8698  -30.7848   22.0234 H   0  0  0  0  0  0
  -28.1371  -28.8349   21.2265 H   0  0  0  0  0  0
  -25.9490  -25.8575   18.9943 H   0  0  0  0  0  0
  -23.9852  -27.2953   18.9902 H   0  0  0  0  0  0
  -23.8041  -30.5658   19.3990 H   0  0  0  0  0  0
  -22.7859  -29.2307   19.8465 H   0  0  0  0  0  0
  -25.1301  -36.1898   25.0812 H   0  0  0  0  0  0
  -20.9990  -28.3303   24.1364 H   0  0  0  0  0  0
  -20.5671  -26.2330   23.3606 H   0  0  0  0  0  0
  -21.6651  -26.7428   22.1200 H   0  0  0  0  0  0
  -19.6924  -25.6286   21.1255 H   0  0  0  0  0  0
  -19.6716  -27.3168   20.6711 H   0  0  0  0  0  0
  -17.4204  -26.6658   21.4029 H   0  0  0  0  0  0
  -18.0367  -26.0089   22.9030 H   0  0  0  0  0  0
  -19.7946  -30.7286   24.2254 H   0  0  0  0  0  0
  -17.5025  -31.6278   24.5156 H   0  0  0  0  0  0
  -15.5361  -30.2996   23.7672 H   0  0  0  0  0  0
  -15.8675  -28.0827   22.7090 H   0  0  0  0  0  0
  -24.5882  -30.7112   25.7732 H   0  0  0  0  0  0
  -24.8881  -32.2950   26.4787 H   0  0  0  0  0  0
  -25.7975  -30.8970   27.0236 H   0  0  0  0  0  0
  -26.2939  -29.6719   24.1267 H   0  0  0  0  0  0
  -27.3931  -29.7237   25.4843 H   0  0  0  0  0  0
  -27.8873  -30.4188   23.9595 H   0  0  0  0  0  0
  -27.2671  -33.3627   26.2061 H   0  0  0  0  0  0
  -28.3890  -32.6863   25.0341 H   0  0  0  0  0  0
  -28.0717  -31.8453   26.5437 H   0  0  0  0  0  0
  -28.2596  -38.0085   24.7513 H   0  0  0  0  0  0
  -28.1080  -36.2613   24.6294 H   0  0  0  0  0  0
  -27.2291  -37.1428   25.8868 H   0  0  0  0  0  0
  -20.9456  -29.8763   21.6805 H   0  0  0  0  0  0
  -26.0168  -38.2832   24.1422 H   0  0  0  0  0  0
  -30.6719  -20.7649   19.2305 H   0  0  0  0  0  0
  -31.1099  -18.3830   18.9350 H   0  0  0  0  0  0
  -28.1719  -17.4313   21.8819 H   0  0  0  0  0  0
  -30.6424  -24.1715   22.6324 H   0  0  0  0  0  0
  -31.5711  -22.7779   22.0916 H   0  0  0  0  0  0
  -31.1122  -23.1533   19.8611 H   0  0  0  0  0  0
  -30.6794  -24.7908   20.3328 H   0  0  0  0  0  0
  -28.6912  -22.9458   22.8807 H   0  0  0  0  0  0
  -29.7422  -21.5508   22.8635 H   0  0  0  0  0  0
  -28.8993  -23.1708   19.1257 H   0  0  0  0  0  0
  -26.7388  -19.0571   22.6854 H   0  0  0  0  0  0
  -26.7158  -20.6845   22.0257 H   0  0  0  0  0  0
  -27.7840  -20.2980   23.3757 H   0  0  0  0  0  0
  -28.9731  -16.9302   18.1740 H   0  0  0  0  0  0
  -28.9945  -15.2077   18.2019 H   0  0  0  0  0  0
  -30.5006  -16.0845   17.9730 H   0  0  0  0  0  0
  -27.9656  -24.7600   21.6365 H   0  0  0  0  0  0
  -27.0394  -24.4557   20.2295 H   0  0  0  0  0  0
  1 25  1  0  0  0
  1 30  2  0  0  0
  1 85  1  0  0  0
  2  3  1  0  0  0
  2 25  1  0  0  0
  2 86  1  0  0  0
  2 87  1  0  0  0
  3  4  1  0  0  0
  3 88  1  0  0  0
  3 89  1  0  0  0
  4  5  1  0  0  0
  4 90  1  0  0  0
  4 91  1  0  0  0
  5  6  1  0  0  0
  5 26  1  0  0  0
  5 92  1  0  0  0
  6 25  1  0  0  0
  6 93  1  0  0  0
  6 94  1  0  0  0
  7  8  2  0  0  0
  7 26  1  0  0  0
  7 29  1  0  0  0
  8  9  1  0  0  0
  8 22  1  0  0  0
  9 10  1  0  0  0
  9 27  2  0  0  0
 10 11  2  0  0  0
 10 15  1  0  0  0
 11 12  1  0  0  0
 11 95  1  0  0  0
 12 13  2  0  0  0
 12 96  1  0  0  0
 13 14  1  0  0  0
 13 31  1  0  0  0
 14 15  2  0  0  0
 14 97  1  0  0  0
 15 98  1  0  0  0
 16 17  2  0  0  0
 16 21  1  0  0  0
 16 31  1  0  0  0
 17 18  1  0  0  0
 17 99  1  0  0  0
 18 19  2  0  0  0
 18100  1  0  0  0
 19 20  1  0  0  0
 19 24  1  0  0  0
 20 21  2  0  0  0
 20101  1  0  0  0
 21 23  1  0  0  0
 22 28  1  0  0  0
 22 32  2  0  0  0
 26 27  1  0  0  0
 28102  1  0  0  0
 28103  1  0  0  0
 29104  1  0  0  0
 29105  1  0  0  0
 33 34  1  0  0  0
 33 66  1  0  0  0
 33 70  2  0  0  0
 34 36  1  0  0  0
 34 59  1  0  0  0
 34106  1  0  0  0
 35 44  2  0  0  0
 35 45  1  0  0  0
 35 68  1  0  0  0
 36 56  1  0  0  0
 36107  1  0  0  0
 37 39  1  0  0  0
 37 47  1  0  0  0
 37 66  1  0  0  0
 37108  1  0  0  0
 38 43  2  0  0  0
 38 46  1  0  0  0
 38 47  1  0  0  0
 39 64  1  0  0  0
 39 67  2  0  0  0
 40 52  1  0  0  0
 40 53  2  0  0  0
 40 58  1  0  0  0
 41109  1  0  0  0
 41110  1  0  0  0
 41111  1  0  0  0
 41 48  1  0  0  0
 42 43  1  0  0  0
 42 66  1  0  0  0
 42112  1  0  0  0
 42113  1  0  0  0
 43 44  1  0  0  0
 44114  1  0  0  0
 45 46  2  0  0  0
 45115  1  0  0  0
 46116  1  0  0  0
 47117  1  0  0  0
 47118  1  0  0  0
 48 56  1  0  0  0
 48 65  1  0  0  0
 48119  1  0  0  0
 49 50  1  0  0  0
 49 53  1  0  0  0
 49 64  1  0  0  0
 49120  1  0  0  0
 50 51  1  0  0  0
 50121  1  0  0  0
 50122  1  0  0  0
 51 52  1  0  0  0
 51123  1  0  0  0
 51124  1  0  0  0
 52125  1  0  0  0
 52126  1  0  0  0
 53 54  1  0  0  0
 54 55  2  0  0  0
 54127  1  0  0  0
 55 57  1  0  0  0
 55128  1  0  0  0
 56 69  2  0  0  0
 57 58  2  0  0  0
 57129  1  0  0  0
 58130  1  0  0  0
 59 60  1  0  0  0
 59 61  1  0  0  0
 59 62  1  0  0  0
 60131  1  0  0  0
 60132  1  0  0  0
 60133  1  0  0  0
 61134  1  0  0  0
 61135  1  0  0  0
 61136  1  0  0  0
 62137  1  0  0  0
 62138  1  0  0  0
 62139  1  0  0  0
 63 65  1  0  0  0
 63140  1  0  0  0
 63141  1  0  0  0
 63142  1  0  0  0
 64143  1  0  0  0
 65144  1  0  0  0
 68 83  1  0  0  0
 71 72  2  0  0  0
 71 75  1  0  0  0
 71145  1  0  0  0
 72 76  1  0  0  0
 72146  1  0  0  0
 73 74  1  0  0  0
 73 76  2  0  0  0
 73147  1  0  0  0
 74 75  2  0  0  0
 74 81  1  0  0  0
 75 84  1  0  0  0
 76 85  1  0  0  0
 77 78  1  0  0  0
 77 79  1  0  0  0
 77148  1  0  0  0
 77149  1  0  0  0
 78 80  1  0  0  0
 78150  1  0  0  0
 78151  1  0  0  0
 79 84  1  0  0  0
 79152  1  0  0  0
 79153  1  0  0  0
 80 83  1  0  0  0
 80 84  1  0  0  0
 80154  1  0  0  0
 81155  1  0  0  0
 81156  1  0  0  0
 81157  1  0  0  0
 82 85  1  0  0  0
 82158  1  0  0  0
 82159  1  0  0  0
 82160  1  0  0  0
 83161  1  0  0  0
 83162  1  0  0  0
M  ISO  4   1 100  68 101  83 101  85 100
M  END
> <chiral flag>
0

> <version>
0

> <s_m_source_file>
/data/baiqing/PycharmProjects/Reinvent-master-3.2/result/LINK_invent/BTK/process_docking_weight1_custom_product_contain_oxygen_bond_distance_aromatic_linkinvent_7_9_3/rearranged_h_0022.sdf

> <i_m_source_file_index>
56

> <r_mmod_Potential_Energy-OPLS-2005>
774.242980957031

> <r_mmod_Stretch_Energy-OPLS-2005>
222.821502685547

> <r_mmod_Bend_Energy-OPLS-2005>
305.410247802734

> <r_mmod_Torsional_Energy-OPLS-2005>
413.574798583984

> <r_mmod_Improper_Torsional_Energy-OPLS-2005>
30.6150875091553

> <r_mmod_Van_der_Waal_Energy-OPLS-2005>
138.99382019043

> <r_mmod_Electrostatic_Energy-OPLS-2005>
-326.286590576172

> <r_mmod_Solvation_Energy-OPLS-2005>
-200.682464599609

> <b_mmod_Minimization_Converged-OPLS-2005>
0

> <r_mmod_RMS_Derivative-OPLS-2005>
1.87168872356415

$$$$
57
                    3D
 Structure written by MMmdl.
165174  0  0  1  0            999 V2000
  -30.7539  -14.4692   20.6210 C   0  0  0  0  0  0
  -30.4112  -12.3284   19.4234 C   0  0  0  0  0  0
  -29.4864  -12.5102   18.2047 C   0  0  0  0  0  0
  -28.0135  -12.3434   18.6203 C   0  0  0  0  0  0
  -27.6520  -13.1981   19.8615 C   0  0  2  0  0  0
  -28.6955  -13.0229   20.9911 C   0  0  0  0  0  0
  -25.2572  -13.8143   20.5669 C   0  0  0  0  0  0
  -24.1822  -13.0433   20.9184 C   0  0  0  0  0  0
  -24.6360  -11.6894   20.8731 C   0  0  0  0  0  0
  -23.9025  -10.4291   21.0403 C   0  0  0  0  0  0
  -24.3587   -9.4211   21.9180 C   0  0  0  0  0  0
  -23.6274   -8.2243   22.0754 C   0  0  0  0  0  0
  -22.4257   -8.0277   21.3541 C   0  0  0  0  0  0
  -21.9891   -9.0243   20.4637 C   0  0  0  0  0  0
  -22.7206  -10.2128   20.3044 C   0  0  0  0  0  0
  -21.6845   -6.0728   22.5278 C   0  0  0  0  0  0
  -21.4007   -6.5632   23.8210 C   0  0  0  0  0  0
  -21.3660   -5.6787   24.9174 C   0  0  0  0  0  0
  -21.6047   -4.3051   24.7226 C   0  0  0  0  0  0
  -21.8823   -3.8143   23.4345 C   0  0  0  0  0  0
  -21.9192   -4.6958   22.3398 C   0  0  0  0  0  0
  -22.7852  -13.5246   21.1847 C   0  0  0  0  0  0
  -22.1661   -4.2144   21.0977 F   0  0  0  0  0  0
  -21.5633   -3.4538   25.7740 F   0  0  0  0  0  0
  -30.0294  -13.3235   20.4426 N   0  0  0  0  0  0
  -26.2968  -12.9279   20.3304 N   0  0  0  0  0  0
  -25.9274  -11.6456   20.5739 N   0  0  0  0  0  0
  -22.0486  -12.8242   22.0397 N   0  0  0  0  0  0
  -25.4306  -15.1861   20.4067 N   0  0  0  0  0  0
  -31.8460  -14.6390   20.0683 O   0  0  0  0  0  0
  -21.6631   -6.8868   21.4236 O   0  0  0  0  0  0
  -22.3552  -14.5558   20.6697 O   0  0  0  0  0  0
  -24.6164  -31.8674   23.2100 C   0  0  0  0  0  0
  -25.9052  -32.4813   23.8403 C   0  0  1  0  0  0
  -27.2302  -27.4250   20.0980 C   0  0  0  0  0  0
  -25.5910  -33.8615   24.2336 N   0  0  0  0  0  0
  -23.4050  -30.4921   21.5503 C   0  0  2  0  0  0
  -24.8520  -28.9608   20.1109 C   0  0  0  0  0  0
  -22.7420  -29.4656   22.4974 C   0  0  0  0  0  0
  -18.0280  -28.1370   22.8485 C   0  0  0  0  0  0
  -24.1489  -36.7312   23.2641 C   0  0  0  0  0  0
  -25.9362  -30.8297   21.3662 C   0  0  0  0  0  0
  -26.0133  -29.4654   20.7111 C   0  0  0  0  0  0
  -27.2083  -28.7057   20.7004 C   0  0  0  0  0  0
  -26.0580  -26.9522   19.4679 C   0  0  0  0  0  0
  -24.8697  -27.7044   19.4840 C   0  0  0  0  0  0
  -23.6141  -29.8268   20.1641 C   0  0  0  0  0  0
  -25.4111  -36.3107   24.0340 C   0  0  1  0  0  0
  -20.5870  -28.3665   23.1306 C   0  0  2  0  0  0
  -20.6769  -26.9398   22.5409 C   0  0  0  0  0  0
  -19.5744  -26.6379   21.5207 C   0  0  0  0  0  0
  -18.1927  -26.7913   22.1624 C   0  0  0  0  0  0
  -19.1527  -28.8835   23.2887 C   0  0  0  0  0  0
  -18.9454  -30.1444   23.8888 C   0  0  0  0  0  0
  -17.6455  -30.6574   24.0567 C   0  0  0  0  0  0
  -25.9040  -34.9471   23.5134 C   0  0  0  0  0  0
  -16.5348  -29.9074   23.6321 C   0  0  0  0  0  0
  -16.7271  -28.6499   23.0330 C   0  0  0  0  0  0
  -26.4481  -31.6586   25.0726 C   0  0  0  0  0  0
  -25.3743  -31.3631   26.1458 C   0  0  0  0  0  0
  -27.0353  -30.3051   24.6093 C   0  0  0  0  0  0
  -27.6049  -32.4307   25.7492 C   0  0  0  0  0  0
  -27.5583  -37.1805   24.8466 C   0  0  0  0  0  0
  -21.4146  -29.3036   22.3711 N   0  0  0  0  0  0
  -26.4294  -37.3799   23.9419 N   0  0  0  0  0  0
  -24.6709  -31.0771   22.1006 N   0  0  0  0  0  0
  -23.4183  -28.8193   23.3018 O   0  0  0  0  0  0
  -28.3703  -26.6456   20.1187 O   0  0  0  0  0  0
  -26.5599  -34.8917   22.4693 O   0  0  0  0  0  0
  -23.5348  -32.1436   23.7481 O   0  0  0  0  0  0
  -29.7431  -18.2772   19.8145 C   0  0  0  0  0  0
  -29.8592  -19.6716   19.6263 C   0  0  0  0  0  0
  -29.2386  -18.6529   22.1542 C   0  0  0  0  0  0
  -29.4084  -17.7528   21.0794 C   0  0  0  0  0  0
  -29.3686  -20.0540   21.9798 C   0  0  0  0  0  0
  -29.6645  -20.5832   20.6889 C   0  0  0  0  0  0
  -30.5425  -24.2105   20.5873 C   0  0  0  0  0  0
  -30.8435  -22.7508   20.9760 C   0  0  0  0  0  0
  -28.5865  -22.7937   20.3158 C   0  0  0  0  0  0
  -29.0920  -24.2323   20.0621 C   0  0  1  0  0  0
  -29.1864  -20.9251   23.2150 C   0  0  0  0  0  0
  -31.2699  -15.9319   22.4888 C   0  0  0  0  0  0
  -29.1472  -16.2481   21.2607 C   0  0  0  0  0  0
  -28.1863  -25.3276   20.6825 C   0  0  0  0  0  0
  -29.7807  -21.9586   20.3799 N   0  0  0  0  0  0
  -30.3094  -15.3736   21.5315 N   0  0  0  0  0  0
  -31.4554  -12.4148   19.1180 H   0  0  0  0  0  0
  -30.3088  -11.3218   19.8327 H   0  0  0  0  0  0
  -29.7396  -11.7877   17.4278 H   0  0  0  0  0  0
  -29.6376  -13.4981   17.7660 H   0  0  0  0  0  0
  -27.8455  -11.2872   18.8336 H   0  0  0  0  0  0
  -27.3554  -12.5923   17.7865 H   0  0  0  0  0  0
  -27.6712  -14.2285   19.5180 H   0  0  0  0  0  0
  -28.6790  -11.9980   21.3645 H   0  0  0  0  0  0
  -28.4408  -13.6455   21.8485 H   0  0  0  0  0  0
  -25.2730   -9.5707   22.4751 H   0  0  0  0  0  0
  -23.9992   -7.4643   22.7479 H   0  0  0  0  0  0
  -21.0829   -8.8747   19.8937 H   0  0  0  0  0  0
  -22.3657  -10.9660   19.6151 H   0  0  0  0  0  0
  -21.1993   -7.6140   23.9711 H   0  0  0  0  0  0
  -21.1477   -6.0515   25.9077 H   0  0  0  0  0  0
  -22.0600   -2.7605   23.2845 H   0  0  0  0  0  0
  -22.4086  -11.9894   22.4784 H   0  0  0  0  0  0
  -21.1100  -13.1272   22.2586 H   0  0  0  0  0  0
  -24.6654  -15.8423   20.5168 H   0  0  0  0  0  0
  -26.2799  -15.6239   20.0754 H   0  0  0  0  0  0
  -26.7124  -32.5529   23.1170 H   0  0  0  0  0  0
  -25.0077  -33.9779   25.0492 H   0  0  0  0  0  0
  -22.6943  -31.3090   21.4110 H   0  0  0  0  0  0
  -23.3758  -35.9637   23.3289 H   0  0  0  0  0  0
  -24.3581  -36.8955   22.2057 H   0  0  0  0  0  0
  -23.7225  -37.6504   23.6675 H   0  0  0  0  0  0
  -26.0511  -31.5959   20.5980 H   0  0  0  0  0  0
  -26.8239  -30.8821   21.9847 H   0  0  0  0  0  0
  -28.1030  -29.0868   21.1727 H   0  0  0  0  0  0
  -26.0585  -25.9968   18.9620 H   0  0  0  0  0  0
  -23.9815  -27.3155   19.0050 H   0  0  0  0  0  0
  -23.7223  -30.6031   19.4056 H   0  0  0  0  0  0
  -22.7390  -29.2457   19.8670 H   0  0  0  0  0  0
  -25.1280  -36.1976   25.0833 H   0  0  0  0  0  0
  -20.9962  -28.3236   24.1425 H   0  0  0  0  0  0
  -20.5685  -26.2268   23.3594 H   0  0  0  0  0  0
  -21.6638  -26.7439   22.1199 H   0  0  0  0  0  0
  -19.6907  -25.6296   21.1222 H   0  0  0  0  0  0
  -19.6675  -27.3193   20.6739 H   0  0  0  0  0  0
  -17.4196  -26.6656   21.4027 H   0  0  0  0  0  0
  -18.0327  -26.0049   22.9014 H   0  0  0  0  0  0
  -19.7933  -30.7263   24.2238 H   0  0  0  0  0  0
  -17.5014  -31.6242   24.5192 H   0  0  0  0  0  0
  -15.5348  -30.2977   23.7644 H   0  0  0  0  0  0
  -15.8675  -28.0829   22.7017 H   0  0  0  0  0  0
  -24.5943  -30.6968   25.7757 H   0  0  0  0  0  0
  -24.8899  -32.2752   26.4948 H   0  0  0  0  0  0
  -25.8107  -30.8757   27.0186 H   0  0  0  0  0  0
  -26.2906  -29.6750   24.1220 H   0  0  0  0  0  0
  -27.4237  -29.7338   25.4534 H   0  0  0  0  0  0
  -27.8680  -30.4411   23.9187 H   0  0  0  0  0  0
  -27.2686  -33.3617   26.2065 H   0  0  0  0  0  0
  -28.3859  -32.6845   25.0312 H   0  0  0  0  0  0
  -28.0715  -31.8427   26.5405 H   0  0  0  0  0  0
  -28.2573  -38.0132   24.7579 H   0  0  0  0  0  0
  -28.1112  -36.2667   24.6235 H   0  0  0  0  0  0
  -27.2295  -37.1382   25.8865 H   0  0  0  0  0  0
  -20.9306  -29.8788   21.6957 H   0  0  0  0  0  0
  -26.0178  -38.2872   24.1451 H   0  0  0  0  0  0
  -29.8819  -17.6164   18.9704 H   0  0  0  0  0  0
  -30.0945  -20.0450   18.6395 H   0  0  0  0  0  0
  -28.9852  -18.2616   23.1301 H   0  0  0  0  0  0
  -31.2235  -24.5484   19.8050 H   0  0  0  0  0  0
  -30.6872  -24.8742   21.4414 H   0  0  0  0  0  0
  -30.8531  -22.6421   22.0596 H   0  0  0  0  0  0
  -31.8206  -22.4341   20.6064 H   0  0  0  0  0  0
  -27.9199  -22.4660   19.5167 H   0  0  0  0  0  0
  -28.0190  -22.7441   21.2439 H   0  0  0  0  0  0
  -29.1166  -24.3776   18.9807 H   0  0  0  0  0  0
  -28.4800  -20.4676   23.9079 H   0  0  0  0  0  0
  -28.8126  -21.9200   22.9925 H   0  0  0  0  0  0
  -30.1373  -21.0341   23.7354 H   0  0  0  0  0  0
  -30.7591  -16.3465   23.3584 H   0  0  0  0  0  0
  -31.8646  -16.7231   22.0287 H   0  0  0  0  0  0
  -31.9584  -15.1664   22.8522 H   0  0  0  0  0  0
  -28.6408  -15.9249   20.3546 H   0  0  0  0  0  0
  -28.4223  -16.1085   22.0639 H   0  0  0  0  0  0
  -28.3658  -25.3891   21.7566 H   0  0  0  0  0  0
  -27.1571  -24.9816   20.5977 H   0  0  0  0  0  0
  1 25  1  0  0  0
  1 30  2  0  0  0
  1 86  1  0  0  0
  2  3  1  0  0  0
  2 25  1  0  0  0
  2 87  1  0  0  0
  2 88  1  0  0  0
  3  4  1  0  0  0
  3 89  1  0  0  0
  3 90  1  0  0  0
  4  5  1  0  0  0
  4 91  1  0  0  0
  4 92  1  0  0  0
  5  6  1  0  0  0
  5 26  1  0  0  0
  5 93  1  0  0  0
  6 25  1  0  0  0
  6 94  1  0  0  0
  6 95  1  0  0  0
  7  8  2  0  0  0
  7 26  1  0  0  0
  7 29  1  0  0  0
  8  9  1  0  0  0
  8 22  1  0  0  0
  9 10  1  0  0  0
  9 27  2  0  0  0
 10 11  2  0  0  0
 10 15  1  0  0  0
 11 12  1  0  0  0
 11 96  1  0  0  0
 12 13  2  0  0  0
 12 97  1  0  0  0
 13 14  1  0  0  0
 13 31  1  0  0  0
 14 15  2  0  0  0
 14 98  1  0  0  0
 15 99  1  0  0  0
 16 17  2  0  0  0
 16 21  1  0  0  0
 16 31  1  0  0  0
 17 18  1  0  0  0
 17100  1  0  0  0
 18 19  2  0  0  0
 18101  1  0  0  0
 19 20  1  0  0  0
 19 24  1  0  0  0
 20 21  2  0  0  0
 20102  1  0  0  0
 21 23  1  0  0  0
 22 28  1  0  0  0
 22 32  2  0  0  0
 26 27  1  0  0  0
 28103  1  0  0  0
 28104  1  0  0  0
 29105  1  0  0  0
 29106  1  0  0  0
 33 34  1  0  0  0
 33 66  1  0  0  0
 33 70  2  0  0  0
 34 36  1  0  0  0
 34 59  1  0  0  0
 34107  1  0  0  0
 35 44  2  0  0  0
 35 45  1  0  0  0
 35 68  1  0  0  0
 36 56  1  0  0  0
 36108  1  0  0  0
 37 39  1  0  0  0
 37 47  1  0  0  0
 37 66  1  0  0  0
 37109  1  0  0  0
 38 43  2  0  0  0
 38 46  1  0  0  0
 38 47  1  0  0  0
 39 64  1  0  0  0
 39 67  2  0  0  0
 40 52  1  0  0  0
 40 53  2  0  0  0
 40 58  1  0  0  0
 41110  1  0  0  0
 41111  1  0  0  0
 41112  1  0  0  0
 41 48  1  0  0  0
 42 43  1  0  0  0
 42 66  1  0  0  0
 42113  1  0  0  0
 42114  1  0  0  0
 43 44  1  0  0  0
 44115  1  0  0  0
 45 46  2  0  0  0
 45116  1  0  0  0
 46117  1  0  0  0
 47118  1  0  0  0
 47119  1  0  0  0
 48 56  1  0  0  0
 48 65  1  0  0  0
 48120  1  0  0  0
 49 50  1  0  0  0
 49 53  1  0  0  0
 49 64  1  0  0  0
 49121  1  0  0  0
 50 51  1  0  0  0
 50122  1  0  0  0
 50123  1  0  0  0
 51 52  1  0  0  0
 51124  1  0  0  0
 51125  1  0  0  0
 52126  1  0  0  0
 52127  1  0  0  0
 53 54  1  0  0  0
 54 55  2  0  0  0
 54128  1  0  0  0
 55 57  1  0  0  0
 55129  1  0  0  0
 56 69  2  0  0  0
 57 58  2  0  0  0
 57130  1  0  0  0
 58131  1  0  0  0
 59 60  1  0  0  0
 59 61  1  0  0  0
 59 62  1  0  0  0
 60132  1  0  0  0
 60133  1  0  0  0
 60134  1  0  0  0
 61135  1  0  0  0
 61136  1  0  0  0
 61137  1  0  0  0
 62138  1  0  0  0
 62139  1  0  0  0
 62140  1  0  0  0
 63 65  1  0  0  0
 63141  1  0  0  0
 63142  1  0  0  0
 63143  1  0  0  0
 64144  1  0  0  0
 65145  1  0  0  0
 68 84  1  0  0  0
 71 72  2  0  0  0
 71 74  1  0  0  0
 71146  1  0  0  0
 72 76  1  0  0  0
 72147  1  0  0  0
 73 74  2  0  0  0
 73 75  1  0  0  0
 73148  1  0  0  0
 74 83  1  0  0  0
 75 76  2  0  0  0
 75 81  1  0  0  0
 76 85  1  0  0  0
 77 78  1  0  0  0
 77 80  1  0  0  0
 77149  1  0  0  0
 77150  1  0  0  0
 78 85  1  0  0  0
 78151  1  0  0  0
 78152  1  0  0  0
 79 80  1  0  0  0
 79 85  1  0  0  0
 79153  1  0  0  0
 79154  1  0  0  0
 80 84  1  0  0  0
 80155  1  0  0  0
 81156  1  0  0  0
 81157  1  0  0  0
 81158  1  0  0  0
 82 86  1  0  0  0
 82159  1  0  0  0
 82160  1  0  0  0
 82161  1  0  0  0
 83 86  1  0  0  0
 83162  1  0  0  0
 83163  1  0  0  0
 84164  1  0  0  0
 84165  1  0  0  0
M  ISO  4   1 100  68 101  84 101  86 100
M  END
> <chiral flag>
0

> <version>
0

> <s_m_source_file>
/data/baiqing/PycharmProjects/Reinvent-master-3.2/result/LINK_invent/BTK/process_docking_weight1_custom_product_contain_oxygen_bond_distance_aromatic_linkinvent_7_9_3/rearranged_h_0022.sdf

> <i_m_source_file_index>
57

> <r_mmod_Potential_Energy-OPLS-2005>
178.796829223633

> <r_mmod_Stretch_Energy-OPLS-2005>
41.9339485168457

> <r_mmod_Bend_Energy-OPLS-2005>
132.971343994141

> <r_mmod_Torsional_Energy-OPLS-2005>
374.905029296875

> <r_mmod_Improper_Torsional_Energy-OPLS-2005>
8.48319435119629

> <r_mmod_Van_der_Waal_Energy-OPLS-2005>
149.791107177734

> <r_mmod_Electrostatic_Energy-OPLS-2005>
-333.708435058594

> <r_mmod_Solvation_Energy-OPLS-2005>
-210.220611572266

> <b_mmod_Minimization_Converged-OPLS-2005>
0

> <r_mmod_RMS_Derivative-OPLS-2005>
1.19893598556519

$$$$
58
                    3D
 Structure written by MMmdl.
165174  0  0  1  0            999 V2000
  -30.6372  -14.7208   20.3512 C   0  0  0  0  0  0
  -30.4459  -12.3919   19.4945 C   0  0  0  0  0  0
  -29.5288  -12.3294   18.2532 C   0  0  0  0  0  0
  -28.0293  -12.3072   18.6409 C   0  0  0  0  0  0
  -27.6387  -13.2177   19.8444 C   0  0  2  0  0  0
  -28.6976  -13.1868   20.9638 C   0  0  0  0  0  0
  -25.2532  -13.8154   20.5730 C   0  0  0  0  0  0
  -24.1801  -13.0436   20.9239 C   0  0  0  0  0  0
  -24.6373  -11.6912   20.8784 C   0  0  0  0  0  0
  -23.9057  -10.4301   21.0425 C   0  0  0  0  0  0
  -24.3617   -9.4214   21.9191 C   0  0  0  0  0  0
  -23.6298   -8.2242   22.0746 C   0  0  0  0  0  0
  -22.4285   -8.0276   21.3525 C   0  0  0  0  0  0
  -21.9927   -9.0256   20.4636 C   0  0  0  0  0  0
  -22.7243  -10.2146   20.3061 C   0  0  0  0  0  0
  -21.6863   -6.0740   22.5271 C   0  0  0  0  0  0
  -21.4024   -6.5645   23.8202 C   0  0  0  0  0  0
  -21.3675   -5.6791   24.9159 C   0  0  0  0  0  0
  -21.6053   -4.3053   24.7207 C   0  0  0  0  0  0
  -21.8821   -3.8150   23.4323 C   0  0  0  0  0  0
  -21.9198   -4.6970   22.3389 C   0  0  0  0  0  0
  -22.7833  -13.5244   21.1868 C   0  0  0  0  0  0
  -22.1657   -4.2164   21.0962 F   0  0  0  0  0  0
  -21.5638   -3.4534   25.7714 F   0  0  0  0  0  0
  -29.9891  -13.5065   20.3441 N   0  0  0  0  0  0
  -26.2947  -12.9319   20.3343 N   0  0  0  0  0  0
  -25.9302  -11.6492   20.5842 N   0  0  0  0  0  0
  -22.0464  -12.8246   22.0418 N   0  0  0  0  0  0
  -25.4242  -15.1872   20.4128 N   0  0  0  0  0  0
  -31.8662  -14.7552   20.2642 O   0  0  0  0  0  0
  -21.6636   -6.8880   21.4230 O   0  0  0  0  0  0
  -22.3536  -14.5549   20.6698 O   0  0  0  0  0  0
  -24.6236  -31.8598   23.1978 C   0  0  0  0  0  0
  -25.9073  -32.4790   23.8320 C   0  0  1  0  0  0
  -27.2388  -27.3222   20.1290 C   0  0  0  0  0  0
  -25.5880  -33.8589   24.2251 N   0  0  0  0  0  0
  -23.4160  -30.4805   21.5418 C   0  0  2  0  0  0
  -24.8656  -28.9264   20.1133 C   0  0  0  0  0  0
  -22.7431  -29.4637   22.4943 C   0  0  0  0  0  0
  -18.0267  -28.1380   22.8513 C   0  0  0  0  0  0
  -24.1471  -36.7297   23.2645 C   0  0  0  0  0  0
  -25.9537  -30.7979   21.3587 C   0  0  0  0  0  0
  -26.0307  -29.4197   20.7112 C   0  0  0  0  0  0
  -27.2164  -28.6296   20.7085 C   0  0  0  0  0  0
  -26.0443  -26.8696   19.5213 C   0  0  0  0  0  0
  -24.8740  -27.6570   19.5107 C   0  0  0  0  0  0
  -23.6271  -29.8016   20.1606 C   0  0  0  0  0  0
  -25.4104  -36.3091   24.0326 C   0  0  1  0  0  0
  -20.5872  -28.3677   23.1299 C   0  0  2  0  0  0
  -20.6765  -26.9395   22.5423 C   0  0  0  0  0  0
  -19.5735  -26.6374   21.5225 C   0  0  0  0  0  0
  -18.1912  -26.7925   22.1637 C   0  0  0  0  0  0
  -19.1528  -28.8840   23.2910 C   0  0  0  0  0  0
  -18.9456  -30.1452   23.8908 C   0  0  0  0  0  0
  -17.6463  -30.6597   24.0556 C   0  0  0  0  0  0
  -25.9032  -34.9466   23.5099 C   0  0  0  0  0  0
  -16.5352  -29.9095   23.6333 C   0  0  0  0  0  0
  -16.7258  -28.6503   23.0364 C   0  0  0  0  0  0
  -26.4450  -31.6609   25.0694 C   0  0  0  0  0  0
  -25.3666  -31.3788   26.1411 C   0  0  0  0  0  0
  -27.0275  -30.3033   24.6123 C   0  0  0  0  0  0
  -27.5998  -32.4348   25.7479 C   0  0  0  0  0  0
  -27.5564  -37.1805   24.8464 C   0  0  0  0  0  0
  -21.4147  -29.3038   22.3677 N   0  0  0  0  0  0
  -26.4279  -37.3791   23.9412 N   0  0  0  0  0  0
  -24.6835  -31.0635   22.0905 N   0  0  0  0  0  0
  -23.4168  -28.8172   23.3020 O   0  0  0  0  0  0
  -28.3969  -26.5340   20.2096 O   0  0  0  0  0  0
  -26.5628  -34.8942   22.4679 O   0  0  0  0  0  0
  -23.5410  -32.1347   23.7358 O   0  0  0  0  0  0
  -28.4135  -18.9979   21.3210 C   0  0  0  0  0  0
  -28.7142  -17.6169   21.1287 C   0  0  0  0  0  0
  -30.4437  -19.6089   20.2092 C   0  0  0  0  0  0
  -30.7763  -18.2265   20.0381 C   0  0  0  0  0  0
  -29.2349  -20.0460   20.8141 C   0  0  0  0  0  0
  -29.8762  -17.1837   20.4400 C   0  0  0  0  0  0
  -27.4511  -23.3608   21.3115 C   0  0  0  0  0  0
  -27.8053  -21.9310   21.7894 C   0  0  0  0  0  0
  -29.2969  -22.5638   20.0389 C   0  0  0  0  0  0
  -28.7181  -23.9082   20.6404 C   0  0  1  0  0  0
  -32.0821  -17.9032   19.3299 C   0  0  0  0  0  0
  -28.8973  -16.9631   17.7896 C   0  0  0  0  0  0
  -28.5203  -25.1625   19.6649 C   0  0  0  0  0  0
  -29.6782  -15.7859   18.4169 C   0  0  0  0  0  0
  -28.8704  -21.4405   20.9136 N   0  0  0  0  0  0
  -29.9128  -15.8191   19.8859 N   0  0  0  0  0  0
  -31.4863  -12.5099   19.1878 H   0  0  0  0  0  0
  -30.4024  -11.4579   20.0558 H   0  0  0  0  0  0
  -29.7578  -11.4172   17.7002 H   0  0  0  0  0  0
  -29.7633  -13.1219   17.5490 H   0  0  0  0  0  0
  -27.7945  -11.2718   18.8865 H   0  0  0  0  0  0
  -27.4149  -12.5475   17.7714 H   0  0  0  0  0  0
  -27.5977  -14.2369   19.4740 H   0  0  0  0  0  0
  -28.7288  -12.2085   21.4459 H   0  0  0  0  0  0
  -28.4550  -13.9142   21.7399 H   0  0  0  0  0  0
  -25.2762   -9.5710   22.4768 H   0  0  0  0  0  0
  -24.0028   -7.4648   22.7472 H   0  0  0  0  0  0
  -21.0855   -8.8760   19.8946 H   0  0  0  0  0  0
  -22.3680  -10.9681   19.6173 H   0  0  0  0  0  0
  -21.1999   -7.6151   23.9716 H   0  0  0  0  0  0
  -21.1509   -6.0505   25.9066 H   0  0  0  0  0  0
  -22.0587   -2.7617   23.2795 H   0  0  0  0  0  0
  -22.4075  -11.9914   22.4819 H   0  0  0  0  0  0
  -21.1073  -13.1250   22.2598 H   0  0  0  0  0  0
  -24.6555  -15.8415   20.5113 H   0  0  0  0  0  0
  -26.2725  -15.6207   20.0723 H   0  0  0  0  0  0
  -26.7154  -32.5448   23.1087 H   0  0  0  0  0  0
  -24.9975  -33.9748   25.0358 H   0  0  0  0  0  0
  -22.7095  -31.3011   21.3954 H   0  0  0  0  0  0
  -23.3731  -35.9630   23.3311 H   0  0  0  0  0  0
  -24.3564  -36.8905   22.2057 H   0  0  0  0  0  0
  -23.7224  -37.6504   23.6663 H   0  0  0  0  0  0
  -26.0656  -31.5545   20.5809 H   0  0  0  0  0  0
  -26.8428  -30.8655   21.9743 H   0  0  0  0  0  0
  -28.1111  -29.0116   21.1812 H   0  0  0  0  0  0
  -25.9714  -25.8898   19.0771 H   0  0  0  0  0  0
  -23.9746  -27.2672   19.0559 H   0  0  0  0  0  0
  -23.7316  -30.5693   19.3925 H   0  0  0  0  0  0
  -22.7483  -29.2206   19.8715 H   0  0  0  0  0  0
  -25.1294  -36.1932   25.0819 H   0  0  0  0  0  0
  -21.0006  -28.3260   24.1405 H   0  0  0  0  0  0
  -20.5655  -26.2288   23.3630 H   0  0  0  0  0  0
  -21.6636  -26.7411   22.1216 H   0  0  0  0  0  0
  -19.6887  -25.6278   21.1249 H   0  0  0  0  0  0
  -19.6680  -27.3196   20.6762 H   0  0  0  0  0  0
  -17.4185  -26.6678   21.4029 H   0  0  0  0  0  0
  -18.0306  -26.0069   22.9032 H   0  0  0  0  0  0
  -19.7939  -30.7264   24.2284 H   0  0  0  0  0  0
  -17.5018  -31.6281   24.5151 H   0  0  0  0  0  0
  -15.5355  -30.3006   23.7658 H   0  0  0  0  0  0
  -15.8647  -28.0823   22.7095 H   0  0  0  0  0  0
  -24.5859  -30.7103   25.7757 H   0  0  0  0  0  0
  -24.8831  -32.2984   26.4729 H   0  0  0  0  0  0
  -25.7974  -30.9051   27.0238 H   0  0  0  0  0  0
  -26.2842  -29.6830   24.1093 H   0  0  0  0  0  0
  -27.3925  -29.7251   25.4622 H   0  0  0  0  0  0
  -27.8727  -30.4334   23.9357 H   0  0  0  0  0  0
  -27.2589  -33.3679   26.1986 H   0  0  0  0  0  0
  -28.3853  -32.6849   25.0333 H   0  0  0  0  0  0
  -28.0589  -31.8492   26.5454 H   0  0  0  0  0  0
  -28.2599  -38.0085   24.7507 H   0  0  0  0  0  0
  -28.1039  -36.2622   24.6296 H   0  0  0  0  0  0
  -27.2285  -37.1464   25.8867 H   0  0  0  0  0  0
  -20.9295  -29.8749   21.6884 H   0  0  0  0  0  0
  -26.0142  -38.2857   24.1424 H   0  0  0  0  0  0
  -27.4846  -19.2294   21.8209 H   0  0  0  0  0  0
  -27.9822  -16.8844   21.4393 H   0  0  0  0  0  0
  -31.1331  -20.3538   19.8409 H   0  0  0  0  0  0
  -27.1020  -23.9914   22.1296 H   0  0  0  0  0  0
  -26.6449  -23.3047   20.5798 H   0  0  0  0  0  0
  -26.9174  -21.2974   21.7809 H   0  0  0  0  0  0
  -28.1839  -21.9574   22.8129 H   0  0  0  0  0  0
  -30.3822  -22.6126   19.9465 H   0  0  0  0  0  0
  -28.8942  -22.3975   19.0377 H   0  0  0  0  0  0
  -29.4049  -24.2171   21.4303 H   0  0  0  0  0  0
  -32.6544  -17.1656   19.8902 H   0  0  0  0  0  0
  -32.7125  -18.7867   19.2318 H   0  0  0  0  0  0
  -31.9039  -17.5182   18.3274 H   0  0  0  0  0  0
  -28.6523  -16.7373   16.7505 H   0  0  0  0  0  0
  -29.4707  -17.8891   17.7736 H   0  0  0  0  0  0
  -27.9544  -17.1477   18.3065 H   0  0  0  0  0  0
  -27.7822  -24.9362   18.9004 H   0  0  0  0  0  0
  -29.4497  -25.2200   19.0969 H   0  0  0  0  0  0
  -30.6236  -15.6504   17.8872 H   0  0  0  0  0  0
  -29.0685  -14.9307   18.1760 H   0  0  0  0  0  0
  1 25  1  0  0  0
  1 30  2  0  0  0
  1 86  1  0  0  0
  2  3  1  0  0  0
  2 25  1  0  0  0
  2 87  1  0  0  0
  2 88  1  0  0  0
  3  4  1  0  0  0
  3 89  1  0  0  0
  3 90  1  0  0  0
  4  5  1  0  0  0
  4 91  1  0  0  0
  4 92  1  0  0  0
  5  6  1  0  0  0
  5 26  1  0  0  0
  5 93  1  0  0  0
  6 25  1  0  0  0
  6 94  1  0  0  0
  6 95  1  0  0  0
  7  8  2  0  0  0
  7 26  1  0  0  0
  7 29  1  0  0  0
  8  9  1  0  0  0
  8 22  1  0  0  0
  9 10  1  0  0  0
  9 27  2  0  0  0
 10 11  2  0  0  0
 10 15  1  0  0  0
 11 12  1  0  0  0
 11 96  1  0  0  0
 12 13  2  0  0  0
 12 97  1  0  0  0
 13 14  1  0  0  0
 13 31  1  0  0  0
 14 15  2  0  0  0
 14 98  1  0  0  0
 15 99  1  0  0  0
 16 17  2  0  0  0
 16 21  1  0  0  0
 16 31  1  0  0  0
 17 18  1  0  0  0
 17100  1  0  0  0
 18 19  2  0  0  0
 18101  1  0  0  0
 19 20  1  0  0  0
 19 24  1  0  0  0
 20 21  2  0  0  0
 20102  1  0  0  0
 21 23  1  0  0  0
 22 28  1  0  0  0
 22 32  2  0  0  0
 26 27  1  0  0  0
 28103  1  0  0  0
 28104  1  0  0  0
 29105  1  0  0  0
 29106  1  0  0  0
 33 34  1  0  0  0
 33 66  1  0  0  0
 33 70  2  0  0  0
 34 36  1  0  0  0
 34 59  1  0  0  0
 34107  1  0  0  0
 35 44  2  0  0  0
 35 45  1  0  0  0
 35 68  1  0  0  0
 36 56  1  0  0  0
 36108  1  0  0  0
 37 39  1  0  0  0
 37 47  1  0  0  0
 37 66  1  0  0  0
 37109  1  0  0  0
 38 43  2  0  0  0
 38 46  1  0  0  0
 38 47  1  0  0  0
 39 64  1  0  0  0
 39 67  2  0  0  0
 40 52  1  0  0  0
 40 53  2  0  0  0
 40 58  1  0  0  0
 41110  1  0  0  0
 41111  1  0  0  0
 41112  1  0  0  0
 41 48  1  0  0  0
 42 43  1  0  0  0
 42 66  1  0  0  0
 42113  1  0  0  0
 42114  1  0  0  0
 43 44  1  0  0  0
 44115  1  0  0  0
 45 46  2  0  0  0
 45116  1  0  0  0
 46117  1  0  0  0
 47118  1  0  0  0
 47119  1  0  0  0
 48 56  1  0  0  0
 48 65  1  0  0  0
 48120  1  0  0  0
 49 50  1  0  0  0
 49 53  1  0  0  0
 49 64  1  0  0  0
 49121  1  0  0  0
 50 51  1  0  0  0
 50122  1  0  0  0
 50123  1  0  0  0
 51 52  1  0  0  0
 51124  1  0  0  0
 51125  1  0  0  0
 52126  1  0  0  0
 52127  1  0  0  0
 53 54  1  0  0  0
 54 55  2  0  0  0
 54128  1  0  0  0
 55 57  1  0  0  0
 55129  1  0  0  0
 56 69  2  0  0  0
 57 58  2  0  0  0
 57130  1  0  0  0
 58131  1  0  0  0
 59 60  1  0  0  0
 59 61  1  0  0  0
 59 62  1  0  0  0
 60132  1  0  0  0
 60133  1  0  0  0
 60134  1  0  0  0
 61135  1  0  0  0
 61136  1  0  0  0
 61137  1  0  0  0
 62138  1  0  0  0
 62139  1  0  0  0
 62140  1  0  0  0
 63 65  1  0  0  0
 63141  1  0  0  0
 63142  1  0  0  0
 63143  1  0  0  0
 64144  1  0  0  0
 65145  1  0  0  0
 68 83  1  0  0  0
 71 72  2  0  0  0
 71 75  1  0  0  0
 71146  1  0  0  0
 72 76  1  0  0  0
 72147  1  0  0  0
 73 74  1  0  0  0
 73 75  2  0  0  0
 73148  1  0  0  0
 74 76  2  0  0  0
 74 81  1  0  0  0
 75 85  1  0  0  0
 76 86  1  0  0  0
 77 78  1  0  0  0
 77 80  1  0  0  0
 77149  1  0  0  0
 77150  1  0  0  0
 78 85  1  0  0  0
 78151  1  0  0  0
 78152  1  0  0  0
 79 80  1  0  0  0
 79 85  1  0  0  0
 79153  1  0  0  0
 79154  1  0  0  0
 80 83  1  0  0  0
 80155  1  0  0  0
 81156  1  0  0  0
 81157  1  0  0  0
 81158  1  0  0  0
 82 84  1  0  0  0
 82159  1  0  0  0
 82160  1  0  0  0
 82161  1  0  0  0
 83162  1  0  0  0
 83163  1  0  0  0
 84 86  1  0  0  0
 84164  1  0  0  0
 84165  1  0  0  0
M  ISO  4   1 100  68 101  83 101  86 100
M  END
> <chiral flag>
0

> <version>
0

> <s_m_source_file>
/data/baiqing/PycharmProjects/Reinvent-master-3.2/result/LINK_invent/BTK/process_docking_weight1_custom_product_contain_oxygen_bond_distance_aromatic_linkinvent_7_9_3/rearranged_h_0022.sdf

> <i_m_source_file_index>
58

> <r_mmod_Potential_Energy-OPLS-2005>
438.6044921875

> <r_mmod_Stretch_Energy-OPLS-2005>
88.8640518188477

> <r_mmod_Bend_Energy-OPLS-2005>
212.00959777832

> <r_mmod_Torsional_Energy-OPLS-2005>
389.388336181641

> <r_mmod_Improper_Torsional_Energy-OPLS-2005>
24.679105758667

> <r_mmod_Van_der_Waal_Energy-OPLS-2005>
144.290100097656

> <r_mmod_Electrostatic_Energy-OPLS-2005>
-293.337097167969

> <r_mmod_Solvation_Energy-OPLS-2005>
-205.506301879883

> <b_mmod_Minimization_Converged-OPLS-2005>
0

> <r_mmod_RMS_Derivative-OPLS-2005>
2.82731413841248

$$$$
59
                    3D
 Structure written by MMmdl.
155163  0  0  1  0            999 V2000
  -30.5094  -14.9019   20.4393 C   0  0  0  0  0  0
  -30.4554  -12.5556   19.4880 C   0  0  0  0  0  0
  -29.5268  -12.5301   18.2499 C   0  0  0  0  0  0
  -28.0551  -12.3229   18.6619 C   0  0  0  0  0  0
  -27.6394  -13.2340   19.8458 C   0  0  2  0  0  0
  -28.6834  -13.2038   20.9831 C   0  0  0  0  0  0
  -25.2516  -13.8183   20.5697 C   0  0  0  0  0  0
  -24.1811  -13.0436   20.9229 C   0  0  0  0  0  0
  -24.6397  -11.6913   20.8747 C   0  0  0  0  0  0
  -23.9066  -10.4294   21.0410 C   0  0  0  0  0  0
  -24.3617   -9.4208   21.9186 C   0  0  0  0  0  0
  -23.6293   -8.2243   22.0757 C   0  0  0  0  0  0
  -22.4275   -8.0281   21.3547 C   0  0  0  0  0  0
  -21.9908   -9.0255   20.4649 C   0  0  0  0  0  0
  -22.7237  -10.2135   20.3060 C   0  0  0  0  0  0
  -21.6854   -6.0733   22.5279 C   0  0  0  0  0  0
  -21.4013   -6.5638   23.8211 C   0  0  0  0  0  0
  -21.3660   -5.6791   24.9174 C   0  0  0  0  0  0
  -21.6044   -4.3053   24.7223 C   0  0  0  0  0  0
  -21.8819   -3.8146   23.4344 C   0  0  0  0  0  0
  -21.9193   -4.6962   22.3401 C   0  0  0  0  0  0
  -22.7831  -13.5226   21.1874 C   0  0  0  0  0  0
  -22.1662   -4.2146   21.0978 F   0  0  0  0  0  0
  -21.5629   -3.4538   25.7737 F   0  0  0  0  0  0
  -29.9683  -13.6217   20.4028 N   0  0  0  0  0  0
  -26.2927  -12.9385   20.3238 N   0  0  0  0  0  0
  -25.9323  -11.6530   20.5717 N   0  0  0  0  0  0
  -22.0463  -12.8224   22.0424 N   0  0  0  0  0  0
  -25.4206  -15.1903   20.4094 N   0  0  0  0  0  0
  -31.6971  -15.0481   20.1285 O   0  0  0  0  0  0
  -21.6640   -6.8878   21.4242 O   0  0  0  0  0  0
  -22.3522  -14.5529   20.6709 O   0  0  0  0  0  0
  -24.6415  -31.8458   23.1899 C   0  0  0  0  0  0
  -25.9195  -32.4703   23.8281 C   0  0  1  0  0  0
  -27.2193  -27.1574   20.1520 C   0  0  0  0  0  0
  -25.5949  -33.8510   24.2197 N   0  0  0  0  0  0
  -23.4442  -30.4649   21.5359 C   0  0  2  0  0  0
  -24.8938  -28.8931   20.1143 C   0  0  0  0  0  0
  -22.7561  -29.4548   22.4877 C   0  0  0  0  0  0
  -18.0301  -28.1401   22.8482 C   0  0  0  0  0  0
  -24.1492  -36.7261   23.2641 C   0  0  0  0  0  0
  -25.9988  -30.7256   21.3868 C   0  0  0  0  0  0
  -26.0705  -29.3376   20.7312 C   0  0  0  0  0  0
  -27.2364  -28.4864   20.7314 C   0  0  0  0  0  0
  -26.0200  -26.8116   19.4924 C   0  0  0  0  0  0
  -24.8797  -27.6423   19.4797 C   0  0  0  0  0  0
  -23.6700  -29.7935   20.1555 C   0  0  0  0  0  0
  -25.4124  -36.3038   24.0316 C   0  0  1  0  0  0
  -20.5915  -28.3716   23.1253 C   0  0  2  0  0  0
  -20.6786  -26.9421   22.5413 C   0  0  0  0  0  0
  -19.5762  -26.6382   21.5219 C   0  0  0  0  0  0
  -18.1940  -26.7942   22.1621 C   0  0  0  0  0  0
  -19.1560  -28.8876   23.2858 C   0  0  0  0  0  0
  -18.9474  -30.1474   23.8882 C   0  0  0  0  0  0
  -17.6472  -30.6592   24.0572 C   0  0  0  0  0  0
  -25.9071  -34.9412   23.5064 C   0  0  0  0  0  0
  -16.5363  -29.9088   23.6344 C   0  0  0  0  0  0
  -16.7286  -28.6511   23.0354 C   0  0  0  0  0  0
  -26.4524  -31.6567   25.0715 C   0  0  0  0  0  0
  -25.3712  -31.3751   26.1412 C   0  0  0  0  0  0
  -27.0384  -30.2966   24.6284 C   0  0  0  0  0  0
  -27.6055  -32.4333   25.7497 C   0  0  0  0  0  0
  -27.5576  -37.1788   24.8464 C   0  0  0  0  0  0
  -21.4255  -29.3042   22.3628 N   0  0  0  0  0  0
  -26.4289  -37.3749   23.9404 N   0  0  0  0  0  0
  -24.7144  -31.0329   22.0928 N   0  0  0  0  0  0
  -23.4216  -28.8095   23.3018 O   0  0  0  0  0  0
  -28.2843  -26.1924   20.1780 O   0  0  0  0  0  0
  -26.5654  -34.8907   22.4641 O   0  0  0  0  0  0
  -23.5537  -32.1328   23.7128 O   0  0  0  0  0  0
  -30.5359  -18.5055   20.3763 C   0  0  0  0  0  0
  -30.2707  -19.9451   20.3945 C   0  0  0  0  0  0
  -28.2442  -18.1142   20.7300 C   0  0  0  0  0  0
  -27.9576  -19.5365   20.7347 C   0  0  0  0  0  0
  -29.5261  -17.5007   20.5696 C   0  0  0  0  0  0
  -28.9770  -20.5540   20.5964 C   0  0  0  0  0  0
  -28.5924  -22.1667   22.3374 C   0  0  0  0  0  0
  -28.9482  -23.3446   20.1492 C   0  0  0  0  0  0
  -28.0129  -24.7004   20.5041 C   0  0  0  0  0  0
  -26.4902  -19.9286   20.9521 C   0  0  0  0  0  0
  -29.6160  -15.9750   20.6571 N   0  0  0  0  0  0
  -28.7188  -21.9959   20.8908 N   0  0  0  0  0  0
  -25.6661  -18.9544   20.5602 F   0  0  0  0  0  0
  -26.2681  -20.1460   22.2493 F   0  0  0  0  0  0
  -26.1425  -21.0175   20.2644 F   0  0  0  0  0  0
  -31.4866  -12.7310   19.1774 H   0  0  0  0  0  0
  -30.4551  -11.5884   19.9932 H   0  0  0  0  0  0
  -29.8370  -11.7432   17.5608 H   0  0  0  0  0  0
  -29.6232  -13.4694   17.7031 H   0  0  0  0  0  0
  -27.9366  -11.2766   18.9449 H   0  0  0  0  0  0
  -27.3956  -12.4835   17.8080 H   0  0  0  0  0  0
  -27.6186  -14.2466   19.4431 H   0  0  0  0  0  0
  -28.7585  -12.2053   21.4166 H   0  0  0  0  0  0
  -28.3874  -13.8663   21.7982 H   0  0  0  0  0  0
  -25.2763   -9.5682   22.4759 H   0  0  0  0  0  0
  -23.9999   -7.4633   22.7475 H   0  0  0  0  0  0
  -21.0837   -8.8769   19.8956 H   0  0  0  0  0  0
  -22.3691  -10.9671   19.6169 H   0  0  0  0  0  0
  -21.2005   -7.6146   23.9713 H   0  0  0  0  0  0
  -21.1485   -6.0522   25.9076 H   0  0  0  0  0  0
  -22.0598   -2.7607   23.2843 H   0  0  0  0  0  0
  -22.4072  -11.9894   22.4831 H   0  0  0  0  0  0
  -21.1077  -13.1250   22.2615 H   0  0  0  0  0  0
  -24.6424  -15.8333   20.5058 H   0  0  0  0  0  0
  -26.2279  -15.6125   19.9729 H   0  0  0  0  0  0
  -26.7262  -32.5320   23.1012 H   0  0  0  0  0  0
  -25.0081  -33.9627   25.0335 H   0  0  0  0  0  0
  -22.7455  -31.2900   21.3827 H   0  0  0  0  0  0
  -23.3756  -35.9589   23.3292 H   0  0  0  0  0  0
  -24.3577  -36.8902   22.2057 H   0  0  0  0  0  0
  -23.7244  -37.6454   23.6683 H   0  0  0  0  0  0
  -26.1522  -31.4798   20.6135 H   0  0  0  0  0  0
  -26.8705  -30.7765   22.0272 H   0  0  0  0  0  0
  -28.1360  -28.8239   21.2267 H   0  0  0  0  0  0
  -25.9433  -25.8652   18.9782 H   0  0  0  0  0  0
  -23.9845  -27.3006   18.9787 H   0  0  0  0  0  0
  -23.8067  -30.5680   19.4001 H   0  0  0  0  0  0
  -22.7856  -29.2347   19.8445 H   0  0  0  0  0  0
  -25.1313  -36.1869   25.0808 H   0  0  0  0  0  0
  -21.0007  -28.3302   24.1373 H   0  0  0  0  0  0
  -20.5683  -26.2326   23.3627 H   0  0  0  0  0  0
  -21.6655  -26.7435   22.1211 H   0  0  0  0  0  0
  -19.6920  -25.6288   21.1260 H   0  0  0  0  0  0
  -19.6714  -27.3184   20.6745 H   0  0  0  0  0  0
  -17.4217  -26.6707   21.4010 H   0  0  0  0  0  0
  -18.0316  -26.0083   22.9012 H   0  0  0  0  0  0
  -19.7950  -30.7296   24.2244 H   0  0  0  0  0  0
  -17.5026  -31.6270   24.5180 H   0  0  0  0  0  0
  -15.5363  -30.2985   23.7681 H   0  0  0  0  0  0
  -15.8686  -28.0829   22.7068 H   0  0  0  0  0  0
  -24.5895  -30.7096   25.7732 H   0  0  0  0  0  0
  -24.8897  -32.2931   26.4792 H   0  0  0  0  0  0
  -25.7999  -30.8954   27.0220 H   0  0  0  0  0  0
  -26.2996  -29.6692   24.1286 H   0  0  0  0  0  0
  -27.3996  -29.7263   25.4852 H   0  0  0  0  0  0
  -27.8906  -30.4204   23.9597 H   0  0  0  0  0  0
  -27.2646  -33.3646   26.2033 H   0  0  0  0  0  0
  -28.3886  -32.6875   25.0342 H   0  0  0  0  0  0
  -28.0702  -31.8489   26.5448 H   0  0  0  0  0  0
  -28.2591  -38.0089   24.7513 H   0  0  0  0  0  0
  -28.1078  -36.2618   24.6294 H   0  0  0  0  0  0
  -27.2293  -37.1438   25.8867 H   0  0  0  0  0  0
  -20.9462  -29.8750   21.6808 H   0  0  0  0  0  0
  -26.0156  -38.2816   24.1410 H   0  0  0  0  0  0
  -31.5593  -18.1816   20.2465 H   0  0  0  0  0  0
  -31.1215  -20.6046   20.3051 H   0  0  0  0  0  0
  -27.4082  -17.4509   20.8888 H   0  0  0  0  0  0
  -28.8497  -21.2666   22.8996 H   0  0  0  0  0  0
  -27.5688  -22.4389   22.5988 H   0  0  0  0  0  0
  -29.2484  -22.9623   22.6946 H   0  0  0  0  0  0
  -29.9905  -23.6142   20.3236 H   0  0  0  0  0  0
  -28.8806  -23.1539   19.0775 H   0  0  0  0  0  0
  -27.9181  -24.7200   21.5890 H   0  0  0  0  0  0
  -27.0105  -24.4448   20.1677 H   0  0  0  0  0  0
  -28.7218  -15.5723   20.8906 H   0  0  0  0  0  0
  1 25  1  0  0  0
  1 30  2  0  0  0
  1 81  1  0  0  0
  2  3  1  0  0  0
  2 25  1  0  0  0
  2 86  1  0  0  0
  2 87  1  0  0  0
  3  4  1  0  0  0
  3 88  1  0  0  0
  3 89  1  0  0  0
  4  5  1  0  0  0
  4 90  1  0  0  0
  4 91  1  0  0  0
  5  6  1  0  0  0
  5 26  1  0  0  0
  5 92  1  0  0  0
  6 25  1  0  0  0
  6 93  1  0  0  0
  6 94  1  0  0  0
  7  8  2  0  0  0
  7 26  1  0  0  0
  7 29  1  0  0  0
  8  9  1  0  0  0
  8 22  1  0  0  0
  9 10  1  0  0  0
  9 27  2  0  0  0
 10 11  2  0  0  0
 10 15  1  0  0  0
 11 12  1  0  0  0
 11 95  1  0  0  0
 12 13  2  0  0  0
 12 96  1  0  0  0
 13 14  1  0  0  0
 13 31  1  0  0  0
 14 15  2  0  0  0
 14 97  1  0  0  0
 15 98  1  0  0  0
 16 17  2  0  0  0
 16 21  1  0  0  0
 16 31  1  0  0  0
 17 18  1  0  0  0
 17 99  1  0  0  0
 18 19  2  0  0  0
 18100  1  0  0  0
 19 20  1  0  0  0
 19 24  1  0  0  0
 20 21  2  0  0  0
 20101  1  0  0  0
 21 23  1  0  0  0
 22 28  1  0  0  0
 22 32  2  0  0  0
 26 27  1  0  0  0
 28102  1  0  0  0
 28103  1  0  0  0
 29104  1  0  0  0
 29105  1  0  0  0
 33 34  1  0  0  0
 33 66  1  0  0  0
 33 70  2  0  0  0
 34 36  1  0  0  0
 34 59  1  0  0  0
 34106  1  0  0  0
 35 44  2  0  0  0
 35 45  1  0  0  0
 35 68  1  0  0  0
 36 56  1  0  0  0
 36107  1  0  0  0
 37 39  1  0  0  0
 37 47  1  0  0  0
 37 66  1  0  0  0
 37108  1  0  0  0
 38 43  2  0  0  0
 38 46  1  0  0  0
 38 47  1  0  0  0
 39 64  1  0  0  0
 39 67  2  0  0  0
 40 52  1  0  0  0
 40 53  2  0  0  0
 40 58  1  0  0  0
 41109  1  0  0  0
 41110  1  0  0  0
 41111  1  0  0  0
 41 48  1  0  0  0
 42 43  1  0  0  0
 42 66  1  0  0  0
 42112  1  0  0  0
 42113  1  0  0  0
 43 44  1  0  0  0
 44114  1  0  0  0
 45 46  2  0  0  0
 45115  1  0  0  0
 46116  1  0  0  0
 47117  1  0  0  0
 47118  1  0  0  0
 48 56  1  0  0  0
 48 65  1  0  0  0
 48119  1  0  0  0
 49 50  1  0  0  0
 49 53  1  0  0  0
 49 64  1  0  0  0
 49120  1  0  0  0
 50 51  1  0  0  0
 50121  1  0  0  0
 50122  1  0  0  0
 51 52  1  0  0  0
 51123  1  0  0  0
 51124  1  0  0  0
 52125  1  0  0  0
 52126  1  0  0  0
 53 54  1  0  0  0
 54 55  2  0  0  0
 54127  1  0  0  0
 55 57  1  0  0  0
 55128  1  0  0  0
 56 69  2  0  0  0
 57 58  2  0  0  0
 57129  1  0  0  0
 58130  1  0  0  0
 59 60  1  0  0  0
 59 61  1  0  0  0
 59 62  1  0  0  0
 60131  1  0  0  0
 60132  1  0  0  0
 60133  1  0  0  0
 61134  1  0  0  0
 61135  1  0  0  0
 61136  1  0  0  0
 62137  1  0  0  0
 62138  1  0  0  0
 62139  1  0  0  0
 63 65  1  0  0  0
 63140  1  0  0  0
 63141  1  0  0  0
 63142  1  0  0  0
 64143  1  0  0  0
 65144  1  0  0  0
 68 79  1  0  0  0
 71 72  2  0  0  0
 71 75  1  0  0  0
 71145  1  0  0  0
 72 76  1  0  0  0
 72146  1  0  0  0
 73 74  1  0  0  0
 73 75  2  0  0  0
 73147  1  0  0  0
 74 76  2  0  0  0
 74 80  1  0  0  0
 75 81  1  0  0  0
 76 82  1  0  0  0
 77 82  1  0  0  0
 77148  1  0  0  0
 77149  1  0  0  0
 77150  1  0  0  0
 78 79  1  0  0  0
 78 82  1  0  0  0
 78151  1  0  0  0
 78152  1  0  0  0
 79153  1  0  0  0
 79154  1  0  0  0
 80 83  1  0  0  0
 80 84  1  0  0  0
 80 85  1  0  0  0
 81155  1  0  0  0
M  ISO  4   1 100  68 101  79 101  81 100
M  END
> <chiral flag>
0

> <version>
0

> <s_m_source_file>
/data/baiqing/PycharmProjects/Reinvent-master-3.2/result/LINK_invent/BTK/process_docking_weight1_custom_product_contain_oxygen_bond_distance_aromatic_linkinvent_7_9_3/rearranged_h_0022.sdf

> <i_m_source_file_index>
59

> <r_mmod_Potential_Energy-OPLS-2005>
563.706481933594

> <r_mmod_Stretch_Energy-OPLS-2005>
214.04753112793

> <r_mmod_Bend_Energy-OPLS-2005>
275.889984130859

> <r_mmod_Torsional_Energy-OPLS-2005>
250.689682006836

> <r_mmod_Improper_Torsional_Energy-OPLS-2005>
7.26006126403809

> <r_mmod_Van_der_Waal_Energy-OPLS-2005>
135.463470458984

> <r_mmod_Electrostatic_Energy-OPLS-2005>
-274.515319824219

> <r_mmod_Solvation_Energy-OPLS-2005>
-211.466552734375

> <b_mmod_Minimization_Converged-OPLS-2005>
0

> <r_mmod_RMS_Derivative-OPLS-2005>
0.665967881679535

$$$$
60
                    3D
 Structure written by MMmdl.
158167  0  0  1  0            999 V2000
  -30.6198  -14.7061   20.3620 C   0  0  0  0  0  0
  -30.4379  -12.3960   19.4641 C   0  0  0  0  0  0
  -29.5013  -12.3707   18.2337 C   0  0  0  0  0  0
  -28.0204  -12.2845   18.6524 C   0  0  0  0  0  0
  -27.6391  -13.2180   19.8347 C   0  0  2  0  0  0
  -28.6933  -13.1786   20.9604 C   0  0  0  0  0  0
  -25.2535  -13.8178   20.5723 C   0  0  0  0  0  0
  -24.1801  -13.0442   20.9207 C   0  0  0  0  0  0
  -24.6375  -11.6916   20.8771 C   0  0  0  0  0  0
  -23.9056  -10.4294   21.0422 C   0  0  0  0  0  0
  -24.3613   -9.4207   21.9192 C   0  0  0  0  0  0
  -23.6292   -8.2240   22.0754 C   0  0  0  0  0  0
  -22.4275   -8.0280   21.3544 C   0  0  0  0  0  0
  -21.9910   -9.0255   20.4647 C   0  0  0  0  0  0
  -22.7235  -10.2136   20.3065 C   0  0  0  0  0  0
  -21.6852   -6.0736   22.5280 C   0  0  0  0  0  0
  -21.4013   -6.5638   23.8214 C   0  0  0  0  0  0
  -21.3659   -5.6791   24.9176 C   0  0  0  0  0  0
  -21.6044   -4.3055   24.7227 C   0  0  0  0  0  0
  -21.8818   -3.8146   23.4348 C   0  0  0  0  0  0
  -21.9191   -4.6963   22.3403 C   0  0  0  0  0  0
  -22.7825  -13.5234   21.1860 C   0  0  0  0  0  0
  -22.1660   -4.2148   21.0982 F   0  0  0  0  0  0
  -21.5629   -3.4540   25.7741 F   0  0  0  0  0  0
  -29.9903  -13.4871   20.3498 N   0  0  0  0  0  0
  -26.2943  -12.9362   20.3292 N   0  0  0  0  0  0
  -25.9303  -11.6523   20.5812 N   0  0  0  0  0  0
  -22.0469  -12.8226   22.0416 N   0  0  0  0  0  0
  -25.4269  -15.1898   20.4196 N   0  0  0  0  0  0
  -31.8513  -14.7680   20.3023 O   0  0  0  0  0  0
  -21.6639   -6.8879   21.4241 O   0  0  0  0  0  0
  -22.3508  -14.5538   20.6705 O   0  0  0  0  0  0
  -24.6247  -31.8593   23.2007 C   0  0  0  0  0  0
  -25.9098  -32.4777   23.8340 C   0  0  1  0  0  0
  -27.2267  -27.3248   20.1350 C   0  0  0  0  0  0
  -25.5919  -33.8576   24.2276 N   0  0  0  0  0  0
  -23.4187  -30.4803   21.5425 C   0  0  2  0  0  0
  -24.8673  -28.9285   20.1159 C   0  0  0  0  0  0
  -22.7466  -29.4619   22.4935 C   0  0  0  0  0  0
  -18.0283  -28.1382   22.8484 C   0  0  0  0  0  0
  -24.1489  -36.7294   23.2639 C   0  0  0  0  0  0
  -25.9567  -30.7947   21.3677 C   0  0  0  0  0  0
  -26.0339  -29.4193   20.7169 C   0  0  0  0  0  0
  -27.2203  -28.6303   20.7112 C   0  0  0  0  0  0
  -26.0424  -26.8757   19.5175 C   0  0  0  0  0  0
  -24.8727  -27.6623   19.5059 C   0  0  0  0  0  0
  -23.6345  -29.8084   20.1597 C   0  0  0  0  0  0
  -25.4114  -36.3083   24.0329 C   0  0  1  0  0  0
  -20.5881  -28.3684   23.1287 C   0  0  2  0  0  0
  -20.6772  -26.9408   22.5410 C   0  0  0  0  0  0
  -19.5750  -26.6383   21.5210 C   0  0  0  0  0  0
  -18.1930  -26.7923   22.1622 C   0  0  0  0  0  0
  -19.1534  -28.8849   23.2882 C   0  0  0  0  0  0
  -18.9460  -30.1452   23.8896 C   0  0  0  0  0  0
  -17.6461  -30.6585   24.0562 C   0  0  0  0  0  0
  -25.9046  -34.9453   23.5102 C   0  0  0  0  0  0
  -16.5352  -29.9084   23.6327 C   0  0  0  0  0  0
  -16.7270  -28.6502   23.0346 C   0  0  0  0  0  0
  -26.4491  -31.6582   25.0705 C   0  0  0  0  0  0
  -25.3736  -31.3717   26.1439 C   0  0  0  0  0  0
  -27.0329  -30.3009   24.6139 C   0  0  0  0  0  0
  -27.6053  -32.4312   25.7479 C   0  0  0  0  0  0
  -27.5578  -37.1804   24.8464 C   0  0  0  0  0  0
  -21.4179  -29.3039   22.3682 N   0  0  0  0  0  0
  -26.4291  -37.3778   23.9406 N   0  0  0  0  0  0
  -24.6854  -31.0616   22.0946 N   0  0  0  0  0  0
  -23.4192  -28.8165   23.3018 O   0  0  0  0  0  0
  -28.3505  -26.4945   20.1361 O   0  0  0  0  0  0
  -26.5615  -34.8920   22.4668 O   0  0  0  0  0  0
  -23.5414  -32.1384   23.7343 O   0  0  0  0  0  0
  -30.0152  -19.4231   20.8251 C   0  0  0  0  0  0
  -27.9535  -18.9475   19.6997 C   0  0  0  0  0  0
  -30.3529  -18.0241   20.7957 C   0  0  0  0  0  0
  -28.2808  -17.5671   19.6771 C   0  0  0  0  0  0
  -28.8224  -19.9419   20.2305 C   0  0  0  0  0  0
  -29.5063  -17.0593   20.1773 C   0  0  0  0  0  0
  -29.0266  -22.5174   20.5944 C   0  0  0  0  0  0
  -27.3029  -23.3164   19.1510 C   0  0  0  0  0  0
  -27.4542  -21.7841   19.0920 C   0  0  0  0  0  0
  -28.5221  -23.8409   19.9069 C   0  0  1  0  0  0
  -30.0528  -15.7106   18.2652 C   0  0  0  0  0  0
  -28.2435  -25.1584   20.7672 C   0  0  0  0  0  0
  -28.4861  -21.3783   20.0549 N   0  0  0  0  0  0
  -29.9061  -15.7165   19.7336 N   0  0  0  0  0  0
  -29.8439  -22.5426   21.5197 O   0  0  0  0  0  0
  -31.4736  -12.5273   19.1445 H   0  0  0  0  0  0
  -30.4021  -11.4444   19.9965 H   0  0  0  0  0  0
  -29.7493  -11.5105   17.6103 H   0  0  0  0  0  0
  -29.6574  -13.2298   17.5904 H   0  0  0  0  0  0
  -27.8394  -11.2474   18.9357 H   0  0  0  0  0  0
  -27.3731  -12.4758   17.7959 H   0  0  0  0  0  0
  -27.6234  -14.2286   19.4288 H   0  0  0  0  0  0
  -28.7166  -12.2017   21.4450 H   0  0  0  0  0  0
  -28.4525  -13.9105   21.7336 H   0  0  0  0  0  0
  -25.2756   -9.5684   22.4770 H   0  0  0  0  0  0
  -24.0004   -7.4627   22.7468 H   0  0  0  0  0  0
  -21.0845   -8.8774   19.8949 H   0  0  0  0  0  0
  -22.3696  -10.9677   19.6177 H   0  0  0  0  0  0
  -21.2005   -7.6147   23.9718 H   0  0  0  0  0  0
  -21.1481   -6.0521   25.9079 H   0  0  0  0  0  0
  -22.0598   -2.7610   23.2849 H   0  0  0  0  0  0
  -22.4085  -11.9895   22.4817 H   0  0  0  0  0  0
  -21.1085  -13.1250   22.2617 H   0  0  0  0  0  0
  -24.6717  -15.8523   20.5578 H   0  0  0  0  0  0
  -26.3040  -15.6308   20.1780 H   0  0  0  0  0  0
  -26.7164  -32.5458   23.1092 H   0  0  0  0  0  0
  -25.0078  -33.9722   25.0428 H   0  0  0  0  0  0
  -22.7119  -31.2996   21.3959 H   0  0  0  0  0  0
  -23.3748  -35.9630   23.3304 H   0  0  0  0  0  0
  -24.3581  -36.8911   22.2053 H   0  0  0  0  0  0
  -23.7245  -37.6499   23.6655 H   0  0  0  0  0  0
  -26.0815  -31.5552   20.5956 H   0  0  0  0  0  0
  -26.8395  -30.8503   21.9932 H   0  0  0  0  0  0
  -28.1201  -29.0052   21.1789 H   0  0  0  0  0  0
  -26.0198  -25.9049   19.0447 H   0  0  0  0  0  0
  -23.9788  -27.2807   19.0320 H   0  0  0  0  0  0
  -23.7542  -30.5810   19.3993 H   0  0  0  0  0  0
  -22.7554  -29.2358   19.8588 H   0  0  0  0  0  0
  -25.1295  -36.1933   25.0821 H   0  0  0  0  0  0
  -20.9978  -28.3259   24.1407 H   0  0  0  0  0  0
  -20.5669  -26.2294   23.3607 H   0  0  0  0  0  0
  -21.6643  -26.7437   22.1210 H   0  0  0  0  0  0
  -19.6913  -25.6295   21.1238 H   0  0  0  0  0  0
  -19.6691  -27.3192   20.6740 H   0  0  0  0  0  0
  -17.4200  -26.6666   21.4024 H   0  0  0  0  0  0
  -18.0336  -26.0066   22.9021 H   0  0  0  0  0  0
  -19.7937  -30.7266   24.2267 H   0  0  0  0  0  0
  -17.5015  -31.6264   24.5163 H   0  0  0  0  0  0
  -15.5351  -30.2987   23.7650 H   0  0  0  0  0  0
  -15.8672  -28.0823   22.7059 H   0  0  0  0  0  0
  -24.5910  -30.7063   25.7776 H   0  0  0  0  0  0
  -24.8931  -32.2884   26.4867 H   0  0  0  0  0  0
  -25.8077  -30.8898   27.0209 H   0  0  0  0  0  0
  -26.2895  -29.6767   24.1166 H   0  0  0  0  0  0
  -27.4039  -29.7255   25.4631 H   0  0  0  0  0  0
  -27.8757  -30.4300   23.9345 H   0  0  0  0  0  0
  -27.2659  -33.3605   26.2067 H   0  0  0  0  0  0
  -28.3863  -32.6883   25.0311 H   0  0  0  0  0  0
  -28.0718  -31.8428   26.5391 H   0  0  0  0  0  0
  -28.2601  -38.0096   24.7505 H   0  0  0  0  0  0
  -28.1070  -36.2628   24.6299 H   0  0  0  0  0  0
  -27.2295  -37.1464   25.8868 H   0  0  0  0  0  0
  -20.9353  -29.8765   21.6898 H   0  0  0  0  0  0
  -26.0173  -38.2853   24.1404 H   0  0  0  0  0  0
  -30.7337  -20.1082   21.2520 H   0  0  0  0  0  0
  -27.0211  -19.2233   19.2315 H   0  0  0  0  0  0
  -31.3203  -17.7171   21.1676 H   0  0  0  0  0  0
  -27.6040  -16.8986   19.1646 H   0  0  0  0  0  0
  -26.3873  -23.5671   19.6885 H   0  0  0  0  0  0
  -27.2229  -23.7531   18.1547 H   0  0  0  0  0  0
  -27.7547  -21.4671   18.0922 H   0  0  0  0  0  0
  -26.4943  -21.3195   19.3177 H   0  0  0  0  0  0
  -29.3048  -24.0825   19.1876 H   0  0  0  0  0  0
  -30.2968  -16.7036   17.8832 H   0  0  0  0  0  0
  -29.1179  -15.4072   17.7947 H   0  0  0  0  0  0
  -30.8489  -15.0587   17.8994 H   0  0  0  0  0  0
  -28.9695  -25.1758   21.5803 H   0  0  0  0  0  0
  -27.2813  -25.0610   21.2723 H   0  0  0  0  0  0
  1 25  1  0  0  0
  1 30  2  0  0  0
  1 84  1  0  0  0
  2  3  1  0  0  0
  2 25  1  0  0  0
  2 86  1  0  0  0
  2 87  1  0  0  0
  3  4  1  0  0  0
  3 88  1  0  0  0
  3 89  1  0  0  0
  4  5  1  0  0  0
  4 90  1  0  0  0
  4 91  1  0  0  0
  5  6  1  0  0  0
  5 26  1  0  0  0
  5 92  1  0  0  0
  6 25  1  0  0  0
  6 93  1  0  0  0
  6 94  1  0  0  0
  7  8  2  0  0  0
  7 26  1  0  0  0
  7 29  1  0  0  0
  8  9  1  0  0  0
  8 22  1  0  0  0
  9 10  1  0  0  0
  9 27  2  0  0  0
 10 11  2  0  0  0
 10 15  1  0  0  0
 11 12  1  0  0  0
 11 95  1  0  0  0
 12 13  2  0  0  0
 12 96  1  0  0  0
 13 14  1  0  0  0
 13 31  1  0  0  0
 14 15  2  0  0  0
 14 97  1  0  0  0
 15 98  1  0  0  0
 16 17  2  0  0  0
 16 21  1  0  0  0
 16 31  1  0  0  0
 17 18  1  0  0  0
 17 99  1  0  0  0
 18 19  2  0  0  0
 18100  1  0  0  0
 19 20  1  0  0  0
 19 24  1  0  0  0
 20 21  2  0  0  0
 20101  1  0  0  0
 21 23  1  0  0  0
 22 28  1  0  0  0
 22 32  2  0  0  0
 26 27  1  0  0  0
 28102  1  0  0  0
 28103  1  0  0  0
 29104  1  0  0  0
 29105  1  0  0  0
 33 34  1  0  0  0
 33 66  1  0  0  0
 33 70  2  0  0  0
 34 36  1  0  0  0
 34 59  1  0  0  0
 34106  1  0  0  0
 35 44  2  0  0  0
 35 45  1  0  0  0
 35 68  1  0  0  0
 36 56  1  0  0  0
 36107  1  0  0  0
 37 39  1  0  0  0
 37 47  1  0  0  0
 37 66  1  0  0  0
 37108  1  0  0  0
 38 43  2  0  0  0
 38 46  1  0  0  0
 38 47  1  0  0  0
 39 64  1  0  0  0
 39 67  2  0  0  0
 40 52  1  0  0  0
 40 53  2  0  0  0
 40 58  1  0  0  0
 41109  1  0  0  0
 41110  1  0  0  0
 41111  1  0  0  0
 41 48  1  0  0  0
 42 43  1  0  0  0
 42 66  1  0  0  0
 42112  1  0  0  0
 42113  1  0  0  0
 43 44  1  0  0  0
 44114  1  0  0  0
 45 46  2  0  0  0
 45115  1  0  0  0
 46116  1  0  0  0
 47117  1  0  0  0
 47118  1  0  0  0
 48 56  1  0  0  0
 48 65  1  0  0  0
 48119  1  0  0  0
 49 50  1  0  0  0
 49 53  1  0  0  0
 49 64  1  0  0  0
 49120  1  0  0  0
 50 51  1  0  0  0
 50121  1  0  0  0
 50122  1  0  0  0
 51 52  1  0  0  0
 51123  1  0  0  0
 51124  1  0  0  0
 52125  1  0  0  0
 52126  1  0  0  0
 53 54  1  0  0  0
 54 55  2  0  0  0
 54127  1  0  0  0
 55 57  1  0  0  0
 55128  1  0  0  0
 56 69  2  0  0  0
 57 58  2  0  0  0
 57129  1  0  0  0
 58130  1  0  0  0
 59 60  1  0  0  0
 59 61  1  0  0  0
 59 62  1  0  0  0
 60131  1  0  0  0
 60132  1  0  0  0
 60133  1  0  0  0
 61134  1  0  0  0
 61135  1  0  0  0
 61136  1  0  0  0
 62137  1  0  0  0
 62138  1  0  0  0
 62139  1  0  0  0
 63 65  1  0  0  0
 63140  1  0  0  0
 63141  1  0  0  0
 63142  1  0  0  0
 64143  1  0  0  0
 65144  1  0  0  0
 68 82  1  0  0  0
 71 73  2  0  0  0
 71 75  1  0  0  0
 71145  1  0  0  0
 72 74  1  0  0  0
 72 75  2  0  0  0
 72146  1  0  0  0
 73 76  1  0  0  0
 73147  1  0  0  0
 74 76  2  0  0  0
 74148  1  0  0  0
 75 83  1  0  0  0
 76 84  1  0  0  0
 77 80  1  0  0  0
 77 83  1  0  0  0
 77 85  2  0  0  0
 78 79  1  0  0  0
 78 80  1  0  0  0
 78149  1  0  0  0
 78150  1  0  0  0
 79 83  1  0  0  0
 79151  1  0  0  0
 79152  1  0  0  0
 80 82  1  0  0  0
 80153  1  0  0  0
 81 84  1  0  0  0
 81154  1  0  0  0
 81155  1  0  0  0
 81156  1  0  0  0
 82157  1  0  0  0
 82158  1  0  0  0
M  ISO  4   1 100  68 101  82 101  84 100
M  END
> <chiral flag>
0

> <version>
0

> <s_m_source_file>
/data/baiqing/PycharmProjects/Reinvent-master-3.2/result/LINK_invent/BTK/process_docking_weight1_custom_product_contain_oxygen_bond_distance_aromatic_linkinvent_7_9_3/rearranged_h_0022.sdf

> <i_m_source_file_index>
60

> <r_mmod_Potential_Energy-OPLS-2005>
435.304718017578

> <r_mmod_Stretch_Energy-OPLS-2005>
86.6733856201172

> <r_mmod_Bend_Energy-OPLS-2005>
185.174057006836

> <r_mmod_Torsional_Energy-OPLS-2005>
399.541442871094

> <r_mmod_Improper_Torsional_Energy-OPLS-2005>
31.7825603485107

> <r_mmod_Van_der_Waal_Energy-OPLS-2005>
138.330413818359

> <r_mmod_Electrostatic_Energy-OPLS-2005>
-274.18603515625

> <r_mmod_Solvation_Energy-OPLS-2005>
-206.901107788086

> <b_mmod_Minimization_Converged-OPLS-2005>
0

> <r_mmod_RMS_Derivative-OPLS-2005>
0.592943966388702

$$$$
61
                    3D
 Structure written by MMmdl.
156165  0  0  1  0            999 V2000
  -30.6125  -14.6462   20.5059 C   0  0  0  0  0  0
  -30.4444  -12.3972   19.4512 C   0  0  0  0  0  0
  -29.5106  -12.5097   18.2247 C   0  0  0  0  0  0
  -28.0342  -12.3420   18.6369 C   0  0  0  0  0  0
  -27.6553  -13.2128   19.8638 C   0  0  2  0  0  0
  -28.7002  -13.0627   20.9936 C   0  0  0  0  0  0
  -25.2574  -13.8160   20.5673 C   0  0  0  0  0  0
  -24.1837  -13.0439   20.9203 C   0  0  0  0  0  0
  -24.6394  -11.6906   20.8743 C   0  0  0  0  0  0
  -23.9060  -10.4293   21.0406 C   0  0  0  0  0  0
  -24.3610   -9.4207   21.9182 C   0  0  0  0  0  0
  -23.6285   -8.2243   22.0752 C   0  0  0  0  0  0
  -22.4266   -8.0281   21.3546 C   0  0  0  0  0  0
  -21.9903   -9.0258   20.4651 C   0  0  0  0  0  0
  -22.7233  -10.2135   20.3058 C   0  0  0  0  0  0
  -21.6853   -6.0731   22.5277 C   0  0  0  0  0  0
  -21.4014   -6.5633   23.8210 C   0  0  0  0  0  0
  -21.3662   -5.6785   24.9172 C   0  0  0  0  0  0
  -21.6045   -4.3050   24.7223 C   0  0  0  0  0  0
  -21.8820   -3.8143   23.4344 C   0  0  0  0  0  0
  -21.9194   -4.6959   22.3401 C   0  0  0  0  0  0
  -22.7860  -13.5242   21.1857 C   0  0  0  0  0  0
  -22.1662   -4.2146   21.0978 F   0  0  0  0  0  0
  -21.5629   -3.4533   25.7737 F   0  0  0  0  0  0
  -30.0165  -13.4132   20.4337 N   0  0  0  0  0  0
  -26.2997  -12.9333   20.3307 N   0  0  0  0  0  0
  -25.9319  -11.6494   20.5749 N   0  0  0  0  0  0
  -22.0491  -12.8245   22.0415 N   0  0  0  0  0  0
  -25.4283  -15.1874   20.4034 N   0  0  0  0  0  0
  -31.7725  -14.8222   20.1197 O   0  0  0  0  0  0
  -21.6635   -6.8876   21.4239 O   0  0  0  0  0  0
  -22.3555  -14.5550   20.6700 O   0  0  0  0  0  0
  -24.6265  -31.8606   23.2032 C   0  0  0  0  0  0
  -25.9112  -32.4781   23.8361 C   0  0  1  0  0  0
  -27.2230  -27.3198   20.1095 C   0  0  0  0  0  0
  -25.5922  -33.8582   24.2284 N   0  0  0  0  0  0
  -23.4197  -30.4866   21.5459 C   0  0  2  0  0  0
  -24.8652  -28.9457   20.1101 C   0  0  0  0  0  0
  -22.7474  -29.4637   22.4927 C   0  0  0  0  0  0
  -18.0289  -28.1389   22.8482 C   0  0  0  0  0  0
  -24.1488  -36.7298   23.2638 C   0  0  0  0  0  0
  -25.9623  -30.7911   21.3756 C   0  0  0  0  0  0
  -26.0356  -29.4197   20.7160 C   0  0  0  0  0  0
  -27.2169  -28.6186   20.7075 C   0  0  0  0  0  0
  -26.0264  -26.9054   19.4753 C   0  0  0  0  0  0
  -24.8630  -27.6936   19.4814 C   0  0  0  0  0  0
  -23.6342  -29.8259   20.1600 C   0  0  0  0  0  0
  -25.4110  -36.3083   24.0329 C   0  0  1  0  0  0
  -20.5889  -28.3694   23.1274 C   0  0  2  0  0  0
  -20.6777  -26.9415   22.5407 C   0  0  0  0  0  0
  -19.5753  -26.6387   21.5207 C   0  0  0  0  0  0
  -18.1932  -26.7932   22.1620 C   0  0  0  0  0  0
  -19.1542  -28.8857   23.2877 C   0  0  0  0  0  0
  -18.9466  -30.1457   23.8897 C   0  0  0  0  0  0
  -17.6466  -30.6588   24.0566 C   0  0  0  0  0  0
  -25.9049  -34.9453   23.5107 C   0  0  0  0  0  0
  -16.5357  -29.9089   23.6330 C   0  0  0  0  0  0
  -16.7276  -28.6508   23.0349 C   0  0  0  0  0  0
  -26.4493  -31.6588   25.0730 C   0  0  0  0  0  0
  -25.3728  -31.3732   26.1459 C   0  0  0  0  0  0
  -27.0333  -30.3009   24.6190 C   0  0  0  0  0  0
  -27.6053  -32.4320   25.7500 C   0  0  0  0  0  0
  -27.5578  -37.1801   24.8463 C   0  0  0  0  0  0
  -21.4188  -29.3049   22.3667 N   0  0  0  0  0  0
  -26.4287  -37.3777   23.9409 N   0  0  0  0  0  0
  -24.6884  -31.0626   22.0981 N   0  0  0  0  0  0
  -23.4196  -28.8171   23.3006 O   0  0  0  0  0  0
  -28.3373  -26.4618   20.1653 O   0  0  0  0  0  0
  -26.5621  -34.8918   22.4676 O   0  0  0  0  0  0
  -23.5428  -32.1405   23.7356 O   0  0  0  0  0  0
  -30.9148  -19.3376   20.3437 C   0  0  0  0  0  0
  -30.9737  -17.9101   20.4113 C   0  0  0  0  0  0
  -28.6448  -17.8781   20.9935 C   0  0  0  0  0  0
  -29.7257  -20.0820   20.5884 C   0  0  0  0  0  0
  -29.8318  -17.1350   20.7448 C   0  0  0  0  0  0
  -28.5801  -19.3025   20.9226 C   0  0  0  0  0  0
  -29.4344  -23.6204   21.7480 C   0  0  0  0  0  0
  -30.0963  -22.2188   21.8109 C   0  0  0  0  0  0
  -28.9111  -22.4363   19.7711 C   0  0  0  0  0  0
  -29.1977  -23.9090   20.2591 C   0  0  1  0  0  0
  -28.1051  -25.0178   19.9202 C   0  0  0  0  0  0
  -29.7661  -21.5240   20.5687 N   0  0  0  0  0  0
  -29.7818  -15.6738   20.8730 N   0  0  0  0  0  0
  -27.0746  -20.0605   21.3127 Cl  0  0  0  0  0  0
  -31.4843  -12.5307   19.1479 H   0  0  0  0  0  0
  -30.3870  -11.3998   19.8897 H   0  0  0  0  0  0
  -29.7772  -11.7612   17.4773 H   0  0  0  0  0  0
  -29.6489  -13.4805   17.7457 H   0  0  0  0  0  0
  -27.8747  -11.2885   18.8705 H   0  0  0  0  0  0
  -27.3790  -12.5679   17.7947 H   0  0  0  0  0  0
  -27.6750  -14.2480   19.5225 H   0  0  0  0  0  0
  -28.7135  -12.0381   21.3682 H   0  0  0  0  0  0
  -28.4422  -13.6852   21.8517 H   0  0  0  0  0  0
  -25.2754   -9.5683   22.4754 H   0  0  0  0  0  0
  -23.9999   -7.4633   22.7465 H   0  0  0  0  0  0
  -21.0838   -8.8778   19.8952 H   0  0  0  0  0  0
  -22.3694  -10.9674   19.6168 H   0  0  0  0  0  0
  -21.2003   -7.6140   23.9716 H   0  0  0  0  0  0
  -21.1483   -6.0511   25.9076 H   0  0  0  0  0  0
  -22.0596   -2.7605   23.2842 H   0  0  0  0  0  0
  -22.4095  -11.9909   22.4815 H   0  0  0  0  0  0
  -21.1109  -13.1280   22.2609 H   0  0  0  0  0  0
  -24.6509  -15.8331   20.4886 H   0  0  0  0  0  0
  -26.2529  -15.6139   20.0021 H   0  0  0  0  0  0
  -26.7181  -32.5451   23.1112 H   0  0  0  0  0  0
  -25.0053  -33.9730   25.0416 H   0  0  0  0  0  0
  -22.7135  -31.3075   21.4045 H   0  0  0  0  0  0
  -23.3745  -35.9637   23.3301 H   0  0  0  0  0  0
  -24.3582  -36.8919   22.2054 H   0  0  0  0  0  0
  -23.7250  -37.6503   23.6663 H   0  0  0  0  0  0
  -26.0964  -31.5543   20.6077 H   0  0  0  0  0  0
  -26.8422  -30.8377   22.0058 H   0  0  0  0  0  0
  -28.1136  -28.9770   21.1933 H   0  0  0  0  0  0
  -25.9509  -25.9535   18.9727 H   0  0  0  0  0  0
  -23.9675  -27.3266   18.9990 H   0  0  0  0  0  0
  -23.7543  -30.6045   19.4057 H   0  0  0  0  0  0
  -22.7534  -29.2576   19.8555 H   0  0  0  0  0  0
  -25.1287  -36.1937   25.0821 H   0  0  0  0  0  0
  -20.9987  -28.3274   24.1392 H   0  0  0  0  0  0
  -20.5672  -26.2304   23.3608 H   0  0  0  0  0  0
  -21.6647  -26.7441   22.1205 H   0  0  0  0  0  0
  -19.6915  -25.6297   21.1238 H   0  0  0  0  0  0
  -19.6691  -27.3195   20.6735 H   0  0  0  0  0  0
  -17.4199  -26.6675   21.4026 H   0  0  0  0  0  0
  -18.0338  -26.0075   22.9019 H   0  0  0  0  0  0
  -19.7943  -30.7272   24.2266 H   0  0  0  0  0  0
  -17.5023  -31.6267   24.5171 H   0  0  0  0  0  0
  -15.5358  -30.2993   23.7656 H   0  0  0  0  0  0
  -15.8674  -28.0830   22.7063 H   0  0  0  0  0  0
  -24.5899  -30.7082   25.7793 H   0  0  0  0  0  0
  -24.8923  -32.2902   26.4881 H   0  0  0  0  0  0
  -25.8053  -30.8914   27.0236 H   0  0  0  0  0  0
  -26.2907  -29.6759   24.1215 H   0  0  0  0  0  0
  -27.4025  -29.7267   25.4698 H   0  0  0  0  0  0
  -27.8781  -30.4288   23.9418 H   0  0  0  0  0  0
  -27.2662  -33.3614   26.2087 H   0  0  0  0  0  0
  -28.3858  -32.6888   25.0326 H   0  0  0  0  0  0
  -28.0726  -31.8440   26.5409 H   0  0  0  0  0  0
  -28.2593  -38.0098   24.7504 H   0  0  0  0  0  0
  -28.1072  -36.2630   24.6288 H   0  0  0  0  0  0
  -27.2301  -37.1455   25.8867 H   0  0  0  0  0  0
  -20.9360  -29.8774   21.6883 H   0  0  0  0  0  0
  -26.0168  -38.2851   24.1409 H   0  0  0  0  0  0
  -31.8213  -19.8743   20.1043 H   0  0  0  0  0  0
  -31.9190  -17.4240   20.2174 H   0  0  0  0  0  0
  -27.7423  -17.3502   21.2644 H   0  0  0  0  0  0
  -30.0376  -24.3890   22.2327 H   0  0  0  0  0  0
  -28.4761  -23.5871   22.2686 H   0  0  0  0  0  0
  -29.7634  -21.6647   22.6908 H   0  0  0  0  0  0
  -31.1812  -22.3172   21.8777 H   0  0  0  0  0  0
  -29.1251  -22.3322   18.7062 H   0  0  0  0  0  0
  -27.8588  -22.1925   19.9129 H   0  0  0  0  0  0
  -30.1444  -24.2232   19.8172 H   0  0  0  0  0  0
  -27.1931  -24.7195   20.4402 H   0  0  0  0  0  0
  -27.8968  -24.9174   18.8542 H   0  0  0  0  0  0
  -28.8888  -15.3219   21.1821 H   0  0  0  0  0  0
  1 25  1  0  0  0
  1 30  2  0  0  0
  1 83  1  0  0  0
  2  3  1  0  0  0
  2 25  1  0  0  0
  2 85  1  0  0  0
  2 86  1  0  0  0
  3  4  1  0  0  0
  3 87  1  0  0  0
  3 88  1  0  0  0
  4  5  1  0  0  0
  4 89  1  0  0  0
  4 90  1  0  0  0
  5  6  1  0  0  0
  5 26  1  0  0  0
  5 91  1  0  0  0
  6 25  1  0  0  0
  6 92  1  0  0  0
  6 93  1  0  0  0
  7  8  2  0  0  0
  7 26  1  0  0  0
  7 29  1  0  0  0
  8  9  1  0  0  0
  8 22  1  0  0  0
  9 10  1  0  0  0
  9 27  2  0  0  0
 10 11  2  0  0  0
 10 15  1  0  0  0
 11 12  1  0  0  0
 11 94  1  0  0  0
 12 13  2  0  0  0
 12 95  1  0  0  0
 13 14  1  0  0  0
 13 31  1  0  0  0
 14 15  2  0  0  0
 14 96  1  0  0  0
 15 97  1  0  0  0
 16 17  2  0  0  0
 16 21  1  0  0  0
 16 31  1  0  0  0
 17 18  1  0  0  0
 17 98  1  0  0  0
 18 19  2  0  0  0
 18 99  1  0  0  0
 19 20  1  0  0  0
 19 24  1  0  0  0
 20 21  2  0  0  0
 20100  1  0  0  0
 21 23  1  0  0  0
 22 28  1  0  0  0
 22 32  2  0  0  0
 26 27  1  0  0  0
 28101  1  0  0  0
 28102  1  0  0  0
 29103  1  0  0  0
 29104  1  0  0  0
 33 34  1  0  0  0
 33 66  1  0  0  0
 33 70  2  0  0  0
 34 36  1  0  0  0
 34 59  1  0  0  0
 34105  1  0  0  0
 35 44  2  0  0  0
 35 45  1  0  0  0
 35 68  1  0  0  0
 36 56  1  0  0  0
 36106  1  0  0  0
 37 39  1  0  0  0
 37 47  1  0  0  0
 37 66  1  0  0  0
 37107  1  0  0  0
 38 43  2  0  0  0
 38 46  1  0  0  0
 38 47  1  0  0  0
 39 64  1  0  0  0
 39 67  2  0  0  0
 40 52  1  0  0  0
 40 53  2  0  0  0
 40 58  1  0  0  0
 41108  1  0  0  0
 41109  1  0  0  0
 41110  1  0  0  0
 41 48  1  0  0  0
 42 43  1  0  0  0
 42 66  1  0  0  0
 42111  1  0  0  0
 42112  1  0  0  0
 43 44  1  0  0  0
 44113  1  0  0  0
 45 46  2  0  0  0
 45114  1  0  0  0
 46115  1  0  0  0
 47116  1  0  0  0
 47117  1  0  0  0
 48 56  1  0  0  0
 48 65  1  0  0  0
 48118  1  0  0  0
 49 50  1  0  0  0
 49 53  1  0  0  0
 49 64  1  0  0  0
 49119  1  0  0  0
 50 51  1  0  0  0
 50120  1  0  0  0
 50121  1  0  0  0
 51 52  1  0  0  0
 51122  1  0  0  0
 51123  1  0  0  0
 52124  1  0  0  0
 52125  1  0  0  0
 53 54  1  0  0  0
 54 55  2  0  0  0
 54126  1  0  0  0
 55 57  1  0  0  0
 55127  1  0  0  0
 56 69  2  0  0  0
 57 58  2  0  0  0
 57128  1  0  0  0
 58129  1  0  0  0
 59 60  1  0  0  0
 59 61  1  0  0  0
 59 62  1  0  0  0
 60130  1  0  0  0
 60131  1  0  0  0
 60132  1  0  0  0
 61133  1  0  0  0
 61134  1  0  0  0
 61135  1  0  0  0
 62136  1  0  0  0
 62137  1  0  0  0
 62138  1  0  0  0
 63 65  1  0  0  0
 63139  1  0  0  0
 63140  1  0  0  0
 63141  1  0  0  0
 64142  1  0  0  0
 65143  1  0  0  0
 68 81  1  0  0  0
 71 72  2  0  0  0
 71 74  1  0  0  0
 71144  1  0  0  0
 72 75  1  0  0  0
 72145  1  0  0  0
 73 75  2  0  0  0
 73 76  1  0  0  0
 73146  1  0  0  0
 74 76  2  0  0  0
 74 82  1  0  0  0
 75 83  1  0  0  0
 76 84  1  0  0  0
 77 78  1  0  0  0
 77 80  1  0  0  0
 77147  1  0  0  0
 77148  1  0  0  0
 78 82  1  0  0  0
 78149  1  0  0  0
 78150  1  0  0  0
 79 80  1  0  0  0
 79 82  1  0  0  0
 79151  1  0  0  0
 79152  1  0  0  0
 80 81  1  0  0  0
 80153  1  0  0  0
 81154  1  0  0  0
 81155  1  0  0  0
 83156  1  0  0  0
M  ISO  4   1 100  68 101  81 101  83 100
M  END
> <chiral flag>
0

> <version>
0

> <s_m_source_file>
/data/baiqing/PycharmProjects/Reinvent-master-3.2/result/LINK_invent/BTK/process_docking_weight1_custom_product_contain_oxygen_bond_distance_aromatic_linkinvent_7_9_3/rearranged_h_0022.sdf

> <i_m_source_file_index>
61

> <r_mmod_Potential_Energy-OPLS-2005>
185.565490722656

> <r_mmod_Stretch_Energy-OPLS-2005>
76.6809616088867

> <r_mmod_Bend_Energy-OPLS-2005>
180.478515625

> <r_mmod_Torsional_Energy-OPLS-2005>
287.868316650391

> <r_mmod_Improper_Torsional_Energy-OPLS-2005>
7.27197599411011

> <r_mmod_Van_der_Waal_Energy-OPLS-2005>
139.823394775391

> <r_mmod_Electrostatic_Energy-OPLS-2005>
-336.50341796875

> <r_mmod_Solvation_Energy-OPLS-2005>
-220.302352905273

> <b_mmod_Minimization_Converged-OPLS-2005>
0

> <r_mmod_RMS_Derivative-OPLS-2005>
0.601155281066895

$$$$
62
                    3D
 Structure written by MMmdl.
159167  0  0  1  0            999 V2000
  -30.6630  -14.4738   20.5996 C   0  0  0  0  0  0
  -30.4355  -12.3140   19.4136 C   0  0  0  0  0  0
  -29.4986  -12.5085   18.2018 C   0  0  0  0  0  0
  -28.0175  -12.3685   18.6113 C   0  0  0  0  0  0
  -27.6649  -13.1945   19.8765 C   0  0  2  0  0  0
  -28.7032  -12.9387   20.9915 C   0  0  0  0  0  0
  -25.2618  -13.8126   20.5646 C   0  0  0  0  0  0
  -24.1855  -13.0433   20.9168 C   0  0  0  0  0  0
  -24.6384  -11.6890   20.8729 C   0  0  0  0  0  0
  -23.9041  -10.4287   21.0401 C   0  0  0  0  0  0
  -24.3601   -9.4212   21.9185 C   0  0  0  0  0  0
  -23.6284   -8.2243   22.0757 C   0  0  0  0  0  0
  -22.4268   -8.0276   21.3539 C   0  0  0  0  0  0
  -21.9897   -9.0247   20.4645 C   0  0  0  0  0  0
  -22.7214  -10.2130   20.3053 C   0  0  0  0  0  0
  -21.6854   -6.0733   22.5279 C   0  0  0  0  0  0
  -21.4013   -6.5640   23.8212 C   0  0  0  0  0  0
  -21.3659   -5.6793   24.9174 C   0  0  0  0  0  0
  -21.6039   -4.3054   24.7228 C   0  0  0  0  0  0
  -21.8822   -3.8146   23.4350 C   0  0  0  0  0  0
  -21.9193   -4.6960   22.3401 C   0  0  0  0  0  0
  -22.7881  -13.5245   21.1833 C   0  0  0  0  0  0
  -22.1663   -4.2143   21.0978 F   0  0  0  0  0  0
  -21.5629   -3.4536   25.7744 F   0  0  0  0  0  0
  -30.0345  -13.2749   20.4521 N   0  0  0  0  0  0
  -26.3035  -12.9269   20.3338 N   0  0  0  0  0  0
  -25.9303  -11.6444   20.5737 N   0  0  0  0  0  0
  -22.0512  -12.8244   22.0389 N   0  0  0  0  0  0
  -25.4383  -15.1844   20.4027 N   0  0  0  0  0  0
  -31.7797  -14.7061   20.1238 O   0  0  0  0  0  0
  -21.6637   -6.8872   21.4237 O   0  0  0  0  0  0
  -22.3577  -14.5557   20.6685 O   0  0  0  0  0  0
  -24.6132  -31.8671   23.2078 C   0  0  0  0  0  0
  -25.9020  -32.4823   23.8375 C   0  0  1  0  0  0
  -27.2381  -27.4349   20.0977 C   0  0  0  0  0  0
  -25.5865  -33.8618   24.2302 N   0  0  0  0  0  0
  -23.4013  -30.4891   21.5498 C   0  0  2  0  0  0
  -24.8486  -28.9521   20.1190 C   0  0  0  0  0  0
  -22.7403  -29.4641   22.4993 C   0  0  0  0  0  0
  -18.0266  -28.1369   22.8495 C   0  0  0  0  0  0
  -24.1484  -36.7323   23.2636 C   0  0  0  0  0  0
  -25.9290  -30.8363   21.3582 C   0  0  0  0  0  0
  -26.0092  -29.4698   20.7069 C   0  0  0  0  0  0
  -27.2079  -28.7202   20.6877 C   0  0  0  0  0  0
  -26.0573  -26.9271   19.5111 C   0  0  0  0  0  0
  -24.8667  -27.6794   19.5202 C   0  0  0  0  0  0
  -23.6106  -29.8187   20.1662 C   0  0  0  0  0  0
  -25.4105  -36.3115   24.0332 C   0  0  1  0  0  0
  -20.5856  -28.3648   23.1325 C   0  0  2  0  0  0
  -20.6763  -26.9385   22.5426 C   0  0  0  0  0  0
  -19.5741  -26.6377   21.5217 C   0  0  0  0  0  0
  -18.1917  -26.7916   22.1625 C   0  0  0  0  0  0
  -19.1518  -28.8827   23.2907 C   0  0  0  0  0  0
  -18.9451  -30.1435   23.8915 C   0  0  0  0  0  0
  -17.6459  -30.6587   24.0556 C   0  0  0  0  0  0
  -25.9030  -34.9477   23.5122 C   0  0  0  0  0  0
  -16.5347  -29.9091   23.6316 C   0  0  0  0  0  0
  -16.7259  -28.6502   23.0345 C   0  0  0  0  0  0
  -26.4455  -31.6601   25.0697 C   0  0  0  0  0  0
  -25.3717  -31.3712   26.1444 C   0  0  0  0  0  0
  -27.0255  -30.3039   24.6041 C   0  0  0  0  0  0
  -27.6023  -32.4317   25.7475 C   0  0  0  0  0  0
  -27.5584  -37.1816   24.8457 C   0  0  0  0  0  0
  -21.4131  -29.3018   22.3739 N   0  0  0  0  0  0
  -26.4296  -37.3797   23.9406 N   0  0  0  0  0  0
  -24.6664  -31.0772   22.0982 N   0  0  0  0  0  0
  -23.4180  -28.8184   23.3033 O   0  0  0  0  0  0
  -28.4201  -26.7232   20.0836 O   0  0  0  0  0  0
  -26.5614  -34.8941   22.4700 O   0  0  0  0  0  0
  -23.5331  -32.1418   23.7487 O   0  0  0  0  0  0
  -28.8695  -18.9699   21.6864 C   0  0  0  0  0  0
  -31.2790  -18.9331   21.3798 C   0  0  0  0  0  0
  -28.8336  -17.5690   21.5127 C   0  0  0  0  0  0
  -31.2438  -17.5312   21.2002 C   0  0  0  0  0  0
  -30.0966  -19.6655   21.6428 C   0  0  0  0  0  0
  -30.0172  -16.8298   21.2797 C   0  0  0  0  0  0
  -30.6160  -21.9426   19.7027 C   0  0  0  0  0  0
  -30.1658  -21.1563   22.0104 C   0  0  0  0  0  0
  -29.7812  -24.7728   20.5643 C   0  0  0  0  0  0
  -29.9523  -23.5426   21.5097 C   0  0  0  0  0  0
  -28.3491  -25.3122   20.3457 C   0  0  0  0  0  0
  -29.8989  -15.4079   21.2059 N   0  0  0  0  0  0
  -29.8359  -22.1554   20.9470 N   0  3  1  0  0  0
  -31.4766  -12.4421   19.1116 H   0  0  0  0  0  0
  -30.3597  -11.2955   19.7965 H   0  0  0  0  0  0
  -29.7377  -11.7843   17.4223 H   0  0  0  0  0  0
  -29.6657  -13.4937   17.7635 H   0  0  0  0  0  0
  -27.8228  -11.3109   18.7943 H   0  0  0  0  0  0
  -27.3701  -12.6558   17.7818 H   0  0  0  0  0  0
  -27.7182  -14.2456   19.5951 H   0  0  0  0  0  0
  -28.6873  -11.8882   21.2871 H   0  0  0  0  0  0
  -28.4519  -13.4895   21.8986 H   0  0  0  0  0  0
  -25.2748   -9.5692   22.4756 H   0  0  0  0  0  0
  -23.9997   -7.4636   22.7480 H   0  0  0  0  0  0
  -21.0831   -8.8756   19.8952 H   0  0  0  0  0  0
  -22.3671  -10.9666   19.6162 H   0  0  0  0  0  0
  -21.2008   -7.6151   23.9710 H   0  0  0  0  0  0
  -21.1476   -6.0526   25.9075 H   0  0  0  0  0  0
  -22.0602   -2.7607   23.2852 H   0  0  0  0  0  0
  -22.4119  -11.9901   22.4771 H   0  0  0  0  0  0
  -21.1131  -13.1279   22.2578 H   0  0  0  0  0  0
  -24.6705  -15.8409   20.4939 H   0  0  0  0  0  0
  -26.2806  -15.6100   20.0376 H   0  0  0  0  0  0
  -26.7091  -32.5549   23.1139 H   0  0  0  0  0  0
  -24.9971  -33.9772   25.0418 H   0  0  0  0  0  0
  -22.6892  -31.3051   21.4092 H   0  0  0  0  0  0
  -23.3746  -35.9655   23.3299 H   0  0  0  0  0  0
  -24.3582  -36.8938   22.2050 H   0  0  0  0  0  0
  -23.7239  -37.6527   23.6659 H   0  0  0  0  0  0
  -26.0314  -31.6029   20.5891 H   0  0  0  0  0  0
  -26.8194  -30.8950   21.9722 H   0  0  0  0  0  0
  -28.1076  -29.1192   21.1375 H   0  0  0  0  0  0
  -26.0476  -25.9590   19.0316 H   0  0  0  0  0  0
  -23.9725  -27.2730   19.0671 H   0  0  0  0  0  0
  -23.7184  -30.5912   19.4035 H   0  0  0  0  0  0
  -22.7348  -29.2371   19.8740 H   0  0  0  0  0  0
  -25.1285  -36.1980   25.0824 H   0  0  0  0  0  0
  -20.9948  -28.3235   24.1439 H   0  0  0  0  0  0
  -20.5671  -26.2259   23.3617 H   0  0  0  0  0  0
  -21.6639  -26.7437   22.1211 H   0  0  0  0  0  0
  -19.6902  -25.6290   21.1235 H   0  0  0  0  0  0
  -19.6687  -27.3203   20.6759 H   0  0  0  0  0  0
  -17.4186  -26.6659   21.4025 H   0  0  0  0  0  0
  -18.0305  -26.0060   22.9024 H   0  0  0  0  0  0
  -19.7939  -30.7223   24.2315 H   0  0  0  0  0  0
  -17.5025  -31.6276   24.5143 H   0  0  0  0  0  0
  -15.5350  -30.3004   23.7633 H   0  0  0  0  0  0
  -15.8654  -28.0834   22.7050 H   0  0  0  0  0  0
  -24.5897  -30.7044   25.7784 H   0  0  0  0  0  0
  -24.8906  -32.2875   26.4878 H   0  0  0  0  0  0
  -25.8070  -30.8899   27.0208 H   0  0  0  0  0  0
  -26.2768  -29.6845   24.1084 H   0  0  0  0  0  0
  -27.4000  -29.7229   25.4476 H   0  0  0  0  0  0
  -27.8622  -30.4335   23.9173 H   0  0  0  0  0  0
  -27.2612  -33.3600   26.2072 H   0  0  0  0  0  0
  -28.3835  -32.6904   25.0313 H   0  0  0  0  0  0
  -28.0679  -31.8421   26.5383 H   0  0  0  0  0  0
  -28.2598  -38.0124   24.7528 H   0  0  0  0  0  0
  -28.1094  -36.2659   24.6259 H   0  0  0  0  0  0
  -27.2306  -37.1421   25.8862 H   0  0  0  0  0  0
  -20.9288  -29.8751   21.6970 H   0  0  0  0  0  0
  -26.0192  -38.2871   24.1437 H   0  0  0  0  0  0
  -27.9512  -19.4993   21.9020 H   0  0  0  0  0  0
  -32.2353  -19.4382   21.3593 H   0  0  0  0  0  0
  -27.8798  -17.0642   21.5855 H   0  0  0  0  0  0
  -32.1759  -17.0057   21.0456 H   0  0  0  0  0  0
  -30.5278  -20.9177   19.3427 H   0  0  0  0  0  0
  -31.6749  -22.1535   19.8552 H   0  0  0  0  0  0
  -30.2494  -22.5730   18.8943 H   0  0  0  0  0  0
  -31.1698  -21.3595   22.3869 H   0  0  0  0  0  0
  -29.5000  -21.3154   22.8607 H   0  0  0  0  0  0
  -30.3000  -24.6564   19.6150 H   0  0  0  0  0  0
  -30.3245  -25.5806   21.0566 H   0  0  0  0  0  0
  -29.2749  -23.6457   22.3586 H   0  0  0  0  0  0
  -30.9524  -23.6238   21.9385 H   0  0  0  0  0  0
  -27.7410  -25.1472   21.2376 H   0  0  0  0  0  0
  -27.8804  -24.7767   19.5196 H   0  0  0  0  0  0
  -29.0125  -15.0397   21.5148 H   0  0  0  0  0  0
  -28.8678  -22.0032   20.7073 H   0  0  0  0  0  0
  1 25  1  0  0  0
  1 30  2  0  0  0
  1 82  1  0  0  0
  2  3  1  0  0  0
  2 25  1  0  0  0
  2 84  1  0  0  0
  2 85  1  0  0  0
  3  4  1  0  0  0
  3 86  1  0  0  0
  3 87  1  0  0  0
  4  5  1  0  0  0
  4 88  1  0  0  0
  4 89  1  0  0  0
  5  6  1  0  0  0
  5 26  1  0  0  0
  5 90  1  0  0  0
  6 25  1  0  0  0
  6 91  1  0  0  0
  6 92  1  0  0  0
  7  8  2  0  0  0
  7 26  1  0  0  0
  7 29  1  0  0  0
  8  9  1  0  0  0
  8 22  1  0  0  0
  9 10  1  0  0  0
  9 27  2  0  0  0
 10 11  2  0  0  0
 10 15  1  0  0  0
 11 12  1  0  0  0
 11 93  1  0  0  0
 12 13  2  0  0  0
 12 94  1  0  0  0
 13 14  1  0  0  0
 13 31  1  0  0  0
 14 15  2  0  0  0
 14 95  1  0  0  0
 15 96  1  0  0  0
 16 17  2  0  0  0
 16 21  1  0  0  0
 16 31  1  0  0  0
 17 18  1  0  0  0
 17 97  1  0  0  0
 18 19  2  0  0  0
 18 98  1  0  0  0
 19 20  1  0  0  0
 19 24  1  0  0  0
 20 21  2  0  0  0
 20 99  1  0  0  0
 21 23  1  0  0  0
 22 28  1  0  0  0
 22 32  2  0  0  0
 26 27  1  0  0  0
 28100  1  0  0  0
 28101  1  0  0  0
 29102  1  0  0  0
 29103  1  0  0  0
 33 34  1  0  0  0
 33 66  1  0  0  0
 33 70  2  0  0  0
 34 36  1  0  0  0
 34 59  1  0  0  0
 34104  1  0  0  0
 35 44  2  0  0  0
 35 45  1  0  0  0
 35 68  1  0  0  0
 36 56  1  0  0  0
 36105  1  0  0  0
 37 39  1  0  0  0
 37 47  1  0  0  0
 37 66  1  0  0  0
 37106  1  0  0  0
 38 43  2  0  0  0
 38 46  1  0  0  0
 38 47  1  0  0  0
 39 64  1  0  0  0
 39 67  2  0  0  0
 40 52  1  0  0  0
 40 53  2  0  0  0
 40 58  1  0  0  0
 41107  1  0  0  0
 41108  1  0  0  0
 41109  1  0  0  0
 41 48  1  0  0  0
 42 43  1  0  0  0
 42 66  1  0  0  0
 42110  1  0  0  0
 42111  1  0  0  0
 43 44  1  0  0  0
 44112  1  0  0  0
 45 46  2  0  0  0
 45113  1  0  0  0
 46114  1  0  0  0
 47115  1  0  0  0
 47116  1  0  0  0
 48 56  1  0  0  0
 48 65  1  0  0  0
 48117  1  0  0  0
 49 50  1  0  0  0
 49 53  1  0  0  0
 49 64  1  0  0  0
 49118  1  0  0  0
 50 51  1  0  0  0
 50119  1  0  0  0
 50120  1  0  0  0
 51 52  1  0  0  0
 51121  1  0  0  0
 51122  1  0  0  0
 52123  1  0  0  0
 52124  1  0  0  0
 53 54  1  0  0  0
 54 55  2  0  0  0
 54125  1  0  0  0
 55 57  1  0  0  0
 55126  1  0  0  0
 56 69  2  0  0  0
 57 58  2  0  0  0
 57127  1  0  0  0
 58128  1  0  0  0
 59 60  1  0  0  0
 59 61  1  0  0  0
 59 62  1  0  0  0
 60129  1  0  0  0
 60130  1  0  0  0
 60131  1  0  0  0
 61132  1  0  0  0
 61133  1  0  0  0
 61134  1  0  0  0
 62135  1  0  0  0
 62136  1  0  0  0
 62137  1  0  0  0
 63 65  1  0  0  0
 63138  1  0  0  0
 63139  1  0  0  0
 63140  1  0  0  0
 64141  1  0  0  0
 65142  1  0  0  0
 68 81  1  0  0  0
 71 73  2  0  0  0
 71 75  1  0  0  0
 71143  1  0  0  0
 72 74  1  0  0  0
 72 75  2  0  0  0
 72144  1  0  0  0
 73 76  1  0  0  0
 73145  1  0  0  0
 74 76  2  0  0  0
 74146  1  0  0  0
 75 78  1  0  0  0
 76 82  1  0  0  0
 77147  1  0  0  0
 77148  1  0  0  0
 77149  1  0  0  0
 77 83  1  0  0  0
 78 83  1  0  0  0
 78150  1  0  0  0
 78151  1  0  0  0
 79 80  1  0  0  0
 79 81  1  0  0  0
 79152  1  0  0  0
 79153  1  0  0  0
 80 83  1  0  0  0
 80154  1  0  0  0
 80155  1  0  0  0
 81156  1  0  0  0
 81157  1  0  0  0
 82158  1  0  0  0
 83159  1  0  0  0
M  CHG  1  83   1
M  ISO  4   1 100  68 101  81 101  82 100
M  END
> <chiral flag>
0

> <version>
0

> <s_m_source_file>
/data/baiqing/PycharmProjects/Reinvent-master-3.2/result/LINK_invent/BTK/process_docking_weight1_custom_product_contain_oxygen_bond_distance_aromatic_linkinvent_7_9_3/rearranged_h_0022.sdf

> <i_m_source_file_index>
62

> <r_mmod_Potential_Energy-OPLS-2005>
-169.5888671875

> <r_mmod_Stretch_Energy-OPLS-2005>
39.6837730407715

> <r_mmod_Bend_Energy-OPLS-2005>
116.625686645508

> <r_mmod_Torsional_Energy-OPLS-2005>
224.905197143555

> <r_mmod_Improper_Torsional_Energy-OPLS-2005>
4.02819395065308

> <r_mmod_Van_der_Waal_Energy-OPLS-2005>
155.463958740234

> <r_mmod_Electrostatic_Energy-OPLS-2005>
-270.951782226562

> <r_mmod_Solvation_Energy-OPLS-2005>
-451.460754394531

> <b_mmod_Minimization_Converged-OPLS-2005>
0

> <r_mmod_RMS_Derivative-OPLS-2005>
1.51259875297546

$$$$
63
                    3D
 Structure written by MMmdl.
168176  0  0  1  0            999 V2000
  -30.7680  -14.3812   20.6816 C   0  0  0  0  0  0
  -30.4159  -12.2944   19.4011 C   0  0  0  0  0  0
  -29.4853  -12.5208   18.1957 C   0  0  0  0  0  0
  -28.0098  -12.3751   18.6125 C   0  0  0  0  0  0
  -27.6653  -13.2048   19.8773 C   0  0  2  0  0  0
  -28.7058  -12.9674   20.9950 C   0  0  0  0  0  0
  -25.2605  -13.8171   20.5685 C   0  0  0  0  0  0
  -24.1843  -13.0442   20.9176 C   0  0  0  0  0  0
  -24.6392  -11.6911   20.8725 C   0  0  0  0  0  0
  -23.9053  -10.4300   21.0399 C   0  0  0  0  0  0
  -24.3606   -9.4216   21.9178 C   0  0  0  0  0  0
  -23.6286   -8.2248   22.0749 C   0  0  0  0  0  0
  -22.4267   -8.0284   21.3544 C   0  0  0  0  0  0
  -21.9902   -9.0253   20.4641 C   0  0  0  0  0  0
  -22.7226  -10.2135   20.3051 C   0  0  0  0  0  0
  -21.6851   -6.0735   22.5280 C   0  0  0  0  0  0
  -21.4011   -6.5639   23.8214 C   0  0  0  0  0  0
  -21.3657   -5.6791   24.9175 C   0  0  0  0  0  0
  -21.6046   -4.3054   24.7227 C   0  0  0  0  0  0
  -21.8818   -3.8146   23.4348 C   0  0  0  0  0  0
  -21.9192   -4.6962   22.3404 C   0  0  0  0  0  0
  -22.7868  -13.5246   21.1840 C   0  0  0  0  0  0
  -22.1659   -4.2149   21.0980 F   0  0  0  0  0  0
  -21.5631   -3.4537   25.7739 F   0  0  0  0  0  0
  -30.0450  -13.2523   20.4541 N   0  0  0  0  0  0
  -26.3041  -12.9329   20.3376 N   0  0  0  0  0  0
  -25.9320  -11.6492   20.5755 N   0  0  0  0  0  0
  -22.0500  -12.8236   22.0396 N   0  0  0  0  0  0
  -25.4346  -15.1882   20.4093 N   0  0  0  0  0  0
  -31.8041  -14.6236   20.0545 O   0  0  0  0  0  0
  -21.6636   -6.8876   21.4241 O   0  0  0  0  0  0
  -22.3552  -14.5546   20.6688 O   0  0  0  0  0  0
  -24.6098  -31.8724   23.2122 C   0  0  0  0  0  0
  -25.9010  -32.4844   23.8423 C   0  0  1  0  0  0
  -27.2420  -27.4809   20.0910 C   0  0  0  0  0  0
  -25.5880  -33.8638   24.2360 N   0  0  0  0  0  0
  -23.3974  -30.4921   21.5529 C   0  0  2  0  0  0
  -24.8455  -28.9612   20.1179 C   0  0  0  0  0  0
  -22.7393  -29.4668   22.5023 C   0  0  0  0  0  0
  -18.0265  -28.1364   22.8494 C   0  0  0  0  0  0
  -24.1480  -36.7321   23.2637 C   0  0  0  0  0  0
  -25.9196  -30.8513   21.3597 C   0  0  0  0  0  0
  -25.9998  -29.4870   20.7121 C   0  0  0  0  0  0
  -27.2008  -28.7524   20.7018 C   0  0  0  0  0  0
  -26.0813  -26.9627   19.4848 C   0  0  0  0  0  0
  -24.8772  -27.6946   19.5029 C   0  0  0  0  0  0
  -23.6034  -29.8202   20.1689 C   0  0  0  0  0  0
  -25.4104  -36.3126   24.0339 C   0  0  1  0  0  0
  -20.5853  -28.3653   23.1330 C   0  0  2  0  0  0
  -20.6760  -26.9400   22.5410 C   0  0  0  0  0  0
  -19.5740  -26.6387   21.5201 C   0  0  0  0  0  0
  -18.1914  -26.7912   22.1614 C   0  0  0  0  0  0
  -19.1515  -28.8825   23.2906 C   0  0  0  0  0  0
  -18.9446  -30.1426   23.8922 C   0  0  0  0  0  0
  -17.6454  -30.6585   24.0562 C   0  0  0  0  0  0
  -25.9028  -34.9484   23.5148 C   0  0  0  0  0  0
  -16.5346  -29.9089   23.6314 C   0  0  0  0  0  0
  -16.7258  -28.6496   23.0352 C   0  0  0  0  0  0
  -26.4456  -31.6598   25.0725 C   0  0  0  0  0  0
  -25.3729  -31.3682   26.1479 C   0  0  0  0  0  0
  -27.0279  -30.3050   24.6045 C   0  0  0  0  0  0
  -27.6054  -32.4304   25.7481 C   0  0  0  0  0  0
  -27.5587  -37.1811   24.8464 C   0  0  0  0  0  0
  -21.4130  -29.3028   22.3756 N   0  0  0  0  0  0
  -26.4301  -37.3805   23.9407 N   0  0  0  0  0  0
  -24.6600  -31.0860   22.1004 N   0  0  0  0  0  0
  -23.4183  -28.8219   23.3058 O   0  0  0  0  0  0
  -28.3926  -26.7339   20.0565 O   0  0  0  0  0  0
  -26.5594  -34.8925   22.4711 O   0  0  0  0  0  0
  -23.5299  -32.1464   23.7530 O   0  0  0  0  0  0
  -30.5809  -21.1456   22.3453 C   0  0  0  0  0  0
  -30.0053  -22.3296   22.8415 C   0  0  0  0  0  0
  -29.8194  -19.9612   22.2710 C   0  0  0  0  0  0
  -27.8948  -21.1615   23.2047 C   0  0  0  0  0  0
  -28.6579  -22.3542   23.2711 C   0  0  0  0  0  0
  -28.4782  -19.9742   22.7020 C   0  0  0  0  0  0
  -26.4409  -21.1515   23.6536 C   0  0  0  0  0  0
  -31.7579  -18.2524   23.7591 C   0  0  0  0  0  0
  -30.4335  -18.6850   21.7058 C   0  0  0  0  0  0
  -30.2907  -15.4106   21.7279 C   0  0  0  0  0  0
  -28.1475  -25.1782   21.9042 C   0  0  0  0  0  0
  -28.5459  -24.8411   23.3491 C   0  0  0  0  0  0
  -31.3802  -16.4398   22.1364 C   0  0  0  0  0  0
  -28.9145  -26.3843   21.3374 C   0  0  0  0  0  0
  -28.0589  -23.5280   23.7641 N   0  0  0  0  0  0
  -30.8350  -17.6895   22.7402 N   0  3  1  0  0  0
  -27.7555  -18.8292   22.6347 F   0  0  0  0  0  0
  -31.4596  -12.3860   19.0962 H   0  0  0  0  0  0
  -30.3107  -11.2760   19.7781 H   0  0  0  0  0  0
  -29.7202  -11.8119   17.4006 H   0  0  0  0  0  0
  -29.6553  -13.5154   17.7804 H   0  0  0  0  0  0
  -27.8199  -11.3177   18.7997 H   0  0  0  0  0  0
  -27.3552  -12.6589   17.7871 H   0  0  0  0  0  0
  -27.7178  -14.2558   19.5931 H   0  0  0  0  0  0
  -28.6688  -11.9308   21.3330 H   0  0  0  0  0  0
  -28.4499  -13.5652   21.8676 H   0  0  0  0  0  0
  -25.2751   -9.5698   22.4751 H   0  0  0  0  0  0
  -24.0000   -7.4642   22.7470 H   0  0  0  0  0  0
  -21.0836   -8.8764   19.8947 H   0  0  0  0  0  0
  -22.3678  -10.9671   19.6156 H   0  0  0  0  0  0
  -21.1999   -7.6145   23.9718 H   0  0  0  0  0  0
  -21.1481   -6.0520   25.9081 H   0  0  0  0  0  0
  -22.0598   -2.7609   23.2848 H   0  0  0  0  0  0
  -22.4096  -11.9892   22.4787 H   0  0  0  0  0  0
  -21.1116  -13.1266   22.2583 H   0  0  0  0  0  0
  -24.6742  -15.8496   20.5243 H   0  0  0  0  0  0
  -26.2950  -15.6254   20.1036 H   0  0  0  0  0  0
  -26.7089  -32.5576   23.1204 H   0  0  0  0  0  0
  -25.0025  -33.9808   25.0502 H   0  0  0  0  0  0
  -22.6845  -31.3078   21.4135 H   0  0  0  0  0  0
  -23.3743  -35.9654   23.3299 H   0  0  0  0  0  0
  -24.3590  -36.8925   22.2052 H   0  0  0  0  0  0
  -23.7221  -37.6520   23.6655 H   0  0  0  0  0  0
  -26.0231  -31.6194   20.5907 H   0  0  0  0  0  0
  -26.8093  -30.9081   21.9743 H   0  0  0  0  0  0
  -28.0924  -29.1667   21.1517 H   0  0  0  0  0  0
  -26.1128  -25.9922   19.0100 H   0  0  0  0  0  0
  -23.9911  -27.2850   19.0364 H   0  0  0  0  0  0
  -23.7087  -30.5952   19.4084 H   0  0  0  0  0  0
  -22.7326  -29.2309   19.8765 H   0  0  0  0  0  0
  -25.1269  -36.2014   25.0831 H   0  0  0  0  0  0
  -20.9928  -28.3226   24.1456 H   0  0  0  0  0  0
  -20.5641  -26.2268   23.3596 H   0  0  0  0  0  0
  -21.6635  -26.7449   22.1212 H   0  0  0  0  0  0
  -19.6900  -25.6301   21.1220 H   0  0  0  0  0  0
  -19.6669  -27.3209   20.6744 H   0  0  0  0  0  0
  -17.4175  -26.6655   21.4020 H   0  0  0  0  0  0
  -18.0311  -26.0052   22.9010 H   0  0  0  0  0  0
  -19.7934  -30.7215   24.2313 H   0  0  0  0  0  0
  -17.5024  -31.6267   24.5168 H   0  0  0  0  0  0
  -15.5345  -30.3006   23.7621 H   0  0  0  0  0  0
  -15.8656  -28.0824   22.7073 H   0  0  0  0  0  0
  -24.5938  -30.6989   25.7823 H   0  0  0  0  0  0
  -24.8875  -32.2813   26.4931 H   0  0  0  0  0  0
  -25.8092  -30.8879   27.0244 H   0  0  0  0  0  0
  -26.2809  -29.6820   24.1115 H   0  0  0  0  0  0
  -27.4083  -29.7273   25.4477 H   0  0  0  0  0  0
  -27.8625  -30.4371   23.9156 H   0  0  0  0  0  0
  -27.2709  -33.3622   26.2062 H   0  0  0  0  0  0
  -28.3871  -32.6823   25.0297 H   0  0  0  0  0  0
  -28.0709  -31.8407   26.5387 H   0  0  0  0  0  0
  -28.2602  -38.0114   24.7552 H   0  0  0  0  0  0
  -28.1084  -36.2650   24.6250 H   0  0  0  0  0  0
  -27.2314  -37.1415   25.8869 H   0  0  0  0  0  0
  -20.9289  -29.8747   21.6973 H   0  0  0  0  0  0
  -26.0193  -38.2881   24.1419 H   0  0  0  0  0  0
  -31.6119  -21.1585   22.0222 H   0  0  0  0  0  0
  -30.6275  -23.2105   22.8797 H   0  0  0  0  0  0
  -26.3543  -21.5088   24.6804 H   0  0  0  0  0  0
  -26.0040  -20.1546   23.6127 H   0  0  0  0  0  0
  -25.8500  -21.8025   23.0092 H   0  0  0  0  0  0
  -31.3196  -19.1022   24.2824 H   0  0  0  0  0  0
  -32.6933  -18.5818   23.3056 H   0  0  0  0  0  0
  -31.9965  -17.5123   24.5238 H   0  0  0  0  0  0
  -31.2996  -18.9515   21.0978 H   0  0  0  0  0  0
  -29.7128  -18.2397   21.0184 H   0  0  0  0  0  0
  -29.4202  -15.9112   21.3047 H   0  0  0  0  0  0
  -29.9600  -14.8963   22.6298 H   0  0  0  0  0  0
  -27.0744  -25.3710   21.8761 H   0  0  0  0  0  0
  -28.3228  -24.3255   21.2483 H   0  0  0  0  0  0
  -28.1108  -25.5884   24.0128 H   0  0  0  0  0  0
  -29.6228  -24.9259   23.4884 H   0  0  0  0  0  0
  -32.0247  -16.7196   21.3020 H   0  0  0  0  0  0
  -32.0403  -15.9402   22.8469 H   0  0  0  0  0  0
  -29.9639  -26.1153   21.2148 H   0  0  0  0  0  0
  -28.8965  -27.2195   22.0390 H   0  0  0  0  0  0
  -27.0728  -23.4711   24.0028 H   0  0  0  0  0  0
  -29.9991  -17.4339   23.2445 H   0  0  0  0  0  0
  1 25  1  0  0  0
  1 30  2  0  0  0
  1 80  1  0  0  0
  2  3  1  0  0  0
  2 25  1  0  0  0
  2 88  1  0  0  0
  2 89  1  0  0  0
  3  4  1  0  0  0
  3 90  1  0  0  0
  3 91  1  0  0  0
  4  5  1  0  0  0
  4 92  1  0  0  0
  4 93  1  0  0  0
  5  6  1  0  0  0
  5 26  1  0  0  0
  5 94  1  0  0  0
  6 25  1  0  0  0
  6 95  1  0  0  0
  6 96  1  0  0  0
  7  8  2  0  0  0
  7 26  1  0  0  0
  7 29  1  0  0  0
  8  9  1  0  0  0
  8 22  1  0  0  0
  9 10  1  0  0  0
  9 27  2  0  0  0
 10 11  2  0  0  0
 10 15  1  0  0  0
 11 12  1  0  0  0
 11 97  1  0  0  0
 12 13  2  0  0  0
 12 98  1  0  0  0
 13 14  1  0  0  0
 13 31  1  0  0  0
 14 15  2  0  0  0
 14 99  1  0  0  0
 15100  1  0  0  0
 16 17  2  0  0  0
 16 21  1  0  0  0
 16 31  1  0  0  0
 17 18  1  0  0  0
 17101  1  0  0  0
 18 19  2  0  0  0
 18102  1  0  0  0
 19 20  1  0  0  0
 19 24  1  0  0  0
 20 21  2  0  0  0
 20103  1  0  0  0
 21 23  1  0  0  0
 22 28  1  0  0  0
 22 32  2  0  0  0
 26 27  1  0  0  0
 28104  1  0  0  0
 28105  1  0  0  0
 29106  1  0  0  0
 29107  1  0  0  0
 33 34  1  0  0  0
 33 66  1  0  0  0
 33 70  2  0  0  0
 34 36  1  0  0  0
 34 59  1  0  0  0
 34108  1  0  0  0
 35 44  2  0  0  0
 35 45  1  0  0  0
 35 68  1  0  0  0
 36 56  1  0  0  0
 36109  1  0  0  0
 37 39  1  0  0  0
 37 47  1  0  0  0
 37 66  1  0  0  0
 37110  1  0  0  0
 38 43  2  0  0  0
 38 46  1  0  0  0
 38 47  1  0  0  0
 39 64  1  0  0  0
 39 67  2  0  0  0
 40 52  1  0  0  0
 40 53  2  0  0  0
 40 58  1  0  0  0
 41111  1  0  0  0
 41112  1  0  0  0
 41113  1  0  0  0
 41 48  1  0  0  0
 42 43  1  0  0  0
 42 66  1  0  0  0
 42114  1  0  0  0
 42115  1  0  0  0
 43 44  1  0  0  0
 44116  1  0  0  0
 45 46  2  0  0  0
 45117  1  0  0  0
 46118  1  0  0  0
 47119  1  0  0  0
 47120  1  0  0  0
 48 56  1  0  0  0
 48 65  1  0  0  0
 48121  1  0  0  0
 49 50  1  0  0  0
 49 53  1  0  0  0
 49 64  1  0  0  0
 49122  1  0  0  0
 50 51  1  0  0  0
 50123  1  0  0  0
 50124  1  0  0  0
 51 52  1  0  0  0
 51125  1  0  0  0
 51126  1  0  0  0
 52127  1  0  0  0
 52128  1  0  0  0
 53 54  1  0  0  0
 54 55  2  0  0  0
 54129  1  0  0  0
 55 57  1  0  0  0
 55130  1  0  0  0
 56 69  2  0  0  0
 57 58  2  0  0  0
 57131  1  0  0  0
 58132  1  0  0  0
 59 60  1  0  0  0
 59 61  1  0  0  0
 59 62  1  0  0  0
 60133  1  0  0  0
 60134  1  0  0  0
 60135  1  0  0  0
 61136  1  0  0  0
 61137  1  0  0  0
 61138  1  0  0  0
 62139  1  0  0  0
 62140  1  0  0  0
 62141  1  0  0  0
 63 65  1  0  0  0
 63142  1  0  0  0
 63143  1  0  0  0
 63144  1  0  0  0
 64145  1  0  0  0
 65146  1  0  0  0
 68 84  1  0  0  0
 71 72  2  0  0  0
 71 73  1  0  0  0
 71147  1  0  0  0
 72 75  1  0  0  0
 72148  1  0  0  0
 73 76  2  0  0  0
 73 79  1  0  0  0
 74 75  2  0  0  0
 74 76  1  0  0  0
 74 77  1  0  0  0
 75 85  1  0  0  0
 76 87  1  0  0  0
 77149  1  0  0  0
 77150  1  0  0  0
 77151  1  0  0  0
 78152  1  0  0  0
 78153  1  0  0  0
 78154  1  0  0  0
 78 86  1  0  0  0
 79 86  1  0  0  0
 79155  1  0  0  0
 79156  1  0  0  0
 80 83  1  0  0  0
 80157  1  0  0  0
 80158  1  0  0  0
 81 82  1  0  0  0
 81 84  1  0  0  0
 81159  1  0  0  0
 81160  1  0  0  0
 82 85  1  0  0  0
 82161  1  0  0  0
 82162  1  0  0  0
 83 86  1  0  0  0
 83163  1  0  0  0
 83164  1  0  0  0
 84165  1  0  0  0
 84166  1  0  0  0
 85167  1  0  0  0
 86168  1  0  0  0
M  CHG  1  86   1
M  ISO  4   1 100  68 101  80 100  84 101
M  END
> <chiral flag>
0

> <version>
0

> <s_m_source_file>
/data/baiqing/PycharmProjects/Reinvent-master-3.2/result/LINK_invent/BTK/process_docking_weight1_custom_product_contain_oxygen_bond_distance_aromatic_linkinvent_7_9_3/rearranged_h_0022.sdf

> <i_m_source_file_index>
63

> <r_mmod_Potential_Energy-OPLS-2005>
-237.008544921875

> <r_mmod_Stretch_Energy-OPLS-2005>
34.6408500671387

> <r_mmod_Bend_Energy-OPLS-2005>
96.0085830688477

> <r_mmod_Torsional_Energy-OPLS-2005>
174.636779785156

> <r_mmod_Improper_Torsional_Energy-OPLS-2005>
3.66023087501526

> <r_mmod_Van_der_Waal_Energy-OPLS-2005>
161.48779296875

> <r_mmod_Electrostatic_Energy-OPLS-2005>
-287.725433349609

> <r_mmod_Solvation_Energy-OPLS-2005>
-426.244812011719

> <b_mmod_Minimization_Converged-OPLS-2005>
0

> <r_mmod_RMS_Derivative-OPLS-2005>
1.7162561416626

$$$$
64
                    3D
 Structure written by MMmdl.
156165  0  0  1  0            999 V2000
  -30.5217  -14.9217   20.4425 C   0  0  0  0  0  0
  -30.4492  -12.5670   19.5055 C   0  0  0  0  0  0
  -29.5327  -12.5604   18.2603 C   0  0  0  0  0  0
  -28.0634  -12.3402   18.6692 C   0  0  0  0  0  0
  -27.6404  -13.2459   19.8536 C   0  0  2  0  0  0
  -28.6781  -13.2325   20.9972 C   0  0  0  0  0  0
  -25.2495  -13.8203   20.5683 C   0  0  0  0  0  0
  -24.1819  -13.0439   20.9201 C   0  0  0  0  0  0
  -24.6430  -11.6920   20.8752 C   0  0  0  0  0  0
  -23.9103  -10.4299   21.0408 C   0  0  0  0  0  0
  -24.3637   -9.4207   21.9187 C   0  0  0  0  0  0
  -23.6306   -8.2246   22.0745 C   0  0  0  0  0  0
  -22.4289   -8.0297   21.3536 C   0  0  0  0  0  0
  -21.9940   -9.0277   20.4635 C   0  0  0  0  0  0
  -22.7274  -10.2149   20.3045 C   0  0  0  0  0  0
  -21.6855   -6.0755   22.5284 C   0  0  0  0  0  0
  -21.4013   -6.5644   23.8219 C   0  0  0  0  0  0
  -21.3653   -5.6783   24.9179 C   0  0  0  0  0  0
  -21.6032   -4.3049   24.7217 C   0  0  0  0  0  0
  -21.8819   -3.8154   23.4338 C   0  0  0  0  0  0
  -21.9188   -4.6981   22.3400 C   0  0  0  0  0  0
  -22.7825  -13.5201   21.1873 C   0  0  0  0  0  0
  -22.1661   -4.2164   21.0983 F   0  0  0  0  0  0
  -21.5625   -3.4534   25.7730 F   0  0  0  0  0  0
  -29.9678  -13.6430   20.4224 N   0  0  0  0  0  0
  -26.2936  -12.9433   20.3272 N   0  0  0  0  0  0
  -25.9363  -11.6569   20.5740 N   0  0  0  0  0  0
  -22.0462  -12.8206   22.0427 N   0  0  0  0  0  0
  -25.4219  -15.1939   20.4069 N   0  0  0  0  0  0
  -31.6987  -15.0410   20.0800 O   0  0  0  0  0  0
  -21.6626   -6.8916   21.4254 O   0  0  0  0  0  0
  -22.3517  -14.5517   20.6733 O   0  0  0  0  0  0
  -24.6378  -31.8397   23.1858 C   0  0  0  0  0  0
  -25.9146  -32.4687   23.8216 C   0  0  1  0  0  0
  -27.2212  -27.1439   20.1684 C   0  0  0  0  0  0
  -25.5888  -33.8474   24.2137 N   0  0  0  0  0  0
  -23.4435  -30.4526   21.5328 C   0  0  2  0  0  0
  -24.8960  -28.8785   20.1134 C   0  0  0  0  0  0
  -22.7544  -29.4480   22.4910 C   0  0  0  0  0  0
  -18.0262  -28.1408   22.8486 C   0  0  0  0  0  0
  -24.1454  -36.7223   23.2639 C   0  0  0  0  0  0
  -25.9935  -30.7232   21.3771 C   0  0  0  0  0  0
  -26.0711  -29.3318   20.7282 C   0  0  0  0  0  0
  -27.2361  -28.4795   20.7381 C   0  0  0  0  0  0
  -26.0187  -26.7834   19.5234 C   0  0  0  0  0  0
  -24.8819  -27.6183   19.4950 C   0  0  0  0  0  0
  -23.6652  -29.7693   20.1561 C   0  0  0  0  0  0
  -25.4102  -36.3029   24.0314 C   0  0  1  0  0  0
  -20.5873  -28.3678   23.1286 C   0  0  2  0  0  0
  -20.6758  -26.9387   22.5427 C   0  0  0  0  0  0
  -19.5748  -26.6404   21.5214 C   0  0  0  0  0  0
  -18.1923  -26.7949   22.1616 C   0  0  0  0  0  0
  -19.1525  -28.8866   23.2876 C   0  0  0  0  0  0
  -18.9455  -30.1470   23.8893 C   0  0  0  0  0  0
  -17.6462  -30.6627   24.0552 C   0  0  0  0  0  0
  -25.9053  -34.9400   23.5050 C   0  0  0  0  0  0
  -16.5344  -29.9121   23.6358 C   0  0  0  0  0  0
  -16.7247  -28.6525   23.0395 C   0  0  0  0  0  0
  -26.4468  -31.6573   25.0655 C   0  0  0  0  0  0
  -25.3652  -31.3785   26.1356 C   0  0  0  0  0  0
  -27.0308  -30.2981   24.6204 C   0  0  0  0  0  0
  -27.6004  -32.4307   25.7460 C   0  0  0  0  0  0
  -27.5556  -37.1758   24.8460 C   0  0  0  0  0  0
  -21.4225  -29.3009   22.3685 N   0  0  0  0  0  0
  -26.4258  -37.3759   23.9420 N   0  0  0  0  0  0
  -24.7118  -31.0260   22.0881 N   0  0  0  0  0  0
  -23.4204  -28.8025   23.3051 O   0  0  0  0  0  0
  -28.2884  -26.1825   20.2400 O   0  0  0  0  0  0
  -26.5667  -34.8919   22.4646 O   0  0  0  0  0  0
  -23.5500  -32.1191   23.7123 O   0  0  0  0  0  0
  -29.4211  -19.9531   21.4495 C   0  0  0  0  0  0
  -29.7007  -18.2354   19.2857 C   0  0  0  0  0  0
  -29.4242  -20.6363   20.1811 C   0  0  0  0  0  0
  -29.7326  -17.5602   20.5495 C   0  0  0  0  0  0
  -29.5538  -18.5087   21.6225 C   0  0  0  0  0  0
  -29.5580  -19.6722   19.1129 C   0  0  0  0  0  0
  -31.2435  -22.8230   21.5439 C   0  0  0  0  0  0
  -29.9533  -23.6098   21.8075 C   0  0  0  0  0  0
  -31.0570  -22.1739   20.1522 C   0  0  0  0  0  0
  -29.3001  -23.5476   20.4395 C   0  0  2  0  0  0
  -28.0735  -24.6435   20.1262 C   0  0  0  0  0  0
  -29.6047  -22.0983   19.8963 N   0  0  0  0  0  0
  -29.7070  -16.0373   20.7522 N   0  0  0  0  0  0
  -29.5119  -18.0218   22.8879 F   0  0  0  0  0  0
  -29.5992  -20.1430   17.8399 F   0  0  0  0  0  0
  -31.4849  -12.7232   19.1988 H   0  0  0  0  0  0
  -30.4301  -11.5943   20.0018 H   0  0  0  0  0  0
  -29.8515  -11.7941   17.5536 H   0  0  0  0  0  0
  -29.6273  -13.5136   17.7369 H   0  0  0  0  0  0
  -27.9547  -11.2934   18.9529 H   0  0  0  0  0  0
  -27.4021  -12.4931   17.8156 H   0  0  0  0  0  0
  -27.6202  -14.2612   19.4553 H   0  0  0  0  0  0
  -28.7477  -12.2426   21.4489 H   0  0  0  0  0  0
  -28.3750  -13.9096   21.7973 H   0  0  0  0  0  0
  -25.2782   -9.5662   22.4766 H   0  0  0  0  0  0
  -24.0002   -7.4622   22.7456 H   0  0  0  0  0  0
  -21.0863   -8.8797   19.8943 H   0  0  0  0  0  0
  -22.3744  -10.9688   19.6142 H   0  0  0  0  0  0
  -21.2015   -7.6154   23.9741 H   0  0  0  0  0  0
  -21.1468   -6.0509   25.9086 H   0  0  0  0  0  0
  -22.0609   -2.7621   23.2819 H   0  0  0  0  0  0
  -22.4045  -11.9850   22.4819 H   0  0  0  0  0  0
  -21.1074  -13.1249   22.2612 H   0  0  0  0  0  0
  -24.6514  -15.8472   20.4951 H   0  0  0  0  0  0
  -26.2632  -15.6233   20.0465 H   0  0  0  0  0  0
  -26.7173  -32.5296   23.0916 H   0  0  0  0  0  0
  -24.9961  -33.9545   25.0230 H   0  0  0  0  0  0
  -22.7439  -31.2750   21.3702 H   0  0  0  0  0  0
  -23.3752  -35.9514   23.3307 H   0  0  0  0  0  0
  -24.3532  -36.8842   22.2047 H   0  0  0  0  0  0
  -23.7167  -37.6397   23.6680 H   0  0  0  0  0  0
  -26.1344  -31.4759   20.5994 H   0  0  0  0  0  0
  -26.8692  -30.7893   22.0100 H   0  0  0  0  0  0
  -28.1337  -28.8183   21.2403 H   0  0  0  0  0  0
  -25.9299  -25.8141   19.0556 H   0  0  0  0  0  0
  -23.9853  -27.2609   19.0075 H   0  0  0  0  0  0
  -23.7710  -30.5261   19.3777 H   0  0  0  0  0  0
  -22.7840  -29.1910   19.8730 H   0  0  0  0  0  0
  -25.1314  -36.1845   25.0815 H   0  0  0  0  0  0
  -20.9924  -28.3240   24.1419 H   0  0  0  0  0  0
  -20.5648  -26.2253   23.3608 H   0  0  0  0  0  0
  -21.6637  -26.7420   22.1229 H   0  0  0  0  0  0
  -19.6915  -25.6322   21.1246 H   0  0  0  0  0  0
  -19.6743  -27.3209   20.6744 H   0  0  0  0  0  0
  -17.4189  -26.6641   21.4034 H   0  0  0  0  0  0
  -18.0333  -26.0132   22.9047 H   0  0  0  0  0  0
  -19.7949  -30.7271   24.2275 H   0  0  0  0  0  0
  -17.5037  -31.6317   24.5147 H   0  0  0  0  0  0
  -15.5352  -30.3029   23.7753 H   0  0  0  0  0  0
  -15.8616  -28.0854   22.7159 H   0  0  0  0  0  0
  -24.5854  -30.7091   25.7718 H   0  0  0  0  0  0
  -24.8780  -32.2953   26.4674 H   0  0  0  0  0  0
  -25.7932  -30.9057   27.0199 H   0  0  0  0  0  0
  -26.2882  -29.6739   24.1226 H   0  0  0  0  0  0
  -27.3933  -29.7274   25.4757 H   0  0  0  0  0  0
  -27.8798  -30.4223   23.9484 H   0  0  0  0  0  0
  -27.2627  -33.3646   26.1962 H   0  0  0  0  0  0
  -28.3908  -32.6788   25.0369 H   0  0  0  0  0  0
  -28.0563  -31.8446   26.5438 H   0  0  0  0  0  0
  -28.2606  -38.0035   24.7581 H   0  0  0  0  0  0
  -28.1049  -36.2593   24.6268 H   0  0  0  0  0  0
  -27.2267  -37.1361   25.8855 H   0  0  0  0  0  0
  -20.9407  -29.8675   21.6831 H   0  0  0  0  0  0
  -26.0137  -38.2806   24.1539 H   0  0  0  0  0  0
  -29.3592  -20.5522   22.3443 H   0  0  0  0  0  0
  -29.7714  -17.6390   18.3897 H   0  0  0  0  0  0
  -31.3942  -22.0713   22.3188 H   0  0  0  0  0  0
  -32.1212  -23.4727   21.5414 H   0  0  0  0  0  0
  -30.1450  -24.6353   22.1347 H   0  0  0  0  0  0
  -29.3321  -23.1193   22.5584 H   0  0  0  0  0  0
  -31.6208  -21.2372   20.0891 H   0  0  0  0  0  0
  -31.5029  -22.8025   19.3788 H   0  0  0  0  0  0
  -30.0004  -24.1298   19.8335 H   0  0  0  0  0  0
  -27.7522  -24.4611   19.0989 H   0  0  0  0  0  0
  -27.2173  -24.3836   20.7509 H   0  0  0  0  0  0
  -28.8582  -15.7338   21.2052 H   0  0  0  0  0  0
  1 25  1  0  0  0
  1 30  2  0  0  0
  1 83  1  0  0  0
  2  3  1  0  0  0
  2 25  1  0  0  0
  2 86  1  0  0  0
  2 87  1  0  0  0
  3  4  1  0  0  0
  3 88  1  0  0  0
  3 89  1  0  0  0
  4  5  1  0  0  0
  4 90  1  0  0  0
  4 91  1  0  0  0
  5  6  1  0  0  0
  5 26  1  0  0  0
  5 92  1  0  0  0
  6 25  1  0  0  0
  6 93  1  0  0  0
  6 94  1  0  0  0
  7  8  2  0  0  0
  7 26  1  0  0  0
  7 29  1  0  0  0
  8  9  1  0  0  0
  8 22  1  0  0  0
  9 10  1  0  0  0
  9 27  2  0  0  0
 10 11  2  0  0  0
 10 15  1  0  0  0
 11 12  1  0  0  0
 11 95  1  0  0  0
 12 13  2  0  0  0
 12 96  1  0  0  0
 13 14  1  0  0  0
 13 31  1  0  0  0
 14 15  2  0  0  0
 14 97  1  0  0  0
 15 98  1  0  0  0
 16 17  2  0  0  0
 16 21  1  0  0  0
 16 31  1  0  0  0
 17 18  1  0  0  0
 17 99  1  0  0  0
 18 19  2  0  0  0
 18100  1  0  0  0
 19 20  1  0  0  0
 19 24  1  0  0  0
 20 21  2  0  0  0
 20101  1  0  0  0
 21 23  1  0  0  0
 22 28  1  0  0  0
 22 32  2  0  0  0
 26 27  1  0  0  0
 28102  1  0  0  0
 28103  1  0  0  0
 29104  1  0  0  0
 29105  1  0  0  0
 33 34  1  0  0  0
 33 66  1  0  0  0
 33 70  2  0  0  0
 34 36  1  0  0  0
 34 59  1  0  0  0
 34106  1  0  0  0
 35 44  2  0  0  0
 35 45  1  0  0  0
 35 68  1  0  0  0
 36 56  1  0  0  0
 36107  1  0  0  0
 37 39  1  0  0  0
 37 47  1  0  0  0
 37 66  1  0  0  0
 37108  1  0  0  0
 38 43  2  0  0  0
 38 46  1  0  0  0
 38 47  1  0  0  0
 39 64  1  0  0  0
 39 67  2  0  0  0
 40 52  1  0  0  0
 40 53  2  0  0  0
 40 58  1  0  0  0
 41109  1  0  0  0
 41110  1  0  0  0
 41111  1  0  0  0
 41 48  1  0  0  0
 42 43  1  0  0  0
 42 66  1  0  0  0
 42112  1  0  0  0
 42113  1  0  0  0
 43 44  1  0  0  0
 44114  1  0  0  0
 45 46  2  0  0  0
 45115  1  0  0  0
 46116  1  0  0  0
 47117  1  0  0  0
 47118  1  0  0  0
 48 56  1  0  0  0
 48 65  1  0  0  0
 48119  1  0  0  0
 49 50  1  0  0  0
 49 53  1  0  0  0
 49 64  1  0  0  0
 49120  1  0  0  0
 50 51  1  0  0  0
 50121  1  0  0  0
 50122  1  0  0  0
 51 52  1  0  0  0
 51123  1  0  0  0
 51124  1  0  0  0
 52125  1  0  0  0
 52126  1  0  0  0
 53 54  1  0  0  0
 54 55  2  0  0  0
 54127  1  0  0  0
 55 57  1  0  0  0
 55128  1  0  0  0
 56 69  2  0  0  0
 57 58  2  0  0  0
 57129  1  0  0  0
 58130  1  0  0  0
 59 60  1  0  0  0
 59 61  1  0  0  0
 59 62  1  0  0  0
 60131  1  0  0  0
 60132  1  0  0  0
 60133  1  0  0  0
 61134  1  0  0  0
 61135  1  0  0  0
 61136  1  0  0  0
 62137  1  0  0  0
 62138  1  0  0  0
 62139  1  0  0  0
 63 65  1  0  0  0
 63140  1  0  0  0
 63141  1  0  0  0
 63142  1  0  0  0
 64143  1  0  0  0
 65144  1  0  0  0
 68 81  1  0  0  0
 71 73  2  0  0  0
 71 75  1  0  0  0
 71145  1  0  0  0
 72 74  1  0  0  0
 72 76  2  0  0  0
 72146  1  0  0  0
 73 76  1  0  0  0
 73 82  1  0  0  0
 74 75  2  0  0  0
 74 83  1  0  0  0
 75 84  1  0  0  0
 76 85  1  0  0  0
 77 78  1  0  0  0
 77 79  1  0  0  0
 77147  1  0  0  0
 77148  1  0  0  0
 78 80  1  0  0  0
 78149  1  0  0  0
 78150  1  0  0  0
 79 82  1  0  0  0
 79151  1  0  0  0
 79152  1  0  0  0
 80 81  1  0  0  0
 80 82  1  0  0  0
 80153  1  0  0  0
 81154  1  0  0  0
 81155  1  0  0  0
 83156  1  0  0  0
M  ISO  4   1 100  68 101  81 101  83 100
M  END
> <chiral flag>
0

> <version>
0

> <s_m_source_file>
/data/baiqing/PycharmProjects/Reinvent-master-3.2/result/LINK_invent/BTK/process_docking_weight1_custom_product_contain_oxygen_bond_distance_aromatic_linkinvent_7_9_3/rearranged_h_0022.sdf

> <i_m_source_file_index>
64

> <r_mmod_Potential_Energy-OPLS-2005>
688.581665039062

> <r_mmod_Stretch_Energy-OPLS-2005>
230.535690307617

> <r_mmod_Bend_Energy-OPLS-2005>
399.356506347656

> <r_mmod_Torsional_Energy-OPLS-2005>
309.806854248047

> <r_mmod_Improper_Torsional_Energy-OPLS-2005>
14.3776206970215

> <r_mmod_Van_der_Waal_Energy-OPLS-2005>
141.478607177734

> <r_mmod_Electrostatic_Energy-OPLS-2005>
-360.910217285156

> <r_mmod_Solvation_Energy-OPLS-2005>
-223.867889404297

> <b_mmod_Minimization_Converged-OPLS-2005>
0

> <r_mmod_RMS_Derivative-OPLS-2005>
3.73912048339844

$$$$
65
                    3D
 Structure written by MMmdl.
156165  0  0  1  0            999 V2000
  -30.6716  -14.6626   20.5055 C   0  0  0  0  0  0
  -30.4269  -12.4281   19.4312 C   0  0  0  0  0  0
  -29.4904  -12.5193   18.2082 C   0  0  0  0  0  0
  -28.0142  -12.3645   18.6285 C   0  0  0  0  0  0
  -27.6483  -13.2223   19.8720 C   0  0  2  0  0  0
  -28.7095  -13.0427   20.9790 C   0  0  0  0  0  0
  -25.2519  -13.8167   20.5721 C   0  0  0  0  0  0
  -24.1799  -13.0425   20.9219 C   0  0  0  0  0  0
  -24.6385  -11.6904   20.8769 C   0  0  0  0  0  0
  -23.9062  -10.4285   21.0417 C   0  0  0  0  0  0
  -24.3615   -9.4199   21.9191 C   0  0  0  0  0  0
  -23.6292   -8.2233   22.0755 C   0  0  0  0  0  0
  -22.4275   -8.0275   21.3544 C   0  0  0  0  0  0
  -21.9911   -9.0249   20.4647 C   0  0  0  0  0  0
  -22.7238  -10.2129   20.3060 C   0  0  0  0  0  0
  -21.6850   -6.0735   22.5280 C   0  0  0  0  0  0
  -21.4013   -6.5640   23.8213 C   0  0  0  0  0  0
  -21.3659   -5.6793   24.9176 C   0  0  0  0  0  0
  -21.6044   -4.3055   24.7227 C   0  0  0  0  0  0
  -21.8819   -3.8148   23.4348 C   0  0  0  0  0  0
  -21.9193   -4.6964   22.3404 C   0  0  0  0  0  0
  -22.7819  -13.5217   21.1859 C   0  0  0  0  0  0
  -22.1660   -4.2150   21.0981 F   0  0  0  0  0  0
  -21.5631   -3.4538   25.7740 F   0  0  0  0  0  0
  -29.9886  -13.4676   20.3942 N   0  0  0  0  0  0
  -26.2972  -12.9368   20.3425 N   0  0  0  0  0  0
  -25.9324  -11.6515   20.5822 N   0  0  0  0  0  0
  -22.0458  -12.8217   22.0415 N   0  0  0  0  0  0
  -25.4189  -15.1875   20.4066 N   0  0  0  0  0  0
  -31.8649  -14.6716   20.1820 O   0  0  0  0  0  0
  -21.6636   -6.8876   21.4241 O   0  0  0  0  0  0
  -22.3510  -14.5521   20.6697 O   0  0  0  0  0  0
  -24.6253  -31.8605   23.2038 C   0  0  0  0  0  0
  -25.9103  -32.4783   23.8363 C   0  0  1  0  0  0
  -27.2211  -27.3285   20.1189 C   0  0  0  0  0  0
  -25.5924  -33.8584   24.2292 N   0  0  0  0  0  0
  -23.4188  -30.4845   21.5461 C   0  0  2  0  0  0
  -24.8659  -28.9420   20.1107 C   0  0  0  0  0  0
  -22.7470  -29.4627   22.4939 C   0  0  0  0  0  0
  -18.0286  -28.1381   22.8490 C   0  0  0  0  0  0
  -24.1489  -36.7297   23.2638 C   0  0  0  0  0  0
  -25.9590  -30.7940   21.3744 C   0  0  0  0  0  0
  -26.0342  -29.4219   20.7177 C   0  0  0  0  0  0
  -27.2176  -28.6264   20.7131 C   0  0  0  0  0  0
  -26.0384  -26.9074   19.4728 C   0  0  0  0  0  0
  -24.8693  -27.6894   19.4785 C   0  0  0  0  0  0
  -23.6333  -29.8205   20.1608 C   0  0  0  0  0  0
  -25.4112  -36.3089   24.0332 C   0  0  1  0  0  0
  -20.5885  -28.3685   23.1285 C   0  0  2  0  0  0
  -20.6776  -26.9408   22.5410 C   0  0  0  0  0  0
  -19.5752  -26.6382   21.5212 C   0  0  0  0  0  0
  -18.1933  -26.7925   22.1625 C   0  0  0  0  0  0
  -19.1537  -28.8850   23.2885 C   0  0  0  0  0  0
  -18.9459  -30.1452   23.8902 C   0  0  0  0  0  0
  -17.6459  -30.6585   24.0562 C   0  0  0  0  0  0
  -25.9047  -34.9455   23.5112 C   0  0  0  0  0  0
  -16.5351  -29.9084   23.6327 C   0  0  0  0  0  0
  -16.7272  -28.6499   23.0353 C   0  0  0  0  0  0
  -26.4495  -31.6585   25.0725 C   0  0  0  0  0  0
  -25.3733  -31.3714   26.1453 C   0  0  0  0  0  0
  -27.0336  -30.3013   24.6166 C   0  0  0  0  0  0
  -27.6059  -32.4314   25.7494 C   0  0  0  0  0  0
  -27.5581  -37.1803   24.8464 C   0  0  0  0  0  0
  -21.4184  -29.3042   22.3681 N   0  0  0  0  0  0
  -26.4293  -37.3780   23.9409 N   0  0  0  0  0  0
  -24.6864  -31.0624   22.0986 N   0  0  0  0  0  0
  -23.4197  -28.8163   23.3014 O   0  0  0  0  0  0
  -28.3249  -26.4669   20.1472 O   0  0  0  0  0  0
  -26.5612  -34.8920   22.4676 O   0  0  0  0  0  0
  -23.5417  -32.1399   23.7371 O   0  0  0  0  0  0
  -28.3460  -20.0677   20.8678 C   0  0  0  0  0  0
  -30.3159  -21.0084   19.8482 C   0  0  0  0  0  0
  -28.8806  -18.7483   20.7291 C   0  0  0  0  0  0
  -30.1469  -18.5412   20.1578 C   0  0  0  0  0  0
  -29.0463  -21.2329   20.4354 C   0  0  0  0  0  0
  -30.8562  -19.6954   19.7148 C   0  0  0  0  0  0
  -28.0989  -17.5170   21.1527 C   0  0  0  0  0  0
  -30.7373  -17.1023   20.0202 C   0  0  0  0  0  0
  -28.9681  -16.2860   21.5441 C   0  0  0  0  0  0
  -28.9409  -23.8568   20.1236 C   0  0  0  0  0  0
  -28.0741  -25.0921   20.6372 C   0  0  0  0  0  0
  -30.0107  -15.8947   20.5648 N   0  0  0  0  0  0
  -28.4564  -22.5282   20.6168 N   0  0  0  0  0  0
  -32.4166  -19.5218   18.9918 Cl  0  0  0  0  0  0
  -31.4620  -12.5495   19.1080 H   0  0  0  0  0  0
  -30.3833  -11.4340   19.8791 H   0  0  0  0  0  0
  -29.7524  -11.7575   17.4727 H   0  0  0  0  0  0
  -29.6292  -13.4817   17.7126 H   0  0  0  0  0  0
  -27.8451  -11.3094   18.8467 H   0  0  0  0  0  0
  -27.3561  -12.6087   17.7937 H   0  0  0  0  0  0
  -27.6696  -14.2645   19.5524 H   0  0  0  0  0  0
  -28.7577  -11.9900   21.2616 H   0  0  0  0  0  0
  -28.4728  -13.5331   21.9173 H   0  0  0  0  0  0
  -25.2758   -9.5677   22.4768 H   0  0  0  0  0  0
  -24.0003   -7.4623   22.7471 H   0  0  0  0  0  0
  -21.0843   -8.8766   19.8951 H   0  0  0  0  0  0
  -22.3697  -10.9670   19.6170 H   0  0  0  0  0  0
  -21.2002   -7.6147   23.9720 H   0  0  0  0  0  0
  -21.1482   -6.0521   25.9080 H   0  0  0  0  0  0
  -22.0599   -2.7611   23.2848 H   0  0  0  0  0  0
  -22.4073  -11.9883   22.4812 H   0  0  0  0  0  0
  -21.1071  -13.1241   22.2608 H   0  0  0  0  0  0
  -24.6467  -15.8384   20.4981 H   0  0  0  0  0  0
  -26.2626  -15.6168   20.0522 H   0  0  0  0  0  0
  -26.7170  -32.5461   23.1112 H   0  0  0  0  0  0
  -25.0082  -33.9730   25.0444 H   0  0  0  0  0  0
  -22.7126  -31.3052   21.4036 H   0  0  0  0  0  0
  -23.3751  -35.9629   23.3301 H   0  0  0  0  0  0
  -24.3583  -36.8913   22.2052 H   0  0  0  0  0  0
  -23.7240  -37.6500   23.6654 H   0  0  0  0  0  0
  -26.0883  -31.5572   20.6059 H   0  0  0  0  0  0
  -26.8406  -30.8440   22.0019 H   0  0  0  0  0  0
  -28.1138  -28.9874   21.1983 H   0  0  0  0  0  0
  -26.0064  -25.9553   18.9626 H   0  0  0  0  0  0
  -23.9778  -27.3202   18.9904 H   0  0  0  0  0  0
  -23.7512  -30.5974   19.4045 H   0  0  0  0  0  0
  -22.7539  -29.2488   19.8585 H   0  0  0  0  0  0
  -25.1291  -36.1947   25.0826 H   0  0  0  0  0  0
  -20.9981  -28.3257   24.1404 H   0  0  0  0  0  0
  -20.5679  -26.2292   23.3607 H   0  0  0  0  0  0
  -21.6644  -26.7443   22.1198 H   0  0  0  0  0  0
  -19.6914  -25.6294   21.1239 H   0  0  0  0  0  0
  -19.6690  -27.3194   20.6744 H   0  0  0  0  0  0
  -17.4201  -26.6673   21.4029 H   0  0  0  0  0  0
  -18.0334  -26.0065   22.9019 H   0  0  0  0  0  0
  -19.7934  -30.7267   24.2275 H   0  0  0  0  0  0
  -17.5011  -31.6267   24.5160 H   0  0  0  0  0  0
  -15.5350  -30.2988   23.7646 H   0  0  0  0  0  0
  -15.8672  -28.0817   22.7070 H   0  0  0  0  0  0
  -24.5915  -30.7054   25.7781 H   0  0  0  0  0  0
  -24.8913  -32.2874   26.4879 H   0  0  0  0  0  0
  -25.8062  -30.8893   27.0226 H   0  0  0  0  0  0
  -26.2904  -29.6764   24.1198 H   0  0  0  0  0  0
  -27.4051  -29.7266   25.4661 H   0  0  0  0  0  0
  -27.8767  -30.4307   23.9375 H   0  0  0  0  0  0
  -27.2679  -33.3615   26.2074 H   0  0  0  0  0  0
  -28.3871  -32.6868   25.0320 H   0  0  0  0  0  0
  -28.0726  -31.8433   26.5407 H   0  0  0  0  0  0
  -28.2597  -38.0103   24.7516 H   0  0  0  0  0  0
  -28.1080  -36.2635   24.6287 H   0  0  0  0  0  0
  -27.2299  -37.1447   25.8867 H   0  0  0  0  0  0
  -20.9356  -29.8770   21.6899 H   0  0  0  0  0  0
  -26.0178  -38.2857   24.1409 H   0  0  0  0  0  0
  -27.3672  -20.1793   21.3138 H   0  0  0  0  0  0
  -30.9002  -21.8457   19.4961 H   0  0  0  0  0  0
  -27.4448  -17.2505   20.3225 H   0  0  0  0  0  0
  -27.4432  -17.7764   21.9853 H   0  0  0  0  0  0
  -31.7206  -17.1470   20.4926 H   0  0  0  0  0  0
  -30.9203  -16.9298   18.9582 H   0  0  0  0  0  0
  -28.2548  -15.5008   21.7418 H   0  0  0  0  0  0
  -29.4701  -16.4872   22.4916 H   0  0  0  0  0  0
  -29.9818  -23.9970   20.4187 H   0  0  0  0  0  0
  -28.9275  -23.8423   19.0329 H   0  0  0  0  0  0
  -28.1894  -25.1432   21.7206 H   0  0  0  0  0  0
  -27.0311  -24.8131   20.4973 H   0  0  0  0  0  0
  -27.5423  -22.5469   21.0629 H   0  0  0  0  0  0
  1 25  1  0  0  0
  1 30  2  0  0  0
  1 82  1  0  0  0
  2  3  1  0  0  0
  2 25  1  0  0  0
  2 85  1  0  0  0
  2 86  1  0  0  0
  3  4  1  0  0  0
  3 87  1  0  0  0
  3 88  1  0  0  0
  4  5  1  0  0  0
  4 89  1  0  0  0
  4 90  1  0  0  0
  5  6  1  0  0  0
  5 26  1  0  0  0
  5 91  1  0  0  0
  6 25  1  0  0  0
  6 92  1  0  0  0
  6 93  1  0  0  0
  7  8  2  0  0  0
  7 26  1  0  0  0
  7 29  1  0  0  0
  8  9  1  0  0  0
  8 22  1  0  0  0
  9 10  1  0  0  0
  9 27  2  0  0  0
 10 11  2  0  0  0
 10 15  1  0  0  0
 11 12  1  0  0  0
 11 94  1  0  0  0
 12 13  2  0  0  0
 12 95  1  0  0  0
 13 14  1  0  0  0
 13 31  1  0  0  0
 14 15  2  0  0  0
 14 96  1  0  0  0
 15 97  1  0  0  0
 16 17  2  0  0  0
 16 21  1  0  0  0
 16 31  1  0  0  0
 17 18  1  0  0  0
 17 98  1  0  0  0
 18 19  2  0  0  0
 18 99  1  0  0  0
 19 20  1  0  0  0
 19 24  1  0  0  0
 20 21  2  0  0  0
 20100  1  0  0  0
 21 23  1  0  0  0
 22 28  1  0  0  0
 22 32  2  0  0  0
 26 27  1  0  0  0
 28101  1  0  0  0
 28102  1  0  0  0
 29103  1  0  0  0
 29104  1  0  0  0
 33 34  1  0  0  0
 33 66  1  0  0  0
 33 70  2  0  0  0
 34 36  1  0  0  0
 34 59  1  0  0  0
 34105  1  0  0  0
 35 44  2  0  0  0
 35 45  1  0  0  0
 35 68  1  0  0  0
 36 56  1  0  0  0
 36106  1  0  0  0
 37 39  1  0  0  0
 37 47  1  0  0  0
 37 66  1  0  0  0
 37107  1  0  0  0
 38 43  2  0  0  0
 38 46  1  0  0  0
 38 47  1  0  0  0
 39 64  1  0  0  0
 39 67  2  0  0  0
 40 52  1  0  0  0
 40 53  2  0  0  0
 40 58  1  0  0  0
 41108  1  0  0  0
 41109  1  0  0  0
 41110  1  0  0  0
 41 48  1  0  0  0
 42 43  1  0  0  0
 42 66  1  0  0  0
 42111  1  0  0  0
 42112  1  0  0  0
 43 44  1  0  0  0
 44113  1  0  0  0
 45 46  2  0  0  0
 45114  1  0  0  0
 46115  1  0  0  0
 47116  1  0  0  0
 47117  1  0  0  0
 48 56  1  0  0  0
 48 65  1  0  0  0
 48118  1  0  0  0
 49 50  1  0  0  0
 49 53  1  0  0  0
 49 64  1  0  0  0
 49119  1  0  0  0
 50 51  1  0  0  0
 50120  1  0  0  0
 50121  1  0  0  0
 51 52  1  0  0  0
 51122  1  0  0  0
 51123  1  0  0  0
 52124  1  0  0  0
 52125  1  0  0  0
 53 54  1  0  0  0
 54 55  2  0  0  0
 54126  1  0  0  0
 55 57  1  0  0  0
 55127  1  0  0  0
 56 69  2  0  0  0
 57 58  2  0  0  0
 57128  1  0  0  0
 58129  1  0  0  0
 59 60  1  0  0  0
 59 61  1  0  0  0
 59 62  1  0  0  0
 60130  1  0  0  0
 60131  1  0  0  0
 60132  1  0  0  0
 61133  1  0  0  0
 61134  1  0  0  0
 61135  1  0  0  0
 62136  1  0  0  0
 62137  1  0  0  0
 62138  1  0  0  0
 63 65  1  0  0  0
 63139  1  0  0  0
 63140  1  0  0  0
 63141  1  0  0  0
 64142  1  0  0  0
 65143  1  0  0  0
 68 81  1  0  0  0
 71 73  2  0  0  0
 71 75  1  0  0  0
 71144  1  0  0  0
 72 75  2  0  0  0
 72 76  1  0  0  0
 72145  1  0  0  0
 73 74  1  0  0  0
 73 77  1  0  0  0
 74 76  2  0  0  0
 74 78  1  0  0  0
 75 83  1  0  0  0
 76 84  1  0  0  0
 77 79  1  0  0  0
 77146  1  0  0  0
 77147  1  0  0  0
 78 82  1  0  0  0
 78148  1  0  0  0
 78149  1  0  0  0
 79 82  1  0  0  0
 79150  1  0  0  0
 79151  1  0  0  0
 80 81  1  0  0  0
 80 83  1  0  0  0
 80152  1  0  0  0
 80153  1  0  0  0
 81154  1  0  0  0
 81155  1  0  0  0
 83156  1  0  0  0
M  ISO  4   1 100  68 101  81 101  82 100
M  END
> <chiral flag>
0

> <version>
0

> <s_m_source_file>
/data/baiqing/PycharmProjects/Reinvent-master-3.2/result/LINK_invent/BTK/process_docking_weight1_custom_product_contain_oxygen_bond_distance_aromatic_linkinvent_7_9_3/rearranged_h_0022.sdf

> <i_m_source_file_index>
65

> <r_mmod_Potential_Energy-OPLS-2005>
246.602264404297

> <r_mmod_Stretch_Energy-OPLS-2005>
84.036735534668

> <r_mmod_Bend_Energy-OPLS-2005>
172.11653137207

> <r_mmod_Torsional_Energy-OPLS-2005>
272.586700439453

> <r_mmod_Improper_Torsional_Energy-OPLS-2005>
13.4325981140137

> <r_mmod_Van_der_Waal_Energy-OPLS-2005>
156.129135131836

> <r_mmod_Electrostatic_Energy-OPLS-2005>
-288.775390625

> <r_mmod_Solvation_Energy-OPLS-2005>
-213.707336425781

> <b_mmod_Minimization_Converged-OPLS-2005>
0

> <r_mmod_RMS_Derivative-OPLS-2005>
0.35074058175087

$$$$
66
                    3D
 Structure written by MMmdl.
155164  0  0  1  0            999 V2000
  -30.6217  -14.6357   20.5067 C   0  0  0  0  0  0
  -30.4415  -12.3908   19.4512 C   0  0  0  0  0  0
  -29.5084  -12.5091   18.2249 C   0  0  0  0  0  0
  -28.0307  -12.3492   18.6365 C   0  0  0  0  0  0
  -27.6559  -13.2158   19.8686 C   0  0  2  0  0  0
  -28.7018  -13.0600   20.9960 C   0  0  0  0  0  0
  -25.2561  -13.8160   20.5686 C   0  0  0  0  0  0
  -24.1822  -13.0424   20.9161 C   0  0  0  0  0  0
  -24.6399  -11.6899   20.8727 C   0  0  0  0  0  0
  -23.9067  -10.4284   21.0398 C   0  0  0  0  0  0
  -24.3617   -9.4204   21.9180 C   0  0  0  0  0  0
  -23.6290   -8.2241   22.0754 C   0  0  0  0  0  0
  -22.4271   -8.0279   21.3544 C   0  0  0  0  0  0
  -21.9907   -9.0251   20.4644 C   0  0  0  0  0  0
  -22.7237  -10.2129   20.3050 C   0  0  0  0  0  0
  -21.6853   -6.0735   22.5279 C   0  0  0  0  0  0
  -21.4013   -6.5639   23.8212 C   0  0  0  0  0  0
  -21.3660   -5.6791   24.9174 C   0  0  0  0  0  0
  -21.6045   -4.3056   24.7223 C   0  0  0  0  0  0
  -21.8819   -3.8147   23.4345 C   0  0  0  0  0  0
  -21.9192   -4.6963   22.3401 C   0  0  0  0  0  0
  -22.7847  -13.5221   21.1838 C   0  0  0  0  0  0
  -22.1661   -4.2150   21.0979 F   0  0  0  0  0  0
  -21.5629   -3.4539   25.7738 F   0  0  0  0  0  0
  -30.0185  -13.4066   20.4354 N   0  0  0  0  0  0
  -26.3008  -12.9348   20.3358 N   0  0  0  0  0  0
  -25.9334  -11.6502   20.5770 N   0  0  0  0  0  0
  -22.0500  -12.8212   22.0404 N   0  0  0  0  0  0
  -25.4251  -15.1882   20.4153 N   0  0  0  0  0  0
  -31.7772  -14.8078   20.1072 O   0  0  0  0  0  0
  -21.6637   -6.8876   21.4241 O   0  0  0  0  0  0
  -22.3524  -14.5532   20.6700 O   0  0  0  0  0  0
  -24.6263  -31.8607   23.2038 C   0  0  0  0  0  0
  -25.9116  -32.4784   23.8361 C   0  0  1  0  0  0
  -27.2217  -27.3211   20.1123 C   0  0  0  0  0  0
  -25.5934  -33.8584   24.2287 N   0  0  0  0  0  0
  -23.4193  -30.4857   21.5467 C   0  0  2  0  0  0
  -24.8653  -28.9452   20.1101 C   0  0  0  0  0  0
  -22.7476  -29.4628   22.4938 C   0  0  0  0  0  0
  -18.0286  -28.1382   22.8485 C   0  0  0  0  0  0
  -24.1489  -36.7289   23.2636 C   0  0  0  0  0  0
  -25.9616  -30.7919   21.3760 C   0  0  0  0  0  0
  -26.0355  -29.4211   20.7147 C   0  0  0  0  0  0
  -27.2171  -28.6211   20.7063 C   0  0  0  0  0  0
  -26.0264  -26.9025   19.4804 C   0  0  0  0  0  0
  -24.8627  -27.6910   19.4845 C   0  0  0  0  0  0
  -23.6336  -29.8244   20.1608 C   0  0  0  0  0  0
  -25.4112  -36.3083   24.0331 C   0  0  1  0  0  0
  -20.5887  -28.3682   23.1285 C   0  0  2  0  0  0
  -20.6776  -26.9406   22.5407 C   0  0  0  0  0  0
  -19.5750  -26.6377   21.5212 C   0  0  0  0  0  0
  -18.1928  -26.7924   22.1623 C   0  0  0  0  0  0
  -19.1540  -28.8848   23.2881 C   0  0  0  0  0  0
  -18.9465  -30.1454   23.8894 C   0  0  0  0  0  0
  -17.6465  -30.6585   24.0561 C   0  0  0  0  0  0
  -25.9051  -34.9454   23.5106 C   0  0  0  0  0  0
  -16.5355  -29.9083   23.6334 C   0  0  0  0  0  0
  -16.7273  -28.6501   23.0352 C   0  0  0  0  0  0
  -26.4501  -31.6593   25.0731 C   0  0  0  0  0  0
  -25.3736  -31.3737   26.1460 C   0  0  0  0  0  0
  -27.0343  -30.3017   24.6182 C   0  0  0  0  0  0
  -27.6057  -32.4331   25.7503 C   0  0  0  0  0  0
  -27.5584  -37.1790   24.8459 C   0  0  0  0  0  0
  -21.4188  -29.3045   22.3689 N   0  0  0  0  0  0
  -26.4286  -37.3781   23.9419 N   0  0  0  0  0  0
  -24.6878  -31.0622   22.0989 N   0  0  0  0  0  0
  -23.4205  -28.8158   23.3006 O   0  0  0  0  0  0
  -28.3337  -26.4621   20.1688 O   0  0  0  0  0  0
  -26.5613  -34.8920   22.4668 O   0  0  0  0  0  0
  -23.5428  -32.1405   23.7367 O   0  0  0  0  0  0
  -30.8689  -19.3004   20.1105 C   0  0  0  0  0  0
  -30.9509  -17.8793   20.2404 C   0  0  0  0  0  0
  -28.6241  -19.2723   20.9562 C   0  0  0  0  0  0
  -29.7055  -20.0541   20.4602 C   0  0  0  0  0  0
  -29.8606  -17.1165   20.7329 C   0  0  0  0  0  0
  -28.7021  -17.8547   21.0867 C   0  0  0  0  0  0
  -28.7349  -22.4505   20.7052 C   0  0  0  0  0  0
  -30.3180  -23.7205   19.4802 C   0  0  0  0  0  0
  -30.7749  -22.2567   19.6782 C   0  0  0  0  0  0
  -29.1790  -23.9370   20.4782 C   0  0  1  0  0  0
  -28.0756  -25.0049   20.0534 C   0  0  0  0  0  0
  -29.6669  -21.5279   20.3030 N   0  0  0  0  0  0
  -29.8136  -15.6649   20.9029 N   0  0  0  0  0  0
  -27.6432  -22.1860   21.2170 O   0  0  0  0  0  0
  -27.6274  -17.1778   21.5588 F   0  0  0  0  0  0
  -31.4821  -12.5193   19.1480 H   0  0  0  0  0  0
  -30.3796  -11.3930   19.8881 H   0  0  0  0  0  0
  -29.7704  -11.7577   17.4789 H   0  0  0  0  0  0
  -29.6514  -13.4787   17.7453 H   0  0  0  0  0  0
  -27.8646  -11.2952   18.8626 H   0  0  0  0  0  0
  -27.3764  -12.5852   17.7965 H   0  0  0  0  0  0
  -27.6759  -14.2532   19.5343 H   0  0  0  0  0  0
  -28.7128  -12.0345   21.3679 H   0  0  0  0  0  0
  -28.4469  -13.6814   21.8558 H   0  0  0  0  0  0
  -25.2765   -9.5682   22.4749 H   0  0  0  0  0  0
  -24.0001   -7.4635   22.7476 H   0  0  0  0  0  0
  -21.0838   -8.8769   19.8950 H   0  0  0  0  0  0
  -22.3697  -10.9666   19.6158 H   0  0  0  0  0  0
  -21.2004   -7.6146   23.9716 H   0  0  0  0  0  0
  -21.1481   -6.0521   25.9077 H   0  0  0  0  0  0
  -22.0598   -2.7608   23.2845 H   0  0  0  0  0  0
  -22.4120  -11.9869   22.4781 H   0  0  0  0  0  0
  -21.1124  -13.1240   22.2628 H   0  0  0  0  0  0
  -24.6667  -15.8429   20.5697 H   0  0  0  0  0  0
  -26.3018  -15.6484   20.2060 H   0  0  0  0  0  0
  -26.7183  -32.5456   23.1106 H   0  0  0  0  0  0
  -25.0107  -33.9735   25.0450 H   0  0  0  0  0  0
  -22.7125  -31.3061   21.4052 H   0  0  0  0  0  0
  -23.3761  -35.9611   23.3285 H   0  0  0  0  0  0
  -24.3584  -36.8920   22.2053 H   0  0  0  0  0  0
  -23.7226  -37.6480   23.6665 H   0  0  0  0  0  0
  -26.0953  -31.5582   20.6109 H   0  0  0  0  0  0
  -26.8414  -30.8368   22.0063 H   0  0  0  0  0  0
  -28.1133  -28.9802   21.1924 H   0  0  0  0  0  0
  -25.9554  -25.9470   18.9836 H   0  0  0  0  0  0
  -23.9664  -27.3210   19.0059 H   0  0  0  0  0  0
  -23.7523  -30.6032   19.4063 H   0  0  0  0  0  0
  -22.7540  -29.2543   19.8569 H   0  0  0  0  0  0
  -25.1288  -36.1930   25.0822 H   0  0  0  0  0  0
  -20.9977  -28.3251   24.1407 H   0  0  0  0  0  0
  -20.5678  -26.2291   23.3604 H   0  0  0  0  0  0
  -21.6644  -26.7434   22.1197 H   0  0  0  0  0  0
  -19.6912  -25.6288   21.1241 H   0  0  0  0  0  0
  -19.6691  -27.3190   20.6745 H   0  0  0  0  0  0
  -17.4198  -26.6677   21.4024 H   0  0  0  0  0  0
  -18.0325  -26.0064   22.9016 H   0  0  0  0  0  0
  -19.7945  -30.7271   24.2256 H   0  0  0  0  0  0
  -17.5022  -31.6267   24.5157 H   0  0  0  0  0  0
  -15.5356  -30.2985   23.7661 H   0  0  0  0  0  0
  -15.8672  -28.0819   22.7071 H   0  0  0  0  0  0
  -24.5905  -30.7092   25.7794 H   0  0  0  0  0  0
  -24.8939  -32.2911   26.4886 H   0  0  0  0  0  0
  -25.8061  -30.8913   27.0234 H   0  0  0  0  0  0
  -26.2917  -29.6770   24.1204 H   0  0  0  0  0  0
  -27.4046  -29.7269   25.4680 H   0  0  0  0  0  0
  -27.8785  -30.4308   23.9403 H   0  0  0  0  0  0
  -27.2661  -33.3633   26.2072 H   0  0  0  0  0  0
  -28.3875  -32.6888   25.0338 H   0  0  0  0  0  0
  -28.0717  -31.8463   26.5428 H   0  0  0  0  0  0
  -28.2572  -38.0119   24.7551 H   0  0  0  0  0  0
  -28.1111  -36.2650   24.6225 H   0  0  0  0  0  0
  -27.2311  -37.1365   25.8863 H   0  0  0  0  0  0
  -20.9360  -29.8783   21.6917 H   0  0  0  0  0  0
  -26.0166  -38.2849   24.1451 H   0  0  0  0  0  0
  -31.7437  -19.8081   19.7308 H   0  0  0  0  0  0
  -31.8686  -17.3862   19.9543 H   0  0  0  0  0  0
  -27.6969  -19.7412   21.2452 H   0  0  0  0  0  0
  -29.9529  -23.8565   18.4611 H   0  0  0  0  0  0
  -31.1358  -24.4260   19.6295 H   0  0  0  0  0  0
  -31.6416  -22.2151   20.3399 H   0  0  0  0  0  0
  -31.0581  -21.8091   18.7246 H   0  0  0  0  0  0
  -29.5995  -24.2533   21.4329 H   0  0  0  0  0  0
  -27.1913  -24.7877   20.6552 H   0  0  0  0  0  0
  -27.7990  -24.7894   19.0209 H   0  0  0  0  0  0
  -28.9243  -15.3455   21.2569 H   0  0  0  0  0  0
  1 25  1  0  0  0
  1 30  2  0  0  0
  1 83  1  0  0  0
  2  3  1  0  0  0
  2 25  1  0  0  0
  2 86  1  0  0  0
  2 87  1  0  0  0
  3  4  1  0  0  0
  3 88  1  0  0  0
  3 89  1  0  0  0
  4  5  1  0  0  0
  4 90  1  0  0  0
  4 91  1  0  0  0
  5  6  1  0  0  0
  5 26  1  0  0  0
  5 92  1  0  0  0
  6 25  1  0  0  0
  6 93  1  0  0  0
  6 94  1  0  0  0
  7  8  2  0  0  0
  7 26  1  0  0  0
  7 29  1  0  0  0
  8  9  1  0  0  0
  8 22  1  0  0  0
  9 10  1  0  0  0
  9 27  2  0  0  0
 10 11  2  0  0  0
 10 15  1  0  0  0
 11 12  1  0  0  0
 11 95  1  0  0  0
 12 13  2  0  0  0
 12 96  1  0  0  0
 13 14  1  0  0  0
 13 31  1  0  0  0
 14 15  2  0  0  0
 14 97  1  0  0  0
 15 98  1  0  0  0
 16 17  2  0  0  0
 16 21  1  0  0  0
 16 31  1  0  0  0
 17 18  1  0  0  0
 17 99  1  0  0  0
 18 19  2  0  0  0
 18100  1  0  0  0
 19 20  1  0  0  0
 19 24  1  0  0  0
 20 21  2  0  0  0
 20101  1  0  0  0
 21 23  1  0  0  0
 22 28  1  0  0  0
 22 32  2  0  0  0
 26 27  1  0  0  0
 28102  1  0  0  0
 28103  1  0  0  0
 29104  1  0  0  0
 29105  1  0  0  0
 33 34  1  0  0  0
 33 66  1  0  0  0
 33 70  2  0  0  0
 34 36  1  0  0  0
 34 59  1  0  0  0
 34106  1  0  0  0
 35 44  2  0  0  0
 35 45  1  0  0  0
 35 68  1  0  0  0
 36 56  1  0  0  0
 36107  1  0  0  0
 37 39  1  0  0  0
 37 47  1  0  0  0
 37 66  1  0  0  0
 37108  1  0  0  0
 38 43  2  0  0  0
 38 46  1  0  0  0
 38 47  1  0  0  0
 39 64  1  0  0  0
 39 67  2  0  0  0
 40 52  1  0  0  0
 40 53  2  0  0  0
 40 58  1  0  0  0
 41109  1  0  0  0
 41110  1  0  0  0
 41111  1  0  0  0
 41 48  1  0  0  0
 42 43  1  0  0  0
 42 66  1  0  0  0
 42112  1  0  0  0
 42113  1  0  0  0
 43 44  1  0  0  0
 44114  1  0  0  0
 45 46  2  0  0  0
 45115  1  0  0  0
 46116  1  0  0  0
 47117  1  0  0  0
 47118  1  0  0  0
 48 56  1  0  0  0
 48 65  1  0  0  0
 48119  1  0  0  0
 49 50  1  0  0  0
 49 53  1  0  0  0
 49 64  1  0  0  0
 49120  1  0  0  0
 50 51  1  0  0  0
 50121  1  0  0  0
 50122  1  0  0  0
 51 52  1  0  0  0
 51123  1  0  0  0
 51124  1  0  0  0
 52125  1  0  0  0
 52126  1  0  0  0
 53 54  1  0  0  0
 54 55  2  0  0  0
 54127  1  0  0  0
 55 57  1  0  0  0
 55128  1  0  0  0
 56 69  2  0  0  0
 57 58  2  0  0  0
 57129  1  0  0  0
 58130  1  0  0  0
 59 60  1  0  0  0
 59 61  1  0  0  0
 59 62  1  0  0  0
 60131  1  0  0  0
 60132  1  0  0  0
 60133  1  0  0  0
 61134  1  0  0  0
 61135  1  0  0  0
 61136  1  0  0  0
 62137  1  0  0  0
 62138  1  0  0  0
 62139  1  0  0  0
 63 65  1  0  0  0
 63140  1  0  0  0
 63141  1  0  0  0
 63142  1  0  0  0
 64143  1  0  0  0
 65144  1  0  0  0
 68 81  1  0  0  0
 71 72  2  0  0  0
 71 74  1  0  0  0
 71145  1  0  0  0
 72 75  1  0  0  0
 72146  1  0  0  0
 73 74  2  0  0  0
 73 76  1  0  0  0
 73147  1  0  0  0
 74 82  1  0  0  0
 75 76  2  0  0  0
 75 83  1  0  0  0
 76 85  1  0  0  0
 77 80  1  0  0  0
 77 82  1  0  0  0
 77 84  2  0  0  0
 78 79  1  0  0  0
 78 80  1  0  0  0
 78148  1  0  0  0
 78149  1  0  0  0
 79 82  1  0  0  0
 79150  1  0  0  0
 79151  1  0  0  0
 80 81  1  0  0  0
 80152  1  0  0  0
 81153  1  0  0  0
 81154  1  0  0  0
 83155  1  0  0  0
M  ISO  4   1 100  68 101  81 101  83 100
M  END
> <chiral flag>
0

> <version>
0

> <s_m_source_file>
/data/baiqing/PycharmProjects/Reinvent-master-3.2/result/LINK_invent/BTK/process_docking_weight1_custom_product_contain_oxygen_bond_distance_aromatic_linkinvent_7_9_3/rearranged_h_0022.sdf

> <i_m_source_file_index>
66

> <r_mmod_Potential_Energy-OPLS-2005>
104.43994140625

> <r_mmod_Stretch_Energy-OPLS-2005>
79.9662475585938

> <r_mmod_Bend_Energy-OPLS-2005>
168.272598266602

> <r_mmod_Torsional_Energy-OPLS-2005>
253.14094543457

> <r_mmod_Improper_Torsional_Energy-OPLS-2005>
3.68619656562805

> <r_mmod_Van_der_Waal_Energy-OPLS-2005>
148.356887817383

> <r_mmod_Electrostatic_Energy-OPLS-2005>
-388.333709716797

> <r_mmod_Solvation_Energy-OPLS-2005>
-208.69873046875

> <b_mmod_Minimization_Converged-OPLS-2005>
0

> <r_mmod_RMS_Derivative-OPLS-2005>
0.457433491945267

$$$$
67
                    3D
 Structure written by MMmdl.
159168  0  0  1  0            999 V2000
  -30.5558  -14.9156   20.4748 C   0  0  0  0  0  0
  -30.4391  -12.5750   19.4973 C   0  0  0  0  0  0
  -29.5200  -12.5453   18.2535 C   0  0  0  0  0  0
  -28.0511  -12.3331   18.6644 C   0  0  0  0  0  0
  -27.6350  -13.2456   19.8468 C   0  0  2  0  0  0
  -28.6749  -13.2217   20.9844 C   0  0  0  0  0  0
  -25.2484  -13.8216   20.5714 C   0  0  0  0  0  0
  -24.1786  -13.0442   20.9202 C   0  0  0  0  0  0
  -24.6396  -11.6925   20.8733 C   0  0  0  0  0  0
  -23.9079  -10.4296   21.0397 C   0  0  0  0  0  0
  -24.3628   -9.4211   21.9178 C   0  0  0  0  0  0
  -23.6301   -8.2247   22.0752 C   0  0  0  0  0  0
  -22.4281   -8.0284   21.3545 C   0  0  0  0  0  0
  -21.9917   -9.0256   20.4645 C   0  0  0  0  0  0
  -22.7248  -10.2134   20.3051 C   0  0  0  0  0  0
  -21.6856   -6.0737   22.5279 C   0  0  0  0  0  0
  -21.4015   -6.5640   23.8213 C   0  0  0  0  0  0
  -21.3661   -5.6793   24.9175 C   0  0  0  0  0  0
  -21.6045   -4.3055   24.7225 C   0  0  0  0  0  0
  -21.8819   -3.8146   23.4346 C   0  0  0  0  0  0
  -21.9193   -4.6964   22.3402 C   0  0  0  0  0  0
  -22.7808  -13.5215   21.1871 C   0  0  0  0  0  0
  -22.1661   -4.2149   21.0979 F   0  0  0  0  0  0
  -21.5630   -3.4539   25.7737 F   0  0  0  0  0  0
  -29.9570  -13.6547   20.4094 N   0  0  0  0  0  0
  -26.2907  -12.9441   20.3262 N   0  0  0  0  0  0
  -25.9329  -11.6570   20.5724 N   0  0  0  0  0  0
  -22.0465  -12.8199   22.0431 N   0  0  0  0  0  0
  -25.4185  -15.1946   20.4189 N   0  0  0  0  0  0
  -31.7165  -15.0033   20.0552 O   0  0  0  0  0  0
  -21.6644   -6.8880   21.4241 O   0  0  0  0  0  0
  -22.3483  -14.5518   20.6720 O   0  0  0  0  0  0
  -24.6428  -31.8444   23.1890 C   0  0  0  0  0  0
  -25.9204  -32.4695   23.8275 C   0  0  1  0  0  0
  -27.2160  -27.1409   20.1459 C   0  0  0  0  0  0
  -25.5956  -33.8502   24.2190 N   0  0  0  0  0  0
  -23.4461  -30.4642   21.5342 C   0  0  2  0  0  0
  -24.8956  -28.8935   20.1069 C   0  0  0  0  0  0
  -22.7566  -29.4547   22.4859 C   0  0  0  0  0  0
  -18.0304  -28.1398   22.8477 C   0  0  0  0  0  0
  -24.1492  -36.7255   23.2642 C   0  0  0  0  0  0
  -26.0018  -30.7182   21.3888 C   0  0  0  0  0  0
  -26.0718  -29.3305   20.7291 C   0  0  0  0  0  0
  -27.2313  -28.4688   20.7349 C   0  0  0  0  0  0
  -26.0183  -26.8113   19.4726 C   0  0  0  0  0  0
  -24.8816  -27.6475   19.4634 C   0  0  0  0  0  0
  -23.6718  -29.7948   20.1526 C   0  0  0  0  0  0
  -25.4124  -36.3032   24.0315 C   0  0  1  0  0  0
  -20.5916  -28.3722   23.1237 C   0  0  2  0  0  0
  -20.6788  -26.9425   22.5405 C   0  0  0  0  0  0
  -19.5762  -26.6382   21.5213 C   0  0  0  0  0  0
  -18.1943  -26.7936   22.1624 C   0  0  0  0  0  0
  -19.1561  -28.8878   23.2848 C   0  0  0  0  0  0
  -18.9478  -30.1475   23.8874 C   0  0  0  0  0  0
  -17.6474  -30.6593   24.0560 C   0  0  0  0  0  0
  -25.9074  -34.9407   23.5060 C   0  0  0  0  0  0
  -16.5364  -29.9085   23.6337 C   0  0  0  0  0  0
  -16.7288  -28.6505   23.0355 C   0  0  0  0  0  0
  -26.4527  -31.6566   25.0719 C   0  0  0  0  0  0
  -25.3709  -31.3760   26.1413 C   0  0  0  0  0  0
  -27.0394  -30.2961   24.6307 C   0  0  0  0  0  0
  -27.6055  -32.4335   25.7504 C   0  0  0  0  0  0
  -27.5577  -37.1783   24.8464 C   0  0  0  0  0  0
  -21.4258  -29.3047   22.3608 N   0  0  0  0  0  0
  -26.4286  -37.3747   23.9410 N   0  0  0  0  0  0
  -24.7166  -31.0302   22.0923 N   0  0  0  0  0  0
  -23.4211  -28.8096   23.3009 O   0  0  0  0  0  0
  -28.2654  -26.1552   20.2390 O   0  0  0  0  0  0
  -26.5661  -34.8904   22.4639 O   0  0  0  0  0  0
  -23.5548  -32.1322   23.7111 O   0  0  0  0  0  0
  -29.3456  -19.8693   21.3780 C   0  0  0  0  0  0
  -29.2217  -19.5209   19.0365 C   0  0  0  0  0  0
  -29.6019  -18.4403   21.5212 C   0  0  0  0  0  0
  -29.5040  -18.0965   19.1846 C   0  0  0  0  0  0
  -29.7034  -17.5006   20.4676 C   0  0  0  0  0  0
  -29.1149  -20.4925   20.1026 C   0  0  0  0  0  0
  -29.7082  -16.1785   22.4157 C   0  0  0  0  0  0
  -29.7869  -17.6878   22.8157 C   0  0  2  0  0  0
  -29.5369  -17.2108   17.9540 C   0  0  0  0  0  0
  -28.7818  -18.0749   23.9096 C   0  0  0  0  0  0
  -28.8880  -23.2963   20.4835 C   0  0  0  0  0  0
  -28.0351  -24.6463   19.9314 C   0  0  0  0  0  0
  -29.8629  -16.0695   20.9500 N   0  0  0  0  0  0
  -28.7331  -21.9016   19.8054 N   0  0  0  0  0  0
  -31.4738  -12.7279   19.1874 H   0  0  0  0  0  0
  -30.4286  -11.6100   20.0066 H   0  0  0  0  0  0
  -29.8349  -11.7580   17.5673 H   0  0  0  0  0  0
  -29.6149  -13.4848   17.7066 H   0  0  0  0  0  0
  -27.9372  -11.2868   18.9502 H   0  0  0  0  0  0
  -27.3903  -12.4895   17.8109 H   0  0  0  0  0  0
  -27.6138  -14.2609   19.4491 H   0  0  0  0  0  0
  -28.7572  -12.2230   21.4157 H   0  0  0  0  0  0
  -28.3566  -13.8681   21.7974 H   0  0  0  0  0  0
  -25.2773   -9.5689   22.4753 H   0  0  0  0  0  0
  -24.0010   -7.4640   22.7473 H   0  0  0  0  0  0
  -21.0847   -8.8775   19.8954 H   0  0  0  0  0  0
  -22.3703  -10.9672   19.6161 H   0  0  0  0  0  0
  -21.2008   -7.6149   23.9716 H   0  0  0  0  0  0
  -21.1484   -6.0523   25.9078 H   0  0  0  0  0  0
  -22.0597   -2.7609   23.2844 H   0  0  0  0  0  0
  -22.4091  -11.9863   22.4815 H   0  0  0  0  0  0
  -21.1081  -13.1215   22.2644 H   0  0  0  0  0  0
  -24.6576  -15.8526   20.5459 H   0  0  0  0  0  0
  -26.2830  -15.6387   20.1357 H   0  0  0  0  0  0
  -26.7268  -32.5300   23.1001 H   0  0  0  0  0  0
  -25.0083  -33.9619   25.0323 H   0  0  0  0  0  0
  -22.7485  -31.2901   21.3809 H   0  0  0  0  0  0
  -23.3760  -35.9579   23.3287 H   0  0  0  0  0  0
  -24.3579  -36.8905   22.2060 H   0  0  0  0  0  0
  -23.7237  -37.6442   23.6689 H   0  0  0  0  0  0
  -26.1591  -31.4736   20.6177 H   0  0  0  0  0  0
  -26.8718  -30.7666   22.0320 H   0  0  0  0  0  0
  -28.1245  -28.7954   21.2487 H   0  0  0  0  0  0
  -25.9232  -25.8649   18.9622 H   0  0  0  0  0  0
  -23.9859  -27.3114   18.9593 H   0  0  0  0  0  0
  -23.8070  -30.5701   19.3977 H   0  0  0  0  0  0
  -22.7868  -29.2366   19.8421 H   0  0  0  0  0  0
  -25.1310  -36.1859   25.0806 H   0  0  0  0  0  0
  -21.0007  -28.3312   24.1358 H   0  0  0  0  0  0
  -20.5683  -26.2336   23.3625 H   0  0  0  0  0  0
  -21.6653  -26.7431   22.1201 H   0  0  0  0  0  0
  -19.6922  -25.6287   21.1259 H   0  0  0  0  0  0
  -19.6699  -27.3179   20.6733 H   0  0  0  0  0  0
  -17.4212  -26.6680   21.4028 H   0  0  0  0  0  0
  -18.0341  -26.0084   22.9027 H   0  0  0  0  0  0
  -19.7953  -30.7298   24.2231 H   0  0  0  0  0  0
  -17.5026  -31.6271   24.5167 H   0  0  0  0  0  0
  -15.5363  -30.2979   23.7677 H   0  0  0  0  0  0
  -15.8689  -28.0818   22.7080 H   0  0  0  0  0  0
  -24.5892  -30.7105   25.7733 H   0  0  0  0  0  0
  -24.8896  -32.2945   26.4781 H   0  0  0  0  0  0
  -25.7989  -30.8969   27.0227 H   0  0  0  0  0  0
  -26.3015  -29.6680   24.1304 H   0  0  0  0  0  0
  -27.3992  -29.7266   25.4886 H   0  0  0  0  0  0
  -27.8928  -30.4195   23.9636 H   0  0  0  0  0  0
  -27.2645  -33.3654   26.2026 H   0  0  0  0  0  0
  -28.3894  -32.6868   25.0353 H   0  0  0  0  0  0
  -28.0691  -31.8499   26.5467 H   0  0  0  0  0  0
  -28.2579  -38.0093   24.7520 H   0  0  0  0  0  0
  -28.1087  -36.2623   24.6277 H   0  0  0  0  0  0
  -27.2296  -37.1411   25.8867 H   0  0  0  0  0  0
  -20.9470  -29.8759   21.6785 H   0  0  0  0  0  0
  -26.0151  -38.2812   24.1420 H   0  0  0  0  0  0
  -29.2828  -20.4778   22.2683 H   0  0  0  0  0  0
  -29.0575  -19.8807   18.0305 H   0  0  0  0  0  0
  -28.7206  -15.7988   22.6744 H   0  0  0  0  0  0
  -30.4372  -15.5858   22.9725 H   0  0  0  0  0  0
  -30.7965  -17.9076   23.1668 H   0  0  0  0  0  0
  -29.2796  -17.7651   17.0510 H   0  0  0  0  0  0
  -28.8273  -16.3892   18.0567 H   0  0  0  0  0  0
  -30.5325  -16.7874   17.8182 H   0  0  0  0  0  0
  -27.7546  -17.9172   23.5792 H   0  0  0  0  0  0
  -28.8835  -19.1227   24.1920 H   0  0  0  0  0  0
  -28.9382  -17.4794   24.8094 H   0  0  0  0  0  0
  -28.6868  -23.1765   21.5487 H   0  0  0  0  0  0
  -29.9488  -23.5415   20.4209 H   0  0  0  0  0  0
  -27.0034  -24.4308   20.2084 H   0  0  0  0  0  0
  -28.0533  -24.5915   18.8425 H   0  0  0  0  0  0
  -28.4502  -22.0159   18.8344 H   0  0  0  0  0  0
  1 25  1  0  0  0
  1 30  2  0  0  0
  1 83  1  0  0  0
  2  3  1  0  0  0
  2 25  1  0  0  0
  2 85  1  0  0  0
  2 86  1  0  0  0
  3  4  1  0  0  0
  3 87  1  0  0  0
  3 88  1  0  0  0
  4  5  1  0  0  0
  4 89  1  0  0  0
  4 90  1  0  0  0
  5  6  1  0  0  0
  5 26  1  0  0  0
  5 91  1  0  0  0
  6 25  1  0  0  0
  6 92  1  0  0  0
  6 93  1  0  0  0
  7  8  2  0  0  0
  7 26  1  0  0  0
  7 29  1  0  0  0
  8  9  1  0  0  0
  8 22  1  0  0  0
  9 10  1  0  0  0
  9 27  2  0  0  0
 10 11  2  0  0  0
 10 15  1  0  0  0
 11 12  1  0  0  0
 11 94  1  0  0  0
 12 13  2  0  0  0
 12 95  1  0  0  0
 13 14  1  0  0  0
 13 31  1  0  0  0
 14 15  2  0  0  0
 14 96  1  0  0  0
 15 97  1  0  0  0
 16 17  2  0  0  0
 16 21  1  0  0  0
 16 31  1  0  0  0
 17 18  1  0  0  0
 17 98  1  0  0  0
 18 19  2  0  0  0
 18 99  1  0  0  0
 19 20  1  0  0  0
 19 24  1  0  0  0
 20 21  2  0  0  0
 20100  1  0  0  0
 21 23  1  0  0  0
 22 28  1  0  0  0
 22 32  2  0  0  0
 26 27  1  0  0  0
 28101  1  0  0  0
 28102  1  0  0  0
 29103  1  0  0  0
 29104  1  0  0  0
 33 34  1  0  0  0
 33 66  1  0  0  0
 33 70  2  0  0  0
 34 36  1  0  0  0
 34 59  1  0  0  0
 34105  1  0  0  0
 35 44  2  0  0  0
 35 45  1  0  0  0
 35 68  1  0  0  0
 36 56  1  0  0  0
 36106  1  0  0  0
 37 39  1  0  0  0
 37 47  1  0  0  0
 37 66  1  0  0  0
 37107  1  0  0  0
 38 43  2  0  0  0
 38 46  1  0  0  0
 38 47  1  0  0  0
 39 64  1  0  0  0
 39 67  2  0  0  0
 40 52  1  0  0  0
 40 53  2  0  0  0
 40 58  1  0  0  0
 41108  1  0  0  0
 41109  1  0  0  0
 41110  1  0  0  0
 41 48  1  0  0  0
 42 43  1  0  0  0
 42 66  1  0  0  0
 42111  1  0  0  0
 42112  1  0  0  0
 43 44  1  0  0  0
 44113  1  0  0  0
 45 46  2  0  0  0
 45114  1  0  0  0
 46115  1  0  0  0
 47116  1  0  0  0
 47117  1  0  0  0
 48 56  1  0  0  0
 48 65  1  0  0  0
 48118  1  0  0  0
 49 50  1  0  0  0
 49 53  1  0  0  0
 49 64  1  0  0  0
 49119  1  0  0  0
 50 51  1  0  0  0
 50120  1  0  0  0
 50121  1  0  0  0
 51 52  1  0  0  0
 51122  1  0  0  0
 51123  1  0  0  0
 52124  1  0  0  0
 52125  1  0  0  0
 53 54  1  0  0  0
 54 55  2  0  0  0
 54126  1  0  0  0
 55 57  1  0  0  0
 55127  1  0  0  0
 56 69  2  0  0  0
 57 58  2  0  0  0
 57128  1  0  0  0
 58129  1  0  0  0
 59 60  1  0  0  0
 59 61  1  0  0  0
 59 62  1  0  0  0
 60130  1  0  0  0
 60131  1  0  0  0
 60132  1  0  0  0
 61133  1  0  0  0
 61134  1  0  0  0
 61135  1  0  0  0
 62136  1  0  0  0
 62137  1  0  0  0
 62138  1  0  0  0
 63 65  1  0  0  0
 63139  1  0  0  0
 63140  1  0  0  0
 63141  1  0  0  0
 64142  1  0  0  0
 65143  1  0  0  0
 68 82  1  0  0  0
 71 73  2  0  0  0
 71 76  1  0  0  0
 71144  1  0  0  0
 72 74  1  0  0  0
 72 76  2  0  0  0
 72145  1  0  0  0
 73 75  1  0  0  0
 73 78  1  0  0  0
 74 75  2  0  0  0
 74 79  1  0  0  0
 75 83  1  0  0  0
 76 84  1  0  0  0
 77 78  1  0  0  0
 77 83  1  0  0  0
 77146  1  0  0  0
 77147  1  0  0  0
 78 80  1  0  0  0
 78148  1  0  0  0
 79149  1  0  0  0
 79150  1  0  0  0
 79151  1  0  0  0
 80152  1  0  0  0
 80153  1  0  0  0
 80154  1  0  0  0
 81 82  1  0  0  0
 81 84  1  0  0  0
 81155  1  0  0  0
 81156  1  0  0  0
 82157  1  0  0  0
 82158  1  0  0  0
 84159  1  0  0  0
M  ISO  4   1 100  68 101  82 101  83 100
M  END
> <chiral flag>
0

> <version>
0

> <s_m_source_file>
/data/baiqing/PycharmProjects/Reinvent-master-3.2/result/LINK_invent/BTK/process_docking_weight1_custom_product_contain_oxygen_bond_distance_aromatic_linkinvent_7_9_3/rearranged_h_0022.sdf

> <i_m_source_file_index>
67

> <r_mmod_Potential_Energy-OPLS-2005>
607.533996582031

> <r_mmod_Stretch_Energy-OPLS-2005>
221.369552612305

> <r_mmod_Bend_Energy-OPLS-2005>
329.331115722656

> <r_mmod_Torsional_Energy-OPLS-2005>
284.282196044922

> <r_mmod_Improper_Torsional_Energy-OPLS-2005>
5.15368747711182

> <r_mmod_Van_der_Waal_Energy-OPLS-2005>
124.272514343262

> <r_mmod_Electrostatic_Energy-OPLS-2005>
-325.854125976562

> <r_mmod_Solvation_Energy-OPLS-2005>
-206.787139892578

> <b_mmod_Minimization_Converged-OPLS-2005>
0

> <r_mmod_RMS_Derivative-OPLS-2005>
0.231884896755219

$$$$
68
                    3D
 Structure written by MMmdl.
159168  0  0  1  0            999 V2000
  -30.4129  -15.3145   20.3496 C   0  0  0  0  0  0
  -30.4382  -12.8352   19.5492 C   0  0  0  0  0  0
  -29.5437  -12.5965   18.3040 C   0  0  0  0  0  0
  -28.0906  -12.3155   18.7215 C   0  0  0  0  0  0
  -27.6135  -13.2856   19.8311 C   0  0  2  0  0  0
  -28.6418  -13.4670   20.9710 C   0  0  0  0  0  0
  -25.2382  -13.8273   20.5777 C   0  0  0  0  0  0
  -24.1738  -13.0450   20.9266 C   0  0  0  0  0  0
  -24.6402  -11.6948   20.8762 C   0  0  0  0  0  0
  -23.9098  -10.4300   21.0402 C   0  0  0  0  0  0
  -24.3641   -9.4214   21.9183 C   0  0  0  0  0  0
  -23.6304   -8.2256   22.0761 C   0  0  0  0  0  0
  -22.4282   -8.0290   21.3556 C   0  0  0  0  0  0
  -21.9921   -9.0268   20.4658 C   0  0  0  0  0  0
  -22.7265  -10.2137   20.3061 C   0  0  0  0  0  0
  -21.6854   -6.0746   22.5281 C   0  0  0  0  0  0
  -21.4022   -6.5647   23.8218 C   0  0  0  0  0  0
  -21.3659   -5.6796   24.9175 C   0  0  0  0  0  0
  -21.6040   -4.3059   24.7223 C   0  0  0  0  0  0
  -21.8820   -3.8155   23.4342 C   0  0  0  0  0  0
  -21.9195   -4.6975   22.3402 C   0  0  0  0  0  0
  -22.7748  -13.5199   21.1894 C   0  0  0  0  0  0
  -22.1661   -4.2161   21.0980 F   0  0  0  0  0  0
  -21.5620   -3.4540   25.7735 F   0  0  0  0  0  0
  -29.8780  -13.9860   20.3606 N   0  0  0  0  0  0
  -26.2823  -12.9566   20.3248 N   0  0  0  0  0  0
  -25.9344  -11.6658   20.5716 N   0  0  0  0  0  0
  -22.0394  -12.8193   22.0446 N   0  0  0  0  0  0
  -25.4008  -15.2014   20.4256 N   0  0  0  0  0  0
  -31.6140  -15.3206   20.0375 O   0  0  0  0  0  0
  -21.6645   -6.8888   21.4242 O   0  0  0  0  0  0
  -22.3432  -14.5492   20.6723 O   0  0  0  0  0  0
  -24.6662  -31.8194   23.1666 C   0  0  0  0  0  0
  -25.9331  -32.4559   23.8146 C   0  0  1  0  0  0
  -27.2193  -26.8896   20.1903 C   0  0  0  0  0  0
  -25.5982  -33.8376   24.2049 N   0  0  0  0  0  0
  -23.4830  -30.4282   21.5160 C   0  0  2  0  0  0
  -24.9373  -28.8077   20.1077 C   0  0  0  0  0  0
  -22.7685  -29.4417   22.4770 C   0  0  0  0  0  0
  -18.0324  -28.1413   22.8459 C   0  0  0  0  0  0
  -24.1495  -36.7195   23.2650 C   0  0  0  0  0  0
  -26.0529  -30.6124   21.4032 C   0  0  0  0  0  0
  -26.1188  -29.1983   20.7486 C   0  0  0  0  0  0
  -27.2494  -28.2591   20.7678 C   0  0  0  0  0  0
  -26.0132  -26.6633   19.4886 C   0  0  0  0  0  0
  -24.9129  -27.5626   19.4560 C   0  0  0  0  0  0
  -23.7240  -29.7394   20.1429 C   0  0  0  0  0  0
  -25.4136  -36.2951   24.0298 C   0  0  1  0  0  0
  -20.5950  -28.3761   23.1179 C   0  0  2  0  0  0
  -20.6798  -26.9438   22.5408 C   0  0  0  0  0  0
  -19.5774  -26.6377   21.5217 C   0  0  0  0  0  0
  -18.1954  -26.7944   22.1617 C   0  0  0  0  0  0
  -19.1585  -28.8908   23.2802 C   0  0  0  0  0  0
  -18.9495  -30.1494   23.8845 C   0  0  0  0  0  0
  -17.6487  -30.6597   24.0555 C   0  0  0  0  0  0
  -25.9103  -34.9334   23.4999 C   0  0  0  0  0  0
  -16.5378  -29.9084   23.6345 C   0  0  0  0  0  0
  -16.7304  -28.6507   23.0360 C   0  0  0  0  0  0
  -26.4567  -31.6518   25.0693 C   0  0  0  0  0  0
  -25.3685  -31.3786   26.1346 C   0  0  0  0  0  0
  -27.0471  -30.2875   24.6466 C   0  0  0  0  0  0
  -27.6047  -32.4342   25.7500 C   0  0  0  0  0  0
  -27.5569  -37.1754   24.8463 C   0  0  0  0  0  0
  -21.4354  -29.3038   22.3520 N   0  0  0  0  0  0
  -26.4277  -37.3691   23.9408 N   0  0  0  0  0  0
  -24.7555  -30.9820   22.0818 N   0  0  0  0  0  0
  -23.4213  -28.8002   23.3039 O   0  0  0  0  0  0
  -28.2144  -25.7718   20.3178 O   0  0  0  0  0  0
  -26.5722  -34.8882   22.4600 O   0  0  0  0  0  0
  -23.5726  -32.1190   23.6735 O   0  0  0  0  0  0
  -29.7974  -19.5615   18.0488 C   0  0  0  0  0  0
  -29.9427  -18.3216   18.7265 C   0  0  0  0  0  0
  -29.1888  -19.5110   20.6810 C   0  0  0  0  0  0
  -29.0609  -20.9154   20.0135 C   0  0  0  0  0  0
  -29.3678  -20.7930   18.6338 C   0  0  0  0  0  0
  -29.6260  -18.1383   20.0874 C   0  0  0  0  0  0
  -28.2765  -23.0115   15.9352 C   0  0  0  0  0  0
  -29.7833  -23.2992   15.9694 C   0  0  0  0  0  0
  -28.0721  -21.8596   16.9192 C   0  0  0  0  0  0
  -30.3558  -22.3487   17.0262 C   0  0  0  0  0  0
  -28.1355  -24.1445   19.9277 C   0  0  0  0  0  0
  -28.7422  -22.5536   20.6244 C   0  0  0  0  0  0
  -29.2115  -21.9248   17.8217 N   0  0  0  0  0  0
  -29.6640  -16.5869   20.5995 N   0  0  0  0  0  0
  -27.9326  -22.3363   21.6606 F   0  0  0  0  0  0
  -29.9281  -22.8929   21.1301 F   0  0  0  0  0  0
  -31.4598  -13.0327   19.2224 H   0  0  0  0  0  0
  -30.5050  -11.9308   20.1563 H   0  0  0  0  0  0
  -29.9314  -11.7690   17.7085 H   0  0  0  0  0  0
  -29.5753  -13.4776   17.6611 H   0  0  0  0  0  0
  -28.0450  -11.2890   19.0869 H   0  0  0  0  0  0
  -27.4277  -12.3646   17.8568 H   0  0  0  0  0  0
  -27.5269  -14.2534   19.3348 H   0  0  0  0  0  0
  -28.8121  -12.5330   21.5093 H   0  0  0  0  0  0
  -28.2702  -14.1828   21.7056 H   0  0  0  0  0  0
  -25.2785   -9.5690   22.4758 H   0  0  0  0  0  0
  -24.0017   -7.4646   22.7481 H   0  0  0  0  0  0
  -21.0851   -8.8796   19.8960 H   0  0  0  0  0  0
  -22.3728  -10.9681   19.6172 H   0  0  0  0  0  0
  -21.2022   -7.6155   23.9727 H   0  0  0  0  0  0
  -21.1474   -6.0521   25.9079 H   0  0  0  0  0  0
  -22.0595   -2.7617   23.2837 H   0  0  0  0  0  0
  -22.4016  -11.9881   22.4875 H   0  0  0  0  0  0
  -21.1004  -13.1211   22.2631 H   0  0  0  0  0  0
  -24.6321  -15.8498   20.5560 H   0  0  0  0  0  0
  -26.2424  -15.6492   20.0860 H   0  0  0  0  0  0
  -26.7410  -32.5084   23.0866 H   0  0  0  0  0  0
  -25.0049  -33.9436   25.0147 H   0  0  0  0  0  0
  -22.7985  -31.2609   21.3416 H   0  0  0  0  0  0
  -23.3768  -35.9513   23.3274 H   0  0  0  0  0  0
  -24.3576  -36.8883   22.2074 H   0  0  0  0  0  0
  -23.7243  -37.6368   23.6734 H   0  0  0  0  0  0
  -26.2390  -31.3510   20.6221 H   0  0  0  0  0  0
  -26.9115  -30.6695   22.0606 H   0  0  0  0  0  0
  -28.1375  -28.5530   21.3090 H   0  0  0  0  0  0
  -25.8785  -25.7138   18.9928 H   0  0  0  0  0  0
  -24.0172  -27.2584   18.9324 H   0  0  0  0  0  0
  -23.8801  -30.5062   19.3832 H   0  0  0  0  0  0
  -22.8327  -29.1943   19.8264 H   0  0  0  0  0  0
  -25.1336  -36.1740   25.0788 H   0  0  0  0  0  0
  -21.0031  -28.3378   24.1305 H   0  0  0  0  0  0
  -20.5674  -26.2383   23.3656 H   0  0  0  0  0  0
  -21.6662  -26.7408   22.1222 H   0  0  0  0  0  0
  -19.6938  -25.6276   21.1275 H   0  0  0  0  0  0
  -19.6713  -27.3164   20.6726 H   0  0  0  0  0  0
  -17.4228  -26.6690   21.4014 H   0  0  0  0  0  0
  -18.0337  -26.0098   22.9023 H   0  0  0  0  0  0
  -19.7971  -30.7320   24.2195 H   0  0  0  0  0  0
  -17.5040  -31.6270   24.5171 H   0  0  0  0  0  0
  -15.5377  -30.2968   23.7699 H   0  0  0  0  0  0
  -15.8705  -28.0807   22.7106 H   0  0  0  0  0  0
  -24.5879  -30.7118   25.7667 H   0  0  0  0  0  0
  -24.8858  -32.2989   26.4640 H   0  0  0  0  0  0
  -25.7911  -30.9047   27.0214 H   0  0  0  0  0  0
  -26.3148  -29.6532   24.1456 H   0  0  0  0  0  0
  -27.3963  -29.7264   25.5145 H   0  0  0  0  0  0
  -27.9105  -30.4039   23.9913 H   0  0  0  0  0  0
  -27.2601  -33.3688   26.1940 H   0  0  0  0  0  0
  -28.3926  -32.6832   25.0378 H   0  0  0  0  0  0
  -28.0639  -31.8562   26.5532 H   0  0  0  0  0  0
  -28.2564  -38.0070   24.7511 H   0  0  0  0  0  0
  -28.1086  -36.2595   24.6283 H   0  0  0  0  0  0
  -27.2288  -37.1392   25.8867 H   0  0  0  0  0  0
  -20.9627  -29.8704   21.6618 H   0  0  0  0  0  0
  -26.0119  -38.2750   24.1407 H   0  0  0  0  0  0
  -30.0163  -19.5430   16.9910 H   0  0  0  0  0  0
  -30.2554  -17.4671   18.1438 H   0  0  0  0  0  0
  -28.9400  -19.4922   21.7321 H   0  0  0  0  0  0
  -27.9241  -22.7549   14.9352 H   0  0  0  0  0  0
  -27.7201  -23.8915   16.2619 H   0  0  0  0  0  0
  -29.9615  -24.3386   16.2485 H   0  0  0  0  0  0
  -30.2507  -23.1352   14.9976 H   0  0  0  0  0  0
  -28.0544  -20.9065   16.3871 H   0  0  0  0  0  0
  -27.1275  -21.9552   17.4578 H   0  0  0  0  0  0
  -31.1012  -22.8485   17.6467 H   0  0  0  0  0  0
  -30.8470  -21.5053   16.5399 H   0  0  0  0  0  0
  -27.0854  -23.9571   19.7079 H   0  0  0  0  0  0
  -28.6006  -24.1874   18.9454 H   0  0  0  0  0  0
  -28.8428  -16.3708   21.1462 H   0  0  0  0  0  0
  1 25  1  0  0  0
  1 30  2  0  0  0
  1 84  1  0  0  0
  2  3  1  0  0  0
  2 25  1  0  0  0
  2 87  1  0  0  0
  2 88  1  0  0  0
  3  4  1  0  0  0
  3 89  1  0  0  0
  3 90  1  0  0  0
  4  5  1  0  0  0
  4 91  1  0  0  0
  4 92  1  0  0  0
  5  6  1  0  0  0
  5 26  1  0  0  0
  5 93  1  0  0  0
  6 25  1  0  0  0
  6 94  1  0  0  0
  6 95  1  0  0  0
  7  8  2  0  0  0
  7 26  1  0  0  0
  7 29  1  0  0  0
  8  9  1  0  0  0
  8 22  1  0  0  0
  9 10  1  0  0  0
  9 27  2  0  0  0
 10 11  2  0  0  0
 10 15  1  0  0  0
 11 12  1  0  0  0
 11 96  1  0  0  0
 12 13  2  0  0  0
 12 97  1  0  0  0
 13 14  1  0  0  0
 13 31  1  0  0  0
 14 15  2  0  0  0
 14 98  1  0  0  0
 15 99  1  0  0  0
 16 17  2  0  0  0
 16 21  1  0  0  0
 16 31  1  0  0  0
 17 18  1  0  0  0
 17100  1  0  0  0
 18 19  2  0  0  0
 18101  1  0  0  0
 19 20  1  0  0  0
 19 24  1  0  0  0
 20 21  2  0  0  0
 20102  1  0  0  0
 21 23  1  0  0  0
 22 28  1  0  0  0
 22 32  2  0  0  0
 26 27  1  0  0  0
 28103  1  0  0  0
 28104  1  0  0  0
 29105  1  0  0  0
 29106  1  0  0  0
 33 34  1  0  0  0
 33 66  1  0  0  0
 33 70  2  0  0  0
 34 36  1  0  0  0
 34 59  1  0  0  0
 34107  1  0  0  0
 35 44  2  0  0  0
 35 45  1  0  0  0
 35 68  1  0  0  0
 36 56  1  0  0  0
 36108  1  0  0  0
 37 39  1  0  0  0
 37 47  1  0  0  0
 37 66  1  0  0  0
 37109  1  0  0  0
 38 43  2  0  0  0
 38 46  1  0  0  0
 38 47  1  0  0  0
 39 64  1  0  0  0
 39 67  2  0  0  0
 40 52  1  0  0  0
 40 53  2  0  0  0
 40 58  1  0  0  0
 41110  1  0  0  0
 41111  1  0  0  0
 41112  1  0  0  0
 41 48  1  0  0  0
 42 43  1  0  0  0
 42 66  1  0  0  0
 42113  1  0  0  0
 42114  1  0  0  0
 43 44  1  0  0  0
 44115  1  0  0  0
 45 46  2  0  0  0
 45116  1  0  0  0
 46117  1  0  0  0
 47118  1  0  0  0
 47119  1  0  0  0
 48 56  1  0  0  0
 48 65  1  0  0  0
 48120  1  0  0  0
 49 50  1  0  0  0
 49 53  1  0  0  0
 49 64  1  0  0  0
 49121  1  0  0  0
 50 51  1  0  0  0
 50122  1  0  0  0
 50123  1  0  0  0
 51 52  1  0  0  0
 51124  1  0  0  0
 51125  1  0  0  0
 52126  1  0  0  0
 52127  1  0  0  0
 53 54  1  0  0  0
 54 55  2  0  0  0
 54128  1  0  0  0
 55 57  1  0  0  0
 55129  1  0  0  0
 56 69  2  0  0  0
 57 58  2  0  0  0
 57130  1  0  0  0
 58131  1  0  0  0
 59 60  1  0  0  0
 59 61  1  0  0  0
 59 62  1  0  0  0
 60132  1  0  0  0
 60133  1  0  0  0
 60134  1  0  0  0
 61135  1  0  0  0
 61136  1  0  0  0
 61137  1  0  0  0
 62138  1  0  0  0
 62139  1  0  0  0
 62140  1  0  0  0
 63 65  1  0  0  0
 63141  1  0  0  0
 63142  1  0  0  0
 63143  1  0  0  0
 64144  1  0  0  0
 65145  1  0  0  0
 68 81  1  0  0  0
 71 72  2  0  0  0
 71 75  1  0  0  0
 71146  1  0  0  0
 72 76  1  0  0  0
 72147  1  0  0  0
 73 74  1  0  0  0
 73 76  2  0  0  0
 73148  1  0  0  0
 74 75  2  0  0  0
 74 82  1  0  0  0
 75 83  1  0  0  0
 76 84  1  0  0  0
 77 78  1  0  0  0
 77 79  1  0  0  0
 77149  1  0  0  0
 77150  1  0  0  0
 78 80  1  0  0  0
 78151  1  0  0  0
 78152  1  0  0  0
 79 83  1  0  0  0
 79153  1  0  0  0
 79154  1  0  0  0
 80 83  1  0  0  0
 80155  1  0  0  0
 80156  1  0  0  0
 81 82  1  0  0  0
 81157  1  0  0  0
 81158  1  0  0  0
 82 85  1  0  0  0
 82 86  1  0  0  0
 84159  1  0  0  0
M  ISO  4   1 100  68 101  81 101  84 100
M  END
> <chiral flag>
0

> <version>
0

> <s_m_source_file>
/data/baiqing/PycharmProjects/Reinvent-master-3.2/result/LINK_invent/BTK/process_docking_weight1_custom_product_contain_oxygen_bond_distance_aromatic_linkinvent_7_9_3/rearranged_h_0022.sdf

> <i_m_source_file_index>
68

> <r_mmod_Potential_Energy-OPLS-2005>
1508.17468261719

> <r_mmod_Stretch_Energy-OPLS-2005>
658.118225097656

> <r_mmod_Bend_Energy-OPLS-2005>
471.494354248047

> <r_mmod_Torsional_Energy-OPLS-2005>
321.806884765625

> <r_mmod_Improper_Torsional_Energy-OPLS-2005>
8.72375202178955

> <r_mmod_Van_der_Waal_Energy-OPLS-2005>
121.875419616699

> <r_mmod_Electrostatic_Energy-OPLS-2005>
-374.876739501953

> <r_mmod_Solvation_Energy-OPLS-2005>
-213.003021240234

> <b_mmod_Minimization_Converged-OPLS-2005>
0

> <r_mmod_RMS_Derivative-OPLS-2005>
1.00276303291321

$$$$
69
                    3D
 Structure written by MMmdl.
190199  0  0  1  0            999 V2000
  -29.9880  -16.5726   20.2610 C   0  0  0  0  0  0
  -30.3065  -13.7999   19.5239 C   0  0  0  0  0  0
  -29.5628  -12.9542   18.4117 C   0  0  0  0  0  0
  -28.2339  -12.3867   18.9070 C   0  0  0  0  0  0
  -27.5719  -13.4308   19.8174 C   0  0  2  0  0  0
  -28.5104  -14.1483   20.8606 C   0  0  0  0  0  0
  -25.2162  -13.8479   20.5978 C   0  0  0  0  0  0
  -24.1652  -13.0460   20.9306 C   0  0  0  0  0  0
  -24.6530  -11.7030   20.8710 C   0  0  0  0  0  0
  -23.9244  -10.4324   21.0322 C   0  0  0  0  0  0
  -24.3727   -9.4241   21.9146 C   0  0  0  0  0  0
  -23.6354   -8.2296   22.0751 C   0  0  0  0  0  0
  -22.4330   -8.0325   21.3550 C   0  0  0  0  0  0
  -22.0002   -9.0298   20.4634 C   0  0  0  0  0  0
  -22.7380  -10.2153   20.3007 C   0  0  0  0  0  0
  -21.6874   -6.0758   22.5281 C   0  0  0  0  0  0
  -21.4037   -6.5650   23.8220 C   0  0  0  0  0  0
  -21.3670   -5.6792   24.9174 C   0  0  0  0  0  0
  -21.6042   -4.3055   24.7217 C   0  0  0  0  0  0
  -21.8812   -3.8156   23.4335 C   0  0  0  0  0  0
  -21.9199   -4.6982   22.3397 C   0  0  0  0  0  0
  -22.7630  -13.5094   21.1891 C   0  0  0  0  0  0
  -22.1659   -4.2166   21.0973 F   0  0  0  0  0  0
  -21.5626   -3.4535   25.7728 F   0  0  0  0  0  0
  -29.5184  -15.0574   20.1513 N   0  0  0  0  0  0
  -26.2790  -13.0081   20.3475 N   0  0  0  0  0  0
  -25.9543  -11.7007   20.5681 N   0  0  0  0  0  0
  -22.0319  -12.8061   22.0449 N   0  0  0  0  0  0
  -25.3573  -15.2251   20.4583 N   0  0  0  0  0  0
  -31.2235  -16.2684   20.1931 O   0  0  0  0  0  0
  -21.6677   -6.8923   21.4252 O   0  0  0  0  0  0
  -22.3301  -14.5406   20.6752 O   0  0  0  0  0  0
  -24.7421  -31.7201   23.0971 C   0  0  0  0  0  0
  -25.9682  -32.4073   23.7759 C   0  0  1  0  0  0
  -27.2625  -26.0633   20.2566 C   0  0  0  0  0  0
  -25.6003  -33.7942   24.1570 N   0  0  0  0  0  0
  -23.5975  -30.2904   21.4655 C   0  0  2  0  0  0
  -25.0630  -28.4953   20.1286 C   0  0  0  0  0  0
  -22.8027  -29.3874   22.4531 C   0  0  0  0  0  0
  -18.0375  -28.1437   22.8416 C   0  0  0  0  0  0
  -24.1497  -36.6987   23.2676 C   0  0  0  0  0  0
  -26.1965  -30.2383   21.4616 C   0  0  0  0  0  0
  -26.2551  -28.7318   20.8202 C   0  0  0  0  0  0
  -27.2984  -27.5647   20.8411 C   0  0  0  0  0  0
  -26.0413  -26.2034   19.4881 C   0  0  0  0  0  0
  -25.0334  -27.2615   19.4386 C   0  0  0  0  0  0
  -23.8861  -29.5255   20.1285 C   0  0  0  0  0  0
  -25.4165  -36.2659   24.0244 C   0  0  1  0  0  0
  -20.6036  -28.3813   23.1033 C   0  0  2  0  0  0
  -20.6801  -26.9412   22.5422 C   0  0  0  0  0  0
  -19.5796  -26.6323   21.5224 C   0  0  0  0  0  0
  -18.1971  -26.7952   22.1599 C   0  0  0  0  0  0
  -19.1652  -28.8962   23.2689 C   0  0  0  0  0  0
  -18.9554  -30.1534   23.8761 C   0  0  0  0  0  0
  -17.6537  -30.6605   24.0526 C   0  0  0  0  0  0
  -25.9181  -34.9072   23.4793 C   0  0  0  0  0  0
  -16.5421  -29.9074   23.6362 C   0  0  0  0  0  0
  -16.7351  -28.6501   23.0377 C   0  0  0  0  0  0
  -26.4670  -31.6389   25.0642 C   0  0  0  0  0  0
  -25.3576  -31.3882   26.1146 C   0  0  0  0  0  0
  -27.0688  -30.2654   24.7000 C   0  0  0  0  0  0
  -27.6007  -32.4411   25.7465 C   0  0  0  0  0  0
  -27.5539  -37.1640   24.8468 C   0  0  0  0  0  0
  -21.4618  -29.2937   22.3281 N   0  0  0  0  0  0
  -26.4230  -37.3498   23.9417 N   0  0  0  0  0  0
  -24.8771  -30.7996   22.0598 N   0  0  0  0  0  0
  -23.4169  -28.7590   23.3176 O   0  0  0  0  0  0
  -28.1485  -24.5643   20.3905 O   0  0  0  0  0  0
  -26.5921  -34.8779   22.4479 O   0  0  0  0  0  0
  -23.6307  -32.0583   23.5507 O   0  0  0  0  0  0
  -28.9384  -17.3754   23.5691 C   0  0  0  0  0  0
  -28.5522  -19.7758   23.3909 C   0  0  0  0  0  0
  -27.3482  -18.4690   25.0618 C   0  0  0  0  0  0
  -29.1970  -18.6071   22.9315 C   0  0  0  0  0  0
  -28.0237  -17.3031   24.6410 C   0  0  0  0  0  0
  -27.6132  -19.7104   24.4434 C   0  0  0  0  0  0
  -24.5948  -14.3191   24.5598 C   0  0  0  0  0  0
  -25.3735  -13.3736   25.4663 C   0  0  0  0  0  0
  -25.4729  -15.5708   24.5350 C   0  0  0  0  0  0
  -26.8378  -13.6963   25.1486 C   0  0  0  0  0  0
  -23.2392  -20.0519   21.6525 C   0  0  0  0  0  0
  -26.3441  -25.4507   23.9929 C   0  0  0  0  0  0
  -30.1464  -18.6668   21.7417 C   0  0  0  0  0  0
  -27.7980  -15.9803   25.3614 C   0  0  0  0  0  0
  -26.9024  -20.9746   24.9179 C   0  0  0  0  0  0
  -24.4475  -20.9167   22.0350 C   0  0  0  0  0  0
  -26.7641  -23.9900   23.7732 C   0  0  0  0  0  0
  -28.6184  -20.1732   20.1780 C   0  0  0  0  0  0
  -24.8673  -20.7346   23.5080 C   0  0  0  0  0  0
  -25.6651  -22.9848   24.1726 C   0  0  0  0  0  0
  -28.5050  -22.5223   20.0152 C   0  0  0  0  0  0
  -29.4707  -18.2769   20.4958 N   0  0  0  0  0  0
  -26.8700  -15.0857   24.6299 N   0  3  0  0  0  0
  -26.0409  -21.5773   23.8650 N   0  3  0  0  0  0
  -31.2103  -14.1708   19.0401 H   0  0  0  0  0  0
  -30.6943  -13.1444   20.3062 H   0  0  0  0  0  0
  -30.2046  -12.1523   18.0441 H   0  0  0  0  0  0
  -29.3726  -13.6051   17.5573 H   0  0  0  0  0  0
  -28.4297  -11.4790   19.4780 H   0  0  0  0  0  0
  -27.5883  -12.1077   18.0731 H   0  0  0  0  0  0
  -27.3141  -14.2187   19.1074 H   0  0  0  0  0  0
  -28.9653  -13.4391   21.5542 H   0  0  0  0  0  0
  -27.9089  -14.8041   21.4883 H   0  0  0  0  0  0
  -25.2857   -9.5713   22.4741 H   0  0  0  0  0  0
  -24.0036   -7.4700   22.7503 H   0  0  0  0  0  0
  -21.0922   -8.8835   19.8945 H   0  0  0  0  0  0
  -22.3834  -10.9679   19.6106 H   0  0  0  0  0  0
  -21.2038   -7.6158   23.9730 H   0  0  0  0  0  0
  -21.1496   -6.0519   25.9079 H   0  0  0  0  0  0
  -22.0577   -2.7618   23.2828 H   0  0  0  0  0  0
  -22.3913  -11.9697   22.4803 H   0  0  0  0  0  0
  -21.0910  -13.1039   22.2592 H   0  0  0  0  0  0
  -24.5558  -15.8430   20.5090 H   0  0  0  0  0  0
  -26.1755  -15.6732   20.0674 H   0  0  0  0  0  0
  -26.7841  -32.4418   23.0526 H   0  0  0  0  0  0
  -24.9957  -33.8874   24.9599 H   0  0  0  0  0  0
  -22.9607  -31.1430   21.2195 H   0  0  0  0  0  0
  -23.3788  -35.9288   23.3214 H   0  0  0  0  0  0
  -24.3560  -36.8806   22.2119 H   0  0  0  0  0  0
  -23.7236  -37.6095   23.6885 H   0  0  0  0  0  0
  -26.4649  -30.9204   20.6537 H   0  0  0  0  0  0
  -27.0266  -30.3214   22.1494 H   0  0  0  0  0  0
  -28.1715  -27.7770   21.4415 H   0  0  0  0  0  0
  -25.7777  -25.3201   18.9230 H   0  0  0  0  0  0
  -24.1557  -27.0565   18.8411 H   0  0  0  0  0  0
  -24.1070  -30.2594   19.3526 H   0  0  0  0  0  0
  -22.9793  -29.0218   19.7909 H   0  0  0  0  0  0
  -25.1406  -36.1324   25.0735 H   0  0  0  0  0  0
  -21.0103  -28.3482   24.1164 H   0  0  0  0  0  0
  -20.5585  -26.2460   23.3741 H   0  0  0  0  0  0
  -21.6659  -26.7239   22.1293 H   0  0  0  0  0  0
  -19.6944  -25.6202   21.1332 H   0  0  0  0  0  0
  -19.6764  -27.3077   20.6716 H   0  0  0  0  0  0
  -17.4248  -26.6715   21.3988 H   0  0  0  0  0  0
  -18.0317  -26.0123   22.9015 H   0  0  0  0  0  0
  -19.8035  -30.7369   24.2078 H   0  0  0  0  0  0
  -17.5089  -31.6277   24.5149 H   0  0  0  0  0  0
  -15.5417  -30.2933   23.7763 H   0  0  0  0  0  0
  -15.8752  -28.0770   22.7179 H   0  0  0  0  0  0
  -24.5826  -30.7176   25.7404 H   0  0  0  0  0  0
  -24.8706  -32.3151   26.4184 H   0  0  0  0  0  0
  -25.7612  -30.9275   27.0172 H   0  0  0  0  0  0
  -26.3494  -29.6044   24.2152 H   0  0  0  0  0  0
  -27.4000  -29.7394   25.5965 H   0  0  0  0  0  0
  -27.9516  -30.3619   24.0686 H   0  0  0  0  0  0
  -27.2485  -33.3884   26.1562 H   0  0  0  0  0  0
  -28.4021  -32.6696   25.0424 H   0  0  0  0  0  0
  -28.0438  -31.8872   26.5747 H   0  0  0  0  0  0
  -28.2466  -38.0010   24.7509 H   0  0  0  0  0  0
  -28.1106  -36.2519   24.6279 H   0  0  0  0  0  0
  -27.2260  -37.1249   25.8869 H   0  0  0  0  0  0
  -21.0062  -29.8522   21.6197 H   0  0  0  0  0  0
  -25.9987  -38.2508   24.1446 H   0  0  0  0  0  0
  -29.4555  -16.4834   23.2428 H   0  0  0  0  0  0
  -28.7727  -20.7242   22.9208 H   0  0  0  0  0  0
  -26.6411  -18.4136   25.8784 H   0  0  0  0  0  0
  -23.5817  -14.5159   24.9119 H   0  0  0  0  0  0
  -24.5258  -13.8939   23.5601 H   0  0  0  0  0  0
  -25.1273  -12.3237   25.3030 H   0  0  0  0  0  0
  -25.1636  -13.6065   26.5115 H   0  0  0  0  0  0
  -25.2317  -16.1935   25.3983 H   0  0  0  0  0  0
  -25.3146  -16.1733   23.6391 H   0  0  0  0  0  0
  -27.2064  -13.0333   24.3646 H   0  0  0  0  0  0
  -27.4759  -13.5483   26.0217 H   0  0  0  0  0  0
  -23.0083  -20.1523   20.5915 H   0  0  0  0  0  0
  -22.3492  -20.3459   22.2104 H   0  0  0  0  0  0
  -23.4244  -18.9952   21.8498 H   0  0  0  0  0  0
  -27.1392  -26.1332   23.6908 H   0  0  0  0  0  0
  -26.1209  -25.6484   25.0422 H   0  0  0  0  0  0
  -25.4582  -25.7035   23.4081 H   0  0  0  0  0  0
  -31.0242  -18.0598   21.9694 H   0  0  0  0  0  0
  -30.5475  -19.6762   21.6395 H   0  0  0  0  0  0
  -27.4316  -16.1574   26.3739 H   0  0  0  0  0  0
  -28.7659  -15.4885   25.4707 H   0  0  0  0  0  0
  -27.6725  -21.6789   25.2325 H   0  0  0  0  0  0
  -26.3039  -20.7645   25.8061 H   0  0  0  0  0  0
  -24.2089  -21.9601   21.8265 H   0  0  0  0  0  0
  -25.2831  -20.6587   21.3828 H   0  0  0  0  0  0
  -27.6797  -23.8009   24.3346 H   0  0  0  0  0  0
  -27.0154  -23.8569   22.7204 H   0  0  0  0  0  0
  -28.4346  -19.9835   19.1201 H   0  0  0  0  0  0
  -27.6476  -19.9771   20.6332 H   0  0  0  0  0  0
  -25.0985  -19.6791   23.6538 H   0  0  0  0  0  0
  -24.0356  -20.9506   24.1808 H   0  0  0  0  0  0
  -24.7561  -23.2530   23.6325 H   0  0  0  0  0  0
  -25.4156  -23.0814   25.2309 H   0  0  0  0  0  0
  -27.8609  -22.5221   19.1362 H   0  0  0  0  0  0
  -29.5080  -22.6722   19.6159 H   0  0  0  0  0  0
  -27.2229  -15.0220   23.6884 H   0  0  0  0  0  0
  -26.6142  -21.6088   23.0379 H   0  0  0  0  0  0
  1 25  1  0  0  0
  1 30  2  0  0  0
  1 92  1  0  0  0
  2  3  1  0  0  0
  2 25  1  0  0  0
  2 95  1  0  0  0
  2 96  1  0  0  0
  3  4  1  0  0  0
  3 97  1  0  0  0
  3 98  1  0  0  0
  4  5  1  0  0  0
  4 99  1  0  0  0
  4100  1  0  0  0
  5  6  1  0  0  0
  5 26  1  0  0  0
  5101  1  0  0  0
  6 25  1  0  0  0
  6102  1  0  0  0
  6103  1  0  0  0
  7  8  2  0  0  0
  7 26  1  0  0  0
  7 29  1  0  0  0
  8  9  1  0  0  0
  8 22  1  0  0  0
  9 10  1  0  0  0
  9 27  2  0  0  0
 10 11  2  0  0  0
 10 15  1  0  0  0
 11 12  1  0  0  0
 11104  1  0  0  0
 12 13  2  0  0  0
 12105  1  0  0  0
 13 14  1  0  0  0
 13 31  1  0  0  0
 14 15  2  0  0  0
 14106  1  0  0  0
 15107  1  0  0  0
 16 17  2  0  0  0
 16 21  1  0  0  0
 16 31  1  0  0  0
 17 18  1  0  0  0
 17108  1  0  0  0
 18 19  2  0  0  0
 18109  1  0  0  0
 19 20  1  0  0  0
 19 24  1  0  0  0
 20 21  2  0  0  0
 20110  1  0  0  0
 21 23  1  0  0  0
 22 28  1  0  0  0
 22 32  2  0  0  0
 26 27  1  0  0  0
 28111  1  0  0  0
 28112  1  0  0  0
 29113  1  0  0  0
 29114  1  0  0  0
 33 34  1  0  0  0
 33 66  1  0  0  0
 33 70  2  0  0  0
 34 36  1  0  0  0
 34 59  1  0  0  0
 34115  1  0  0  0
 35 44  2  0  0  0
 35 45  1  0  0  0
 35 68  1  0  0  0
 36 56  1  0  0  0
 36116  1  0  0  0
 37 39  1  0  0  0
 37 47  1  0  0  0
 37 66  1  0  0  0
 37117  1  0  0  0
 38 43  2  0  0  0
 38 46  1  0  0  0
 38 47  1  0  0  0
 39 64  1  0  0  0
 39 67  2  0  0  0
 40 52  1  0  0  0
 40 53  2  0  0  0
 40 58  1  0  0  0
 41118  1  0  0  0
 41119  1  0  0  0
 41120  1  0  0  0
 41 48  1  0  0  0
 42 43  1  0  0  0
 42 66  1  0  0  0
 42121  1  0  0  0
 42122  1  0  0  0
 43 44  1  0  0  0
 44123  1  0  0  0
 45 46  2  0  0  0
 45124  1  0  0  0
 46125  1  0  0  0
 47126  1  0  0  0
 47127  1  0  0  0
 48 56  1  0  0  0
 48 65  1  0  0  0
 48128  1  0  0  0
 49 50  1  0  0  0
 49 53  1  0  0  0
 49 64  1  0  0  0
 49129  1  0  0  0
 50 51  1  0  0  0
 50130  1  0  0  0
 50131  1  0  0  0
 51 52  1  0  0  0
 51132  1  0  0  0
 51133  1  0  0  0
 52134  1  0  0  0
 52135  1  0  0  0
 53 54  1  0  0  0
 54 55  2  0  0  0
 54136  1  0  0  0
 55 57  1  0  0  0
 55137  1  0  0  0
 56 69  2  0  0  0
 57 58  2  0  0  0
 57138  1  0  0  0
 58139  1  0  0  0
 59 60  1  0  0  0
 59 61  1  0  0  0
 59 62  1  0  0  0
 60140  1  0  0  0
 60141  1  0  0  0
 60142  1  0  0  0
 61143  1  0  0  0
 61144  1  0  0  0
 61145  1  0  0  0
 62146  1  0  0  0
 62147  1  0  0  0
 62148  1  0  0  0
 63 65  1  0  0  0
 63149  1  0  0  0
 63150  1  0  0  0
 63151  1  0  0  0
 64152  1  0  0  0
 65153  1  0  0  0
 68 91  1  0  0  0
 71 74  2  0  0  0
 71 75  1  0  0  0
 71154  1  0  0  0
 72 74  1  0  0  0
 72 76  2  0  0  0
 72155  1  0  0  0
 73 75  2  0  0  0
 73 76  1  0  0  0
 73156  1  0  0  0
 74 83  1  0  0  0
 75 84  1  0  0  0
 76 85  1  0  0  0
 77 78  1  0  0  0
 77 79  1  0  0  0
 77157  1  0  0  0
 77158  1  0  0  0
 78 80  1  0  0  0
 78159  1  0  0  0
 78160  1  0  0  0
 79 93  1  0  0  0
 79161  1  0  0  0
 79162  1  0  0  0
 80 93  1  0  0  0
 80163  1  0  0  0
 80164  1  0  0  0
 81 86  1  0  0  0
 81165  1  0  0  0
 81166  1  0  0  0
 81167  1  0  0  0
 82 87  1  0  0  0
 82168  1  0  0  0
 82169  1  0  0  0
 82170  1  0  0  0
 83 92  1  0  0  0
 83171  1  0  0  0
 83172  1  0  0  0
 84173  1  0  0  0
 84174  1  0  0  0
 84 93  1  0  0  0
 85175  1  0  0  0
 85176  1  0  0  0
 85 94  1  0  0  0
 86 89  1  0  0  0
 86177  1  0  0  0
 86178  1  0  0  0
 87 90  1  0  0  0
 87179  1  0  0  0
 87180  1  0  0  0
 88 91  1  0  0  0
 88 92  1  0  0  0
 88181  1  0  0  0
 88182  1  0  0  0
 89 94  1  0  0  0
 89183  1  0  0  0
 89184  1  0  0  0
 90 94  1  0  0  0
 90185  1  0  0  0
 90186  1  0  0  0
 91187  1  0  0  0
 91188  1  0  0  0
 93189  1  0  0  0
 94190  1  0  0  0
M  CHG  2  93   1  94   1
M  ISO  4   1 100  68 101  91 101  92 100
M  END
> <chiral flag>
0

> <version>
0

> <s_m_source_file>
/data/baiqing/PycharmProjects/Reinvent-master-3.2/result/LINK_invent/BTK/process_docking_weight1_custom_product_contain_oxygen_bond_distance_aromatic_linkinvent_7_9_3/rearranged_h_0022.sdf

> <i_m_source_file_index>
69

> <r_mmod_Potential_Energy-OPLS-2005>
7068.24951171875

> <r_mmod_Stretch_Energy-OPLS-2005>
3160.96533203125

> <r_mmod_Bend_Energy-OPLS-2005>
1380.02465820312

> <r_mmod_Torsional_Energy-OPLS-2005>
381.705902099609

> <r_mmod_Improper_Torsional_Energy-OPLS-2005>
4.45358657836914

> <r_mmod_Van_der_Waal_Energy-OPLS-2005>
100.046669006348

> <r_mmod_Electrostatic_Energy-OPLS-2005>
94.6247482299805

> <r_mmod_Solvation_Energy-OPLS-2005>
-863.807006835938

> <b_mmod_Minimization_Converged-OPLS-2005>
0

> <r_mmod_RMS_Derivative-OPLS-2005>
1.33705878257751

$$$$
70
                    3D
 Structure written by MMmdl.
161169  0  0  1  0            999 V2000
  -30.6136  -14.6336   20.5028 C   0  0  0  0  0  0
  -30.4326  -12.3803   19.4693 C   0  0  0  0  0  0
  -29.5108  -12.5120   18.2362 C   0  0  0  0  0  0
  -28.0268  -12.3718   18.6311 C   0  0  0  0  0  0
  -27.6549  -13.2207   19.8742 C   0  0  2  0  0  0
  -28.6946  -13.0576   21.0043 C   0  0  0  0  0  0
  -25.2536  -13.8183   20.5648 C   0  0  0  0  0  0
  -24.1798  -13.0445   20.9136 C   0  0  0  0  0  0
  -24.6380  -11.6915   20.8715 C   0  0  0  0  0  0
  -23.9056  -10.4298   21.0378 C   0  0  0  0  0  0
  -24.3610   -9.4232   21.9169 C   0  0  0  0  0  0
  -23.6287   -8.2271   22.0773 C   0  0  0  0  0  0
  -22.4272   -8.0282   21.3564 C   0  0  0  0  0  0
  -21.9887   -9.0241   20.4660 C   0  0  0  0  0  0
  -22.7209  -10.2118   20.3054 C   0  0  0  0  0  0
  -21.6865   -6.0714   22.5260 C   0  0  0  0  0  0
  -21.4003   -6.5618   23.8177 C   0  0  0  0  0  0
  -21.3680   -5.6782   24.9154 C   0  0  0  0  0  0
  -21.6064   -4.3052   24.7212 C   0  0  0  0  0  0
  -21.8813   -3.8127   23.4338 C   0  0  0  0  0  0
  -21.9200   -4.6946   22.3393 C   0  0  0  0  0  0
  -22.7828  -13.5254   21.1788 C   0  0  0  0  0  0
  -22.1677   -4.2124   21.0981 F   0  0  0  0  0  0
  -21.5665   -3.4554   25.7749 F   0  0  0  0  0  0
  -30.0164  -13.4005   20.4537 N   0  0  0  0  0  0
  -26.2989  -12.9375   20.3362 N   0  0  0  0  0  0
  -25.9317  -11.6525   20.5766 N   0  0  0  0  0  0
  -22.0485  -12.8255   22.0359 N   0  0  0  0  0  0
  -25.4178  -15.1907   20.4021 N   0  0  0  0  0  0
  -31.7438  -14.8184   20.0387 O   0  0  0  0  0  0
  -21.6668   -6.8863   21.4217 O   0  0  0  0  0  0
  -22.3517  -14.5573   20.6655 O   0  0  0  0  0  0
  -24.6250  -31.8594   23.2009 C   0  0  0  0  0  0
  -25.9112  -32.4772   23.8326 C   0  0  1  0  0  0
  -27.2306  -27.3420   20.1139 C   0  0  0  0  0  0
  -25.5936  -33.8558   24.2277 N   0  0  0  0  0  0
  -23.4180  -30.4780   21.5442 C   0  0  2  0  0  0
  -24.8643  -28.9283   20.1153 C   0  0  0  0  0  0
  -22.7483  -29.4596   22.4973 C   0  0  0  0  0  0
  -18.0304  -28.1390   22.8497 C   0  0  0  0  0  0
  -24.1471  -36.7284   23.2633 C   0  0  0  0  0  0
  -25.9513  -30.7992   21.3619 C   0  0  0  0  0  0
  -26.0295  -29.4218   20.7160 C   0  0  0  0  0  0
  -27.2183  -28.6394   20.7027 C   0  0  0  0  0  0
  -26.0452  -26.8824   19.5086 C   0  0  0  0  0  0
  -24.8710  -27.6622   19.5038 C   0  0  0  0  0  0
  -23.6316  -29.8069   20.1603 C   0  0  0  0  0  0
  -25.4098  -36.3073   24.0334 C   0  0  1  0  0  0
  -20.5892  -28.3678   23.1318 C   0  0  2  0  0  0
  -20.6783  -26.9407   22.5423 C   0  0  0  0  0  0
  -19.5759  -26.6402   21.5217 C   0  0  0  0  0  0
  -18.1944  -26.7939   22.1628 C   0  0  0  0  0  0
  -19.1554  -28.8862   23.2897 C   0  0  0  0  0  0
  -18.9456  -30.1469   23.8897 C   0  0  0  0  0  0
  -17.6455  -30.6580   24.0581 C   0  0  0  0  0  0
  -25.9048  -34.9449   23.5109 C   0  0  0  0  0  0
  -16.5357  -29.9075   23.6327 C   0  0  0  0  0  0
  -16.7294  -28.6510   23.0321 C   0  0  0  0  0  0
  -26.4510  -31.6552   25.0672 C   0  0  0  0  0  0
  -25.3757  -31.3656   26.1411 C   0  0  0  0  0  0
  -27.0315  -30.2989   24.6036 C   0  0  0  0  0  0
  -27.6066  -32.4257   25.7476 C   0  0  0  0  0  0
  -27.5570  -37.1802   24.8473 C   0  0  0  0  0  0
  -21.4210  -29.3024   22.3722 N   0  0  0  0  0  0
  -26.4269  -37.3779   23.9423 N   0  0  0  0  0  0
  -24.6835  -31.0621   22.0940 N   0  0  0  0  0  0
  -23.4221  -28.8160   23.3061 O   0  0  0  0  0  0
  -28.3670  -26.5320   20.0876 O   0  0  0  0  0  0
  -26.5604  -34.8921   22.4666 O   0  0  0  0  0  0
  -23.5426  -32.1405   23.7337 O   0  0  0  0  0  0
  -29.9714  -17.6253   19.4126 C   0  0  0  0  0  0
  -29.6907  -18.9959   19.1355 C   0  0  0  0  0  0
  -29.3781  -18.0089   21.7008 C   0  0  0  0  0  0
  -29.1240  -19.3933   21.4377 C   0  0  0  0  0  0
  -29.7872  -17.0811   20.7057 C   0  0  0  0  0  0
  -29.2115  -19.9264   20.1094 C   0  0  0  0  0  0
  -28.7176  -20.2397   22.6324 C   0  0  0  0  0  0
  -26.3134  -21.0628   19.3586 C   0  0  0  0  0  0
  -28.5928  -23.9093   19.7343 C   0  0  0  0  0  0
  -27.6900  -21.1327   18.6850 C   0  0  0  0  0  0
  -28.7530  -22.5012   20.4884 C   0  0  0  0  0  0
  -28.2650  -25.1717   20.6419 C   0  0  0  0  0  0
  -29.8642  -15.6554   21.0227 N   0  0  0  0  0  0
  -28.7795  -21.2422   19.6654 N   0  0  0  0  0  0
  -31.4787  -12.4913   19.1765 H   0  0  0  0  0  0
  -30.3546  -11.3829   19.9031 H   0  0  0  0  0  0
  -29.7669  -11.7634   17.4855 H   0  0  0  0  0  0
  -29.6698  -13.4828   17.7668 H   0  0  0  0  0  0
  -27.8267  -11.3174   18.8195 H   0  0  0  0  0  0
  -27.3936  -12.6554   17.7902 H   0  0  0  0  0  0
  -27.6815  -14.2603   19.5495 H   0  0  0  0  0  0
  -28.6944  -12.0338   21.3807 H   0  0  0  0  0  0
  -28.4348  -13.6825   21.8588 H   0  0  0  0  0  0
  -25.2754   -9.5746   22.4730 H   0  0  0  0  0  0
  -24.0012   -7.4690   22.7510 H   0  0  0  0  0  0
  -21.0824   -8.8728   19.8970 H   0  0  0  0  0  0
  -22.3647  -10.9644   19.6172 H   0  0  0  0  0  0
  -21.1954   -7.6113   23.9669 H   0  0  0  0  0  0
  -21.1537   -6.0518   25.9056 H   0  0  0  0  0  0
  -22.0577   -2.7587   23.2841 H   0  0  0  0  0  0
  -22.4143  -11.9953   22.4769 H   0  0  0  0  0  0
  -21.1113  -13.1260   22.2607 H   0  0  0  0  0  0
  -24.6345  -15.8307   20.4751 H   0  0  0  0  0  0
  -26.2673  -15.6390   20.0809 H   0  0  0  0  0  0
  -26.7184  -32.5492   23.1082 H   0  0  0  0  0  0
  -25.0082  -33.9670   25.0430 H   0  0  0  0  0  0
  -22.7101  -31.2963   21.3992 H   0  0  0  0  0  0
  -23.3725  -35.9625   23.3301 H   0  0  0  0  0  0
  -24.3570  -36.8891   22.2047 H   0  0  0  0  0  0
  -23.7218  -37.6486   23.6647 H   0  0  0  0  0  0
  -26.0572  -31.5510   20.5792 H   0  0  0  0  0  0
  -26.8400  -30.8680   21.9757 H   0  0  0  0  0  0
  -28.1199  -29.0136   21.1643 H   0  0  0  0  0  0
  -26.0311  -25.9100   19.0398 H   0  0  0  0  0  0
  -23.9801  -27.2742   19.0321 H   0  0  0  0  0  0
  -23.7549  -30.5780   19.3992 H   0  0  0  0  0  0
  -22.7531  -29.2328   19.8597 H   0  0  0  0  0  0
  -25.1260  -36.1922   25.0822 H   0  0  0  0  0  0
  -20.9991  -28.3232   24.1434 H   0  0  0  0  0  0
  -20.5665  -26.2277   23.3598 H   0  0  0  0  0  0
  -21.6650  -26.7426   22.1214 H   0  0  0  0  0  0
  -19.6891  -25.6317   21.1217 H   0  0  0  0  0  0
  -19.6678  -27.3232   20.6757 H   0  0  0  0  0  0
  -17.4203  -26.6722   21.4030 H   0  0  0  0  0  0
  -18.0325  -26.0072   22.9013 H   0  0  0  0  0  0
  -19.7930  -30.7314   24.2234 H   0  0  0  0  0  0
  -17.4992  -31.6244   24.5192 H   0  0  0  0  0  0
  -15.5346  -30.2954   23.7634 H   0  0  0  0  0  0
  -15.8717  -28.0834   22.6973 H   0  0  0  0  0  0
  -24.6017  -30.6898   25.7769 H   0  0  0  0  0  0
  -24.8858  -32.2793   26.4790 H   0  0  0  0  0  0
  -25.8134  -30.8925   27.0216 H   0  0  0  0  0  0
  -26.2859  -29.6791   24.1048 H   0  0  0  0  0  0
  -27.4046  -29.7176   25.4479 H   0  0  0  0  0  0
  -27.8717  -30.4299   23.9206 H   0  0  0  0  0  0
  -27.2700  -33.3589   26.2018 H   0  0  0  0  0  0
  -28.3933  -32.6749   25.0334 H   0  0  0  0  0  0
  -28.0670  -31.8383   26.5441 H   0  0  0  0  0  0
  -28.2573  -38.0103   24.7497 H   0  0  0  0  0  0
  -28.1061  -36.2629   24.6305 H   0  0  0  0  0  0
  -27.2297  -37.1477   25.8875 H   0  0  0  0  0  0
  -20.9397  -29.8762   21.6939 H   0  0  0  0  0  0
  -26.0147  -38.2851   24.1416 H   0  0  0  0  0  0
  -30.2706  -16.9803   18.5984 H   0  0  0  0  0  0
  -29.8141  -19.3202   18.1118 H   0  0  0  0  0  0
  -29.2349  -17.6383   22.7054 H   0  0  0  0  0  0
  -29.3556  -21.1177   22.7231 H   0  0  0  0  0  0
  -28.8372  -19.6883   23.5664 H   0  0  0  0  0  0
  -27.6743  -20.5444   22.5551 H   0  0  0  0  0  0
  -25.5286  -20.9141   18.6175 H   0  0  0  0  0  0
  -26.0792  -21.9842   19.8929 H   0  0  0  0  0  0
  -26.2617  -20.2358   20.0675 H   0  0  0  0  0  0
  -27.8028  -23.8624   18.9859 H   0  0  0  0  0  0
  -29.5063  -24.1074   19.1738 H   0  0  0  0  0  0
  -27.7251  -21.9730   17.9937 H   0  0  0  0  0  0
  -27.7976  -20.2598   18.0415 H   0  0  0  0  0  0
  -27.9347  -22.4173   21.2043 H   0  0  0  0  0  0
  -29.6740  -22.5421   21.0681 H   0  0  0  0  0  0
  -28.9627  -25.1554   21.4785 H   0  0  0  0  0  0
  -27.2852  -25.0262   21.0992 H   0  0  0  0  0  0
  -29.1293  -15.3268   21.6300 H   0  0  0  0  0  0
  1 25  1  0  0  0
  1 30  2  0  0  0
  1 83  1  0  0  0
  2  3  1  0  0  0
  2 25  1  0  0  0
  2 85  1  0  0  0
  2 86  1  0  0  0
  3  4  1  0  0  0
  3 87  1  0  0  0
  3 88  1  0  0  0
  4  5  1  0  0  0
  4 89  1  0  0  0
  4 90  1  0  0  0
  5  6  1  0  0  0
  5 26  1  0  0  0
  5 91  1  0  0  0
  6 25  1  0  0  0
  6 92  1  0  0  0
  6 93  1  0  0  0
  7  8  2  0  0  0
  7 26  1  0  0  0
  7 29  1  0  0  0
  8  9  1  0  0  0
  8 22  1  0  0  0
  9 10  1  0  0  0
  9 27  2  0  0  0
 10 11  2  0  0  0
 10 15  1  0  0  0
 11 12  1  0  0  0
 11 94  1  0  0  0
 12 13  2  0  0  0
 12 95  1  0  0  0
 13 14  1  0  0  0
 13 31  1  0  0  0
 14 15  2  0  0  0
 14 96  1  0  0  0
 15 97  1  0  0  0
 16 17  2  0  0  0
 16 21  1  0  0  0
 16 31  1  0  0  0
 17 18  1  0  0  0
 17 98  1  0  0  0
 18 19  2  0  0  0
 18 99  1  0  0  0
 19 20  1  0  0  0
 19 24  1  0  0  0
 20 21  2  0  0  0
 20100  1  0  0  0
 21 23  1  0  0  0
 22 28  1  0  0  0
 22 32  2  0  0  0
 26 27  1  0  0  0
 28101  1  0  0  0
 28102  1  0  0  0
 29103  1  0  0  0
 29104  1  0  0  0
 33 34  1  0  0  0
 33 66  1  0  0  0
 33 70  2  0  0  0
 34 36  1  0  0  0
 34 59  1  0  0  0
 34105  1  0  0  0
 35 44  2  0  0  0
 35 45  1  0  0  0
 35 68  1  0  0  0
 36 56  1  0  0  0
 36106  1  0  0  0
 37 39  1  0  0  0
 37 47  1  0  0  0
 37 66  1  0  0  0
 37107  1  0  0  0
 38 43  2  0  0  0
 38 46  1  0  0  0
 38 47  1  0  0  0
 39 64  1  0  0  0
 39 67  2  0  0  0
 40 52  1  0  0  0
 40 53  2  0  0  0
 40 58  1  0  0  0
 41108  1  0  0  0
 41109  1  0  0  0
 41110  1  0  0  0
 41 48  1  0  0  0
 42 43  1  0  0  0
 42 66  1  0  0  0
 42111  1  0  0  0
 42112  1  0  0  0
 43 44  1  0  0  0
 44113  1  0  0  0
 45 46  2  0  0  0
 45114  1  0  0  0
 46115  1  0  0  0
 47116  1  0  0  0
 47117  1  0  0  0
 48 56  1  0  0  0
 48 65  1  0  0  0
 48118  1  0  0  0
 49 50  1  0  0  0
 49 53  1  0  0  0
 49 64  1  0  0  0
 49119  1  0  0  0
 50 51  1  0  0  0
 50120  1  0  0  0
 50121  1  0  0  0
 51 52  1  0  0  0
 51122  1  0  0  0
 51123  1  0  0  0
 52124  1  0  0  0
 52125  1  0  0  0
 53 54  1  0  0  0
 54 55  2  0  0  0
 54126  1  0  0  0
 55 57  1  0  0  0
 55127  1  0  0  0
 56 69  2  0  0  0
 57 58  2  0  0  0
 57128  1  0  0  0
 58129  1  0  0  0
 59 60  1  0  0  0
 59 61  1  0  0  0
 59 62  1  0  0  0
 60130  1  0  0  0
 60131  1  0  0  0
 60132  1  0  0  0
 61133  1  0  0  0
 61134  1  0  0  0
 61135  1  0  0  0
 62136  1  0  0  0
 62137  1  0  0  0
 62138  1  0  0  0
 63 65  1  0  0  0
 63139  1  0  0  0
 63140  1  0  0  0
 63141  1  0  0  0
 64142  1  0  0  0
 65143  1  0  0  0
 68 82  1  0  0  0
 71 72  2  0  0  0
 71 75  1  0  0  0
 71144  1  0  0  0
 72 76  1  0  0  0
 72145  1  0  0  0
 73 74  1  0  0  0
 73 75  2  0  0  0
 73146  1  0  0  0
 74 76  2  0  0  0
 74 77  1  0  0  0
 75 83  1  0  0  0
 76 84  1  0  0  0
 77147  1  0  0  0
 77148  1  0  0  0
 77149  1  0  0  0
 78 80  1  0  0  0
 78150  1  0  0  0
 78151  1  0  0  0
 78152  1  0  0  0
 79 81  1  0  0  0
 79 82  1  0  0  0
 79153  1  0  0  0
 79154  1  0  0  0
 80 84  1  0  0  0
 80155  1  0  0  0
 80156  1  0  0  0
 81 84  1  0  0  0
 81157  1  0  0  0
 81158  1  0  0  0
 82159  1  0  0  0
 82160  1  0  0  0
 83161  1  0  0  0
M  ISO  4   1 100  68 101  82 101  83 100
M  END
> <chiral flag>
0

> <version>
0

> <s_m_source_file>
/data/baiqing/PycharmProjects/Reinvent-master-3.2/result/LINK_invent/BTK/process_docking_weight1_custom_product_contain_oxygen_bond_distance_aromatic_linkinvent_7_9_3/rearranged_h_0022.sdf

> <i_m_source_file_index>
70

> <r_mmod_Potential_Energy-OPLS-2005>
57.406078338623

> <r_mmod_Stretch_Energy-OPLS-2005>
80.7174453735352

> <r_mmod_Bend_Energy-OPLS-2005>
152.141189575195

> <r_mmod_Torsional_Energy-OPLS-2005>
259.398620605469

> <r_mmod_Improper_Torsional_Energy-OPLS-2005>
6.30862665176392

> <r_mmod_Van_der_Waal_Energy-OPLS-2005>
146.371917724609

> <r_mmod_Electrostatic_Energy-OPLS-2005>
-408.812744140625

> <r_mmod_Solvation_Energy-OPLS-2005>
-219.428283691406

> <b_mmod_Minimization_Converged-OPLS-2005>
0

> <r_mmod_RMS_Derivative-OPLS-2005>
3.36780166625977

$$$$
71
                    3D
 Structure written by MMmdl.
152160  0  0  1  0            999 V2000
  -30.6374  -14.6278   20.5106 C   0  0  0  0  0  0
  -30.4375  -12.3870   19.4541 C   0  0  0  0  0  0
  -29.5076  -12.5095   18.2263 C   0  0  0  0  0  0
  -28.0303  -12.3499   18.6374 C   0  0  0  0  0  0
  -27.6549  -13.2183   19.8679 C   0  0  2  0  0  0
  -28.7002  -13.0689   20.9973 C   0  0  0  0  0  0
  -25.2528  -13.8144   20.5631 C   0  0  0  0  0  0
  -24.1810  -13.0413   20.9164 C   0  0  0  0  0  0
  -24.6399  -11.6894   20.8741 C   0  0  0  0  0  0
  -23.9069  -10.4280   21.0407 C   0  0  0  0  0  0
  -24.3618   -9.4198   21.9187 C   0  0  0  0  0  0
  -23.6290   -8.2235   22.0756 C   0  0  0  0  0  0
  -22.4273   -8.0276   21.3545 C   0  0  0  0  0  0
  -21.9910   -9.0250   20.4647 C   0  0  0  0  0  0
  -22.7241  -10.2127   20.3056 C   0  0  0  0  0  0
  -21.6851   -6.0733   22.5279 C   0  0  0  0  0  0
  -21.4012   -6.5638   23.8212 C   0  0  0  0  0  0
  -21.3659   -5.6791   24.9175 C   0  0  0  0  0  0
  -21.6044   -4.3054   24.7226 C   0  0  0  0  0  0
  -21.8820   -3.8146   23.4347 C   0  0  0  0  0  0
  -21.9192   -4.6962   22.3403 C   0  0  0  0  0  0
  -22.7835  -13.5210   21.1838 C   0  0  0  0  0  0
  -22.1661   -4.2147   21.0981 F   0  0  0  0  0  0
  -21.5629   -3.4538   25.7739 F   0  0  0  0  0  0
  -30.0191  -13.4066   20.4367 N   0  0  0  0  0  0
  -26.2997  -12.9353   20.3348 N   0  0  0  0  0  0
  -25.9338  -11.6504   20.5789 N   0  0  0  0  0  0
  -22.0489  -12.8209   22.0410 N   0  0  0  0  0  0
  -25.4162  -15.1846   20.3966 N   0  0  0  0  0  0
  -31.7914  -14.7868   20.1037 O   0  0  0  0  0  0
  -21.6636   -6.8875   21.4241 O   0  0  0  0  0  0
  -22.3511  -14.5517   20.6694 O   0  0  0  0  0  0
  -24.6257  -31.8611   23.2040 C   0  0  0  0  0  0
  -25.9109  -32.4786   23.8364 C   0  0  1  0  0  0
  -27.2250  -27.3287   20.1111 C   0  0  0  0  0  0
  -25.5927  -33.8586   24.2290 N   0  0  0  0  0  0
  -23.4184  -30.4862   21.5471 C   0  0  2  0  0  0
  -24.8641  -28.9452   20.1121 C   0  0  0  0  0  0
  -22.7472  -29.4633   22.4943 C   0  0  0  0  0  0
  -18.0286  -28.1383   22.8487 C   0  0  0  0  0  0
  -24.1489  -36.7297   23.2639 C   0  0  0  0  0  0
  -25.9598  -30.7955   21.3735 C   0  0  0  0  0  0
  -26.0344  -29.4245   20.7140 C   0  0  0  0  0  0
  -27.2181  -28.6288   20.7028 C   0  0  0  0  0  0
  -26.0271  -26.9020   19.4886 C   0  0  0  0  0  0
  -24.8621  -27.6886   19.4914 C   0  0  0  0  0  0
  -23.6322  -29.8240   20.1616 C   0  0  0  0  0  0
  -25.4114  -36.3089   24.0331 C   0  0  1  0  0  0
  -20.5886  -28.3688   23.1285 C   0  0  2  0  0  0
  -20.6776  -26.9412   22.5408 C   0  0  0  0  0  0
  -19.5751  -26.6385   21.5210 C   0  0  0  0  0  0
  -18.1931  -26.7926   22.1624 C   0  0  0  0  0  0
  -19.1538  -28.8852   23.2881 C   0  0  0  0  0  0
  -18.9461  -30.1454   23.8898 C   0  0  0  0  0  0
  -17.6462  -30.6586   24.0563 C   0  0  0  0  0  0
  -25.9050  -34.9457   23.5109 C   0  0  0  0  0  0
  -16.5353  -29.9085   23.6329 C   0  0  0  0  0  0
  -16.7273  -28.6502   23.0351 C   0  0  0  0  0  0
  -26.4495  -31.6590   25.0728 C   0  0  0  0  0  0
  -25.3731  -31.3720   26.1456 C   0  0  0  0  0  0
  -27.0336  -30.3017   24.6170 C   0  0  0  0  0  0
  -27.6057  -32.4321   25.7499 C   0  0  0  0  0  0
  -27.5580  -37.1805   24.8466 C   0  0  0  0  0  0
  -21.4187  -29.3045   22.3683 N   0  0  0  0  0  0
  -26.4293  -37.3781   23.9407 N   0  0  0  0  0  0
  -24.6869  -31.0634   22.0987 N   0  0  0  0  0  0
  -23.4200  -28.8168   23.3016 O   0  0  0  0  0  0
  -28.3465  -26.4836   20.1567 O   0  0  0  0  0  0
  -26.5616  -34.8921   22.4674 O   0  0  0  0  0  0
  -23.5422  -32.1405   23.7374 O   0  0  0  0  0  0
  -31.0253  -17.8244   20.1528 C   0  0  0  0  0  0
  -28.8591  -19.3545   21.0780 C   0  0  0  0  0  0
  -29.9473  -17.1254   20.7588 C   0  0  0  0  0  0
  -29.9378  -20.0508   20.4788 C   0  0  0  0  0  0
  -31.0200  -19.2450   20.0250 C   0  0  0  0  0  0
  -28.8714  -17.9348   21.2249 C   0  0  0  0  0  0
  -29.2759  -23.9913   20.3294 C   0  0  0  0  0  0
  -28.8819  -22.4448   20.3312 C   0  0  0  0  0  0
  -28.1053  -25.0268   20.0579 C   0  0  0  0  0  0
  -29.8537  -15.6708   20.9203 N   0  0  0  0  0  0
  -30.0188  -21.4785   20.3415 N   0  0  0  0  0  0
  -32.0856  -19.8537   19.4481 F   0  0  0  0  0  0
  -27.5308  -17.1817   22.0120 Cl  0  0  0  0  0  0
  -31.4794  -12.5066   19.1518 H   0  0  0  0  0  0
  -30.3677  -11.3902   19.8924 H   0  0  0  0  0  0
  -29.7698  -11.7599   17.4784 H   0  0  0  0  0  0
  -29.6526  -13.4803   17.7496 H   0  0  0  0  0  0
  -27.8645  -11.2964   18.8658 H   0  0  0  0  0  0
  -27.3763  -12.5841   17.7967 H   0  0  0  0  0  0
  -27.6741  -14.2553   19.5316 H   0  0  0  0  0  0
  -28.7080  -12.0466   21.3782 H   0  0  0  0  0  0
  -28.4455  -13.6993   21.8505 H   0  0  0  0  0  0
  -25.2763   -9.5672   22.4761 H   0  0  0  0  0  0
  -23.9998   -7.4626   22.7476 H   0  0  0  0  0  0
  -21.0841   -8.8770   19.8953 H   0  0  0  0  0  0
  -22.3702  -10.9666   19.6165 H   0  0  0  0  0  0
  -21.2004   -7.6146   23.9715 H   0  0  0  0  0  0
  -21.1481   -6.0522   25.9078 H   0  0  0  0  0  0
  -22.0600   -2.7608   23.2848 H   0  0  0  0  0  0
  -22.4109  -11.9870   22.4794 H   0  0  0  0  0  0
  -21.1112  -13.1239   22.2630 H   0  0  0  0  0  0
  -24.6556  -15.8385   20.5413 H   0  0  0  0  0  0
  -26.2852  -15.6402   20.1519 H   0  0  0  0  0  0
  -26.7177  -32.5460   23.1115 H   0  0  0  0  0  0
  -25.0076  -33.9733   25.0436 H   0  0  0  0  0  0
  -22.7118  -31.3067   21.4060 H   0  0  0  0  0  0
  -23.3750  -35.9631   23.3306 H   0  0  0  0  0  0
  -24.3581  -36.8912   22.2052 H   0  0  0  0  0  0
  -23.7244  -37.6502   23.6656 H   0  0  0  0  0  0
  -26.0898  -31.5605   20.6068 H   0  0  0  0  0  0
  -26.8408  -30.8432   22.0019 H   0  0  0  0  0  0
  -28.1161  -28.9934   21.1818 H   0  0  0  0  0  0
  -25.9537  -25.9446   18.9968 H   0  0  0  0  0  0
  -23.9652  -27.3150   19.0165 H   0  0  0  0  0  0
  -23.7510  -30.6018   19.4064 H   0  0  0  0  0  0
  -22.7521  -29.2537   19.8586 H   0  0  0  0  0  0
  -25.1293  -36.1945   25.0823 H   0  0  0  0  0  0
  -20.9977  -28.3260   24.1405 H   0  0  0  0  0  0
  -20.5679  -26.2297   23.3606 H   0  0  0  0  0  0
  -21.6645  -26.7445   22.1200 H   0  0  0  0  0  0
  -19.6914  -25.6297   21.1238 H   0  0  0  0  0  0
  -19.6687  -27.3198   20.6742 H   0  0  0  0  0  0
  -17.4200  -26.6671   21.4028 H   0  0  0  0  0  0
  -18.0336  -26.0068   22.9021 H   0  0  0  0  0  0
  -19.7938  -30.7268   24.2269 H   0  0  0  0  0  0
  -17.5017  -31.6267   24.5165 H   0  0  0  0  0  0
  -15.5353  -30.2988   23.7652 H   0  0  0  0  0  0
  -15.8673  -28.0822   22.7066 H   0  0  0  0  0  0
  -24.5911  -30.7062   25.7786 H   0  0  0  0  0  0
  -24.8915  -32.2882   26.4883 H   0  0  0  0  0  0
  -25.8061  -30.8900   27.0230 H   0  0  0  0  0  0
  -26.2905  -29.6771   24.1196 H   0  0  0  0  0  0
  -27.4044  -29.7267   25.4665 H   0  0  0  0  0  0
  -27.8771  -30.4309   23.9384 H   0  0  0  0  0  0
  -27.2671  -33.3620   26.2079 H   0  0  0  0  0  0
  -28.3867  -32.6881   25.0327 H   0  0  0  0  0  0
  -28.0726  -31.8442   26.5412 H   0  0  0  0  0  0
  -28.2601  -38.0099   24.7509 H   0  0  0  0  0  0
  -28.1071  -36.2630   24.6298 H   0  0  0  0  0  0
  -27.2296  -37.1462   25.8869 H   0  0  0  0  0  0
  -20.9362  -29.8775   21.6902 H   0  0  0  0  0  0
  -26.0177  -38.2858   24.1404 H   0  0  0  0  0  0
  -31.8807  -17.2863   19.7754 H   0  0  0  0  0  0
  -28.0115  -19.9042   21.4576 H   0  0  0  0  0  0
  -30.0469  -24.1605   19.5771 H   0  0  0  0  0  0
  -29.7375  -24.2328   21.2873 H   0  0  0  0  0  0
  -28.2805  -22.2358   19.4449 H   0  0  0  0  0  0
  -28.2349  -22.2469   21.1871 H   0  0  0  0  0  0
  -27.7500  -24.8105   19.0503 H   0  0  0  0  0  0
  -27.2883  -24.7767   20.7370 H   0  0  0  0  0  0
  -28.9682  -15.3701   21.3002 H   0  0  0  0  0  0
  -30.8752  -21.7942   19.8903 H   0  0  0  0  0  0
  1 25  1  0  0  0
  1 30  2  0  0  0
  1 80  1  0  0  0
  2  3  1  0  0  0
  2 25  1  0  0  0
  2 84  1  0  0  0
  2 85  1  0  0  0
  3  4  1  0  0  0
  3 86  1  0  0  0
  3 87  1  0  0  0
  4  5  1  0  0  0
  4 88  1  0  0  0
  4 89  1  0  0  0
  5  6  1  0  0  0
  5 26  1  0  0  0
  5 90  1  0  0  0
  6 25  1  0  0  0
  6 91  1  0  0  0
  6 92  1  0  0  0
  7  8  2  0  0  0
  7 26  1  0  0  0
  7 29  1  0  0  0
  8  9  1  0  0  0
  8 22  1  0  0  0
  9 10  1  0  0  0
  9 27  2  0  0  0
 10 11  2  0  0  0
 10 15  1  0  0  0
 11 12  1  0  0  0
 11 93  1  0  0  0
 12 13  2  0  0  0
 12 94  1  0  0  0
 13 14  1  0  0  0
 13 31  1  0  0  0
 14 15  2  0  0  0
 14 95  1  0  0  0
 15 96  1  0  0  0
 16 17  2  0  0  0
 16 21  1  0  0  0
 16 31  1  0  0  0
 17 18  1  0  0  0
 17 97  1  0  0  0
 18 19  2  0  0  0
 18 98  1  0  0  0
 19 20  1  0  0  0
 19 24  1  0  0  0
 20 21  2  0  0  0
 20 99  1  0  0  0
 21 23  1  0  0  0
 22 28  1  0  0  0
 22 32  2  0  0  0
 26 27  1  0  0  0
 28100  1  0  0  0
 28101  1  0  0  0
 29102  1  0  0  0
 29103  1  0  0  0
 33 34  1  0  0  0
 33 66  1  0  0  0
 33 70  2  0  0  0
 34 36  1  0  0  0
 34 59  1  0  0  0
 34104  1  0  0  0
 35 44  2  0  0  0
 35 45  1  0  0  0
 35 68  1  0  0  0
 36 56  1  0  0  0
 36105  1  0  0  0
 37 39  1  0  0  0
 37 47  1  0  0  0
 37 66  1  0  0  0
 37106  1  0  0  0
 38 43  2  0  0  0
 38 46  1  0  0  0
 38 47  1  0  0  0
 39 64  1  0  0  0
 39 67  2  0  0  0
 40 52  1  0  0  0
 40 53  2  0  0  0
 40 58  1  0  0  0
 41107  1  0  0  0
 41108  1  0  0  0
 41109  1  0  0  0
 41 48  1  0  0  0
 42 43  1  0  0  0
 42 66  1  0  0  0
 42110  1  0  0  0
 42111  1  0  0  0
 43 44  1  0  0  0
 44112  1  0  0  0
 45 46  2  0  0  0
 45113  1  0  0  0
 46114  1  0  0  0
 47115  1  0  0  0
 47116  1  0  0  0
 48 56  1  0  0  0
 48 65  1  0  0  0
 48117  1  0  0  0
 49 50  1  0  0  0
 49 53  1  0  0  0
 49 64  1  0  0  0
 49118  1  0  0  0
 50 51  1  0  0  0
 50119  1  0  0  0
 50120  1  0  0  0
 51 52  1  0  0  0
 51121  1  0  0  0
 51122  1  0  0  0
 52123  1  0  0  0
 52124  1  0  0  0
 53 54  1  0  0  0
 54 55  2  0  0  0
 54125  1  0  0  0
 55 57  1  0  0  0
 55126  1  0  0  0
 56 69  2  0  0  0
 57 58  2  0  0  0
 57127  1  0  0  0
 58128  1  0  0  0
 59 60  1  0  0  0
 59 61  1  0  0  0
 59 62  1  0  0  0
 60129  1  0  0  0
 60130  1  0  0  0
 60131  1  0  0  0
 61132  1  0  0  0
 61133  1  0  0  0
 61134  1  0  0  0
 62135  1  0  0  0
 62136  1  0  0  0
 62137  1  0  0  0
 63 65  1  0  0  0
 63138  1  0  0  0
 63139  1  0  0  0
 63140  1  0  0  0
 64141  1  0  0  0
 65142  1  0  0  0
 68 79  1  0  0  0
 71 73  2  0  0  0
 71 75  1  0  0  0
 71143  1  0  0  0
 72 74  1  0  0  0
 72 76  2  0  0  0
 72144  1  0  0  0
 73 76  1  0  0  0
 73 80  1  0  0  0
 74 75  2  0  0  0
 74 81  1  0  0  0
 75 82  1  0  0  0
 76 83  1  0  0  0
 77 78  1  0  0  0
 77 79  1  0  0  0
 77145  1  0  0  0
 77146  1  0  0  0
 78 81  1  0  0  0
 78147  1  0  0  0
 78148  1  0  0  0
 79149  1  0  0  0
 79150  1  0  0  0
 80151  1  0  0  0
 81152  1  0  0  0
M  ISO  4   1 100  68 101  79 101  80 100
M  END
> <chiral flag>
0

> <version>
0

> <s_m_source_file>
/data/baiqing/PycharmProjects/Reinvent-master-3.2/result/LINK_invent/BTK/process_docking_weight1_custom_product_contain_oxygen_bond_distance_aromatic_linkinvent_7_9_3/rearranged_h_0022.sdf

> <i_m_source_file_index>
71

> <r_mmod_Potential_Energy-OPLS-2005>
32.6614265441895

> <r_mmod_Stretch_Energy-OPLS-2005>
74.1712417602539

> <r_mmod_Bend_Energy-OPLS-2005>
143.53630065918

> <r_mmod_Torsional_Energy-OPLS-2005>
201.677032470703

> <r_mmod_Improper_Torsional_Energy-OPLS-2005>
4.73494005203247

> <r_mmod_Van_der_Waal_Energy-OPLS-2005>
144.901428222656

> <r_mmod_Electrostatic_Energy-OPLS-2005>
-371.867767333984

> <r_mmod_Solvation_Energy-OPLS-2005>
-208.6181640625

> <b_mmod_Minimization_Converged-OPLS-2005>
0

> <r_mmod_RMS_Derivative-OPLS-2005>
0.10093979537487

$$$$
72
                    3D
 Structure written by MMmdl.
172181  0  0  1  0            999 V2000
  -30.6957  -14.4195   20.6349 C   0  0  0  0  0  0
  -30.4330  -12.2954   19.3995 C   0  0  0  0  0  0
  -29.4925  -12.5249   18.1977 C   0  0  0  0  0  0
  -28.0124  -12.3852   18.6085 C   0  0  0  0  0  0
  -27.6703  -13.1967   19.8846 C   0  0  2  0  0  0
  -28.7084  -12.9116   20.9923 C   0  0  0  0  0  0
  -25.2622  -13.8139   20.5674 C   0  0  0  0  0  0
  -24.1857  -13.0423   20.9143 C   0  0  0  0  0  0
  -24.6403  -11.6888   20.8704 C   0  0  0  0  0  0
  -23.9058  -10.4287   21.0389 C   0  0  0  0  0  0
  -24.3615   -9.4205   21.9169 C   0  0  0  0  0  0
  -23.6290   -8.2245   22.0752 C   0  0  0  0  0  0
  -22.4277   -8.0281   21.3543 C   0  0  0  0  0  0
  -21.9908   -9.0247   20.4642 C   0  0  0  0  0  0
  -22.7228  -10.2127   20.3040 C   0  0  0  0  0  0
  -21.6847   -6.0731   22.5284 C   0  0  0  0  0  0
  -21.4016   -6.5640   23.8215 C   0  0  0  0  0  0
  -21.3656   -5.6797   24.9178 C   0  0  0  0  0  0
  -21.6046   -4.3058   24.7232 C   0  0  0  0  0  0
  -21.8819   -3.8141   23.4353 C   0  0  0  0  0  0
  -21.9195   -4.6957   22.3405 C   0  0  0  0  0  0
  -22.7878  -13.5219   21.1816 C   0  0  0  0  0  0
  -22.1655   -4.2140   21.0978 F   0  0  0  0  0  0
  -21.5635   -3.4542   25.7743 F   0  0  0  0  0  0
  -30.0514  -13.2335   20.4658 N   0  0  0  0  0  0
  -26.3066  -12.9297   20.3391 N   0  0  0  0  0  0
  -25.9331  -11.6464   20.5747 N   0  0  0  0  0  0
  -22.0525  -12.8213   22.0380 N   0  0  0  0  0  0
  -25.4352  -15.1860   20.4110 N   0  0  0  0  0  0
  -31.7462  -14.7130   20.0528 O   0  0  0  0  0  0
  -21.6642   -6.8878   21.4245 O   0  0  0  0  0  0
  -22.3547  -14.5511   20.6656 O   0  0  0  0  0  0
  -24.6131  -31.8679   23.2113 C   0  0  0  0  0  0
  -25.9026  -32.4821   23.8403 C   0  0  1  0  0  0
  -27.2368  -27.4523   20.0952 C   0  0  0  0  0  0
  -25.5883  -33.8620   24.2328 N   0  0  0  0  0  0
  -23.3992  -30.4903   21.5518 C   0  0  2  0  0  0
  -24.8456  -28.9546   20.1169 C   0  0  0  0  0  0
  -22.7390  -29.4660   22.5013 C   0  0  0  0  0  0
  -18.0264  -28.1381   22.8501 C   0  0  0  0  0  0
  -24.1486  -36.7319   23.2636 C   0  0  0  0  0  0
  -25.9257  -30.8395   21.3598 C   0  0  0  0  0  0
  -26.0042  -29.4746   20.7080 C   0  0  0  0  0  0
  -27.2040  -28.7319   20.6894 C   0  0  0  0  0  0
  -26.0634  -26.9396   19.5000 C   0  0  0  0  0  0
  -24.8690  -27.6852   19.5105 C   0  0  0  0  0  0
  -23.6051  -29.8180   20.1674 C   0  0  0  0  0  0
  -25.4105  -36.3114   24.0341 C   0  0  1  0  0  0
  -20.5855  -28.3662   23.1334 C   0  0  2  0  0  0
  -20.6756  -26.9400   22.5421 C   0  0  0  0  0  0
  -19.5728  -26.6392   21.5218 C   0  0  0  0  0  0
  -18.1910  -26.7933   22.1629 C   0  0  0  0  0  0
  -19.1515  -28.8836   23.2916 C   0  0  0  0  0  0
  -18.9438  -30.1449   23.8916 C   0  0  0  0  0  0
  -17.6443  -30.6589   24.0573 C   0  0  0  0  0  0
  -25.9036  -34.9477   23.5138 C   0  0  0  0  0  0
  -16.5336  -29.9089   23.6334 C   0  0  0  0  0  0
  -16.7257  -28.6507   23.0353 C   0  0  0  0  0  0
  -26.4461  -31.6595   25.0722 C   0  0  0  0  0  0
  -25.3734  -31.3685   26.1469 C   0  0  0  0  0  0
  -27.0293  -30.3046   24.6084 C   0  0  0  0  0  0
  -27.6046  -32.4307   25.7478 C   0  0  0  0  0  0
  -27.5590  -37.1804   24.8461 C   0  0  0  0  0  0
  -21.4124  -29.3032   22.3750 N   0  0  0  0  0  0
  -26.4298  -37.3795   23.9417 N   0  0  0  0  0  0
  -24.6645  -31.0796   22.0997 N   0  0  0  0  0  0
  -23.4173  -28.8212   23.3050 O   0  0  0  0  0  0
  -28.4181  -26.7477   20.0860 O   0  0  0  0  0  0
  -26.5603  -34.8928   22.4703 O   0  0  0  0  0  0
  -23.5326  -32.1420   23.7520 O   0  0  0  0  0  0
  -28.1082  -18.3433   21.9106 C   0  0  0  0  0  0
  -28.7904  -19.2616   21.0921 C   0  0  0  0  0  0
  -28.5723  -17.0231   22.0332 C   0  0  0  0  0  0
  -30.4115  -17.5351   20.5192 C   0  0  0  0  0  0
  -29.9504  -18.8751   20.3811 C   0  0  0  0  0  0
  -29.7217  -16.6011   21.3369 C   0  0  0  0  0  0
  -28.7784  -24.4492   19.3469 C   0  0  0  0  0  0
  -28.0620  -23.3944   18.9109 C   0  0  0  0  0  0
  -32.3048  -20.7619   18.1724 C   0  0  0  0  0  0
  -31.5010  -21.8607   18.8686 C   0  0  0  0  0  0
  -31.9032  -19.4909   18.9211 C   0  0  0  0  0  0
  -30.1842  -21.1767   19.2661 C   0  0  1  0  0  0
  -28.1900  -24.1664   15.9121 C   0  0  0  0  0  0
  -28.3541  -25.3722   20.4738 C   0  0  0  0  0  0
  -29.0815  -21.1829   18.1608 C   0  0  0  0  0  0
  -29.1249  -23.1644   16.6127 C   0  0  0  0  0  0
  -30.6300  -19.8068   19.5607 N   0  0  0  0  0  0
  -30.1011  -15.2382   21.5168 N   0  0  0  0  0  0
  -28.4842  -22.5012   17.7844 N   0  3  2  0  0  0
  -31.4737  -12.4176   19.0930 H   0  0  0  0  0  0
  -30.3511  -11.2679   19.7592 H   0  0  0  0  0  0
  -29.7226  -11.8202   17.3980 H   0  0  0  0  0  0
  -29.6656  -13.5199   17.7851 H   0  0  0  0  0  0
  -27.8104  -11.3263   18.7760 H   0  0  0  0  0  0
  -27.3655  -12.6908   17.7867 H   0  0  0  0  0  0
  -27.7336  -14.2543   19.6264 H   0  0  0  0  0  0
  -28.6776  -11.8555   21.2655 H   0  0  0  0  0  0
  -28.4489  -13.4416   21.9089 H   0  0  0  0  0  0
  -25.2767   -9.5671   22.4735 H   0  0  0  0  0  0
  -23.9997   -7.4635   22.7476 H   0  0  0  0  0  0
  -21.0842   -8.8748   19.8945 H   0  0  0  0  0  0
  -22.3677  -10.9663   19.6146 H   0  0  0  0  0  0
  -21.2007   -7.6151   23.9706 H   0  0  0  0  0  0
  -21.1479   -6.0535   25.9080 H   0  0  0  0  0  0
  -22.0604   -2.7602   23.2861 H   0  0  0  0  0  0
  -22.4155  -11.9882   22.4776 H   0  0  0  0  0  0
  -21.1131  -13.1213   22.2580 H   0  0  0  0  0  0
  -24.6725  -15.8438   20.5278 H   0  0  0  0  0  0
  -26.2984  -15.6286   20.1219 H   0  0  0  0  0  0
  -26.7099  -32.5546   23.1173 H   0  0  0  0  0  0
  -25.0043  -33.9782   25.0478 H   0  0  0  0  0  0
  -22.6875  -31.3068   21.4126 H   0  0  0  0  0  0
  -23.3756  -35.9646   23.3295 H   0  0  0  0  0  0
  -24.3584  -36.8937   22.2053 H   0  0  0  0  0  0
  -23.7233  -37.6520   23.6654 H   0  0  0  0  0  0
  -26.0341  -31.6064   20.5916 H   0  0  0  0  0  0
  -26.8154  -30.8943   21.9750 H   0  0  0  0  0  0
  -28.1022  -29.1316   21.1393 H   0  0  0  0  0  0
  -26.0723  -25.9706   19.0209 H   0  0  0  0  0  0
  -23.9788  -27.2806   19.0496 H   0  0  0  0  0  0
  -23.7062  -30.5896   19.4041 H   0  0  0  0  0  0
  -22.7309  -29.2318   19.8786 H   0  0  0  0  0  0
  -25.1282  -36.1990   25.0836 H   0  0  0  0  0  0
  -20.9938  -28.3223   24.1456 H   0  0  0  0  0  0
  -20.5664  -26.2260   23.3606 H   0  0  0  0  0  0
  -21.6629  -26.7449   22.1211 H   0  0  0  0  0  0
  -19.6891  -25.6306   21.1235 H   0  0  0  0  0  0
  -19.6679  -27.3213   20.6760 H   0  0  0  0  0  0
  -17.4183  -26.6691   21.4032 H   0  0  0  0  0  0
  -18.0310  -26.0068   22.9016 H   0  0  0  0  0  0
  -19.7910  -30.7273   24.2286 H   0  0  0  0  0  0
  -17.4992  -31.6268   24.5177 H   0  0  0  0  0  0
  -15.5337  -30.3002   23.7644 H   0  0  0  0  0  0
  -15.8656  -28.0842   22.7054 H   0  0  0  0  0  0
  -24.5902  -30.7044   25.7800 H   0  0  0  0  0  0
  -24.8932  -32.2835   26.4952 H   0  0  0  0  0  0
  -25.8086  -30.8824   27.0208 H   0  0  0  0  0  0
  -26.2827  -29.6807   24.1151 H   0  0  0  0  0  0
  -27.4090  -29.7285   25.4534 H   0  0  0  0  0  0
  -27.8653  -30.4388   23.9213 H   0  0  0  0  0  0
  -27.2676  -33.3600   26.2085 H   0  0  0  0  0  0
  -28.3833  -32.6866   25.0280 H   0  0  0  0  0  0
  -28.0735  -31.8406   26.5362 H   0  0  0  0  0  0
  -28.2586  -38.0119   24.7543 H   0  0  0  0  0  0
  -28.1103  -36.2656   24.6245 H   0  0  0  0  0  0
  -27.2310  -37.1408   25.8859 H   0  0  0  0  0  0
  -20.9278  -29.8748   21.6973 H   0  0  0  0  0  0
  -26.0194  -38.2875   24.1422 H   0  0  0  0  0  0
  -27.2220  -18.6519   22.4460 H   0  0  0  0  0  0
  -28.3986  -20.2658   21.0340 H   0  0  0  0  0  0
  -28.0249  -16.3354   22.6642 H   0  0  0  0  0  0
  -31.2984  -17.2138   19.9960 H   0  0  0  0  0  0
  -29.7286  -24.6925   18.8965 H   0  0  0  0  0  0
  -27.1086  -23.1154   19.3374 H   0  0  0  0  0  0
  -33.3803  -20.9402   18.1995 H   0  0  0  0  0  0
  -32.0074  -20.6861   17.1259 H   0  0  0  0  0  0
  -31.3921  -22.7593   18.2690 H   0  0  0  0  0  0
  -32.0291  -22.1617   19.7752 H   0  0  0  0  0  0
  -32.6445  -19.2491   19.6842 H   0  0  0  0  0  0
  -31.8248  -18.6403   18.2419 H   0  0  0  0  0  0
  -29.8063  -21.6588   20.1683 H   0  0  0  0  0  0
  -28.6821  -24.6016   15.0424 H   0  0  0  0  0  0
  -27.9117  -24.9919   16.5670 H   0  0  0  0  0  0
  -27.2746  -23.6881   15.5628 H   0  0  0  0  0  0
  -29.0579  -25.2310   21.2945 H   0  0  0  0  0  0
  -27.3784  -25.0799   20.8670 H   0  0  0  0  0  0
  -28.2489  -20.5780   18.5207 H   0  0  0  0  0  0
  -29.4345  -20.6621   17.2703 H   0  0  0  0  0  0
  -30.0383  -23.6800   16.8982 H   0  0  0  0  0  0
  -29.4218  -22.4128   15.8807 H   0  0  0  0  0  0
  -29.4720  -14.7274   22.1175 H   0  0  0  0  0  0
  -27.6219  -22.1836   17.3654 H   0  0  0  0  0  0
  1 25  1  0  0  0
  1 30  2  0  0  0
  1 88  1  0  0  0
  2  3  1  0  0  0
  2 25  1  0  0  0
  2 90  1  0  0  0
  2 91  1  0  0  0
  3  4  1  0  0  0
  3 92  1  0  0  0
  3 93  1  0  0  0
  4  5  1  0  0  0
  4 94  1  0  0  0
  4 95  1  0  0  0
  5  6  1  0  0  0
  5 26  1  0  0  0
  5 96  1  0  0  0
  6 25  1  0  0  0
  6 97  1  0  0  0
  6 98  1  0  0  0
  7  8  2  0  0  0
  7 26  1  0  0  0
  7 29  1  0  0  0
  8  9  1  0  0  0
  8 22  1  0  0  0
  9 10  1  0  0  0
  9 27  2  0  0  0
 10 11  2  0  0  0
 10 15  1  0  0  0
 11 12  1  0  0  0
 11 99  1  0  0  0
 12 13  2  0  0  0
 12100  1  0  0  0
 13 14  1  0  0  0
 13 31  1  0  0  0
 14 15  2  0  0  0
 14101  1  0  0  0
 15102  1  0  0  0
 16 17  2  0  0  0
 16 21  1  0  0  0
 16 31  1  0  0  0
 17 18  1  0  0  0
 17103  1  0  0  0
 18 19  2  0  0  0
 18104  1  0  0  0
 19 20  1  0  0  0
 19 24  1  0  0  0
 20 21  2  0  0  0
 20105  1  0  0  0
 21 23  1  0  0  0
 22 28  1  0  0  0
 22 32  2  0  0  0
 26 27  1  0  0  0
 28106  1  0  0  0
 28107  1  0  0  0
 29108  1  0  0  0
 29109  1  0  0  0
 33 34  1  0  0  0
 33 66  1  0  0  0
 33 70  2  0  0  0
 34 36  1  0  0  0
 34 59  1  0  0  0
 34110  1  0  0  0
 35 44  2  0  0  0
 35 45  1  0  0  0
 35 68  1  0  0  0
 36 56  1  0  0  0
 36111  1  0  0  0
 37 39  1  0  0  0
 37 47  1  0  0  0
 37 66  1  0  0  0
 37112  1  0  0  0
 38 43  2  0  0  0
 38 46  1  0  0  0
 38 47  1  0  0  0
 39 64  1  0  0  0
 39 67  2  0  0  0
 40 52  1  0  0  0
 40 53  2  0  0  0
 40 58  1  0  0  0
 41113  1  0  0  0
 41114  1  0  0  0
 41115  1  0  0  0
 41 48  1  0  0  0
 42 43  1  0  0  0
 42 66  1  0  0  0
 42116  1  0  0  0
 42117  1  0  0  0
 43 44  1  0  0  0
 44118  1  0  0  0
 45 46  2  0  0  0
 45119  1  0  0  0
 46120  1  0  0  0
 47121  1  0  0  0
 47122  1  0  0  0
 48 56  1  0  0  0
 48 65  1  0  0  0
 48123  1  0  0  0
 49 50  1  0  0  0
 49 53  1  0  0  0
 49 64  1  0  0  0
 49124  1  0  0  0
 50 51  1  0  0  0
 50125  1  0  0  0
 50126  1  0  0  0
 51 52  1  0  0  0
 51127  1  0  0  0
 51128  1  0  0  0
 52129  1  0  0  0
 52130  1  0  0  0
 53 54  1  0  0  0
 54 55  2  0  0  0
 54131  1  0  0  0
 55 57  1  0  0  0
 55132  1  0  0  0
 56 69  2  0  0  0
 57 58  2  0  0  0
 57133  1  0  0  0
 58134  1  0  0  0
 59 60  1  0  0  0
 59 61  1  0  0  0
 59 62  1  0  0  0
 60135  1  0  0  0
 60136  1  0  0  0
 60137  1  0  0  0
 61138  1  0  0  0
 61139  1  0  0  0
 61140  1  0  0  0
 62141  1  0  0  0
 62142  1  0  0  0
 62143  1  0  0  0
 63 65  1  0  0  0
 63144  1  0  0  0
 63145  1  0  0  0
 63146  1  0  0  0
 64147  1  0  0  0
 65148  1  0  0  0
 68 84  1  0  0  0
 71 72  2  0  0  0
 71 73  1  0  0  0
 71149  1  0  0  0
 72 75  1  0  0  0
 72150  1  0  0  0
 73 76  2  0  0  0
 73151  1  0  0  0
 74 75  2  0  0  0
 74 76  1  0  0  0
 74152  1  0  0  0
 75 87  1  0  0  0
 76 88  1  0  0  0
 77 78  2  0  0  0
 77 84  1  0  0  0
 77153  1  0  0  0
 78 89  1  0  0  0
 78154  1  0  0  0
 79 80  1  0  0  0
 79 81  1  0  0  0
 79155  1  0  0  0
 79156  1  0  0  0
 80 82  1  0  0  0
 80157  1  0  0  0
 80158  1  0  0  0
 81 87  1  0  0  0
 81159  1  0  0  0
 81160  1  0  0  0
 82 85  1  0  0  0
 82 87  1  0  0  0
 82161  1  0  0  0
 83 86  1  0  0  0
 83162  1  0  0  0
 83163  1  0  0  0
 83164  1  0  0  0
 84165  1  0  0  0
 84166  1  0  0  0
 85167  1  0  0  0
 85168  1  0  0  0
 85 89  1  0  0  0
 86 89  1  0  0  0
 86169  1  0  0  0
 86170  1  0  0  0
 88171  1  0  0  0
 89172  1  0  0  0
M  CHG  1  89   1
M  ISO  4   1 100  68 101  84 101  88 100
M  END
> <chiral flag>
0

> <version>
0

> <s_m_source_file>
/data/baiqing/PycharmProjects/Reinvent-master-3.2/result/LINK_invent/BTK/process_docking_weight1_custom_product_contain_oxygen_bond_distance_aromatic_linkinvent_7_9_3/rearranged_h_0022.sdf

> <i_m_source_file_index>
72

> <r_mmod_Potential_Energy-OPLS-2005>
-13.6750812530518

> <r_mmod_Stretch_Energy-OPLS-2005>
39.2057838439941

> <r_mmod_Bend_Energy-OPLS-2005>
167.948303222656

> <r_mmod_Torsional_Energy-OPLS-2005>
299.346984863281

> <r_mmod_Improper_Torsional_Energy-OPLS-2005>
4.57761001586914

> <r_mmod_Van_der_Waal_Energy-OPLS-2005>
146.929107666016

> <r_mmod_Electrostatic_Energy-OPLS-2005>
-234.872451782227

> <r_mmod_Solvation_Energy-OPLS-2005>
-445.532592773438

> <b_mmod_Minimization_Converged-OPLS-2005>
0

> <r_mmod_RMS_Derivative-OPLS-2005>
1.545414686203

$$$$
73
                    3D
 Structure written by MMmdl.
153162  0  0  1  0            999 V2000
  -30.4951  -14.9476   20.4209 C   0  0  0  0  0  0
  -30.4497  -12.5825   19.5045 C   0  0  0  0  0  0
  -29.5266  -12.5365   18.2623 C   0  0  0  0  0  0
  -28.0592  -12.3174   18.6779 C   0  0  0  0  0  0
  -27.6358  -13.2414   19.8494 C   0  0  2  0  0  0
  -28.6761  -13.2370   20.9903 C   0  0  0  0  0  0
  -25.2486  -13.8203   20.5704 C   0  0  0  0  0  0
  -24.1789  -13.0438   20.9220 C   0  0  0  0  0  0
  -24.6392  -11.6919   20.8756 C   0  0  0  0  0  0
  -23.9072  -10.4295   21.0414 C   0  0  0  0  0  0
  -24.3624   -9.4208   21.9189 C   0  0  0  0  0  0
  -23.6298   -8.2242   22.0757 C   0  0  0  0  0  0
  -22.4276   -8.0283   21.3550 C   0  0  0  0  0  0
  -21.9915   -9.0254   20.4647 C   0  0  0  0  0  0
  -22.7246  -10.2132   20.3061 C   0  0  0  0  0  0
  -21.6852   -6.0743   22.5280 C   0  0  0  0  0  0
  -21.4010   -6.5646   23.8215 C   0  0  0  0  0  0
  -21.3659   -5.6792   24.9174 C   0  0  0  0  0  0
  -21.6042   -4.3057   24.7220 C   0  0  0  0  0  0
  -21.8818   -3.8153   23.4341 C   0  0  0  0  0  0
  -21.9189   -4.6972   22.3402 C   0  0  0  0  0  0
  -22.7808  -13.5217   21.1871 C   0  0  0  0  0  0
  -22.1660   -4.2160   21.0980 F   0  0  0  0  0  0
  -21.5628   -3.4538   25.7730 F   0  0  0  0  0  0
  -29.9566  -13.6616   20.4079 N   0  0  0  0  0  0
  -26.2912  -12.9417   20.3279 N   0  0  0  0  0  0
  -25.9324  -11.6553   20.5754 N   0  0  0  0  0  0
  -22.0453  -12.8215   22.0428 N   0  0  0  0  0  0
  -25.4175  -15.1927   20.4114 N   0  0  0  0  0  0
  -31.6748  -15.0729   20.0746 O   0  0  0  0  0  0
  -21.6643   -6.8882   21.4243 O   0  0  0  0  0  0
  -22.3504  -14.5530   20.6721 O   0  0  0  0  0  0
  -24.6421  -31.8414   23.1832 C   0  0  0  0  0  0
  -25.9192  -32.4681   23.8225 C   0  0  1  0  0  0
  -27.2258  -27.1304   20.1562 C   0  0  0  0  0  0
  -25.5950  -33.8483   24.2155 N   0  0  0  0  0  0
  -23.4457  -30.4582   21.5277 C   0  0  2  0  0  0
  -24.8943  -28.8720   20.1085 C   0  0  0  0  0  0
  -22.7553  -29.4544   22.4842 C   0  0  0  0  0  0
  -18.0308  -28.1405   22.8482 C   0  0  0  0  0  0
  -24.1491  -36.7240   23.2646 C   0  0  0  0  0  0
  -25.9982  -30.7132   21.3794 C   0  0  0  0  0  0
  -26.0672  -29.3215   20.7255 C   0  0  0  0  0  0
  -27.2274  -28.4651   20.7300 C   0  0  0  0  0  0
  -26.0268  -26.7707   19.5068 C   0  0  0  0  0  0
  -24.8868  -27.6112   19.4854 C   0  0  0  0  0  0
  -23.6708  -29.7758   20.1496 C   0  0  0  0  0  0
  -25.4128  -36.3023   24.0316 C   0  0  1  0  0  0
  -20.5920  -28.3731   23.1237 C   0  0  2  0  0  0
  -20.6802  -26.9434   22.5405 C   0  0  0  0  0  0
  -19.5779  -26.6385   21.5217 C   0  0  0  0  0  0
  -18.1956  -26.7950   22.1613 C   0  0  0  0  0  0
  -19.1564  -28.8879   23.2860 C   0  0  0  0  0  0
  -18.9485  -30.1477   23.8883 C   0  0  0  0  0  0
  -17.6485  -30.6603   24.0565 C   0  0  0  0  0  0
  -25.9076  -34.9403   23.5044 C   0  0  0  0  0  0
  -16.5375  -29.9102   23.6338 C   0  0  0  0  0  0
  -16.7291  -28.6516   23.0360 C   0  0  0  0  0  0
  -26.4526  -31.6559   25.0668 C   0  0  0  0  0  0
  -25.3713  -31.3760   26.1367 C   0  0  0  0  0  0
  -27.0396  -30.2966   24.6236 C   0  0  0  0  0  0
  -27.6062  -32.4327   25.7450 C   0  0  0  0  0  0
  -27.5577  -37.1775   24.8473 C   0  0  0  0  0  0
  -21.4245  -29.3052   22.3591 N   0  0  0  0  0  0
  -26.4289  -37.3742   23.9421 N   0  0  0  0  0  0
  -24.7153  -31.0268   22.0856 N   0  0  0  0  0  0
  -23.4193  -28.8110   23.3007 O   0  0  0  0  0  0
  -28.3390  -26.2233   20.2522 O   0  0  0  0  0  0
  -26.5661  -34.8914   22.4626 O   0  0  0  0  0  0
  -23.5544  -32.1286   23.7065 O   0  0  0  0  0  0
  -29.7069  -19.7550   19.2142 C   0  0  0  0  0  0
  -28.7755  -19.8782   21.3617 C   0  0  0  0  0  0
  -29.0937  -20.6350   20.1843 C   0  0  0  0  0  0
  -29.6080  -17.5759   20.5464 C   0  0  0  0  0  0
  -29.9589  -18.3252   19.3740 C   0  0  0  0  0  0
  -28.9945  -18.4442   21.5238 C   0  0  0  0  0  0
  -28.1068  -24.0661   18.5832 C   0  0  0  0  0  0
  -28.7392  -22.6230   18.5700 C   0  0  0  0  0  0
  -28.5048  -23.3213   20.8137 C   0  0  0  0  0  0
  -28.5272  -24.7030   19.9164 C   0  0  2  0  0  0
  -28.8060  -22.0902   19.9414 N   0  0  0  0  0  0
  -29.6548  -16.0468   20.7313 N   0  0  0  0  0  0
  -30.5036  -17.6543   18.3293 F   0  0  0  0  0  0
  -28.4423  -17.7255   22.9960 Cl  0  0  0  0  0  0
  -31.4821  -12.7544   19.1953 H   0  0  0  0  0  0
  -30.4527  -11.6220   20.0213 H   0  0  0  0  0  0
  -29.8461  -11.7454   17.5825 H   0  0  0  0  0  0
  -29.6132  -13.4726   17.7078 H   0  0  0  0  0  0
  -27.9554  -11.2738   18.9789 H   0  0  0  0  0  0
  -27.3948  -12.4540   17.8237 H   0  0  0  0  0  0
  -27.6088  -14.2500   19.4365 H   0  0  0  0  0  0
  -28.7593  -12.2464   21.4395 H   0  0  0  0  0  0
  -28.3709  -13.9094   21.7937 H   0  0  0  0  0  0
  -25.2765   -9.5685   22.4773 H   0  0  0  0  0  0
  -24.0003   -7.4631   22.7478 H   0  0  0  0  0  0
  -21.0848   -8.8771   19.8951 H   0  0  0  0  0  0
  -22.3704  -10.9673   19.6177 H   0  0  0  0  0  0
  -21.2004   -7.6154   23.9721 H   0  0  0  0  0  0
  -21.1480   -6.0525   25.9077 H   0  0  0  0  0  0
  -22.0598   -2.7613   23.2833 H   0  0  0  0  0  0
  -22.4061  -11.9870   22.4809 H   0  0  0  0  0  0
  -21.1076  -13.1256   22.2635 H   0  0  0  0  0  0
  -24.6452  -15.8421   20.5130 H   0  0  0  0  0  0
  -26.2581  -15.6306   20.0580 H   0  0  0  0  0  0
  -26.7246  -32.5282   23.0942 H   0  0  0  0  0  0
  -25.0111  -33.9593   25.0313 H   0  0  0  0  0  0
  -22.7504  -31.2853   21.3684 H   0  0  0  0  0  0
  -23.3775  -35.9548   23.3281 H   0  0  0  0  0  0
  -24.3576  -36.8885   22.2063 H   0  0  0  0  0  0
  -23.7212  -37.6415   23.6696 H   0  0  0  0  0  0
  -26.1521  -31.4644   20.6041 H   0  0  0  0  0  0
  -26.8701  -30.7663   22.0193 H   0  0  0  0  0  0
  -28.1239  -28.8052   21.2289 H   0  0  0  0  0  0
  -25.9437  -25.8039   19.0370 H   0  0  0  0  0  0
  -23.9869  -27.2613   18.9976 H   0  0  0  0  0  0
  -23.8060  -30.5445   19.3887 H   0  0  0  0  0  0
  -22.7856  -29.2160   19.8424 H   0  0  0  0  0  0
  -25.1316  -36.1839   25.0806 H   0  0  0  0  0  0
  -21.0017  -28.3328   24.1358 H   0  0  0  0  0  0
  -20.5720  -26.2338   23.3621 H   0  0  0  0  0  0
  -21.6666  -26.7458   22.1186 H   0  0  0  0  0  0
  -19.6952  -25.6292   21.1256 H   0  0  0  0  0  0
  -19.6729  -27.3188   20.6748 H   0  0  0  0  0  0
  -17.4231  -26.6696   21.4015 H   0  0  0  0  0  0
  -18.0350  -26.0098   22.9007 H   0  0  0  0  0  0
  -19.7965  -30.7297   24.2234 H   0  0  0  0  0  0
  -17.5048  -31.6285   24.5172 H   0  0  0  0  0  0
  -15.5381  -30.3009   23.7686 H   0  0  0  0  0  0
  -15.8686  -28.0840   22.7089 H   0  0  0  0  0  0
  -24.5892  -30.7117   25.7680 H   0  0  0  0  0  0
  -24.8916  -32.2951   26.4740 H   0  0  0  0  0  0
  -25.7987  -30.8954   27.0173 H   0  0  0  0  0  0
  -26.2998  -29.6679   24.1268 H   0  0  0  0  0  0
  -27.4064  -29.7273   25.4783 H   0  0  0  0  0  0
  -27.8878  -30.4226   23.9506 H   0  0  0  0  0  0
  -27.2677  -33.3683   26.1914 H   0  0  0  0  0  0
  -28.3933  -32.6780   25.0308 H   0  0  0  0  0  0
  -28.0659  -31.8513   26.5449 H   0  0  0  0  0  0
  -28.2580  -38.0086   24.7525 H   0  0  0  0  0  0
  -28.1078  -36.2609   24.6285 H   0  0  0  0  0  0
  -27.2290  -37.1395   25.8873 H   0  0  0  0  0  0
  -20.9453  -29.8720   21.6734 H   0  0  0  0  0  0
  -26.0144  -38.2803   24.1442 H   0  0  0  0  0  0
  -30.0001  -20.1806   18.2665 H   0  0  0  0  0  0
  -28.2950  -20.4014   22.1751 H   0  0  0  0  0  0
  -27.0226  -23.9792   18.5359 H   0  0  0  0  0  0
  -28.4293  -24.6533   17.7234 H   0  0  0  0  0  0
  -29.7534  -22.6752   18.1698 H   0  0  0  0  0  0
  -28.1696  -21.9603   17.9165 H   0  0  0  0  0  0
  -27.5227  -23.1951   21.2722 H   0  0  0  0  0  0
  -29.2269  -23.3861   21.6291 H   0  0  0  0  0  0
  -29.6048  -24.7946   19.7712 H   0  0  0  0  0  0
  -28.8232  -15.7166   21.1958 H   0  0  0  0  0  0
  1 25  1  0  0  0
  1 30  2  0  0  0
  1 82  1  0  0  0
  2  3  1  0  0  0
  2 25  1  0  0  0
  2 85  1  0  0  0
  2 86  1  0  0  0
  3  4  1  0  0  0
  3 87  1  0  0  0
  3 88  1  0  0  0
  4  5  1  0  0  0
  4 89  1  0  0  0
  4 90  1  0  0  0
  5  6  1  0  0  0
  5 26  1  0  0  0
  5 91  1  0  0  0
  6 25  1  0  0  0
  6 92  1  0  0  0
  6 93  1  0  0  0
  7  8  2  0  0  0
  7 26  1  0  0  0
  7 29  1  0  0  0
  8  9  1  0  0  0
  8 22  1  0  0  0
  9 10  1  0  0  0
  9 27  2  0  0  0
 10 11  2  0  0  0
 10 15  1  0  0  0
 11 12  1  0  0  0
 11 94  1  0  0  0
 12 13  2  0  0  0
 12 95  1  0  0  0
 13 14  1  0  0  0
 13 31  1  0  0  0
 14 15  2  0  0  0
 14 96  1  0  0  0
 15 97  1  0  0  0
 16 17  2  0  0  0
 16 21  1  0  0  0
 16 31  1  0  0  0
 17 18  1  0  0  0
 17 98  1  0  0  0
 18 19  2  0  0  0
 18 99  1  0  0  0
 19 20  1  0  0  0
 19 24  1  0  0  0
 20 21  2  0  0  0
 20100  1  0  0  0
 21 23  1  0  0  0
 22 28  1  0  0  0
 22 32  2  0  0  0
 26 27  1  0  0  0
 28101  1  0  0  0
 28102  1  0  0  0
 29103  1  0  0  0
 29104  1  0  0  0
 33 34  1  0  0  0
 33 66  1  0  0  0
 33 70  2  0  0  0
 34 36  1  0  0  0
 34 59  1  0  0  0
 34105  1  0  0  0
 35 44  2  0  0  0
 35 45  1  0  0  0
 35 68  1  0  0  0
 36 56  1  0  0  0
 36106  1  0  0  0
 37 39  1  0  0  0
 37 47  1  0  0  0
 37 66  1  0  0  0
 37107  1  0  0  0
 38 43  2  0  0  0
 38 46  1  0  0  0
 38 47  1  0  0  0
 39 64  1  0  0  0
 39 67  2  0  0  0
 40 52  1  0  0  0
 40 53  2  0  0  0
 40 58  1  0  0  0
 41108  1  0  0  0
 41109  1  0  0  0
 41110  1  0  0  0
 41 48  1  0  0  0
 42 43  1  0  0  0
 42 66  1  0  0  0
 42111  1  0  0  0
 42112  1  0  0  0
 43 44  1  0  0  0
 44113  1  0  0  0
 45 46  2  0  0  0
 45114  1  0  0  0
 46115  1  0  0  0
 47116  1  0  0  0
 47117  1  0  0  0
 48 56  1  0  0  0
 48 65  1  0  0  0
 48118  1  0  0  0
 49 50  1  0  0  0
 49 53  1  0  0  0
 49 64  1  0  0  0
 49119  1  0  0  0
 50 51  1  0  0  0
 50120  1  0  0  0
 50121  1  0  0  0
 51 52  1  0  0  0
 51122  1  0  0  0
 51123  1  0  0  0
 52124  1  0  0  0
 52125  1  0  0  0
 53 54  1  0  0  0
 54 55  2  0  0  0
 54126  1  0  0  0
 55 57  1  0  0  0
 55127  1  0  0  0
 56 69  2  0  0  0
 57 58  2  0  0  0
 57128  1  0  0  0
 58129  1  0  0  0
 59 60  1  0  0  0
 59 61  1  0  0  0
 59 62  1  0  0  0
 60130  1  0  0  0
 60131  1  0  0  0
 60132  1  0  0  0
 61133  1  0  0  0
 61134  1  0  0  0
 61135  1  0  0  0
 62136  1  0  0  0
 62137  1  0  0  0
 62138  1  0  0  0
 63 65  1  0  0  0
 63139  1  0  0  0
 63140  1  0  0  0
 63141  1  0  0  0
 64142  1  0  0  0
 65143  1  0  0  0
 68 80  1  0  0  0
 71 73  2  0  0  0
 71 75  1  0  0  0
 71144  1  0  0  0
 72 73  1  0  0  0
 72 76  2  0  0  0
 72145  1  0  0  0
 73 81  1  0  0  0
 74 75  2  0  0  0
 74 76  1  0  0  0
 74 82  1  0  0  0
 75 83  1  0  0  0
 76 84  1  0  0  0
 77 78  1  0  0  0
 77 80  1  0  0  0
 77146  1  0  0  0
 77147  1  0  0  0
 78 81  1  0  0  0
 78148  1  0  0  0
 78149  1  0  0  0
 79 80  1  0  0  0
 79 81  1  0  0  0
 79150  1  0  0  0
 79151  1  0  0  0
 80152  1  0  0  0
 82153  1  0  0  0
M  ISO  4   1 100  68 101  80 101  82 100
M  END
> <chiral flag>
0

> <version>
0

> <s_m_source_file>
/data/baiqing/PycharmProjects/Reinvent-master-3.2/result/LINK_invent/BTK/process_docking_weight1_custom_product_contain_oxygen_bond_distance_aromatic_linkinvent_7_9_3/rearranged_h_0022.sdf

> <i_m_source_file_index>
73

> <r_mmod_Potential_Energy-OPLS-2005>
514.631286621094

> <r_mmod_Stretch_Energy-OPLS-2005>
220.022384643555

> <r_mmod_Bend_Energy-OPLS-2005>
375.618591308594

> <r_mmod_Torsional_Energy-OPLS-2005>
258.683990478516

> <r_mmod_Improper_Torsional_Energy-OPLS-2005>
3.68962383270264

> <r_mmod_Van_der_Waal_Energy-OPLS-2005>
122.973327636719

> <r_mmod_Electrostatic_Energy-OPLS-2005>
-422.748870849609

> <r_mmod_Solvation_Energy-OPLS-2005>
-231.921661376953

> <b_mmod_Minimization_Converged-OPLS-2005>
0

> <r_mmod_RMS_Derivative-OPLS-2005>
1.44813644886017

$$$$
74
                    3D
 Structure written by MMmdl.
162171  0  0  1  0            999 V2000
  -30.6959  -14.6233   20.5206 C   0  0  0  0  0  0
  -30.4240  -12.3896   19.4645 C   0  0  0  0  0  0
  -29.5006  -12.4895   18.2321 C   0  0  0  0  0  0
  -28.0275  -12.3242   18.6474 C   0  0  0  0  0  0
  -27.6508  -13.2177   19.8583 C   0  0  2  0  0  0
  -28.6935  -13.1039   20.9914 C   0  0  0  0  0  0
  -25.2569  -13.8175   20.5699 C   0  0  0  0  0  0
  -24.1825  -13.0443   20.9169 C   0  0  0  0  0  0
  -24.6388  -11.6904   20.8738 C   0  0  0  0  0  0
  -23.9059  -10.4287   21.0392 C   0  0  0  0  0  0
  -24.3614   -9.4201   21.9169 C   0  0  0  0  0  0
  -23.6286   -8.2238   22.0749 C   0  0  0  0  0  0
  -22.4267   -8.0275   21.3540 C   0  0  0  0  0  0
  -21.9903   -9.0239   20.4646 C   0  0  0  0  0  0
  -22.7231  -10.2121   20.3040 C   0  0  0  0  0  0
  -21.6861   -6.0716   22.5275 C   0  0  0  0  0  0
  -21.4019   -6.5631   23.8198 C   0  0  0  0  0  0
  -21.3650   -5.6795   24.9170 C   0  0  0  0  0  0
  -21.6044   -4.3052   24.7230 C   0  0  0  0  0  0
  -21.8825   -3.8131   23.4352 C   0  0  0  0  0  0
  -21.9196   -4.6947   22.3401 C   0  0  0  0  0  0
  -22.7847  -13.5230   21.1813 C   0  0  0  0  0  0
  -22.1666   -4.2120   21.0982 F   0  0  0  0  0  0
  -21.5623   -3.4542   25.7738 F   0  0  0  0  0  0
  -30.0083  -13.4373   20.4230 N   0  0  0  0  0  0
  -26.2978  -12.9360   20.3320 N   0  0  0  0  0  0
  -25.9316  -11.6514   20.5771 N   0  0  0  0  0  0
  -22.0516  -12.8209   22.0389 N   0  0  0  0  0  0
  -25.4334  -15.1889   20.4125 N   0  0  0  0  0  0
  -31.8504  -14.6982   20.0892 O   0  0  0  0  0  0
  -21.6650   -6.8852   21.4225 O   0  0  0  0  0  0
  -22.3514  -14.5529   20.6664 O   0  0  0  0  0  0
  -24.6217  -31.8598   23.2019 C   0  0  0  0  0  0
  -25.9093  -32.4776   23.8347 C   0  0  1  0  0  0
  -27.2227  -27.3252   20.1162 C   0  0  0  0  0  0
  -25.5940  -33.8585   24.2272 N   0  0  0  0  0  0
  -23.4157  -30.4831   21.5447 C   0  0  2  0  0  0
  -24.8628  -28.9313   20.1167 C   0  0  0  0  0  0
  -22.7454  -29.4613   22.4931 C   0  0  0  0  0  0
  -18.0279  -28.1374   22.8485 C   0  0  0  0  0  0
  -24.1494  -36.7265   23.2645 C   0  0  0  0  0  0
  -25.9579  -30.7874   21.3768 C   0  0  0  0  0  0
  -26.0326  -29.4183   20.7133 C   0  0  0  0  0  0
  -27.2201  -28.6275   20.6981 C   0  0  0  0  0  0
  -26.0308  -26.8726   19.5185 C   0  0  0  0  0  0
  -24.8609  -27.6606   19.5150 C   0  0  0  0  0  0
  -23.6326  -29.8173   20.1611 C   0  0  0  0  0  0
  -25.4112  -36.3064   24.0332 C   0  0  1  0  0  0
  -20.5875  -28.3660   23.1290 C   0  0  2  0  0  0
  -20.6776  -26.9393   22.5417 C   0  0  0  0  0  0
  -19.5776  -26.6359   21.5214 C   0  0  0  0  0  0
  -18.1934  -26.7913   22.1591 C   0  0  0  0  0  0
  -19.1530  -28.8829   23.2886 C   0  0  0  0  0  0
  -18.9469  -30.1437   23.8878 C   0  0  0  0  0  0
  -17.6473  -30.6579   24.0573 C   0  0  0  0  0  0
  -25.9059  -34.9453   23.5106 C   0  0  0  0  0  0
  -16.5360  -29.9089   23.6341 C   0  0  0  0  0  0
  -16.7262  -28.6508   23.0346 C   0  0  0  0  0  0
  -26.4497  -31.6598   25.0714 C   0  0  0  0  0  0
  -25.3733  -31.3801   26.1462 C   0  0  0  0  0  0
  -27.0345  -30.3005   24.6210 C   0  0  0  0  0  0
  -27.6038  -32.4363   25.7486 C   0  0  0  0  0  0
  -27.5587  -37.1774   24.8449 C   0  0  0  0  0  0
  -21.4165  -29.3019   22.3682 N   0  0  0  0  0  0
  -26.4287  -37.3774   23.9432 N   0  0  0  0  0  0
  -24.6837  -31.0606   22.0966 N   0  0  0  0  0  0
  -23.4184  -28.8154   23.3003 O   0  0  0  0  0  0
  -28.3480  -26.4956   20.0883 O   0  0  0  0  0  0
  -26.5608  -34.8927   22.4656 O   0  0  0  0  0  0
  -23.5387  -32.1401   23.7339 O   0  0  0  0  0  0
  -30.6791  -19.2555   21.0146 C   0  0  0  0  0  0
  -30.4884  -20.6564   21.1584 C   0  0  0  0  0  0
  -29.8076  -18.4645   20.2336 C   0  0  0  0  0  0
  -29.4429  -21.3790   20.5098 C   0  0  0  0  0  0
  -28.7055  -19.1493   19.6490 C   0  0  0  0  0  0
  -28.5188  -20.5638   19.7880 C   0  0  0  0  0  0
  -30.5295  -23.8311   18.7079 C   0  0  0  0  0  0
  -29.0127  -23.9621   18.5406 C   0  0  0  0  0  0
  -30.7246  -23.3906   20.1646 C   0  0  0  0  0  0
  -28.4565  -23.7771   19.9588 C   0  0  2  0  0  0
  -29.4636  -16.0691   22.1002 C   0  0  0  0  0  0
  -30.1771  -16.9838   19.8533 C   0  0  0  0  0  0
  -28.2564  -25.1711   20.7401 C   0  0  0  0  0  0
  -29.4379  -22.8297   20.5854 N   0  0  0  0  0  0
  -29.9925  -15.7890   20.7608 N   0  0  0  0  0  0
  -27.8316  -18.4504   18.8835 F   0  0  0  0  0  0
  -27.4562  -21.1279   19.1654 F   0  0  0  0  0  0
  -31.4671  -12.4803   19.1576 H   0  0  0  0  0  0
  -30.3445  -11.4057   19.9277 H   0  0  0  0  0  0
  -29.7673  -11.7282   17.4969 H   0  0  0  0  0  0
  -29.6366  -13.4537   17.7412 H   0  0  0  0  0  0
  -27.8770  -11.2742   18.9042 H   0  0  0  0  0  0
  -27.3670  -12.5248   17.8037 H   0  0  0  0  0  0
  -27.6635  -14.2462   19.4956 H   0  0  0  0  0  0
  -28.7086  -12.0965   21.4083 H   0  0  0  0  0  0
  -28.4188  -13.7536   21.8180 H   0  0  0  0  0  0
  -25.2761   -9.5675   22.4744 H   0  0  0  0  0  0
  -23.9987   -7.4632   22.7473 H   0  0  0  0  0  0
  -21.0825   -8.8746   19.8954 H   0  0  0  0  0  0
  -22.3679  -10.9647   19.6136 H   0  0  0  0  0  0
  -21.2025   -7.6147   23.9694 H   0  0  0  0  0  0
  -21.1465   -6.0532   25.9072 H   0  0  0  0  0  0
  -22.0616   -2.7585   23.2873 H   0  0  0  0  0  0
  -22.4158  -11.9869   22.4740 H   0  0  0  0  0  0
  -21.1122  -13.1179   22.2599 H   0  0  0  0  0  0
  -24.6786  -15.8551   20.5309 H   0  0  0  0  0  0
  -26.2996  -15.6213   20.1165 H   0  0  0  0  0  0
  -26.7136  -32.5424   23.1061 H   0  0  0  0  0  0
  -25.0144  -33.9759   25.0461 H   0  0  0  0  0  0
  -22.7084  -31.3021   21.4017 H   0  0  0  0  0  0
  -23.3777  -35.9572   23.3282 H   0  0  0  0  0  0
  -24.3590  -36.8877   22.2063 H   0  0  0  0  0  0
  -23.7217  -37.6450   23.6667 H   0  0  0  0  0  0
  -26.0982  -31.5597   20.6195 H   0  0  0  0  0  0
  -26.8315  -30.8231   22.0142 H   0  0  0  0  0  0
  -28.1238  -28.9989   21.1579 H   0  0  0  0  0  0
  -26.0026  -25.8948   19.0612 H   0  0  0  0  0  0
  -23.9587  -27.2723   19.0618 H   0  0  0  0  0  0
  -23.7520  -30.5983   19.4080 H   0  0  0  0  0  0
  -22.7523  -29.2506   19.8534 H   0  0  0  0  0  0
  -25.1290  -36.1903   25.0817 H   0  0  0  0  0  0
  -20.9964  -28.3217   24.1406 H   0  0  0  0  0  0
  -20.5684  -26.2265   23.3602 H   0  0  0  0  0  0
  -21.6646  -26.7441   22.1213 H   0  0  0  0  0  0
  -19.6976  -25.6275   21.1220 H   0  0  0  0  0  0
  -19.6742  -27.3186   20.6765 H   0  0  0  0  0  0
  -17.4239  -26.6680   21.3964 H   0  0  0  0  0  0
  -18.0307  -26.0039   22.8963 H   0  0  0  0  0  0
  -19.7963  -30.7257   24.2206 H   0  0  0  0  0  0
  -17.5058  -31.6262   24.5169 H   0  0  0  0  0  0
  -15.5365  -30.3004   23.7708 H   0  0  0  0  0  0
  -15.8651  -28.0860   22.7041 H   0  0  0  0  0  0
  -24.5860  -30.7208   25.7808 H   0  0  0  0  0  0
  -24.9018  -32.3027   26.4871 H   0  0  0  0  0  0
  -25.8035  -30.8979   27.0253 H   0  0  0  0  0  0
  -26.2946  -29.6748   24.1214 H   0  0  0  0  0  0
  -27.4016  -29.7259   25.4724 H   0  0  0  0  0  0
  -27.8819  -30.4268   23.9459 H   0  0  0  0  0  0
  -27.2610  -33.3660   26.2054 H   0  0  0  0  0  0
  -28.3849  -32.6949   25.0315 H   0  0  0  0  0  0
  -28.0727  -31.8528   26.5419 H   0  0  0  0  0  0
  -28.2540  -38.0152   24.7566 H   0  0  0  0  0  0
  -28.1147  -36.2665   24.6141 H   0  0  0  0  0  0
  -27.2334  -37.1243   25.8868 H   0  0  0  0  0  0
  -20.9304  -29.8741   21.6920 H   0  0  0  0  0  0
  -26.0141  -38.2820   24.1506 H   0  0  0  0  0  0
  -31.5520  -18.7963   21.4613 H   0  0  0  0  0  0
  -31.2156  -21.1907   21.7541 H   0  0  0  0  0  0
  -31.0499  -24.7665   18.4993 H   0  0  0  0  0  0
  -30.9237  -23.0744   18.0263 H   0  0  0  0  0  0
  -28.6530  -23.1533   17.9030 H   0  0  0  0  0  0
  -28.7053  -24.8958   18.0673 H   0  0  0  0  0  0
  -30.9675  -24.2467   20.7943 H   0  0  0  0  0  0
  -31.5740  -22.7111   20.2343 H   0  0  0  0  0  0
  -27.4697  -23.3175   19.8951 H   0  0  0  0  0  0
  -28.3744  -16.0844   22.0817 H   0  0  0  0  0  0
  -29.8080  -17.0249   22.4908 H   0  0  0  0  0  0
  -29.7770  -15.3148   22.8251 H   0  0  0  0  0  0
  -31.2271  -17.0347   19.5548 H   0  0  0  0  0  0
  -29.6555  -16.7419   18.9271 H   0  0  0  0  0  0
  -28.9914  -25.2191   21.5435 H   0  0  0  0  0  0
  -27.3088  -25.1084   21.2759 H   0  0  0  0  0  0
  1 25  1  0  0  0
  1 30  2  0  0  0
  1 85  1  0  0  0
  2  3  1  0  0  0
  2 25  1  0  0  0
  2 88  1  0  0  0
  2 89  1  0  0  0
  3  4  1  0  0  0
  3 90  1  0  0  0
  3 91  1  0  0  0
  4  5  1  0  0  0
  4 92  1  0  0  0
  4 93  1  0  0  0
  5  6  1  0  0  0
  5 26  1  0  0  0
  5 94  1  0  0  0
  6 25  1  0  0  0
  6 95  1  0  0  0
  6 96  1  0  0  0
  7  8  2  0  0  0
  7 26  1  0  0  0
  7 29  1  0  0  0
  8  9  1  0  0  0
  8 22  1  0  0  0
  9 10  1  0  0  0
  9 27  2  0  0  0
 10 11  2  0  0  0
 10 15  1  0  0  0
 11 12  1  0  0  0
 11 97  1  0  0  0
 12 13  2  0  0  0
 12 98  1  0  0  0
 13 14  1  0  0  0
 13 31  1  0  0  0
 14 15  2  0  0  0
 14 99  1  0  0  0
 15100  1  0  0  0
 16 17  2  0  0  0
 16 21  1  0  0  0
 16 31  1  0  0  0
 17 18  1  0  0  0
 17101  1  0  0  0
 18 19  2  0  0  0
 18102  1  0  0  0
 19 20  1  0  0  0
 19 24  1  0  0  0
 20 21  2  0  0  0
 20103  1  0  0  0
 21 23  1  0  0  0
 22 28  1  0  0  0
 22 32  2  0  0  0
 26 27  1  0  0  0
 28104  1  0  0  0
 28105  1  0  0  0
 29106  1  0  0  0
 29107  1  0  0  0
 33 34  1  0  0  0
 33 66  1  0  0  0
 33 70  2  0  0  0
 34 36  1  0  0  0
 34 59  1  0  0  0
 34108  1  0  0  0
 35 44  2  0  0  0
 35 45  1  0  0  0
 35 68  1  0  0  0
 36 56  1  0  0  0
 36109  1  0  0  0
 37 39  1  0  0  0
 37 47  1  0  0  0
 37 66  1  0  0  0
 37110  1  0  0  0
 38 43  2  0  0  0
 38 46  1  0  0  0
 38 47  1  0  0  0
 39 64  1  0  0  0
 39 67  2  0  0  0
 40 52  1  0  0  0
 40 53  2  0  0  0
 40 58  1  0  0  0
 41111  1  0  0  0
 41112  1  0  0  0
 41113  1  0  0  0
 41 48  1  0  0  0
 42 43  1  0  0  0
 42 66  1  0  0  0
 42114  1  0  0  0
 42115  1  0  0  0
 43 44  1  0  0  0
 44116  1  0  0  0
 45 46  2  0  0  0
 45117  1  0  0  0
 46118  1  0  0  0
 47119  1  0  0  0
 47120  1  0  0  0
 48 56  1  0  0  0
 48 65  1  0  0  0
 48121  1  0  0  0
 49 50  1  0  0  0
 49 53  1  0  0  0
 49 64  1  0  0  0
 49122  1  0  0  0
 50 51  1  0  0  0
 50123  1  0  0  0
 50124  1  0  0  0
 51 52  1  0  0  0
 51125  1  0  0  0
 51126  1  0  0  0
 52127  1  0  0  0
 52128  1  0  0  0
 53 54  1  0  0  0
 54 55  2  0  0  0
 54129  1  0  0  0
 55 57  1  0  0  0
 55130  1  0  0  0
 56 69  2  0  0  0
 57 58  2  0  0  0
 57131  1  0  0  0
 58132  1  0  0  0
 59 60  1  0  0  0
 59 61  1  0  0  0
 59 62  1  0  0  0
 60133  1  0  0  0
 60134  1  0  0  0
 60135  1  0  0  0
 61136  1  0  0  0
 61137  1  0  0  0
 61138  1  0  0  0
 62139  1  0  0  0
 62140  1  0  0  0
 62141  1  0  0  0
 63 65  1  0  0  0
 63142  1  0  0  0
 63143  1  0  0  0
 63144  1  0  0  0
 64145  1  0  0  0
 65146  1  0  0  0
 68 83  1  0  0  0
 71 72  2  0  0  0
 71 73  1  0  0  0
 71147  1  0  0  0
 72 74  1  0  0  0
 72148  1  0  0  0
 73 75  2  0  0  0
 73 82  1  0  0  0
 74 76  2  0  0  0
 74 84  1  0  0  0
 75 76  1  0  0  0
 75 86  1  0  0  0
 76 87  1  0  0  0
 77 78  1  0  0  0
 77 79  1  0  0  0
 77149  1  0  0  0
 77150  1  0  0  0
 78 80  1  0  0  0
 78151  1  0  0  0
 78152  1  0  0  0
 79 84  1  0  0  0
 79153  1  0  0  0
 79154  1  0  0  0
 80 83  1  0  0  0
 80 84  1  0  0  0
 80155  1  0  0  0
 81 85  1  0  0  0
 81156  1  0  0  0
 81157  1  0  0  0
 81158  1  0  0  0
 82 85  1  0  0  0
 82159  1  0  0  0
 82160  1  0  0  0
 83161  1  0  0  0
 83162  1  0  0  0
M  ISO  4   1 100  68 101  83 101  85 100
M  END
> <chiral flag>
0

> <version>
0

> <s_m_source_file>
/data/baiqing/PycharmProjects/Reinvent-master-3.2/result/LINK_invent/BTK/process_docking_weight1_custom_product_contain_oxygen_bond_distance_aromatic_linkinvent_7_9_3/rearranged_h_0022.sdf

> <i_m_source_file_index>
74

> <r_mmod_Potential_Energy-OPLS-2005>
401.375854492188

> <r_mmod_Stretch_Energy-OPLS-2005>
86.1761703491211

> <r_mmod_Bend_Energy-OPLS-2005>
195.778244018555

> <r_mmod_Torsional_Energy-OPLS-2005>
371.933197021484

> <r_mmod_Improper_Torsional_Energy-OPLS-2005>
17.1084594726562

> <r_mmod_Van_der_Waal_Energy-OPLS-2005>
149.018280029297

> <r_mmod_Electrostatic_Energy-OPLS-2005>
-263.20166015625

> <r_mmod_Solvation_Energy-OPLS-2005>
-199.123260498047

> <b_mmod_Minimization_Converged-OPLS-2005>
0

> <r_mmod_RMS_Derivative-OPLS-2005>
3.84171175956726

$$$$
75
                    3D
 Structure written by MMmdl.
163172  0  0  1  0            999 V2000
  -30.6131  -14.5568   20.5485 C   0  0  0  0  0  0
  -30.4478  -12.3502   19.4234 C   0  0  0  0  0  0
  -29.5053  -12.5110   18.2084 C   0  0  0  0  0  0
  -28.0235  -12.3591   18.6168 C   0  0  0  0  0  0
  -27.6625  -13.1957   19.8723 C   0  0  2  0  0  0
  -28.7068  -12.9677   20.9891 C   0  0  0  0  0  0
  -25.2595  -13.8115   20.5614 C   0  0  0  0  0  0
  -24.1850  -13.0425   20.9171 C   0  0  0  0  0  0
  -24.6386  -11.6885   20.8741 C   0  0  0  0  0  0
  -23.9042  -10.4282   21.0408 C   0  0  0  0  0  0
  -24.3593   -9.4203   21.9185 C   0  0  0  0  0  0
  -23.6271   -8.2242   22.0764 C   0  0  0  0  0  0
  -22.4258   -8.0276   21.3549 C   0  0  0  0  0  0
  -21.9885   -9.0252   20.4659 C   0  0  0  0  0  0
  -22.7215  -10.2130   20.3058 C   0  0  0  0  0  0
  -21.6858   -6.0726   22.5274 C   0  0  0  0  0  0
  -21.4024   -6.5630   23.8208 C   0  0  0  0  0  0
  -21.3652   -5.6783   24.9169 C   0  0  0  0  0  0
  -21.6039   -4.3047   24.7220 C   0  0  0  0  0  0
  -21.8821   -3.8139   23.4345 C   0  0  0  0  0  0
  -21.9197   -4.6955   22.3399 C   0  0  0  0  0  0
  -22.7871  -13.5255   21.1820 C   0  0  0  0  0  0
  -22.1664   -4.2140   21.0980 F   0  0  0  0  0  0
  -21.5618   -3.4532   25.7733 F   0  0  0  0  0  0
  -30.0307  -13.3254   20.4444 N   0  0  0  0  0  0
  -26.3026  -12.9261   20.3322 N   0  0  0  0  0  0
  -25.9308  -11.6439   20.5747 N   0  0  0  0  0  0
  -22.0501  -12.8266   22.0383 N   0  0  0  0  0  0
  -25.4289  -15.1817   20.3899 N   0  0  0  0  0  0
  -31.7481  -14.7965   20.1207 O   0  0  0  0  0  0
  -21.6640   -6.8865   21.4235 O   0  0  0  0  0  0
  -22.3568  -14.5562   20.6662 O   0  0  0  0  0  0
  -24.6210  -31.8623   23.2057 C   0  0  0  0  0  0
  -25.9070  -32.4797   23.8365 C   0  0  1  0  0  0
  -27.2322  -27.3716   20.0923 C   0  0  0  0  0  0
  -25.5905  -33.8589   24.2306 N   0  0  0  0  0  0
  -23.4111  -30.4886   21.5471 C   0  0  2  0  0  0
  -24.8546  -28.9445   20.1149 C   0  0  0  0  0  0
  -22.7436  -29.4654   22.4951 C   0  0  0  0  0  0
  -18.0285  -28.1395   22.8497 C   0  0  0  0  0  0
  -24.1486  -36.7290   23.2644 C   0  0  0  0  0  0
  -25.9462  -30.8102   21.3666 C   0  0  0  0  0  0
  -26.0198  -29.4398   20.7107 C   0  0  0  0  0  0
  -27.2069  -28.6608   20.6956 C   0  0  0  0  0  0
  -26.0345  -26.8994   19.5080 C   0  0  0  0  0  0
  -24.8598  -27.6760   19.5127 C   0  0  0  0  0  0
  -23.6213  -29.8206   20.1630 C   0  0  0  0  0  0
  -25.4108  -36.3092   24.0344 C   0  0  1  0  0  0
  -20.5882  -28.3685   23.1296 C   0  0  2  0  0  0
  -20.6774  -26.9413   22.5415 C   0  0  0  0  0  0
  -19.5756  -26.6400   21.5206 C   0  0  0  0  0  0
  -18.1933  -26.7949   22.1615 C   0  0  0  0  0  0
  -19.1538  -28.8858   23.2903 C   0  0  0  0  0  0
  -18.9461  -30.1461   23.8921 C   0  0  0  0  0  0
  -17.6460  -30.6594   24.0575 C   0  0  0  0  0  0
  -25.9033  -34.9458   23.5122 C   0  0  0  0  0  0
  -16.5353  -29.9094   23.6334 C   0  0  0  0  0  0
  -16.7274  -28.6512   23.0360 C   0  0  0  0  0  0
  -26.4479  -31.6595   25.0711 C   0  0  0  0  0  0
  -25.3733  -31.3716   26.1451 C   0  0  0  0  0  0
  -27.0332  -30.3048   24.6115 C   0  0  0  0  0  0
  -27.6053  -32.4329   25.7458 C   0  0  0  0  0  0
  -27.5581  -37.1797   24.8464 C   0  0  0  0  0  0
  -21.4162  -29.3036   22.3677 N   0  0  0  0  0  0
  -26.4292  -37.3785   23.9417 N   0  0  0  0  0  0
  -24.6781  -31.0698   22.0971 N   0  0  0  0  0  0
  -23.4185  -28.8189   23.3015 O   0  0  0  0  0  0
  -28.4058  -26.6180   20.1199 O   0  0  0  0  0  0
  -26.5600  -34.8913   22.4683 O   0  0  0  0  0  0
  -23.5385  -32.1379   23.7431 O   0  0  0  0  0  0
  -30.5671  -19.2439   20.8733 C   0  0  0  0  0  0
  -30.7686  -17.8354   20.7710 C   0  0  0  0  0  0
  -28.4069  -17.5023   21.1416 C   0  0  0  0  0  0
  -28.1979  -18.9001   21.2244 C   0  0  0  0  0  0
  -29.2919  -19.8088   21.1650 C   0  0  0  0  0  0
  -29.6884  -16.9373   20.9535 C   0  0  0  0  0  0
  -29.9329  -22.2787   21.3684 C   0  0  0  0  0  0
  -29.6429  -23.4839   20.7982 C   0  0  0  0  0  0
  -31.0823  -22.1967   22.3538 C   0  0  0  0  0  0
  -30.5132  -21.3543   23.4965 C   0  0  0  0  0  0
  -29.0730  -21.0812   23.0459 C   0  0  0  0  0  0
  -26.7771  -19.3984   21.4460 C   0  0  0  0  0  0
  -28.3681  -24.0090   20.1192 C   0  0  0  0  0  0
  -28.5442  -25.3795   19.3617 C   0  0  0  0  0  0
  -29.0948  -21.1687   21.5822 N   0  0  0  0  0  0
  -29.7689  -15.5000   21.0390 N   0  0  0  0  0  0
  -31.4863  -12.4948   19.1187 H   0  0  0  0  0  0
  -30.3900  -11.3375   19.8256 H   0  0  0  0  0  0
  -29.7571  -11.7818   17.4371 H   0  0  0  0  0  0
  -29.6564  -13.4927   17.7566 H   0  0  0  0  0  0
  -27.8356  -11.3021   18.8100 H   0  0  0  0  0  0
  -27.3753  -12.6340   17.7838 H   0  0  0  0  0  0
  -27.7042  -14.2430   19.5724 H   0  0  0  0  0  0
  -28.7057  -11.9211   21.2985 H   0  0  0  0  0  0
  -28.4515  -13.5289   21.8891 H   0  0  0  0  0  0
  -25.2740   -9.5685   22.4755 H   0  0  0  0  0  0
  -23.9985   -7.4639   22.7486 H   0  0  0  0  0  0
  -21.0816   -8.8765   19.8969 H   0  0  0  0  0  0
  -22.3671  -10.9661   19.6161 H   0  0  0  0  0  0
  -21.2030   -7.6138   23.9701 H   0  0  0  0  0  0
  -21.1466   -6.0519   25.9067 H   0  0  0  0  0  0
  -22.0609   -2.7604   23.2849 H   0  0  0  0  0  0
  -22.4099  -11.9922   22.4772 H   0  0  0  0  0  0
  -21.1128  -13.1322   22.2590 H   0  0  0  0  0  0
  -24.6416  -15.8182   20.4468 H   0  0  0  0  0  0
  -26.2398  -15.5958   19.9494 H   0  0  0  0  0  0
  -26.7126  -32.5498   23.1101 H   0  0  0  0  0  0
  -25.0059  -33.9736   25.0458 H   0  0  0  0  0  0
  -22.7031  -31.3081   21.4074 H   0  0  0  0  0  0
  -23.3749  -35.9621   23.3305 H   0  0  0  0  0  0
  -24.3578  -36.8914   22.2060 H   0  0  0  0  0  0
  -23.7231  -37.6491   23.6651 H   0  0  0  0  0  0
  -26.0713  -31.5765   20.5996 H   0  0  0  0  0  0
  -26.8285  -30.8600   21.9926 H   0  0  0  0  0  0
  -28.1061  -29.0405   21.1586 H   0  0  0  0  0  0
  -25.9676  -25.9178   19.0640 H   0  0  0  0  0  0
  -23.9573  -27.2847   19.0637 H   0  0  0  0  0  0
  -23.7390  -30.5936   19.4031 H   0  0  0  0  0  0
  -22.7413  -29.2471   19.8652 H   0  0  0  0  0  0
  -25.1289  -36.1948   25.0842 H   0  0  0  0  0  0
  -21.0008  -28.3266   24.1402 H   0  0  0  0  0  0
  -20.5678  -26.2288   23.3605 H   0  0  0  0  0  0
  -21.6648  -26.7446   22.1214 H   0  0  0  0  0  0
  -19.6908  -25.6307   21.1242 H   0  0  0  0  0  0
  -19.6716  -27.3199   20.6727 H   0  0  0  0  0  0
  -17.4214  -26.6726   21.4002 H   0  0  0  0  0  0
  -18.0326  -26.0075   22.8996 H   0  0  0  0  0  0
  -19.7930  -30.7284   24.2305 H   0  0  0  0  0  0
  -17.5006  -31.6274   24.5171 H   0  0  0  0  0  0
  -15.5354  -30.3003   23.7643 H   0  0  0  0  0  0
  -15.8675  -28.0824   22.7082 H   0  0  0  0  0  0
  -24.5897  -30.7079   25.7766 H   0  0  0  0  0  0
  -24.8924  -32.2882   26.4881 H   0  0  0  0  0  0
  -25.8074  -30.8877   27.0213 H   0  0  0  0  0  0
  -26.2886  -29.6780   24.1190 H   0  0  0  0  0  0
  -27.4131  -29.7315   25.4579 H   0  0  0  0  0  0
  -27.8701  -30.4374   23.9257 H   0  0  0  0  0  0
  -27.2672  -33.3631   26.2031 H   0  0  0  0  0  0
  -28.3836  -32.6900   25.0262 H   0  0  0  0  0  0
  -28.0734  -31.8462   26.5369 H   0  0  0  0  0  0
  -28.2602  -38.0092   24.7521 H   0  0  0  0  0  0
  -28.1087  -36.2630   24.6283 H   0  0  0  0  0  0
  -27.2308  -37.1442   25.8870 H   0  0  0  0  0  0
  -20.9322  -29.8743   21.6882 H   0  0  0  0  0  0
  -26.0177  -38.2867   24.1414 H   0  0  0  0  0  0
  -31.4320  -19.8838   20.7999 H   0  0  0  0  0  0
  -31.7692  -17.4586   20.6134 H   0  0  0  0  0  0
  -27.5564  -16.8479   21.2701 H   0  0  0  0  0  0
  -30.3803  -24.2633   20.9361 H   0  0  0  0  0  0
  -31.3620  -23.1859   22.7216 H   0  0  0  0  0  0
  -31.9671  -21.7510   21.9006 H   0  0  0  0  0  0
  -30.5377  -21.8679   24.4577 H   0  0  0  0  0  0
  -31.0741  -20.4237   23.5968 H   0  0  0  0  0  0
  -28.4053  -21.8545   23.4303 H   0  0  0  0  0  0
  -28.7139  -20.1344   23.4570 H   0  0  0  0  0  0
  -26.0509  -18.7159   21.0040 H   0  0  0  0  0  0
  -26.6238  -20.3765   20.9877 H   0  0  0  0  0  0
  -26.5600  -19.4803   22.5107 H   0  0  0  0  0  0
  -27.5725  -24.0960   20.8585 H   0  0  0  0  0  0
  -28.0459  -23.2422   19.4130 H   0  0  0  0  0  0
  -27.9132  -25.3931   18.4748 H   0  0  0  0  0  0
  -29.5480  -25.3974   18.9365 H   0  0  0  0  0  0
  -28.9149  -15.0685   21.3573 H   0  0  0  0  0  0
  1 25  1  0  0  0
  1 30  2  0  0  0
  1 86  1  0  0  0
  2  3  1  0  0  0
  2 25  1  0  0  0
  2 87  1  0  0  0
  2 88  1  0  0  0
  3  4  1  0  0  0
  3 89  1  0  0  0
  3 90  1  0  0  0
  4  5  1  0  0  0
  4 91  1  0  0  0
  4 92  1  0  0  0
  5  6  1  0  0  0
  5 26  1  0  0  0
  5 93  1  0  0  0
  6 25  1  0  0  0
  6 94  1  0  0  0
  6 95  1  0  0  0
  7  8  2  0  0  0
  7 26  1  0  0  0
  7 29  1  0  0  0
  8  9  1  0  0  0
  8 22  1  0  0  0
  9 10  1  0  0  0
  9 27  2  0  0  0
 10 11  2  0  0  0
 10 15  1  0  0  0
 11 12  1  0  0  0
 11 96  1  0  0  0
 12 13  2  0  0  0
 12 97  1  0  0  0
 13 14  1  0  0  0
 13 31  1  0  0  0
 14 15  2  0  0  0
 14 98  1  0  0  0
 15 99  1  0  0  0
 16 17  2  0  0  0
 16 21  1  0  0  0
 16 31  1  0  0  0
 17 18  1  0  0  0
 17100  1  0  0  0
 18 19  2  0  0  0
 18101  1  0  0  0
 19 20  1  0  0  0
 19 24  1  0  0  0
 20 21  2  0  0  0
 20102  1  0  0  0
 21 23  1  0  0  0
 22 28  1  0  0  0
 22 32  2  0  0  0
 26 27  1  0  0  0
 28103  1  0  0  0
 28104  1  0  0  0
 29105  1  0  0  0
 29106  1  0  0  0
 33 34  1  0  0  0
 33 66  1  0  0  0
 33 70  2  0  0  0
 34 36  1  0  0  0
 34 59  1  0  0  0
 34107  1  0  0  0
 35 44  2  0  0  0
 35 45  1  0  0  0
 35 68  1  0  0  0
 36 56  1  0  0  0
 36108  1  0  0  0
 37 39  1  0  0  0
 37 47  1  0  0  0
 37 66  1  0  0  0
 37109  1  0  0  0
 38 43  2  0  0  0
 38 46  1  0  0  0
 38 47  1  0  0  0
 39 64  1  0  0  0
 39 67  2  0  0  0
 40 52  1  0  0  0
 40 53  2  0  0  0
 40 58  1  0  0  0
 41110  1  0  0  0
 41111  1  0  0  0
 41112  1  0  0  0
 41 48  1  0  0  0
 42 43  1  0  0  0
 42 66  1  0  0  0
 42113  1  0  0  0
 42114  1  0  0  0
 43 44  1  0  0  0
 44115  1  0  0  0
 45 46  2  0  0  0
 45116  1  0  0  0
 46117  1  0  0  0
 47118  1  0  0  0
 47119  1  0  0  0
 48 56  1  0  0  0
 48 65  1  0  0  0
 48120  1  0  0  0
 49 50  1  0  0  0
 49 53  1  0  0  0
 49 64  1  0  0  0
 49121  1  0  0  0
 50 51  1  0  0  0
 50122  1  0  0  0
 50123  1  0  0  0
 51 52  1  0  0  0
 51124  1  0  0  0
 51125  1  0  0  0
 52126  1  0  0  0
 52127  1  0  0  0
 53 54  1  0  0  0
 54 55  2  0  0  0
 54128  1  0  0  0
 55 57  1  0  0  0
 55129  1  0  0  0
 56 69  2  0  0  0
 57 58  2  0  0  0
 57130  1  0  0  0
 58131  1  0  0  0
 59 60  1  0  0  0
 59 61  1  0  0  0
 59 62  1  0  0  0
 60132  1  0  0  0
 60133  1  0  0  0
 60134  1  0  0  0
 61135  1  0  0  0
 61136  1  0  0  0
 61137  1  0  0  0
 62138  1  0  0  0
 62139  1  0  0  0
 62140  1  0  0  0
 63 65  1  0  0  0
 63141  1  0  0  0
 63142  1  0  0  0
 63143  1  0  0  0
 64144  1  0  0  0
 65145  1  0  0  0
 68 84  1  0  0  0
 71 72  2  0  0  0
 71 75  1  0  0  0
 71146  1  0  0  0
 72 76  1  0  0  0
 72147  1  0  0  0
 73 74  1  0  0  0
 73 76  2  0  0  0
 73148  1  0  0  0
 74 75  2  0  0  0
 74 82  1  0  0  0
 75 85  1  0  0  0
 76 86  1  0  0  0
 77 78  2  0  0  0
 77 79  1  0  0  0
 77 85  1  0  0  0
 78 83  1  0  0  0
 78149  1  0  0  0
 79 80  1  0  0  0
 79150  1  0  0  0
 79151  1  0  0  0
 80 81  1  0  0  0
 80152  1  0  0  0
 80153  1  0  0  0
 81 85  1  0  0  0
 81154  1  0  0  0
 81155  1  0  0  0
 82156  1  0  0  0
 82157  1  0  0  0
 82158  1  0  0  0
 83 84  1  0  0  0
 83159  1  0  0  0
 83160  1  0  0  0
 84161  1  0  0  0
 84162  1  0  0  0
 86163  1  0  0  0
M  ISO  4   1 100  68 101  84 101  86 100
M  END
> <chiral flag>
0

> <version>
0

> <s_m_source_file>
/data/baiqing/PycharmProjects/Reinvent-master-3.2/result/LINK_invent/BTK/process_docking_weight1_custom_product_contain_oxygen_bond_distance_aromatic_linkinvent_7_9_3/rearranged_h_0022.sdf

> <i_m_source_file_index>
75

> <r_mmod_Potential_Energy-OPLS-2005>
111.523094177246

> <r_mmod_Stretch_Energy-OPLS-2005>
55.9314918518066

> <r_mmod_Bend_Energy-OPLS-2005>
193.582870483398

> <r_mmod_Torsional_Energy-OPLS-2005>
297.725921630859

> <r_mmod_Improper_Torsional_Energy-OPLS-2005>
13.9656963348389

> <r_mmod_Van_der_Waal_Energy-OPLS-2005>
152.67741394043

> <r_mmod_Electrostatic_Energy-OPLS-2005>
-424.735748291016

> <r_mmod_Solvation_Energy-OPLS-2005>
-203.89094543457

> <b_mmod_Minimization_Converged-OPLS-2005>
0

> <r_mmod_RMS_Derivative-OPLS-2005>
1.70117950439453

$$$$
76
                    3D
 Structure written by MMmdl.
166175  0  0  1  0            999 V2000
  -30.6673  -14.5290   20.5588 C   0  0  0  0  0  0
  -30.4247  -12.3381   19.4339 C   0  0  0  0  0  0
  -29.4980  -12.5021   18.2104 C   0  0  0  0  0  0
  -28.0169  -12.3642   18.6170 C   0  0  0  0  0  0
  -27.6541  -13.2089   19.8660 C   0  0  2  0  0  0
  -28.6912  -12.9972   20.9874 C   0  0  0  0  0  0
  -25.2553  -13.8167   20.5666 C   0  0  0  0  0  0
  -24.1807  -13.0444   20.9166 C   0  0  0  0  0  0
  -24.6366  -11.6916   20.8714 C   0  0  0  0  0  0
  -23.9035  -10.4299   21.0386 C   0  0  0  0  0  0
  -24.3602   -9.4221   21.9164 C   0  0  0  0  0  0
  -23.6286   -8.2253   22.0743 C   0  0  0  0  0  0
  -22.4269   -8.0281   21.3535 C   0  0  0  0  0  0
  -21.9894   -9.0247   20.4635 C   0  0  0  0  0  0
  -22.7208  -10.2127   20.3037 C   0  0  0  0  0  0
  -21.6855   -6.0727   22.5266 C   0  0  0  0  0  0
  -21.4018   -6.5631   23.8202 C   0  0  0  0  0  0
  -21.3655   -5.6781   24.9166 C   0  0  0  0  0  0
  -21.6042   -4.3046   24.7219 C   0  0  0  0  0  0
  -21.8817   -3.8137   23.4343 C   0  0  0  0  0  0
  -21.9195   -4.6952   22.3395 C   0  0  0  0  0  0
  -22.7830  -13.5240   21.1839 C   0  0  0  0  0  0
  -22.1663   -4.2143   21.0974 F   0  0  0  0  0  0
  -21.5635   -3.4524   25.7730 F   0  0  0  0  0  0
  -30.0150  -13.3337   20.4414 N   0  0  0  0  0  0
  -26.2968  -12.9333   20.3298 N   0  0  0  0  0  0
  -25.9282  -11.6491   20.5723 N   0  0  0  0  0  0
  -22.0487  -12.8227   22.0410 N   0  0  0  0  0  0
  -25.4304  -15.1885   20.4108 N   0  0  0  0  0  0
  -31.8032  -14.6883   20.0959 O   0  0  0  0  0  0
  -21.6644   -6.8867   21.4231 O   0  0  0  0  0  0
  -22.3503  -14.5541   20.6689 O   0  0  0  0  0  0
  -24.6186  -31.8647   23.2064 C   0  0  0  0  0  0
  -25.9061  -32.4804   23.8381 C   0  0  1  0  0  0
  -27.2285  -27.3864   20.0989 C   0  0  0  0  0  0
  -25.5900  -33.8606   24.2305 N   0  0  0  0  0  0
  -23.4084  -30.4885   21.5481 C   0  0  2  0  0  0
  -24.8524  -28.9477   20.1131 C   0  0  0  0  0  0
  -22.7427  -29.4646   22.4967 C   0  0  0  0  0  0
  -18.0280  -28.1374   22.8494 C   0  0  0  0  0  0
  -24.1485  -36.7310   23.2643 C   0  0  0  0  0  0
  -25.9428  -30.8132   21.3680 C   0  0  0  0  0  0
  -26.0159  -29.4456   20.7117 C   0  0  0  0  0  0
  -27.2053  -28.6740   20.6971 C   0  0  0  0  0  0
  -26.0459  -26.9203   19.4803 C   0  0  0  0  0  0
  -24.8645  -27.6858   19.4955 C   0  0  0  0  0  0
  -23.6179  -29.8213   20.1629 C   0  0  0  0  0  0
  -25.4108  -36.3102   24.0337 C   0  0  1  0  0  0
  -20.5869  -28.3662   23.1301 C   0  0  2  0  0  0
  -20.6760  -26.9393   22.5413 C   0  0  0  0  0  0
  -19.5741  -26.6378   21.5211 C   0  0  0  0  0  0
  -18.1919  -26.7922   22.1622 C   0  0  0  0  0  0
  -19.1530  -28.8838   23.2897 C   0  0  0  0  0  0
  -18.9460  -30.1440   23.8909 C   0  0  0  0  0  0
  -17.6463  -30.6581   24.0563 C   0  0  0  0  0  0
  -25.9041  -34.9468   23.5121 C   0  0  0  0  0  0
  -16.5352  -29.9082   23.6328 C   0  0  0  0  0  0
  -16.7268  -28.6498   23.0353 C   0  0  0  0  0  0
  -26.4479  -31.6603   25.0729 C   0  0  0  0  0  0
  -25.3749  -31.3728   26.1483 C   0  0  0  0  0  0
  -27.0320  -30.3036   24.6146 C   0  0  0  0  0  0
  -27.6037  -32.4351   25.7495 C   0  0  0  0  0  0
  -27.5581  -37.1809   24.8468 C   0  0  0  0  0  0
  -21.4149  -29.3031   22.3705 N   0  0  0  0  0  0
  -26.4293  -37.3787   23.9410 N   0  0  0  0  0  0
  -24.6752  -31.0711   22.0979 N   0  0  0  0  0  0
  -23.4182  -28.8191   23.3029 O   0  0  0  0  0  0
  -28.3961  -26.6337   20.1219 O   0  0  0  0  0  0
  -26.5612  -34.8924   22.4686 O   0  0  0  0  0  0
  -23.5365  -32.1431   23.7425 O   0  0  0  0  0  0
  -30.2377  -19.0307   21.0560 C   0  0  0  0  0  0
  -30.3165  -20.4424   20.9684 C   0  0  0  0  0  0
  -29.0665  -19.0003   18.9556 C   0  0  0  0  0  0
  -29.6560  -18.2682   20.0126 C   0  0  0  0  0  0
  -29.1268  -20.4176   18.8652 C   0  0  0  0  0  0
  -29.8484  -21.1755   19.8416 C   0  0  0  0  0  0
  -29.8637  -23.5105   18.7697 C   0  0  0  0  0  0
  -29.0639  -24.6023   18.8984 C   0  0  0  0  0  0
  -30.8018  -23.4266   17.5776 C   0  0  0  0  0  0
  -31.9819  -22.6049   18.0822 C   0  0  0  0  0  0
  -31.7179  -22.5335   19.5870 C   0  0  0  0  0  0
  -28.4304  -21.0404   17.6672 C   0  0  0  0  0  0
  -29.5912  -15.8664   22.3145 C   0  0  0  0  0  0
  -29.6817  -16.7108   19.8907 C   0  0  0  0  0  0
  -28.3337  -25.1776   20.1089 C   0  0  0  0  0  0
  -30.2565  -22.5501   19.7216 N   0  0  0  0  0  0
  -29.9038  -15.6147   20.8966 N   0  0  0  0  0  0
  -31.4680  -12.4511   19.1317 H   0  0  0  0  0  0
  -30.3469  -11.3308   19.8453 H   0  0  0  0  0  0
  -29.7458  -11.7614   17.4480 H   0  0  0  0  0  0
  -29.6638  -13.4783   17.7521 H   0  0  0  0  0  0
  -27.8254  -11.3093   18.8152 H   0  0  0  0  0  0
  -27.3706  -12.6371   17.7816 H   0  0  0  0  0  0
  -27.6924  -14.2554   19.5633 H   0  0  0  0  0  0
  -28.6837  -11.9586   21.3198 H   0  0  0  0  0  0
  -28.4259  -13.5808   21.8662 H   0  0  0  0  0  0
  -25.2754   -9.5705   22.4727 H   0  0  0  0  0  0
  -23.9991   -7.4645   22.7462 H   0  0  0  0  0  0
  -21.0823   -8.8764   19.8948 H   0  0  0  0  0  0
  -22.3668  -10.9661   19.6146 H   0  0  0  0  0  0
  -21.2023   -7.6142   23.9706 H   0  0  0  0  0  0
  -21.1473   -6.0513   25.9063 H   0  0  0  0  0  0
  -22.0605   -2.7601   23.2845 H   0  0  0  0  0  0
  -22.4109  -11.9900   22.4809 H   0  0  0  0  0  0
  -21.1100  -13.1226   22.2621 H   0  0  0  0  0  0
  -24.6677  -15.8484   20.5166 H   0  0  0  0  0  0
  -26.2931  -15.6256   20.1099 H   0  0  0  0  0  0
  -26.7124  -32.5488   23.1133 H   0  0  0  0  0  0
  -25.0053  -33.9768   25.0452 H   0  0  0  0  0  0
  -22.6986  -31.3065   21.4086 H   0  0  0  0  0  0
  -23.3745  -35.9646   23.3318 H   0  0  0  0  0  0
  -24.3582  -36.8916   22.2057 H   0  0  0  0  0  0
  -23.7240  -37.6518   23.6655 H   0  0  0  0  0  0
  -26.0684  -31.5780   20.6003 H   0  0  0  0  0  0
  -26.8254  -30.8601   21.9942 H   0  0  0  0  0  0
  -28.1030  -29.0541   21.1639 H   0  0  0  0  0  0
  -26.0169  -25.9675   18.9708 H   0  0  0  0  0  0
  -23.9717  -27.2981   19.0237 H   0  0  0  0  0  0
  -23.7293  -30.5974   19.4051 H   0  0  0  0  0  0
  -22.7393  -29.2461   19.8656 H   0  0  0  0  0  0
  -25.1284  -36.1971   25.0832 H   0  0  0  0  0  0
  -20.9972  -28.3235   24.1416 H   0  0  0  0  0  0
  -20.5653  -26.2276   23.3610 H   0  0  0  0  0  0
  -21.6631  -26.7418   22.1215 H   0  0  0  0  0  0
  -19.6894  -25.6292   21.1234 H   0  0  0  0  0  0
  -19.6676  -27.3194   20.6747 H   0  0  0  0  0  0
  -17.4186  -26.6678   21.4019 H   0  0  0  0  0  0
  -18.0310  -26.0058   22.9011 H   0  0  0  0  0  0
  -19.7935  -30.7249   24.2281 H   0  0  0  0  0  0
  -17.5019  -31.6262   24.5153 H   0  0  0  0  0  0
  -15.5351  -30.2988   23.7643 H   0  0  0  0  0  0
  -15.8668  -28.0818   22.7063 H   0  0  0  0  0  0
  -24.5890  -30.7108   25.7830 H   0  0  0  0  0  0
  -24.8982  -32.2892   26.4970 H   0  0  0  0  0  0
  -25.8100  -30.8869   27.0222 H   0  0  0  0  0  0
  -26.2871  -29.6792   24.1192 H   0  0  0  0  0  0
  -27.4063  -29.7286   25.4627 H   0  0  0  0  0  0
  -27.8722  -30.4348   23.9323 H   0  0  0  0  0  0
  -27.2621  -33.3627   26.2105 H   0  0  0  0  0  0
  -28.3816  -32.6962   25.0309 H   0  0  0  0  0  0
  -28.0742  -31.8477   26.5390 H   0  0  0  0  0  0
  -28.2602  -38.0101   24.7501 H   0  0  0  0  0  0
  -28.1071  -36.2630   24.6301 H   0  0  0  0  0  0
  -27.2306  -37.1468   25.8875 H   0  0  0  0  0  0
  -20.9310  -29.8770   21.6937 H   0  0  0  0  0  0
  -26.0185  -38.2867   24.1403 H   0  0  0  0  0  0
  -30.7035  -18.5488   21.9002 H   0  0  0  0  0  0
  -30.8350  -20.9657   21.7601 H   0  0  0  0  0  0
  -28.5833  -18.4470   18.1602 H   0  0  0  0  0  0
  -28.9857  -25.2486   18.0361 H   0  0  0  0  0  0
  -31.1445  -24.4273   17.3097 H   0  0  0  0  0  0
  -30.3318  -23.0004   16.6925 H   0  0  0  0  0  0
  -32.9480  -23.0522   17.8445 H   0  0  0  0  0  0
  -31.9577  -21.6057   17.6437 H   0  0  0  0  0  0
  -32.1217  -23.4186   20.0826 H   0  0  0  0  0  0
  -32.2380  -21.6788   20.0215 H   0  0  0  0  0  0
  -27.6287  -20.3959   17.3065 H   0  0  0  0  0  0
  -29.1308  -21.1764   16.8466 H   0  0  0  0  0  0
  -27.9638  -21.9914   17.9173 H   0  0  0  0  0  0
  -29.7895  -14.9968   22.9439 H   0  0  0  0  0  0
  -28.5397  -16.1267   22.4480 H   0  0  0  0  0  0
  -30.1966  -16.6715   22.7195 H   0  0  0  0  0  0
  -30.7228  -16.9641   20.0942 H   0  0  0  0  0  0
  -28.7206  -16.8842   20.3734 H   0  0  0  0  0  0
  -28.8280  -24.8121   21.0097 H   0  0  0  0  0  0
  -27.3241  -24.7718   20.1504 H   0  0  0  0  0  0
  1 25  1  0  0  0
  1 30  2  0  0  0
  1 87  1  0  0  0
  2  3  1  0  0  0
  2 25  1  0  0  0
  2 88  1  0  0  0
  2 89  1  0  0  0
  3  4  1  0  0  0
  3 90  1  0  0  0
  3 91  1  0  0  0
  4  5  1  0  0  0
  4 92  1  0  0  0
  4 93  1  0  0  0
  5  6  1  0  0  0
  5 26  1  0  0  0
  5 94  1  0  0  0
  6 25  1  0  0  0
  6 95  1  0  0  0
  6 96  1  0  0  0
  7  8  2  0  0  0
  7 26  1  0  0  0
  7 29  1  0  0  0
  8  9  1  0  0  0
  8 22  1  0  0  0
  9 10  1  0  0  0
  9 27  2  0  0  0
 10 11  2  0  0  0
 10 15  1  0  0  0
 11 12  1  0  0  0
 11 97  1  0  0  0
 12 13  2  0  0  0
 12 98  1  0  0  0
 13 14  1  0  0  0
 13 31  1  0  0  0
 14 15  2  0  0  0
 14 99  1  0  0  0
 15100  1  0  0  0
 16 17  2  0  0  0
 16 21  1  0  0  0
 16 31  1  0  0  0
 17 18  1  0  0  0
 17101  1  0  0  0
 18 19  2  0  0  0
 18102  1  0  0  0
 19 20  1  0  0  0
 19 24  1  0  0  0
 20 21  2  0  0  0
 20103  1  0  0  0
 21 23  1  0  0  0
 22 28  1  0  0  0
 22 32  2  0  0  0
 26 27  1  0  0  0
 28104  1  0  0  0
 28105  1  0  0  0
 29106  1  0  0  0
 29107  1  0  0  0
 33 34  1  0  0  0
 33 66  1  0  0  0
 33 70  2  0  0  0
 34 36  1  0  0  0
 34 59  1  0  0  0
 34108  1  0  0  0
 35 44  2  0  0  0
 35 45  1  0  0  0
 35 68  1  0  0  0
 36 56  1  0  0  0
 36109  1  0  0  0
 37 39  1  0  0  0
 37 47  1  0  0  0
 37 66  1  0  0  0
 37110  1  0  0  0
 38 43  2  0  0  0
 38 46  1  0  0  0
 38 47  1  0  0  0
 39 64  1  0  0  0
 39 67  2  0  0  0
 40 52  1  0  0  0
 40 53  2  0  0  0
 40 58  1  0  0  0
 41111  1  0  0  0
 41112  1  0  0  0
 41113  1  0  0  0
 41 48  1  0  0  0
 42 43  1  0  0  0
 42 66  1  0  0  0
 42114  1  0  0  0
 42115  1  0  0  0
 43 44  1  0  0  0
 44116  1  0  0  0
 45 46  2  0  0  0
 45117  1  0  0  0
 46118  1  0  0  0
 47119  1  0  0  0
 47120  1  0  0  0
 48 56  1  0  0  0
 48 65  1  0  0  0
 48121  1  0  0  0
 49 50  1  0  0  0
 49 53  1  0  0  0
 49 64  1  0  0  0
 49122  1  0  0  0
 50 51  1  0  0  0
 50123  1  0  0  0
 50124  1  0  0  0
 51 52  1  0  0  0
 51125  1  0  0  0
 51126  1  0  0  0
 52127  1  0  0  0
 52128  1  0  0  0
 53 54  1  0  0  0
 54 55  2  0  0  0
 54129  1  0  0  0
 55 57  1  0  0  0
 55130  1  0  0  0
 56 69  2  0  0  0
 57 58  2  0  0  0
 57131  1  0  0  0
 58132  1  0  0  0
 59 60  1  0  0  0
 59 61  1  0  0  0
 59 62  1  0  0  0
 60133  1  0  0  0
 60134  1  0  0  0
 60135  1  0  0  0
 61136  1  0  0  0
 61137  1  0  0  0
 61138  1  0  0  0
 62139  1  0  0  0
 62140  1  0  0  0
 62141  1  0  0  0
 63 65  1  0  0  0
 63142  1  0  0  0
 63143  1  0  0  0
 63144  1  0  0  0
 64145  1  0  0  0
 65146  1  0  0  0
 68 85  1  0  0  0
 71 72  2  0  0  0
 71 74  1  0  0  0
 71147  1  0  0  0
 72 76  1  0  0  0
 72148  1  0  0  0
 73 74  2  0  0  0
 73 75  1  0  0  0
 73149  1  0  0  0
 74 84  1  0  0  0
 75 76  2  0  0  0
 75 82  1  0  0  0
 76 86  1  0  0  0
 77 78  2  0  0  0
 77 79  1  0  0  0
 77 86  1  0  0  0
 78 85  1  0  0  0
 78150  1  0  0  0
 79 80  1  0  0  0
 79151  1  0  0  0
 79152  1  0  0  0
 80 81  1  0  0  0
 80153  1  0  0  0
 80154  1  0  0  0
 81 86  1  0  0  0
 81155  1  0  0  0
 81156  1  0  0  0
 82157  1  0  0  0
 82158  1  0  0  0
 82159  1  0  0  0
 83 87  1  0  0  0
 83160  1  0  0  0
 83161  1  0  0  0
 83162  1  0  0  0
 84 87  1  0  0  0
 84163  1  0  0  0
 84164  1  0  0  0
 85165  1  0  0  0
 85166  1  0  0  0
M  ISO  4   1 100  68 101  85 101  87 100
M  END
> <chiral flag>
0

> <version>
0

> <s_m_source_file>
/data/baiqing/PycharmProjects/Reinvent-master-3.2/result/LINK_invent/BTK/process_docking_weight1_custom_product_contain_oxygen_bond_distance_aromatic_linkinvent_7_9_3/rearranged_h_0022.sdf

> <i_m_source_file_index>
76

> <r_mmod_Potential_Energy-OPLS-2005>
471.967163085938

> <r_mmod_Stretch_Energy-OPLS-2005>
60.0150032043457

> <r_mmod_Bend_Energy-OPLS-2005>
390.242889404297

> <r_mmod_Torsional_Energy-OPLS-2005>
344.349914550781

> <r_mmod_Improper_Torsional_Energy-OPLS-2005>
16.3992900848389

> <r_mmod_Van_der_Waal_Energy-OPLS-2005>
171.933212280273

> <r_mmod_Electrostatic_Energy-OPLS-2005>
-336.868530273438

> <r_mmod_Solvation_Energy-OPLS-2005>
-194.575546264648

> <b_mmod_Minimization_Converged-OPLS-2005>
0

> <r_mmod_RMS_Derivative-OPLS-2005>
1.75672507286072

$$$$
77
                    3D
 Structure written by MMmdl.
153161  0  0  1  0            999 V2000
  -30.6729  -14.7485   20.2915 C   0  0  0  0  0  0
  -30.4679  -12.4167   19.4462 C   0  0  0  0  0  0
  -29.5088  -12.3070   18.2358 C   0  0  0  0  0  0
  -28.0289  -12.2610   18.6629 C   0  0  0  0  0  0
  -27.6498  -13.2123   19.8332 C   0  0  2  0  0  0
  -28.7322  -13.2630   20.9382 C   0  0  0  0  0  0
  -25.2657  -13.8218   20.5803 C   0  0  0  0  0  0
  -24.1887  -13.0466   20.9265 C   0  0  0  0  0  0
  -24.6462  -11.6978   20.8865 C   0  0  0  0  0  0
  -23.9114  -10.4340   21.0491 C   0  0  0  0  0  0
  -24.3650   -9.4222   21.9219 C   0  0  0  0  0  0
  -23.6315   -8.2257   22.0759 C   0  0  0  0  0  0
  -22.4296   -8.0300   21.3553 C   0  0  0  0  0  0
  -21.9977   -9.0309   20.4671 C   0  0  0  0  0  0
  -22.7321  -10.2188   20.3109 C   0  0  0  0  0  0
  -21.6877   -6.0759   22.5270 C   0  0  0  0  0  0
  -21.4037   -6.5645   23.8199 C   0  0  0  0  0  0
  -21.3672   -5.6785   24.9154 C   0  0  0  0  0  0
  -21.6046   -4.3041   24.7200 C   0  0  0  0  0  0
  -21.8808   -3.8154   23.4312 C   0  0  0  0  0  0
  -21.9197   -4.6988   22.3388 C   0  0  0  0  0  0
  -22.7870  -13.5283   21.1806 C   0  0  0  0  0  0
  -22.1644   -4.2169   21.0954 F   0  0  0  0  0  0
  -21.5637   -3.4519   25.7701 F   0  0  0  0  0  0
  -30.0183  -13.5406   20.2915 N   0  0  0  0  0  0
  -26.3079  -12.9379   20.3424 N   0  0  0  0  0  0
  -25.9420  -11.6565   20.5982 N   0  0  0  0  0  0
  -22.0494  -12.8301   22.0359 N   0  0  0  0  0  0
  -25.4310  -15.1946   20.4182 N   0  0  0  0  0  0
  -31.9011  -14.7737   20.2151 O   0  0  0  0  0  0
  -21.6649   -6.8909   21.4237 O   0  0  0  0  0  0
  -22.3600  -14.5583   20.6628 O   0  0  0  0  0  0
  -24.6309  -31.8643   23.1961 C   0  0  0  0  0  0
  -25.9198  -32.4766   23.8282 C   0  0  1  0  0  0
  -27.2122  -27.3317   20.0805 C   0  0  0  0  0  0
  -25.6027  -33.8552   24.2257 N   0  0  0  0  0  0
  -23.4186  -30.4983   21.5357 C   0  0  2  0  0  0
  -24.8550  -28.9524   20.1013 C   0  0  0  0  0  0
  -22.7476  -29.4713   22.4794 C   0  0  0  0  0  0
  -18.0342  -28.1401   22.8500 C   0  0  0  0  0  0
  -24.1526  -36.7309   23.2622 C   0  0  0  0  0  0
  -25.9590  -30.7984   21.3611 C   0  0  0  0  0  0
  -26.0282  -29.4264   20.7018 C   0  0  0  0  0  0
  -27.2047  -28.6257   20.6892 C   0  0  0  0  0  0
  -26.0216  -26.9209   19.4347 C   0  0  0  0  0  0
  -24.8512  -27.7006   19.4696 C   0  0  0  0  0  0
  -23.6332  -29.8453   20.1448 C   0  0  0  0  0  0
  -25.4130  -36.3041   24.0314 C   0  0  1  0  0  0
  -20.5955  -28.3715   23.1244 C   0  0  2  0  0  0
  -20.6785  -26.9427   22.5373 C   0  0  0  0  0  0
  -19.5746  -26.6392   21.5193 C   0  0  0  0  0  0
  -18.1951  -26.7949   22.1625 C   0  0  0  0  0  0
  -19.1584  -28.8866   23.2889 C   0  0  0  0  0  0
  -18.9502  -30.1469   23.8907 C   0  0  0  0  0  0
  -17.6470  -30.6569   24.0601 C   0  0  0  0  0  0
  -25.9090  -34.9435   23.5062 C   0  0  0  0  0  0
  -16.5379  -29.9096   23.6288 C   0  0  0  0  0  0
  -16.7324  -28.6527   23.0308 C   0  0  0  0  0  0
  -26.4578  -31.6524   25.0641 C   0  0  0  0  0  0
  -25.3835  -31.3658   26.1370 C   0  0  0  0  0  0
  -27.0379  -30.2936   24.6063 C   0  0  0  0  0  0
  -27.6121  -32.4217   25.7478 C   0  0  0  0  0  0
  -27.5576  -37.1815   24.8464 C   0  0  0  0  0  0
  -21.4187  -29.3101   22.3622 N   0  0  0  0  0  0
  -26.4296  -37.3740   23.9397 N   0  0  0  0  0  0
  -24.6884  -31.0697   22.0895 N   0  0  0  0  0  0
  -23.4217  -28.8221   23.2822 O   0  0  0  0  0  0
  -28.3380  -26.4952   20.1258 O   0  0  0  0  0  0
  -26.5610  -34.8910   22.4603 O   0  0  0  0  0  0
  -23.5482  -32.1477   23.7282 O   0  0  0  0  0  0
  -28.6215  -19.4044   20.1038 C   0  0  0  0  0  0
  -28.7162  -17.9927   19.9295 C   0  0  0  0  0  0
  -30.8412  -19.4010   21.0067 C   0  0  0  0  0  0
  -29.6934  -20.1622   20.6403 C   0  0  0  0  0  0
  -29.8792  -17.2322   20.2497 C   0  0  0  0  0  0
  -30.9521  -17.9858   20.8110 C   0  0  0  0  0  0
  -29.0838  -22.5140   20.2287 C   0  0  0  0  0  0
  -29.6389  -15.7497   18.3482 C   0  0  0  0  0  0
  -29.1327  -24.0466   20.6143 C   0  0  0  0  0  0
  -28.2013  -25.0532   19.8229 C   0  0  0  0  0  0
  -29.6634  -21.5746   20.9184 N   0  0  0  0  0  0
  -29.9483  -15.8295   19.7921 N   0  0  0  0  0  0
  -32.1253  -17.3827   21.1197 F   0  0  0  0  0  0
  -31.4978  -12.5531   19.1017 H   0  0  0  0  0  0
  -30.4716  -11.4963   20.0332 H   0  0  0  0  0  0
  -29.7375  -11.3851   17.7031 H   0  0  0  0  0  0
  -29.6613  -13.0770   17.4908 H   0  0  0  0  0  0
  -27.8294  -11.2288   18.9514 H   0  0  0  0  0  0
  -27.3867  -12.4480   17.8035 H   0  0  0  0  0  0
  -27.5963  -14.2025   19.3975 H   0  0  0  0  0  0
  -28.7897  -12.3499   21.5310 H   0  0  0  0  0  0
  -28.5095  -14.0785   21.6305 H   0  0  0  0  0  0
  -25.2795   -9.5661   22.4800 H   0  0  0  0  0  0
  -24.0024   -7.4654   22.7477 H   0  0  0  0  0  0
  -21.0909   -8.8866   19.8984 H   0  0  0  0  0  0
  -22.3807  -10.9731   19.6225 H   0  0  0  0  0  0
  -21.2024   -7.6141   23.9707 H   0  0  0  0  0  0
  -21.1515   -6.0501   25.9054 H   0  0  0  0  0  0
  -22.0590   -2.7615   23.2784 H   0  0  0  0  0  0
  -22.4087  -11.9991   22.4818 H   0  0  0  0  0  0
  -21.1132  -13.1405   22.2500 H   0  0  0  0  0  0
  -24.6639  -15.8523   20.5092 H   0  0  0  0  0  0
  -26.2878  -15.6335   20.1073 H   0  0  0  0  0  0
  -26.7274  -32.5436   23.1007 H   0  0  0  0  0  0
  -25.0166  -33.9687   25.0402 H   0  0  0  0  0  0
  -22.7134  -31.3190   21.3963 H   0  0  0  0  0  0
  -23.3734  -35.9700   23.3258 H   0  0  0  0  0  0
  -24.3632  -36.8951   22.2038 H   0  0  0  0  0  0
  -23.7354  -37.6534   23.6677 H   0  0  0  0  0  0
  -26.0888  -31.5640   20.5922 H   0  0  0  0  0  0
  -26.8440  -30.8463   21.9830 H   0  0  0  0  0  0
  -28.1056  -28.9811   21.1636 H   0  0  0  0  0  0
  -25.9599  -25.9904   18.8867 H   0  0  0  0  0  0
  -23.9494  -27.3424   18.9910 H   0  0  0  0  0  0
  -23.7678  -30.6349   19.4023 H   0  0  0  0  0  0
  -22.7469  -29.2972   19.8226 H   0  0  0  0  0  0
  -25.1302  -36.1821   25.0802 H   0  0  0  0  0  0
  -21.0121  -28.3295   24.1344 H   0  0  0  0  0  0
  -20.5637  -26.2351   23.3599 H   0  0  0  0  0  0
  -21.6663  -26.7397   22.1216 H   0  0  0  0  0  0
  -19.6874  -25.6302   21.1244 H   0  0  0  0  0  0
  -19.6658  -27.3194   20.6719 H   0  0  0  0  0  0
  -17.4206  -26.6740   21.4038 H   0  0  0  0  0  0
  -18.0340  -26.0109   22.9026 H   0  0  0  0  0  0
  -19.7974  -30.7314   24.2264 H   0  0  0  0  0  0
  -17.5029  -31.6249   24.5216 H   0  0  0  0  0  0
  -15.5394  -30.2972   23.7584 H   0  0  0  0  0  0
  -15.8759  -28.0848   22.6924 H   0  0  0  0  0  0
  -24.6055  -30.6962   25.7669 H   0  0  0  0  0  0
  -24.9042  -32.2860   26.4732 H   0  0  0  0  0  0
  -25.8220  -30.8868   27.0143 H   0  0  0  0  0  0
  -26.2889  -29.6663   24.1239 H   0  0  0  0  0  0
  -27.4209  -29.7185   25.4489 H   0  0  0  0  0  0
  -27.8706  -30.4118   23.9134 H   0  0  0  0  0  0
  -27.2708  -33.3483   26.2064 H   0  0  0  0  0  0
  -28.4003  -32.6802   25.0410 H   0  0  0  0  0  0
  -28.0733  -31.8356   26.5421 H   0  0  0  0  0  0
  -28.2573  -38.0119   24.7456 H   0  0  0  0  0  0
  -28.1089  -36.2649   24.6326 H   0  0  0  0  0  0
  -27.2323  -37.1479   25.8876 H   0  0  0  0  0  0
  -20.9303  -29.8942   21.6990 H   0  0  0  0  0  0
  -26.0144  -38.2811   24.1345 H   0  0  0  0  0  0
  -27.6932  -19.8845   19.8278 H   0  0  0  0  0  0
  -27.8646  -17.4828   19.5035 H   0  0  0  0  0  0
  -31.6854  -19.9225   21.4335 H   0  0  0  0  0  0
  -28.5475  -22.3052   19.2988 H   0  0  0  0  0  0
  -30.2331  -15.0100   17.8150 H   0  0  0  0  0  0
  -29.8659  -16.6857   17.8385 H   0  0  0  0  0  0
  -28.5840  -15.5643   18.1616 H   0  0  0  0  0  0
  -30.1678  -24.3793   20.5165 H   0  0  0  0  0  0
  -28.8878  -24.1352   21.6779 H   0  0  0  0  0  0
  -27.1869  -24.7051   20.0051 H   0  0  0  0  0  0
  -28.3756  -24.9272   18.7541 H   0  0  0  0  0  0
  1 25  1  0  0  0
  1 30  2  0  0  0
  1 82  1  0  0  0
  2  3  1  0  0  0
  2 25  1  0  0  0
  2 84  1  0  0  0
  2 85  1  0  0  0
  3  4  1  0  0  0
  3 86  1  0  0  0
  3 87  1  0  0  0
  4  5  1  0  0  0
  4 88  1  0  0  0
  4 89  1  0  0  0
  5  6  1  0  0  0
  5 26  1  0  0  0
  5 90  1  0  0  0
  6 25  1  0  0  0
  6 91  1  0  0  0
  6 92  1  0  0  0
  7  8  2  0  0  0
  7 26  1  0  0  0
  7 29  1  0  0  0
  8  9  1  0  0  0
  8 22  1  0  0  0
  9 10  1  0  0  0
  9 27  2  0  0  0
 10 11  2  0  0  0
 10 15  1  0  0  0
 11 12  1  0  0  0
 11 93  1  0  0  0
 12 13  2  0  0  0
 12 94  1  0  0  0
 13 14  1  0  0  0
 13 31  1  0  0  0
 14 15  2  0  0  0
 14 95  1  0  0  0
 15 96  1  0  0  0
 16 17  2  0  0  0
 16 21  1  0  0  0
 16 31  1  0  0  0
 17 18  1  0  0  0
 17 97  1  0  0  0
 18 19  2  0  0  0
 18 98  1  0  0  0
 19 20  1  0  0  0
 19 24  1  0  0  0
 20 21  2  0  0  0
 20 99  1  0  0  0
 21 23  1  0  0  0
 22 28  1  0  0  0
 22 32  2  0  0  0
 26 27  1  0  0  0
 28100  1  0  0  0
 28101  1  0  0  0
 29102  1  0  0  0
 29103  1  0  0  0
 33 34  1  0  0  0
 33 66  1  0  0  0
 33 70  2  0  0  0
 34 36  1  0  0  0
 34 59  1  0  0  0
 34104  1  0  0  0
 35 44  2  0  0  0
 35 45  1  0  0  0
 35 68  1  0  0  0
 36 56  1  0  0  0
 36105  1  0  0  0
 37 39  1  0  0  0
 37 47  1  0  0  0
 37 66  1  0  0  0
 37106  1  0  0  0
 38 43  2  0  0  0
 38 46  1  0  0  0
 38 47  1  0  0  0
 39 64  1  0  0  0
 39 67  2  0  0  0
 40 52  1  0  0  0
 40 53  2  0  0  0
 40 58  1  0  0  0
 41107  1  0  0  0
 41108  1  0  0  0
 41109  1  0  0  0
 41 48  1  0  0  0
 42 43  1  0  0  0
 42 66  1  0  0  0
 42110  1  0  0  0
 42111  1  0  0  0
 43 44  1  0  0  0
 44112  1  0  0  0
 45 46  2  0  0  0
 45113  1  0  0  0
 46114  1  0  0  0
 47115  1  0  0  0
 47116  1  0  0  0
 48 56  1  0  0  0
 48 65  1  0  0  0
 48117  1  0  0  0
 49 50  1  0  0  0
 49 53  1  0  0  0
 49 64  1  0  0  0
 49118  1  0  0  0
 50 51  1  0  0  0
 50119  1  0  0  0
 50120  1  0  0  0
 51 52  1  0  0  0
 51121  1  0  0  0
 51122  1  0  0  0
 52123  1  0  0  0
 52124  1  0  0  0
 53 54  1  0  0  0
 54 55  2  0  0  0
 54125  1  0  0  0
 55 57  1  0  0  0
 55126  1  0  0  0
 56 69  2  0  0  0
 57 58  2  0  0  0
 57127  1  0  0  0
 58128  1  0  0  0
 59 60  1  0  0  0
 59 61  1  0  0  0
 59 62  1  0  0  0
 60129  1  0  0  0
 60130  1  0  0  0
 60131  1  0  0  0
 61132  1  0  0  0
 61133  1  0  0  0
 61134  1  0  0  0
 62135  1  0  0  0
 62136  1  0  0  0
 62137  1  0  0  0
 63 65  1  0  0  0
 63138  1  0  0  0
 63139  1  0  0  0
 63140  1  0  0  0
 64141  1  0  0  0
 65142  1  0  0  0
 68 80  1  0  0  0
 71 72  2  0  0  0
 71 74  1  0  0  0
 71143  1  0  0  0
 72 75  1  0  0  0
 72144  1  0  0  0
 73 74  2  0  0  0
 73 76  1  0  0  0
 73145  1  0  0  0
 74 81  1  0  0  0
 75 76  2  0  0  0
 75 82  1  0  0  0
 76 83  1  0  0  0
 77 79  1  0  0  0
 77 81  2  0  0  0
 77146  1  0  0  0
 78 82  1  0  0  0
 78147  1  0  0  0
 78148  1  0  0  0
 78149  1  0  0  0
 79 80  1  0  0  0
 79150  1  0  0  0
 79151  1  0  0  0
 80152  1  0  0  0
 80153  1  0  0  0
M  ISO  4   1 100  68 101  80 101  82 100
M  END
> <chiral flag>
0

> <version>
0

> <s_m_source_file>
/data/baiqing/PycharmProjects/Reinvent-master-3.2/result/LINK_invent/BTK/process_docking_weight1_custom_product_contain_oxygen_bond_distance_aromatic_linkinvent_7_9_3/rearranged_h_0022.sdf

> <i_m_source_file_index>
77

> <r_mmod_Potential_Energy-OPLS-2005>
305.049041748047

> <r_mmod_Stretch_Energy-OPLS-2005>
86.6145553588867

> <r_mmod_Bend_Energy-OPLS-2005>
158.598114013672

> <r_mmod_Torsional_Energy-OPLS-2005>
323.415161132812

> <r_mmod_Improper_Torsional_Energy-OPLS-2005>
23.3786792755127

> <r_mmod_Van_der_Waal_Energy-OPLS-2005>
153.586639404297

> <r_mmod_Electrostatic_Energy-OPLS-2005>
-327.496459960938

> <r_mmod_Solvation_Energy-OPLS-2005>
-206.435729980469

> <b_mmod_Minimization_Converged-OPLS-2005>
0

> <r_mmod_RMS_Derivative-OPLS-2005>
7.12341547012329

$$$$
78
                    3D
 Structure written by MMmdl.
156165  0  0  1  0            999 V2000
  -30.6161  -14.6369   20.5233 C   0  0  0  0  0  0
  -30.4438  -12.3979   19.4507 C   0  0  0  0  0  0
  -29.5108  -12.5221   18.2251 C   0  0  0  0  0  0
  -28.0320  -12.3582   18.6339 C   0  0  0  0  0  0
  -27.6559  -13.2159   19.8720 C   0  0  2  0  0  0
  -28.6998  -13.0538   21.0005 C   0  0  0  0  0  0
  -25.2554  -13.8156   20.5689 C   0  0  0  0  0  0
  -24.1806  -13.0426   20.9159 C   0  0  0  0  0  0
  -24.6374  -11.6900   20.8709 C   0  0  0  0  0  0
  -23.9045  -10.4286   21.0387 C   0  0  0  0  0  0
  -24.3595   -9.4202   21.9168 C   0  0  0  0  0  0
  -23.6283   -8.2231   22.0744 C   0  0  0  0  0  0
  -22.4266   -8.0255   21.3532 C   0  0  0  0  0  0
  -21.9889   -9.0230   20.4636 C   0  0  0  0  0  0
  -22.7209  -10.2119   20.3044 C   0  0  0  0  0  0
  -21.6850   -6.0715   22.5275 C   0  0  0  0  0  0
  -21.4010   -6.5623   23.8205 C   0  0  0  0  0  0
  -21.3669   -5.6775   24.9167 C   0  0  0  0  0  0
  -21.6044   -4.3037   24.7221 C   0  0  0  0  0  0
  -21.8818   -3.8131   23.4343 C   0  0  0  0  0  0
  -21.9197   -4.6947   22.3400 C   0  0  0  0  0  0
  -22.7829  -13.5231   21.1844 C   0  0  0  0  0  0
  -22.1659   -4.2132   21.0974 F   0  0  0  0  0  0
  -21.5644   -3.4519   25.7732 F   0  0  0  0  0  0
  -30.0178  -13.4050   20.4442 N   0  0  0  0  0  0
  -26.2993  -12.9346   20.3353 N   0  0  0  0  0  0
  -25.9305  -11.6495   20.5746 N   0  0  0  0  0  0
  -22.0479  -12.8222   22.0407 N   0  0  0  0  0  0
  -25.4271  -15.1875   20.4169 N   0  0  0  0  0  0
  -31.7647  -14.8200   20.1125 O   0  0  0  0  0  0
  -21.6629   -6.8848   21.4230 O   0  0  0  0  0  0
  -22.3516  -14.5554   20.6724 O   0  0  0  0  0  0
  -24.6265  -31.8612   23.2048 C   0  0  0  0  0  0
  -25.9129  -32.4773   23.8371 C   0  0  1  0  0  0
  -27.2236  -27.3241   20.1244 C   0  0  0  0  0  0
  -25.5951  -33.8572   24.2306 N   0  0  0  0  0  0
  -23.4180  -30.4869   21.5461 C   0  0  2  0  0  0
  -24.8673  -28.9402   20.1109 C   0  0  0  0  0  0
  -22.7461  -29.4657   22.4946 C   0  0  0  0  0  0
  -18.0276  -28.1373   22.8490 C   0  0  0  0  0  0
  -24.1494  -36.7294   23.2627 C   0  0  0  0  0  0
  -25.9594  -30.7918   21.3768 C   0  0  0  0  0  0
  -26.0349  -29.4184   20.7208 C   0  0  0  0  0  0
  -27.2177  -28.6225   20.7188 C   0  0  0  0  0  0
  -26.0414  -26.9032   19.4767 C   0  0  0  0  0  0
  -24.8720  -27.6873   19.4786 C   0  0  0  0  0  0
  -23.6339  -29.8193   20.1617 C   0  0  0  0  0  0
  -25.4109  -36.3076   24.0333 C   0  0  1  0  0  0
  -20.5877  -28.3700   23.1275 C   0  0  2  0  0  0
  -20.6776  -26.9433   22.5397 C   0  0  0  0  0  0
  -19.5753  -26.6388   21.5204 C   0  0  0  0  0  0
  -18.1930  -26.7915   22.1614 C   0  0  0  0  0  0
  -19.1527  -28.8852   23.2878 C   0  0  0  0  0  0
  -18.9450  -30.1443   23.8903 C   0  0  0  0  0  0
  -17.6454  -30.6593   24.0553 C   0  0  0  0  0  0
  -25.9051  -34.9448   23.5118 C   0  0  0  0  0  0
  -16.5345  -29.9094   23.6319 C   0  0  0  0  0  0
  -16.7262  -28.6497   23.0372 C   0  0  0  0  0  0
  -26.4517  -31.6561   25.0732 C   0  0  0  0  0  0
  -25.3743  -31.3682   26.1455 C   0  0  0  0  0  0
  -27.0345  -30.2974   24.6187 C   0  0  0  0  0  0
  -27.6098  -32.4283   25.7479 C   0  0  0  0  0  0
  -27.5587  -37.1793   24.8460 C   0  0  0  0  0  0
  -21.4179  -29.3061   22.3683 N   0  0  0  0  0  0
  -26.4288  -37.3778   23.9417 N   0  0  0  0  0  0
  -24.6858  -31.0641   22.0985 N   0  0  0  0  0  0
  -23.4194  -28.8191   23.3028 O   0  0  0  0  0  0
  -28.3311  -26.4653   20.1539 O   0  0  0  0  0  0
  -26.5626  -34.8923   22.4687 O   0  0  0  0  0  0
  -23.5440  -32.1429   23.7390 O   0  0  0  0  0  0
  -30.8748  -19.3107   20.2935 C   0  0  0  0  0  0
  -30.9579  -17.8884   20.4016 C   0  0  0  0  0  0
  -29.6793  -20.0483   20.5527 C   0  0  0  0  0  0
  -29.8394  -17.1116   20.7991 C   0  0  0  0  0  0
  -28.5646  -19.2599   20.9599 C   0  0  0  0  0  0
  -28.6528  -17.8395   21.0866 C   0  0  0  0  0  0
  -30.4039  -23.7678   20.5620 C   0  0  0  0  0  0
  -30.8397  -22.3056   20.3093 C   0  0  0  0  0  0
  -28.4597  -22.3949   20.4552 C   0  0  0  0  0  0
  -28.9469  -23.8526   20.0827 C   0  0  1  0  0  0
  -28.0945  -25.0807   20.6359 C   0  0  0  0  0  0
  -29.6350  -21.4880   20.4167 N   0  0  0  0  0  0
  -29.8054  -15.6558   20.9488 N   0  0  0  0  0  0
  -27.3828  -19.8581   21.2533 F   0  0  0  0  0  0
  -27.5581  -17.1513   21.4921 F   0  0  0  0  0  0
  -31.4841  -12.5336   19.1489 H   0  0  0  0  0  0
  -30.3848  -11.3970   19.8788 H   0  0  0  0  0  0
  -29.7767  -11.7781   17.4723 H   0  0  0  0  0  0
  -29.6534  -13.4974   17.7554 H   0  0  0  0  0  0
  -27.8641  -11.3027   18.8547 H   0  0  0  0  0  0
  -27.3802  -12.6015   17.7939 H   0  0  0  0  0  0
  -27.6779  -14.2558   19.5460 H   0  0  0  0  0  0
  -28.7090  -12.0273   21.3726 H   0  0  0  0  0  0
  -28.4389  -13.6709   21.8614 H   0  0  0  0  0  0
  -25.2733   -9.5687   22.4741 H   0  0  0  0  0  0
  -23.9988   -7.4623   22.7466 H   0  0  0  0  0  0
  -21.0811   -8.8744   19.8948 H   0  0  0  0  0  0
  -22.3649  -10.9651   19.6152 H   0  0  0  0  0  0
  -21.1988   -7.6134   23.9688 H   0  0  0  0  0  0
  -21.1509   -6.0514   25.9067 H   0  0  0  0  0  0
  -22.0601   -2.7596   23.2836 H   0  0  0  0  0  0
  -22.4087  -11.9878   22.4786 H   0  0  0  0  0  0
  -21.1111  -13.1268   22.2646 H   0  0  0  0  0  0
  -24.6707  -15.8469   20.5629 H   0  0  0  0  0  0
  -26.3013  -15.6402   20.1864 H   0  0  0  0  0  0
  -26.7189  -32.5464   23.1117 H   0  0  0  0  0  0
  -25.0110  -33.9713   25.0463 H   0  0  0  0  0  0
  -22.7089  -31.3065   21.4031 H   0  0  0  0  0  0
  -23.3766  -35.9617   23.3273 H   0  0  0  0  0  0
  -24.3593  -36.8927   22.2041 H   0  0  0  0  0  0
  -23.7253  -37.6492   23.6667 H   0  0  0  0  0  0
  -26.0914  -31.5530   20.6071 H   0  0  0  0  0  0
  -26.8391  -30.8418   22.0065 H   0  0  0  0  0  0
  -28.1113  -28.9829   21.2093 H   0  0  0  0  0  0
  -26.0106  -25.9490   18.9695 H   0  0  0  0  0  0
  -23.9799  -27.3224   18.9892 H   0  0  0  0  0  0
  -23.7487  -30.5952   19.4039 H   0  0  0  0  0  0
  -22.7545  -29.2448   19.8635 H   0  0  0  0  0  0
  -25.1288  -36.1904   25.0823 H   0  0  0  0  0  0
  -20.9964  -28.3284   24.1398 H   0  0  0  0  0  0
  -20.5674  -26.2330   23.3602 H   0  0  0  0  0  0
  -21.6647  -26.7480   22.1193 H   0  0  0  0  0  0
  -19.6931  -25.6293   21.1251 H   0  0  0  0  0  0
  -19.6690  -27.3186   20.6722 H   0  0  0  0  0  0
  -17.4210  -26.6660   21.4005 H   0  0  0  0  0  0
  -18.0360  -26.0043   22.9000 H   0  0  0  0  0  0
  -19.7924  -30.7252   24.2300 H   0  0  0  0  0  0
  -17.5015  -31.6270   24.5152 H   0  0  0  0  0  0
  -15.5348  -30.3002   23.7637 H   0  0  0  0  0  0
  -15.8654  -28.0802   22.7117 H   0  0  0  0  0  0
  -24.5942  -30.7015   25.7773 H   0  0  0  0  0  0
  -24.8909  -32.2830   26.4883 H   0  0  0  0  0  0
  -25.8070  -30.8853   27.0227 H   0  0  0  0  0  0
  -26.2908  -29.6719   24.1248 H   0  0  0  0  0  0
  -27.4053  -29.7244   25.4695 H   0  0  0  0  0  0
  -27.8785  -30.4221   23.9403 H   0  0  0  0  0  0
  -27.2740  -33.3592   26.2058 H   0  0  0  0  0  0
  -28.3899  -32.6815   25.0287 H   0  0  0  0  0  0
  -28.0789  -31.8398   26.5375 H   0  0  0  0  0  0
  -28.2577  -38.0120   24.7560 H   0  0  0  0  0  0
  -28.1107  -36.2658   24.6207 H   0  0  0  0  0  0
  -27.2331  -37.1350   25.8869 H   0  0  0  0  0  0
  -20.9379  -29.8736   21.6830 H   0  0  0  0  0  0
  -26.0167  -38.2855   24.1413 H   0  0  0  0  0  0
  -31.7684  -19.8353   19.9894 H   0  0  0  0  0  0
  -31.8990  -17.4088   20.1750 H   0  0  0  0  0  0
  -31.0543  -24.4890   20.0662 H   0  0  0  0  0  0
  -30.4491  -23.9743   21.6316 H   0  0  0  0  0  0
  -31.6059  -21.9961   21.0237 H   0  0  0  0  0  0
  -31.2554  -22.1982   19.3063 H   0  0  0  0  0  0
  -27.6824  -22.0568   19.7673 H   0  0  0  0  0  0
  -28.0287  -22.3868   21.4578 H   0  0  0  0  0  0
  -28.9540  -23.9182   18.9932 H   0  0  0  0  0  0
  -28.2215  -25.1083   21.7180 H   0  0  0  0  0  0
  -27.0502  -24.8010   20.5052 H   0  0  0  0  0  0
  -28.9212  -15.3147   21.2935 H   0  0  0  0  0  0
  1 25  1  0  0  0
  1 30  2  0  0  0
  1 83  1  0  0  0
  2  3  1  0  0  0
  2 25  1  0  0  0
  2 86  1  0  0  0
  2 87  1  0  0  0
  3  4  1  0  0  0
  3 88  1  0  0  0
  3 89  1  0  0  0
  4  5  1  0  0  0
  4 90  1  0  0  0
  4 91  1  0  0  0
  5  6  1  0  0  0
  5 26  1  0  0  0
  5 92  1  0  0  0
  6 25  1  0  0  0
  6 93  1  0  0  0
  6 94  1  0  0  0
  7  8  2  0  0  0
  7 26  1  0  0  0
  7 29  1  0  0  0
  8  9  1  0  0  0
  8 22  1  0  0  0
  9 10  1  0  0  0
  9 27  2  0  0  0
 10 11  2  0  0  0
 10 15  1  0  0  0
 11 12  1  0  0  0
 11 95  1  0  0  0
 12 13  2  0  0  0
 12 96  1  0  0  0
 13 14  1  0  0  0
 13 31  1  0  0  0
 14 15  2  0  0  0
 14 97  1  0  0  0
 15 98  1  0  0  0
 16 17  2  0  0  0
 16 21  1  0  0  0
 16 31  1  0  0  0
 17 18  1  0  0  0
 17 99  1  0  0  0
 18 19  2  0  0  0
 18100  1  0  0  0
 19 20  1  0  0  0
 19 24  1  0  0  0
 20 21  2  0  0  0
 20101  1  0  0  0
 21 23  1  0  0  0
 22 28  1  0  0  0
 22 32  2  0  0  0
 26 27  1  0  0  0
 28102  1  0  0  0
 28103  1  0  0  0
 29104  1  0  0  0
 29105  1  0  0  0
 33 34  1  0  0  0
 33 66  1  0  0  0
 33 70  2  0  0  0
 34 36  1  0  0  0
 34 59  1  0  0  0
 34106  1  0  0  0
 35 44  2  0  0  0
 35 45  1  0  0  0
 35 68  1  0  0  0
 36 56  1  0  0  0
 36107  1  0  0  0
 37 39  1  0  0  0
 37 47  1  0  0  0
 37 66  1  0  0  0
 37108  1  0  0  0
 38 43  2  0  0  0
 38 46  1  0  0  0
 38 47  1  0  0  0
 39 64  1  0  0  0
 39 67  2  0  0  0
 40 52  1  0  0  0
 40 53  2  0  0  0
 40 58  1  0  0  0
 41109  1  0  0  0
 41110  1  0  0  0
 41111  1  0  0  0
 41 48  1  0  0  0
 42 43  1  0  0  0
 42 66  1  0  0  0
 42112  1  0  0  0
 42113  1  0  0  0
 43 44  1  0  0  0
 44114  1  0  0  0
 45 46  2  0  0  0
 45115  1  0  0  0
 46116  1  0  0  0
 47117  1  0  0  0
 47118  1  0  0  0
 48 56  1  0  0  0
 48 65  1  0  0  0
 48119  1  0  0  0
 49 50  1  0  0  0
 49 53  1  0  0  0
 49 64  1  0  0  0
 49120  1  0  0  0
 50 51  1  0  0  0
 50121  1  0  0  0
 50122  1  0  0  0
 51 52  1  0  0  0
 51123  1  0  0  0
 51124  1  0  0  0
 52125  1  0  0  0
 52126  1  0  0  0
 53 54  1  0  0  0
 54 55  2  0  0  0
 54127  1  0  0  0
 55 57  1  0  0  0
 55128  1  0  0  0
 56 69  2  0  0  0
 57 58  2  0  0  0
 57129  1  0  0  0
 58130  1  0  0  0
 59 60  1  0  0  0
 59 61  1  0  0  0
 59 62  1  0  0  0
 60131  1  0  0  0
 60132  1  0  0  0
 60133  1  0  0  0
 61134  1  0  0  0
 61135  1  0  0  0
 61136  1  0  0  0
 62137  1  0  0  0
 62138  1  0  0  0
 62139  1  0  0  0
 63 65  1  0  0  0
 63140  1  0  0  0
 63141  1  0  0  0
 63142  1  0  0  0
 64143  1  0  0  0
 65144  1  0  0  0
 68 81  1  0  0  0
 71 72  2  0  0  0
 71 73  1  0  0  0
 71145  1  0  0  0
 72 74  1  0  0  0
 72146  1  0  0  0
 73 75  2  0  0  0
 73 82  1  0  0  0
 74 76  2  0  0  0
 74 83  1  0  0  0
 75 76  1  0  0  0
 75 84  1  0  0  0
 76 85  1  0  0  0
 77 78  1  0  0  0
 77 80  1  0  0  0
 77147  1  0  0  0
 77148  1  0  0  0
 78 82  1  0  0  0
 78149  1  0  0  0
 78150  1  0  0  0
 79 80  1  0  0  0
 79 82  1  0  0  0
 79151  1  0  0  0
 79152  1  0  0  0
 80 81  1  0  0  0
 80153  1  0  0  0
 81154  1  0  0  0
 81155  1  0  0  0
 83156  1  0  0  0
M  ISO  4   1 100  68 101  81 101  83 100
M  END
> <chiral flag>
0

> <version>
0

> <s_m_source_file>
/data/baiqing/PycharmProjects/Reinvent-master-3.2/result/LINK_invent/BTK/process_docking_weight1_custom_product_contain_oxygen_bond_distance_aromatic_linkinvent_7_9_3/rearranged_h_0022.sdf

> <i_m_source_file_index>
78

> <r_mmod_Potential_Energy-OPLS-2005>
164.914123535156

> <r_mmod_Stretch_Energy-OPLS-2005>
76.8735275268555

> <r_mmod_Bend_Energy-OPLS-2005>
184.144058227539

> <r_mmod_Torsional_Energy-OPLS-2005>
272.499908447266

> <r_mmod_Improper_Torsional_Energy-OPLS-2005>
3.66935539245605

> <r_mmod_Van_der_Waal_Energy-OPLS-2005>
142.008483886719

> <r_mmod_Electrostatic_Energy-OPLS-2005>
-348.227722167969

> <r_mmod_Solvation_Energy-OPLS-2005>
-213.095611572266

> <b_mmod_Minimization_Converged-OPLS-2005>
0

> <r_mmod_RMS_Derivative-OPLS-2005>
2.37468767166138

$$$$
79
                    3D
 Structure written by MMmdl.
161170  0  0  1  0            999 V2000
  -30.6708  -14.6451   20.5598 C   0  0  0  0  0  0
  -30.4327  -12.4138   19.4617 C   0  0  0  0  0  0
  -29.5111  -12.5157   18.2296 C   0  0  0  0  0  0
  -28.0347  -12.3461   18.6317 C   0  0  0  0  0  0
  -27.6476  -13.2181   19.8560 C   0  0  2  0  0  0
  -28.6852  -13.0924   20.9894 C   0  0  0  0  0  0
  -25.2517  -13.8184   20.5615 C   0  0  0  0  0  0
  -24.1807  -13.0434   20.9148 C   0  0  0  0  0  0
  -24.6396  -11.6909   20.8712 C   0  0  0  0  0  0
  -23.9083  -10.4278   21.0390 C   0  0  0  0  0  0
  -24.3649   -9.4185   21.9167 C   0  0  0  0  0  0
  -23.6303   -8.2237   22.0748 C   0  0  0  0  0  0
  -22.4270   -8.0301   21.3556 C   0  0  0  0  0  0
  -21.9914   -9.0267   20.4646 C   0  0  0  0  0  0
  -22.7264  -10.2129   20.3021 C   0  0  0  0  0  0
  -21.6856   -6.0742   22.5272 C   0  0  0  0  0  0
  -21.4020   -6.5632   23.8205 C   0  0  0  0  0  0
  -21.3630   -5.6785   24.9168 C   0  0  0  0  0  0
  -21.6031   -4.3044   24.7217 C   0  0  0  0  0  0
  -21.8834   -3.8141   23.4329 C   0  0  0  0  0  0
  -21.9193   -4.6969   22.3389 C   0  0  0  0  0  0
  -22.7824  -13.5204   21.1814 C   0  0  0  0  0  0
  -22.1651   -4.2144   21.0970 F   0  0  0  0  0  0
  -21.5623   -3.4511   25.7729 F   0  0  0  0  0  0
  -30.0090  -13.4412   20.4412 N   0  0  0  0  0  0
  -26.2939  -12.9355   20.3225 N   0  0  0  0  0  0
  -25.9315  -11.6513   20.5710 N   0  0  0  0  0  0
  -22.0495  -12.8204   22.0400 N   0  0  0  0  0  0
  -25.4196  -15.1920   20.4039 N   0  0  0  0  0  0
  -31.7693  -14.8087   20.0233 O   0  0  0  0  0  0
  -21.6631   -6.8906   21.4253 O   0  0  0  0  0  0
  -22.3489  -14.5500   20.6665 O   0  0  0  0  0  0
  -24.6299  -31.8590   23.1945 C   0  0  0  0  0  0
  -25.9132  -32.4769   23.8317 C   0  0  1  0  0  0
  -27.2285  -27.2982   20.1283 C   0  0  0  0  0  0
  -25.5948  -33.8580   24.2245 N   0  0  0  0  0  0
  -23.4215  -30.4795   21.5381 C   0  0  2  0  0  0
  -24.8683  -28.9210   20.1030 C   0  0  0  0  0  0
  -22.7491  -29.4624   22.4934 C   0  0  0  0  0  0
  -18.0300  -28.1361   22.8482 C   0  0  0  0  0  0
  -24.1494  -36.7286   23.2641 C   0  0  0  0  0  0
  -25.9606  -30.7799   21.3668 C   0  0  0  0  0  0
  -26.0322  -29.4026   20.7176 C   0  0  0  0  0  0
  -27.2077  -28.5966   20.7271 C   0  0  0  0  0  0
  -26.0479  -26.8704   19.4830 C   0  0  0  0  0  0
  -24.8789  -27.6625   19.4763 C   0  0  0  0  0  0
  -23.6347  -29.8028   20.1554 C   0  0  0  0  0  0
  -25.4117  -36.3086   24.0334 C   0  0  1  0  0  0
  -20.5893  -28.3663   23.1277 C   0  0  2  0  0  0
  -20.6788  -26.9374   22.5404 C   0  0  0  0  0  0
  -19.5775  -26.6350   21.5200 C   0  0  0  0  0  0
  -18.1949  -26.7910   22.1602 C   0  0  0  0  0  0
  -19.1549  -28.8839   23.2871 C   0  0  0  0  0  0
  -18.9463  -30.1447   23.8874 C   0  0  0  0  0  0
  -17.6460  -30.6573   24.0538 C   0  0  0  0  0  0
  -25.9061  -34.9463   23.5087 C   0  0  0  0  0  0
  -16.5357  -29.9046   23.6339 C   0  0  0  0  0  0
  -16.7281  -28.6469   23.0355 C   0  0  0  0  0  0
  -26.4495  -31.6611   25.0744 C   0  0  0  0  0  0
  -25.3715  -31.3777   26.1470 C   0  0  0  0  0  0
  -27.0345  -30.3043   24.6226 C   0  0  0  0  0  0
  -27.6039  -32.4375   25.7526 C   0  0  0  0  0  0
  -27.5580  -37.1813   24.8479 C   0  0  0  0  0  0
  -21.4192  -29.3046   22.3709 N   0  0  0  0  0  0
  -26.4295  -37.3782   23.9425 N   0  0  0  0  0  0
  -24.6896  -31.0605   22.0887 N   0  0  0  0  0  0
  -23.4233  -28.8213   23.3037 O   0  0  0  0  0  0
  -28.3546  -26.4653   20.2358 O   0  0  0  0  0  0
  -26.5636  -34.8947   22.4652 O   0  0  0  0  0  0
  -23.5455  -32.1398   23.7265 O   0  0  0  0  0  0
  -29.7500  -19.5026   21.5878 C   0  0  0  0  0  0
  -30.1078  -18.1416   21.8341 C   0  0  0  0  0  0
  -28.9002  -18.8558   19.4467 C   0  0  0  0  0  0
  -29.0939  -19.8991   20.3978 C   0  0  0  0  0  0
  -29.8685  -17.0724   20.9127 C   0  0  0  0  0  0
  -29.2800  -17.4937   19.6768 C   0  0  0  0  0  0
  -28.9901  -22.4767   20.1276 C   0  0  0  0  0  0
  -26.3094  -22.2179   21.1396 C   0  0  0  0  0  0
  -26.8867  -23.6510   20.9906 C   0  0  0  0  0  0
  -26.9611  -21.1614   20.2093 C   0  0  0  0  0  0
  -28.0018  -23.7188   19.9264 C   0  0  2  0  0  0
  -30.2736  -15.4157   22.7604 C   0  0  0  0  0  0
  -28.5258  -25.1883   19.4965 C   0  0  0  0  0  0
  -28.4308  -21.2127   20.2498 N   0  0  0  0  0  0
  -30.1116  -15.6573   21.3173 N   0  0  0  0  0  0
  -30.2098  -22.6672   20.1630 O   0  0  0  0  0  0
  -28.9136  -16.3638   18.4224 Cl  0  0  0  0  0  0
  -31.4726  -12.5335   19.1537 H   0  0  0  0  0  0
  -30.3771  -11.4194   19.9078 H   0  0  0  0  0  0
  -29.7934  -11.7637   17.4916 H   0  0  0  0  0  0
  -29.6474  -13.4863   17.7499 H   0  0  0  0  0  0
  -27.8815  -11.2920   18.8651 H   0  0  0  0  0  0
  -27.3831  -12.5648   17.7828 H   0  0  0  0  0  0
  -27.6533  -14.2498   19.5168 H   0  0  0  0  0  0
  -28.6924  -12.0741   21.3825 H   0  0  0  0  0  0
  -28.3913  -13.7312   21.8205 H   0  0  0  0  0  0
  -25.2836   -9.5624   22.4696 H   0  0  0  0  0  0
  -24.0008   -7.4621   22.7451 H   0  0  0  0  0  0
  -21.0842   -8.8803   19.8947 H   0  0  0  0  0  0
  -22.3781  -10.9665   19.6075 H   0  0  0  0  0  0
  -21.2026   -7.6134   23.9715 H   0  0  0  0  0  0
  -21.1423   -6.0494   25.9070 H   0  0  0  0  0  0
  -22.0641   -2.7595   23.2824 H   0  0  0  0  0  0
  -22.4205  -11.9924   22.4820 H   0  0  0  0  0  0
  -21.1061  -13.1124   22.2533 H   0  0  0  0  0  0
  -24.6543  -15.8468   20.5264 H   0  0  0  0  0  0
  -26.2745  -15.6343   20.0919 H   0  0  0  0  0  0
  -26.7248  -32.5444   23.1106 H   0  0  0  0  0  0
  -25.0221  -33.9719   25.0485 H   0  0  0  0  0  0
  -22.7157  -31.3002   21.3927 H   0  0  0  0  0  0
  -23.3769  -35.9610   23.3336 H   0  0  0  0  0  0
  -24.3577  -36.8879   22.2047 H   0  0  0  0  0  0
  -23.7219  -37.6494   23.6623 H   0  0  0  0  0  0
  -26.1012  -31.5356   20.5911 H   0  0  0  0  0  0
  -26.8381  -30.8304   21.9977 H   0  0  0  0  0  0
  -28.0953  -28.9565   21.2306 H   0  0  0  0  0  0
  -26.0037  -25.9017   19.0098 H   0  0  0  0  0  0
  -23.9870  -27.2851   18.9923 H   0  0  0  0  0  0
  -23.7377  -30.5728   19.3896 H   0  0  0  0  0  0
  -22.7564  -29.2212   19.8693 H   0  0  0  0  0  0
  -25.1289  -36.1933   25.0821 H   0  0  0  0  0  0
  -20.9964  -28.3189   24.1397 H   0  0  0  0  0  0
  -20.5653  -26.2247   23.3588 H   0  0  0  0  0  0
  -21.6662  -26.7378   22.1208 H   0  0  0  0  0  0
  -19.6918  -25.6252   21.1243 H   0  0  0  0  0  0
  -19.6738  -27.3148   20.6720 H   0  0  0  0  0  0
  -17.4203  -26.6658   21.4007 H   0  0  0  0  0  0
  -18.0343  -26.0049   22.8992 H   0  0  0  0  0  0
  -19.7949  -30.7275   24.2206 H   0  0  0  0  0  0
  -17.5019  -31.6260   24.5131 H   0  0  0  0  0  0
  -15.5352  -30.2933   23.7705 H   0  0  0  0  0  0
  -15.8673  -28.0786   22.7072 H   0  0  0  0  0  0
  -24.5846  -30.7185   25.7805 H   0  0  0  0  0  0
  -24.8984  -32.2963   26.4932 H   0  0  0  0  0  0
  -25.8010  -30.8911   27.0239 H   0  0  0  0  0  0
  -26.2945  -29.6813   24.1207 H   0  0  0  0  0  0
  -27.4013  -29.7258   25.4723 H   0  0  0  0  0  0
  -27.8805  -30.4370   23.9483 H   0  0  0  0  0  0
  -27.2624  -33.3651   26.2122 H   0  0  0  0  0  0
  -28.3813  -32.7001   25.0340 H   0  0  0  0  0  0
  -28.0768  -31.8538   26.5432 H   0  0  0  0  0  0
  -28.2609  -38.0096   24.7496 H   0  0  0  0  0  0
  -28.1036  -36.2629   24.6307 H   0  0  0  0  0  0
  -27.2317  -37.1507   25.8888 H   0  0  0  0  0  0
  -20.9348  -29.8760   21.6939 H   0  0  0  0  0  0
  -26.0176  -38.2874   24.1378 H   0  0  0  0  0  0
  -29.9142  -20.2305   22.3700 H   0  0  0  0  0  0
  -30.5513  -17.9369   22.7979 H   0  0  0  0  0  0
  -28.3949  -19.0955   18.5204 H   0  0  0  0  0  0
  -25.2350  -22.2228   20.9530 H   0  0  0  0  0  0
  -26.4256  -21.8915   22.1753 H   0  0  0  0  0  0
  -27.2670  -24.0043   21.9518 H   0  0  0  0  0  0
  -26.0747  -24.3271   20.7306 H   0  0  0  0  0  0
  -26.6240  -21.2952   19.1788 H   0  0  0  0  0  0
  -26.6109  -20.1738   20.5028 H   0  0  0  0  0  0
  -27.4975  -23.4224   19.0073 H   0  0  0  0  0  0
  -29.4960  -15.9315   23.3249 H   0  0  0  0  0  0
  -30.2236  -14.3641   23.0454 H   0  0  0  0  0  0
  -31.2494  -15.7728   23.0923 H   0  0  0  0  0  0
  -28.1737  -25.3807   18.4818 H   0  0  0  0  0  0
  -29.6045  -25.0998   19.3622 H   0  0  0  0  0  0
  1 25  1  0  0  0
  1 30  2  0  0  0
  1 85  1  0  0  0
  2  3  1  0  0  0
  2 25  1  0  0  0
  2 88  1  0  0  0
  2 89  1  0  0  0
  3  4  1  0  0  0
  3 90  1  0  0  0
  3 91  1  0  0  0
  4  5  1  0  0  0
  4 92  1  0  0  0
  4 93  1  0  0  0
  5  6  1  0  0  0
  5 26  1  0  0  0
  5 94  1  0  0  0
  6 25  1  0  0  0
  6 95  1  0  0  0
  6 96  1  0  0  0
  7  8  2  0  0  0
  7 26  1  0  0  0
  7 29  1  0  0  0
  8  9  1  0  0  0
  8 22  1  0  0  0
  9 10  1  0  0  0
  9 27  2  0  0  0
 10 11  2  0  0  0
 10 15  1  0  0  0
 11 12  1  0  0  0
 11 97  1  0  0  0
 12 13  2  0  0  0
 12 98  1  0  0  0
 13 14  1  0  0  0
 13 31  1  0  0  0
 14 15  2  0  0  0
 14 99  1  0  0  0
 15100  1  0  0  0
 16 17  2  0  0  0
 16 21  1  0  0  0
 16 31  1  0  0  0
 17 18  1  0  0  0
 17101  1  0  0  0
 18 19  2  0  0  0
 18102  1  0  0  0
 19 20  1  0  0  0
 19 24  1  0  0  0
 20 21  2  0  0  0
 20103  1  0  0  0
 21 23  1  0  0  0
 22 28  1  0  0  0
 22 32  2  0  0  0
 26 27  1  0  0  0
 28104  1  0  0  0
 28105  1  0  0  0
 29106  1  0  0  0
 29107  1  0  0  0
 33 34  1  0  0  0
 33 66  1  0  0  0
 33 70  2  0  0  0
 34 36  1  0  0  0
 34 59  1  0  0  0
 34108  1  0  0  0
 35 44  2  0  0  0
 35 45  1  0  0  0
 35 68  1  0  0  0
 36 56  1  0  0  0
 36109  1  0  0  0
 37 39  1  0  0  0
 37 47  1  0  0  0
 37 66  1  0  0  0
 37110  1  0  0  0
 38 43  2  0  0  0
 38 46  1  0  0  0
 38 47  1  0  0  0
 39 64  1  0  0  0
 39 67  2  0  0  0
 40 52  1  0  0  0
 40 53  2  0  0  0
 40 58  1  0  0  0
 41111  1  0  0  0
 41112  1  0  0  0
 41113  1  0  0  0
 41 48  1  0  0  0
 42 43  1  0  0  0
 42 66  1  0  0  0
 42114  1  0  0  0
 42115  1  0  0  0
 43 44  1  0  0  0
 44116  1  0  0  0
 45 46  2  0  0  0
 45117  1  0  0  0
 46118  1  0  0  0
 47119  1  0  0  0
 47120  1  0  0  0
 48 56  1  0  0  0
 48 65  1  0  0  0
 48121  1  0  0  0
 49 50  1  0  0  0
 49 53  1  0  0  0
 49 64  1  0  0  0
 49122  1  0  0  0
 50 51  1  0  0  0
 50123  1  0  0  0
 50124  1  0  0  0
 51 52  1  0  0  0
 51125  1  0  0  0
 51126  1  0  0  0
 52127  1  0  0  0
 52128  1  0  0  0
 53 54  1  0  0  0
 54 55  2  0  0  0
 54129  1  0  0  0
 55 57  1  0  0  0
 55130  1  0  0  0
 56 69  2  0  0  0
 57 58  2  0  0  0
 57131  1  0  0  0
 58132  1  0  0  0
 59 60  1  0  0  0
 59 61  1  0  0  0
 59 62  1  0  0  0
 60133  1  0  0  0
 60134  1  0  0  0
 60135  1  0  0  0
 61136  1  0  0  0
 61137  1  0  0  0
 61138  1  0  0  0
 62139  1  0  0  0
 62140  1  0  0  0
 62141  1  0  0  0
 63 65  1  0  0  0
 63142  1  0  0  0
 63143  1  0  0  0
 63144  1  0  0  0
 64145  1  0  0  0
 65146  1  0  0  0
 68 83  1  0  0  0
 71 72  2  0  0  0
 71 74  1  0  0  0
 71147  1  0  0  0
 72 75  1  0  0  0
 72148  1  0  0  0
 73 74  2  0  0  0
 73 76  1  0  0  0
 73149  1  0  0  0
 74 84  1  0  0  0
 75 76  2  0  0  0
 75 85  1  0  0  0
 76 87  1  0  0  0
 77 81  1  0  0  0
 77 84  1  0  0  0
 77 86  2  0  0  0
 78 79  1  0  0  0
 78 80  1  0  0  0
 78150  1  0  0  0
 78151  1  0  0  0
 79 81  1  0  0  0
 79152  1  0  0  0
 79153  1  0  0  0
 80 84  1  0  0  0
 80154  1  0  0  0
 80155  1  0  0  0
 81 83  1  0  0  0
 81156  1  0  0  0
 82 85  1  0  0  0
 82157  1  0  0  0
 82158  1  0  0  0
 82159  1  0  0  0
 83160  1  0  0  0
 83161  1  0  0  0
M  ISO  4   1 100  68 101  83 101  85 100
M  END
> <chiral flag>
0

> <version>
0

> <s_m_source_file>
/data/baiqing/PycharmProjects/Reinvent-master-3.2/result/LINK_invent/BTK/process_docking_weight1_custom_product_contain_oxygen_bond_distance_aromatic_linkinvent_7_9_3/rearranged_h_0022.sdf

> <i_m_source_file_index>
79

> <r_mmod_Potential_Energy-OPLS-2005>
402.550354003906

> <r_mmod_Stretch_Energy-OPLS-2005>
107.518615722656

> <r_mmod_Bend_Energy-OPLS-2005>
195.406173706055

> <r_mmod_Torsional_Energy-OPLS-2005>
368.421844482422

> <r_mmod_Improper_Torsional_Energy-OPLS-2005>
5.34124946594238

> <r_mmod_Van_der_Waal_Energy-OPLS-2005>
153.621917724609

> <r_mmod_Electrostatic_Energy-OPLS-2005>
-275.091339111328

> <r_mmod_Solvation_Energy-OPLS-2005>
-207.016403198242

> <b_mmod_Minimization_Converged-OPLS-2005>
0

> <r_mmod_RMS_Derivative-OPLS-2005>
4.31948375701904

$$$$
80
                    3D
 Structure written by MMmdl.
156165  0  0  1  0            999 V2000
  -30.5221  -14.8969   20.4389 C   0  0  0  0  0  0
  -30.4459  -12.5504   19.4949 C   0  0  0  0  0  0
  -29.5236  -12.5402   18.2518 C   0  0  0  0  0  0
  -28.0513  -12.3348   18.6601 C   0  0  0  0  0  0
  -27.6375  -13.2412   19.8496 C   0  0  2  0  0  0
  -28.6799  -13.2113   20.9888 C   0  0  0  0  0  0
  -25.2488  -13.8199   20.5705 C   0  0  0  0  0  0
  -24.1791  -13.0432   20.9208 C   0  0  0  0  0  0
  -24.6393  -11.6913   20.8733 C   0  0  0  0  0  0
  -23.9072  -10.4292   21.0400 C   0  0  0  0  0  0
  -24.3624   -9.4207   21.9180 C   0  0  0  0  0  0
  -23.6294   -8.2244   22.0753 C   0  0  0  0  0  0
  -22.4274   -8.0280   21.3541 C   0  0  0  0  0  0
  -21.9910   -9.0255   20.4644 C   0  0  0  0  0  0
  -22.7240  -10.2134   20.3053 C   0  0  0  0  0  0
  -21.6851   -6.0733   22.5278 C   0  0  0  0  0  0
  -21.4016   -6.5639   23.8213 C   0  0  0  0  0  0
  -21.3661   -5.6792   24.9175 C   0  0  0  0  0  0
  -21.6048   -4.3054   24.7223 C   0  0  0  0  0  0
  -21.8817   -3.8142   23.4343 C   0  0  0  0  0  0
  -21.9192   -4.6961   22.3399 C   0  0  0  0  0  0
  -22.7812  -13.5208   21.1873 C   0  0  0  0  0  0
  -22.1662   -4.2148   21.0976 F   0  0  0  0  0  0
  -21.5630   -3.4538   25.7734 F   0  0  0  0  0  0
  -29.9670  -13.6220   20.4103 N   0  0  0  0  0  0
  -26.2914  -12.9421   20.3264 N   0  0  0  0  0  0
  -25.9326  -11.6552   20.5726 N   0  0  0  0  0  0
  -22.0470  -12.8202   22.0435 N   0  0  0  0  0  0
  -25.4170  -15.1932   20.4153 N   0  0  0  0  0  0
  -31.7026  -15.0264   20.0960 O   0  0  0  0  0  0
  -21.6638   -6.8874   21.4238 O   0  0  0  0  0  0
  -22.3496  -14.5517   20.6723 O   0  0  0  0  0  0
  -24.6425  -31.8467   23.1909 C   0  0  0  0  0  0
  -25.9212  -32.4699   23.8289 C   0  0  1  0  0  0
  -27.2112  -27.1537   20.1391 C   0  0  0  0  0  0
  -25.5973  -33.8505   24.2209 N   0  0  0  0  0  0
  -23.4437  -30.4681   21.5366 C   0  0  2  0  0  0
  -24.8915  -28.9009   20.1057 C   0  0  0  0  0  0
  -22.7561  -29.4564   22.4874 C   0  0  0  0  0  0
  -18.0317  -28.1388   22.8459 C   0  0  0  0  0  0
  -24.1494  -36.7260   23.2638 C   0  0  0  0  0  0
  -25.9983  -30.7220   21.3906 C   0  0  0  0  0  0
  -26.0664  -29.3359   20.7311 C   0  0  0  0  0  0
  -27.2245  -28.4745   20.7390 C   0  0  0  0  0  0
  -26.0195  -26.8321   19.4501 C   0  0  0  0  0  0
  -24.8804  -27.6626   19.4498 C   0  0  0  0  0  0
  -23.6672  -29.8008   20.1539 C   0  0  0  0  0  0
  -25.4124  -36.3034   24.0317 C   0  0  1  0  0  0
  -20.5921  -28.3723   23.1229 C   0  0  2  0  0  0
  -20.6827  -26.9436   22.5366 C   0  0  0  0  0  0
  -19.5778  -26.6338   21.5212 C   0  0  0  0  0  0
  -18.1945  -26.7931   22.1590 C   0  0  0  0  0  0
  -19.1566  -28.8865   23.2846 C   0  0  0  0  0  0
  -18.9477  -30.1453   23.8886 C   0  0  0  0  0  0
  -17.6469  -30.6575   24.0561 C   0  0  0  0  0  0
  -25.9080  -34.9408   23.5068 C   0  0  0  0  0  0
  -16.5366  -29.9070   23.6319 C   0  0  0  0  0  0
  -16.7302  -28.6493   23.0334 C   0  0  0  0  0  0
  -26.4536  -31.6553   25.0720 C   0  0  0  0  0  0
  -25.3717  -31.3748   26.1412 C   0  0  0  0  0  0
  -27.0400  -30.2950   24.6294 C   0  0  0  0  0  0
  -27.6064  -32.4315   25.7501 C   0  0  0  0  0  0
  -27.5575  -37.1793   24.8465 C   0  0  0  0  0  0
  -21.4252  -29.3083   22.3640 N   0  0  0  0  0  0
  -26.4290  -37.3746   23.9404 N   0  0  0  0  0  0
  -24.7144  -31.0332   22.0942 N   0  0  0  0  0  0
  -23.4222  -28.8087   23.2993 O   0  0  0  0  0  0
  -28.2606  -26.1718   20.2384 O   0  0  0  0  0  0
  -26.5655  -34.8904   22.4639 O   0  0  0  0  0  0
  -23.5552  -32.1353   23.7137 O   0  0  0  0  0  0
  -29.5997  -19.9256   21.3663 C   0  0  0  0  0  0
  -29.9094  -18.5055   21.4998 C   0  0  0  0  0  0
  -29.0874  -18.1093   19.3281 C   0  0  0  0  0  0
  -28.9795  -20.5166   20.2126 C   0  0  0  0  0  0
  -29.6634  -17.5067   20.4918 C   0  0  0  0  0  0
  -28.7645  -19.5175   19.1953 C   0  0  0  0  0  0
  -26.9878  -22.3775   21.9471 C   0  0  0  0  0  0
  -28.2500  -23.2498   22.0354 C   0  0  0  0  0  0
  -27.0137  -21.7667   20.5369 C   0  0  0  0  0  0
  -28.7577  -23.3075   20.5922 C   0  0  2  0  0  0
  -28.0459  -24.6722   19.8971 C   0  0  0  0  0  0
  -28.3946  -21.8854   20.0758 N   0  0  0  0  0  0
  -29.6830  -15.9970   20.7294 N   0  0  0  0  0  0
  -28.1591  -19.9068   18.0458 F   0  0  0  0  0  0
  -31.4824  -12.7075   19.1927 H   0  0  0  0  0  0
  -30.4268  -11.5819   19.9966 H   0  0  0  0  0  0
  -29.8328  -11.7622   17.5528 H   0  0  0  0  0  0
  -29.6232  -13.4861   17.7171 H   0  0  0  0  0  0
  -27.9257  -11.2866   18.9324 H   0  0  0  0  0  0
  -27.3949  -12.5071   17.8063 H   0  0  0  0  0  0
  -27.6169  -14.2567   19.4522 H   0  0  0  0  0  0
  -28.7491  -12.2143   21.4270 H   0  0  0  0  0  0
  -28.3853  -13.8783   21.7999 H   0  0  0  0  0  0
  -25.2774   -9.5681   22.4747 H   0  0  0  0  0  0
  -24.0003   -7.4636   22.7474 H   0  0  0  0  0  0
  -21.0838   -8.8771   19.8953 H   0  0  0  0  0  0
  -22.3696  -10.9670   19.6158 H   0  0  0  0  0  0
  -21.2010   -7.6148   23.9712 H   0  0  0  0  0  0
  -21.1487   -6.0526   25.9081 H   0  0  0  0  0  0
  -22.0592   -2.7603   23.2845 H   0  0  0  0  0  0
  -22.4101  -11.9866   22.4818 H   0  0  0  0  0  0
  -21.1089  -13.1221   22.2648 H   0  0  0  0  0  0
  -24.6459  -15.8424   20.5279 H   0  0  0  0  0  0
  -26.2569  -15.6359   20.0669 H   0  0  0  0  0  0
  -26.7265  -32.5311   23.1003 H   0  0  0  0  0  0
  -25.0100  -33.9621   25.0343 H   0  0  0  0  0  0
  -22.7447  -31.2940   21.3855 H   0  0  0  0  0  0
  -23.3759  -35.9589   23.3292 H   0  0  0  0  0  0
  -24.3583  -36.8905   22.2057 H   0  0  0  0  0  0
  -23.7257  -37.6457   23.6678 H   0  0  0  0  0  0
  -26.1539  -31.4764   20.6182 H   0  0  0  0  0  0
  -26.8694  -30.7703   22.0322 H   0  0  0  0  0  0
  -28.1136  -28.7960   21.2623 H   0  0  0  0  0  0
  -25.9262  -25.9025   18.9103 H   0  0  0  0  0  0
  -23.9887  -27.3331   18.9337 H   0  0  0  0  0  0
  -23.8000  -30.5766   19.3994 H   0  0  0  0  0  0
  -22.7820  -29.2421   19.8451 H   0  0  0  0  0  0
  -25.1308  -36.1862   25.0811 H   0  0  0  0  0  0
  -20.9999  -28.3291   24.1355 H   0  0  0  0  0  0
  -20.5798  -26.2330   23.3581 H   0  0  0  0  0  0
  -21.6679  -26.7491   22.1108 H   0  0  0  0  0  0
  -19.6938  -25.6216   21.1318 H   0  0  0  0  0  0
  -19.6705  -27.3071   20.6684 H   0  0  0  0  0  0
  -17.4240  -26.6739   21.3953 H   0  0  0  0  0  0
  -18.0284  -26.0054   22.8952 H   0  0  0  0  0  0
  -19.7949  -30.7265   24.2274 H   0  0  0  0  0  0
  -17.5025  -31.6236   24.5200 H   0  0  0  0  0  0
  -15.5362  -30.2956   23.7649 H   0  0  0  0  0  0
  -15.8718  -28.0795   22.7036 H   0  0  0  0  0  0
  -24.5905  -30.7079   25.7742 H   0  0  0  0  0  0
  -24.8891  -32.2930   26.4767 H   0  0  0  0  0  0
  -25.8001  -30.8979   27.0236 H   0  0  0  0  0  0
  -26.3024  -29.6667   24.1291 H   0  0  0  0  0  0
  -27.4007  -29.7247   25.4865 H   0  0  0  0  0  0
  -27.8926  -30.4184   23.9613 H   0  0  0  0  0  0
  -27.2658  -33.3635   26.2020 H   0  0  0  0  0  0
  -28.3902  -32.6851   25.0347 H   0  0  0  0  0  0
  -28.0695  -31.8483   26.5471 H   0  0  0  0  0  0
  -28.2584  -38.0093   24.7497 H   0  0  0  0  0  0
  -28.1083  -36.2628   24.6302 H   0  0  0  0  0  0
  -27.2295  -37.1440   25.8868 H   0  0  0  0  0  0
  -20.9462  -29.8870   21.6881 H   0  0  0  0  0  0
  -26.0160  -38.2816   24.1396 H   0  0  0  0  0  0
  -29.7809  -20.5571   22.2224 H   0  0  0  0  0  0
  -30.2993  -18.1738   22.4519 H   0  0  0  0  0  0
  -28.8081  -17.4646   18.5084 H   0  0  0  0  0  0
  -26.0767  -22.9580   22.0962 H   0  0  0  0  0  0
  -27.0118  -21.5989   22.7115 H   0  0  0  0  0  0
  -28.9909  -22.7731   22.6773 H   0  0  0  0  0  0
  -28.0493  -24.2386   22.4519 H   0  0  0  0  0  0
  -26.3622  -22.3252   19.8634 H   0  0  0  0  0  0
  -26.6275  -20.7446   20.5489 H   0  0  0  0  0  0
  -29.8419  -23.4308   20.5755 H   0  0  0  0  0  0
  -28.2231  -24.6042   18.8238 H   0  0  0  0  0  0
  -26.9814  -24.4891   20.0179 H   0  0  0  0  0  0
  -28.7941  -15.6553   21.0630 H   0  0  0  0  0  0
  1 25  1  0  0  0
  1 30  2  0  0  0
  1 83  1  0  0  0
  2  3  1  0  0  0
  2 25  1  0  0  0
  2 85  1  0  0  0
  2 86  1  0  0  0
  3  4  1  0  0  0
  3 87  1  0  0  0
  3 88  1  0  0  0
  4  5  1  0  0  0
  4 89  1  0  0  0
  4 90  1  0  0  0
  5  6  1  0  0  0
  5 26  1  0  0  0
  5 91  1  0  0  0
  6 25  1  0  0  0
  6 92  1  0  0  0
  6 93  1  0  0  0
  7  8  2  0  0  0
  7 26  1  0  0  0
  7 29  1  0  0  0
  8  9  1  0  0  0
  8 22  1  0  0  0
  9 10  1  0  0  0
  9 27  2  0  0  0
 10 11  2  0  0  0
 10 15  1  0  0  0
 11 12  1  0  0  0
 11 94  1  0  0  0
 12 13  2  0  0  0
 12 95  1  0  0  0
 13 14  1  0  0  0
 13 31  1  0  0  0
 14 15  2  0  0  0
 14 96  1  0  0  0
 15 97  1  0  0  0
 16 17  2  0  0  0
 16 21  1  0  0  0
 16 31  1  0  0  0
 17 18  1  0  0  0
 17 98  1  0  0  0
 18 19  2  0  0  0
 18 99  1  0  0  0
 19 20  1  0  0  0
 19 24  1  0  0  0
 20 21  2  0  0  0
 20100  1  0  0  0
 21 23  1  0  0  0
 22 28  1  0  0  0
 22 32  2  0  0  0
 26 27  1  0  0  0
 28101  1  0  0  0
 28102  1  0  0  0
 29103  1  0  0  0
 29104  1  0  0  0
 33 34  1  0  0  0
 33 66  1  0  0  0
 33 70  2  0  0  0
 34 36  1  0  0  0
 34 59  1  0  0  0
 34105  1  0  0  0
 35 44  2  0  0  0
 35 45  1  0  0  0
 35 68  1  0  0  0
 36 56  1  0  0  0
 36106  1  0  0  0
 37 39  1  0  0  0
 37 47  1  0  0  0
 37 66  1  0  0  0
 37107  1  0  0  0
 38 43  2  0  0  0
 38 46  1  0  0  0
 38 47  1  0  0  0
 39 64  1  0  0  0
 39 67  2  0  0  0
 40 52  1  0  0  0
 40 53  2  0  0  0
 40 58  1  0  0  0
 41108  1  0  0  0
 41109  1  0  0  0
 41110  1  0  0  0
 41 48  1  0  0  0
 42 43  1  0  0  0
 42 66  1  0  0  0
 42111  1  0  0  0
 42112  1  0  0  0
 43 44  1  0  0  0
 44113  1  0  0  0
 45 46  2  0  0  0
 45114  1  0  0  0
 46115  1  0  0  0
 47116  1  0  0  0
 47117  1  0  0  0
 48 56  1  0  0  0
 48 65  1  0  0  0
 48118  1  0  0  0
 49 50  1  0  0  0
 49 53  1  0  0  0
 49 64  1  0  0  0
 49119  1  0  0  0
 50 51  1  0  0  0
 50120  1  0  0  0
 50121  1  0  0  0
 51 52  1  0  0  0
 51122  1  0  0  0
 51123  1  0  0  0
 52124  1  0  0  0
 52125  1  0  0  0
 53 54  1  0  0  0
 54 55  2  0  0  0
 54126  1  0  0  0
 55 57  1  0  0  0
 55127  1  0  0  0
 56 69  2  0  0  0
 57 58  2  0  0  0
 57128  1  0  0  0
 58129  1  0  0  0
 59 60  1  0  0  0
 59 61  1  0  0  0
 59 62  1  0  0  0
 60130  1  0  0  0
 60131  1  0  0  0
 60132  1  0  0  0
 61133  1  0  0  0
 61134  1  0  0  0
 61135  1  0  0  0
 62136  1  0  0  0
 62137  1  0  0  0
 62138  1  0  0  0
 63 65  1  0  0  0
 63139  1  0  0  0
 63140  1  0  0  0
 63141  1  0  0  0
 64142  1  0  0  0
 65143  1  0  0  0
 68 81  1  0  0  0
 71 72  2  0  0  0
 71 74  1  0  0  0
 71144  1  0  0  0
 72 75  1  0  0  0
 72145  1  0  0  0
 73 75  2  0  0  0
 73 76  1  0  0  0
 73146  1  0  0  0
 74 76  2  0  0  0
 74 82  1  0  0  0
 75 83  1  0  0  0
 76 84  1  0  0  0
 77 78  1  0  0  0
 77 79  1  0  0  0
 77147  1  0  0  0
 77148  1  0  0  0
 78 80  1  0  0  0
 78149  1  0  0  0
 78150  1  0  0  0
 79 82  1  0  0  0
 79151  1  0  0  0
 79152  1  0  0  0
 80 81  1  0  0  0
 80 82  1  0  0  0
 80153  1  0  0  0
 81154  1  0  0  0
 81155  1  0  0  0
 83156  1  0  0  0
M  ISO  4   1 100  68 101  81 101  83 100
M  END
> <chiral flag>
0

> <version>
0

> <s_m_source_file>
/data/baiqing/PycharmProjects/Reinvent-master-3.2/result/LINK_invent/BTK/process_docking_weight1_custom_product_contain_oxygen_bond_distance_aromatic_linkinvent_7_9_3/rearranged_h_0022.sdf

> <i_m_source_file_index>
80

> <r_mmod_Potential_Energy-OPLS-2005>
604.973327636719

> <r_mmod_Stretch_Energy-OPLS-2005>
213.610977172852

> <r_mmod_Bend_Energy-OPLS-2005>
295.256744384766

> <r_mmod_Torsional_Energy-OPLS-2005>
325.764038085938

> <r_mmod_Improper_Torsional_Energy-OPLS-2005>
12.984546661377

> <r_mmod_Van_der_Waal_Energy-OPLS-2005>
134.237396240234

> <r_mmod_Electrostatic_Energy-OPLS-2005>
-322.065826416016

> <r_mmod_Solvation_Energy-OPLS-2005>
-223.904541015625

> <b_mmod_Minimization_Converged-OPLS-2005>
0

> <r_mmod_RMS_Derivative-OPLS-2005>
1.20590484142303

$$$$
81
                    3D
 Structure written by MMmdl.
159168  0  0  1  0            999 V2000
  -30.6641  -14.6639   20.5024 C   0  0  0  0  0  0
  -30.4255  -12.4175   19.4505 C   0  0  0  0  0  0
  -29.4985  -12.5050   18.2200 C   0  0  0  0  0  0
  -28.0259  -12.3379   18.6411 C   0  0  0  0  0  0
  -27.6449  -13.2287   19.8547 C   0  0  2  0  0  0
  -28.6938  -13.1363   20.9852 C   0  0  0  0  0  0
  -25.2532  -13.8189   20.5723 C   0  0  0  0  0  0
  -24.1812  -13.0433   20.9206 C   0  0  0  0  0  0
  -24.6402  -11.6909   20.8758 C   0  0  0  0  0  0
  -23.9084  -10.4289   21.0416 C   0  0  0  0  0  0
  -24.3625   -9.4205   21.9198 C   0  0  0  0  0  0
  -23.6297   -8.2238   22.0766 C   0  0  0  0  0  0
  -22.4280   -8.0281   21.3546 C   0  0  0  0  0  0
  -21.9927   -9.0253   20.4647 C   0  0  0  0  0  0
  -22.7262  -10.2125   20.3058 C   0  0  0  0  0  0
  -21.6853   -6.0745   22.5280 C   0  0  0  0  0  0
  -21.4011   -6.5649   23.8214 C   0  0  0  0  0  0
  -21.3655   -5.6799   24.9176 C   0  0  0  0  0  0
  -21.6032   -4.3062   24.7231 C   0  0  0  0  0  0
  -21.8820   -3.8157   23.4356 C   0  0  0  0  0  0
  -21.9198   -4.6972   22.3409 C   0  0  0  0  0  0
  -22.7834  -13.5221   21.1866 C   0  0  0  0  0  0
  -22.1663   -4.2155   21.0991 F   0  0  0  0  0  0
  -21.5629   -3.4549   25.7750 F   0  0  0  0  0  0
  -29.9975  -13.4692   20.3966 N   0  0  0  0  0  0
  -26.2960  -12.9394   20.3334 N   0  0  0  0  0  0
  -25.9336  -11.6539   20.5784 N   0  0  0  0  0  0
  -22.0478  -12.8179   22.0393 N   0  0  0  0  0  0
  -25.4205  -15.1919   20.4175 N   0  0  0  0  0  0
  -31.8498  -14.7469   20.1742 O   0  0  0  0  0  0
  -21.6645   -6.8877   21.4233 O   0  0  0  0  0  0
  -22.3513  -14.5533   20.6737 O   0  0  0  0  0  0
  -24.6266  -31.8574   23.1963 C   0  0  0  0  0  0
  -25.9114  -32.4764   23.8322 C   0  0  1  0  0  0
  -27.2348  -27.3144   20.1260 C   0  0  0  0  0  0
  -25.5933  -33.8563   24.2265 N   0  0  0  0  0  0
  -23.4202  -30.4770   21.5400 C   0  0  2  0  0  0
  -24.8693  -28.9211   20.1152 C   0  0  0  0  0  0
  -22.7477  -29.4600   22.4923 C   0  0  0  0  0  0
  -18.0283  -28.1370   22.8481 C   0  0  0  0  0  0
  -24.1479  -36.7262   23.2645 C   0  0  0  0  0  0
  -25.9587  -30.7902   21.3595 C   0  0  0  0  0  0
  -26.0379  -29.4116   20.7133 C   0  0  0  0  0  0
  -27.2271  -28.6237   20.6977 C   0  0  0  0  0  0
  -26.0419  -26.8621   19.5278 C   0  0  0  0  0  0
  -24.8747  -27.6523   19.5110 C   0  0  0  0  0  0
  -23.6369  -29.8018   20.1596 C   0  0  0  0  0  0
  -25.4101  -36.3063   24.0333 C   0  0  1  0  0  0
  -20.5882  -28.3675   23.1279 C   0  0  2  0  0  0
  -20.6762  -26.9394   22.5396 C   0  0  0  0  0  0
  -19.5746  -26.6372   21.5194 C   0  0  0  0  0  0
  -18.1926  -26.7909   22.1609 C   0  0  0  0  0  0
  -19.1531  -28.8834   23.2883 C   0  0  0  0  0  0
  -18.9466  -30.1431   23.8914 C   0  0  0  0  0  0
  -17.6473  -30.6583   24.0556 C   0  0  0  0  0  0
  -25.9052  -34.9446   23.5091 C   0  0  0  0  0  0
  -16.5367  -29.9075   23.6336 C   0  0  0  0  0  0
  -16.7265  -28.6489   23.0364 C   0  0  0  0  0  0
  -26.4505  -31.6572   25.0695 C   0  0  0  0  0  0
  -25.3746  -31.3642   26.1425 C   0  0  0  0  0  0
  -27.0384  -30.3036   24.6087 C   0  0  0  0  0  0
  -27.6059  -32.4311   25.7487 C   0  0  0  0  0  0
  -27.5552  -37.1792   24.8482 C   0  0  0  0  0  0
  -21.4185  -29.3050   22.3696 N   0  0  0  0  0  0
  -26.4266  -37.3769   23.9426 N   0  0  0  0  0  0
  -24.6879  -31.0598   22.0901 N   0  0  0  0  0  0
  -23.4204  -28.8137   23.2994 O   0  0  0  0  0  0
  -28.3699  -26.4942   20.0907 O   0  0  0  0  0  0
  -26.5620  -34.8930   22.4657 O   0  0  0  0  0  0
  -23.5441  -32.1358   23.7309 O   0  0  0  0  0  0
  -31.2099  -19.5243   20.8166 C   0  0  0  0  0  0
  -30.9967  -20.9118   20.5977 C   0  0  0  0  0  0
  -28.6531  -20.5239   20.3434 C   0  0  0  0  0  0
  -30.1592  -18.5716   20.8306 C   0  0  0  0  0  0
  -29.7159  -21.4782   20.3522 C   0  0  0  0  0  0
  -28.8608  -19.1153   20.5801 C   0  0  0  0  0  0
  -29.9182  -24.2535   18.1459 C   0  0  0  0  0  0
  -28.4327  -24.0081   18.4067 C   0  0  0  0  0  0
  -30.6422  -23.4499   19.2361 C   0  0  0  0  0  0
  -28.3953  -23.7621   19.9124 C   0  0  2  0  0  0
  -30.5353  -17.1032   21.3091 C   0  0  0  0  0  0
  -28.3288  -25.1535   20.7277 C   0  0  0  0  0  0
  -29.6111  -22.9109   20.1328 N   0  0  0  0  0  0
  -29.9519  -15.7947   20.8294 N   0  0  0  0  0  0
  -27.4847  -18.0735   20.5974 Cl  0  0  0  0  0  0
  -31.4681  -12.5282   19.1455 H   0  0  0  0  0  0
  -30.3538  -11.4343   19.9185 H   0  0  0  0  0  0
  -29.7671  -11.7397   17.4904 H   0  0  0  0  0  0
  -29.6308  -13.4662   17.7197 H   0  0  0  0  0  0
  -27.8761  -11.2877   18.8937 H   0  0  0  0  0  0
  -27.3641  -12.5456   17.7984 H   0  0  0  0  0  0
  -27.6462  -14.2567   19.4899 H   0  0  0  0  0  0
  -28.7172  -12.1346   21.4155 H   0  0  0  0  0  0
  -28.4430  -13.8141   21.8035 H   0  0  0  0  0  0
  -25.2763   -9.5692   22.4783 H   0  0  0  0  0  0
  -24.0009   -7.4637   22.7489 H   0  0  0  0  0  0
  -21.0869   -8.8771   19.8944 H   0  0  0  0  0  0
  -22.3733  -10.9667   19.6165 H   0  0  0  0  0  0
  -21.1989   -7.6154   23.9715 H   0  0  0  0  0  0
  -21.1472   -6.0539   25.9077 H   0  0  0  0  0  0
  -22.0601   -2.7622   23.2862 H   0  0  0  0  0  0
  -22.4099  -11.9824   22.4746 H   0  0  0  0  0  0
  -21.1078  -13.1179   22.2588 H   0  0  0  0  0  0
  -24.6557  -15.8438   20.5491 H   0  0  0  0  0  0
  -26.2789  -15.6476   20.1333 H   0  0  0  0  0  0
  -26.7181  -32.5457   23.1073 H   0  0  0  0  0  0
  -25.0171  -33.9704   25.0471 H   0  0  0  0  0  0
  -22.7168  -31.2994   21.3923 H   0  0  0  0  0  0
  -23.3763  -35.9585   23.3321 H   0  0  0  0  0  0
  -24.3571  -36.8857   22.2063 H   0  0  0  0  0  0
  -23.7214  -37.6456   23.6659 H   0  0  0  0  0  0
  -26.0790  -31.5441   20.5797 H   0  0  0  0  0  0
  -26.8438  -30.8536   21.9811 H   0  0  0  0  0  0
  -28.1325  -29.0064   21.1475 H   0  0  0  0  0  0
  -26.0115  -25.8846   19.0686 H   0  0  0  0  0  0
  -23.9801  -27.2693   19.0389 H   0  0  0  0  0  0
  -23.7537  -30.5746   19.3987 H   0  0  0  0  0  0
  -22.7582  -29.2284   19.8579 H   0  0  0  0  0  0
  -25.1271  -36.1902   25.0823 H   0  0  0  0  0  0
  -20.9973  -28.3227   24.1398 H   0  0  0  0  0  0
  -20.5648  -26.2281   23.3590 H   0  0  0  0  0  0
  -21.6633  -26.7410   22.1206 H   0  0  0  0  0  0
  -19.6914  -25.6281   21.1220 H   0  0  0  0  0  0
  -19.6682  -27.3205   20.6741 H   0  0  0  0  0  0
  -17.4184  -26.6673   21.4016 H   0  0  0  0  0  0
  -18.0328  -26.0032   22.8983 H   0  0  0  0  0  0
  -19.7950  -30.7223   24.2321 H   0  0  0  0  0  0
  -17.5039  -31.6280   24.5128 H   0  0  0  0  0  0
  -15.5381  -30.3001   23.7644 H   0  0  0  0  0  0
  -15.8654  -28.0811   22.7100 H   0  0  0  0  0  0
  -24.5991  -30.6906   25.7735 H   0  0  0  0  0  0
  -24.8868  -32.2773   26.4855 H   0  0  0  0  0  0
  -25.8103  -30.8840   27.0197 H   0  0  0  0  0  0
  -26.2949  -29.6755   24.1170 H   0  0  0  0  0  0
  -27.4221  -29.7297   25.4533 H   0  0  0  0  0  0
  -27.8729  -30.4394   23.9202 H   0  0  0  0  0  0
  -27.2688  -33.3664   26.1969 H   0  0  0  0  0  0
  -28.3937  -32.6766   25.0347 H   0  0  0  0  0  0
  -28.0644  -31.8479   26.5484 H   0  0  0  0  0  0
  -28.2565  -38.0098   24.7544 H   0  0  0  0  0  0
  -28.1045  -36.2624   24.6283 H   0  0  0  0  0  0
  -27.2277  -37.1392   25.8890 H   0  0  0  0  0  0
  -20.9367  -29.8819   21.6944 H   0  0  0  0  0  0
  -26.0134  -38.2830   24.1470 H   0  0  0  0  0  0
  -32.2202  -19.2012   21.0257 H   0  0  0  0  0  0
  -31.8665  -21.5523   20.6434 H   0  0  0  0  0  0
  -27.6459  -20.8667   20.1637 H   0  0  0  0  0  0
  -30.1497  -25.3140   18.2583 H   0  0  0  0  0  0
  -30.2147  -23.9575   17.1382 H   0  0  0  0  0  0
  -28.1056  -23.1126   17.8778 H   0  0  0  0  0  0
  -27.8019  -24.8322   18.0786 H   0  0  0  0  0  0
  -31.3383  -24.0823   19.7893 H   0  0  0  0  0  0
  -31.2273  -22.6646   18.7543 H   0  0  0  0  0  0
  -27.5045  -23.1846   20.1638 H   0  0  0  0  0  0
  -30.3507  -17.1122   22.3836 H   0  0  0  0  0  0
  -31.6204  -17.0232   21.2320 H   0  0  0  0  0  0
  -29.1579  -25.1546   21.4343 H   0  0  0  0  0  0
  -27.4476  -25.1110   21.3699 H   0  0  0  0  0  0
  -28.9631  -15.6681   20.9811 H   0  0  0  0  0  0
  1 25  1  0  0  0
  1 30  2  0  0  0
  1 84  1  0  0  0
  2  3  1  0  0  0
  2 25  1  0  0  0
  2 86  1  0  0  0
  2 87  1  0  0  0
  3  4  1  0  0  0
  3 88  1  0  0  0
  3 89  1  0  0  0
  4  5  1  0  0  0
  4 90  1  0  0  0
  4 91  1  0  0  0
  5  6  1  0  0  0
  5 26  1  0  0  0
  5 92  1  0  0  0
  6 25  1  0  0  0
  6 93  1  0  0  0
  6 94  1  0  0  0
  7  8  2  0  0  0
  7 26  1  0  0  0
  7 29  1  0  0  0
  8  9  1  0  0  0
  8 22  1  0  0  0
  9 10  1  0  0  0
  9 27  2  0  0  0
 10 11  2  0  0  0
 10 15  1  0  0  0
 11 12  1  0  0  0
 11 95  1  0  0  0
 12 13  2  0  0  0
 12 96  1  0  0  0
 13 14  1  0  0  0
 13 31  1  0  0  0
 14 15  2  0  0  0
 14 97  1  0  0  0
 15 98  1  0  0  0
 16 17  2  0  0  0
 16 21  1  0  0  0
 16 31  1  0  0  0
 17 18  1  0  0  0
 17 99  1  0  0  0
 18 19  2  0  0  0
 18100  1  0  0  0
 19 20  1  0  0  0
 19 24  1  0  0  0
 20 21  2  0  0  0
 20101  1  0  0  0
 21 23  1  0  0  0
 22 28  1  0  0  0
 22 32  2  0  0  0
 26 27  1  0  0  0
 28102  1  0  0  0
 28103  1  0  0  0
 29104  1  0  0  0
 29105  1  0  0  0
 33 34  1  0  0  0
 33 66  1  0  0  0
 33 70  2  0  0  0
 34 36  1  0  0  0
 34 59  1  0  0  0
 34106  1  0  0  0
 35 44  2  0  0  0
 35 45  1  0  0  0
 35 68  1  0  0  0
 36 56  1  0  0  0
 36107  1  0  0  0
 37 39  1  0  0  0
 37 47  1  0  0  0
 37 66  1  0  0  0
 37108  1  0  0  0
 38 43  2  0  0  0
 38 46  1  0  0  0
 38 47  1  0  0  0
 39 64  1  0  0  0
 39 67  2  0  0  0
 40 52  1  0  0  0
 40 53  2  0  0  0
 40 58  1  0  0  0
 41109  1  0  0  0
 41110  1  0  0  0
 41111  1  0  0  0
 41 48  1  0  0  0
 42 43  1  0  0  0
 42 66  1  0  0  0
 42112  1  0  0  0
 42113  1  0  0  0
 43 44  1  0  0  0
 44114  1  0  0  0
 45 46  2  0  0  0
 45115  1  0  0  0
 46116  1  0  0  0
 47117  1  0  0  0
 47118  1  0  0  0
 48 56  1  0  0  0
 48 65  1  0  0  0
 48119  1  0  0  0
 49 50  1  0  0  0
 49 53  1  0  0  0
 49 64  1  0  0  0
 49120  1  0  0  0
 50 51  1  0  0  0
 50121  1  0  0  0
 50122  1  0  0  0
 51 52  1  0  0  0
 51123  1  0  0  0
 51124  1  0  0  0
 52125  1  0  0  0
 52126  1  0  0  0
 53 54  1  0  0  0
 54 55  2  0  0  0
 54127  1  0  0  0
 55 57  1  0  0  0
 55128  1  0  0  0
 56 69  2  0  0  0
 57 58  2  0  0  0
 57129  1  0  0  0
 58130  1  0  0  0
 59 60  1  0  0  0
 59 61  1  0  0  0
 59 62  1  0  0  0
 60131  1  0  0  0
 60132  1  0  0  0
 60133  1  0  0  0
 61134  1  0  0  0
 61135  1  0  0  0
 61136  1  0  0  0
 62137  1  0  0  0
 62138  1  0  0  0
 62139  1  0  0  0
 63 65  1  0  0  0
 63140  1  0  0  0
 63141  1  0  0  0
 63142  1  0  0  0
 64143  1  0  0  0
 65144  1  0  0  0
 68 82  1  0  0  0
 71 72  2  0  0  0
 71 74  1  0  0  0
 71145  1  0  0  0
 72 75  1  0  0  0
 72146  1  0  0  0
 73 75  2  0  0  0
 73 76  1  0  0  0
 73147  1  0  0  0
 74 76  2  0  0  0
 74 81  1  0  0  0
 75 83  1  0  0  0
 76 85  1  0  0  0
 77 78  1  0  0  0
 77 79  1  0  0  0
 77148  1  0  0  0
 77149  1  0  0  0
 78 80  1  0  0  0
 78150  1  0  0  0
 78151  1  0  0  0
 79 83  1  0  0  0
 79152  1  0  0  0
 79153  1  0  0  0
 80 82  1  0  0  0
 80 83  1  0  0  0
 80154  1  0  0  0
 81 84  1  0  0  0
 81155  1  0  0  0
 81156  1  0  0  0
 82157  1  0  0  0
 82158  1  0  0  0
 84159  1  0  0  0
M  ISO  4   1 100  68 101  82 101  84 100
M  END
> <chiral flag>
0

> <version>
0

> <s_m_source_file>
/data/baiqing/PycharmProjects/Reinvent-master-3.2/result/LINK_invent/BTK/process_docking_weight1_custom_product_contain_oxygen_bond_distance_aromatic_linkinvent_7_9_3/rearranged_h_0022.sdf

> <i_m_source_file_index>
81

> <r_mmod_Potential_Energy-OPLS-2005>
215.63020324707

> <r_mmod_Stretch_Energy-OPLS-2005>
92.163818359375

> <r_mmod_Bend_Energy-OPLS-2005>
218.693939208984

> <r_mmod_Torsional_Energy-OPLS-2005>
307.670196533203

> <r_mmod_Improper_Torsional_Energy-OPLS-2005>
8.10620307922363

> <r_mmod_Van_der_Waal_Energy-OPLS-2005>
135.681396484375

> <r_mmod_Electrostatic_Energy-OPLS-2005>
-385.627410888672

> <r_mmod_Solvation_Energy-OPLS-2005>
-213.619842529297

> <b_mmod_Minimization_Converged-OPLS-2005>
0

> <r_mmod_RMS_Derivative-OPLS-2005>
2.44960927963257

$$$$
82
                    3D
 Structure written by MMmdl.
161169  0  0  1  0            999 V2000
  -30.7345  -14.4866   20.5919 C   0  0  0  0  0  0
  -30.4167  -12.3299   19.4208 C   0  0  0  0  0  0
  -29.4864  -12.5026   18.2046 C   0  0  0  0  0  0
  -28.0129  -12.3413   18.6237 C   0  0  0  0  0  0
  -27.6522  -13.1971   19.8650 C   0  0  2  0  0  0
  -28.6993  -13.0223   20.9897 C   0  0  0  0  0  0
  -25.2567  -13.8128   20.5679 C   0  0  0  0  0  0
  -24.1820  -13.0421   20.9197 C   0  0  0  0  0  0
  -24.6368  -11.6885   20.8758 C   0  0  0  0  0  0
  -23.9038  -10.4279   21.0421 C   0  0  0  0  0  0
  -24.3598   -9.4195   21.9192 C   0  0  0  0  0  0
  -23.6279   -8.2228   22.0756 C   0  0  0  0  0  0
  -22.4263   -8.0267   21.3543 C   0  0  0  0  0  0
  -21.9894   -9.0241   20.4648 C   0  0  0  0  0  0
  -22.7217  -10.2124   20.3063 C   0  0  0  0  0  0
  -21.6846   -6.0728   22.5280 C   0  0  0  0  0  0
  -21.4009   -6.5637   23.8213 C   0  0  0  0  0  0
  -21.3658   -5.6791   24.9176 C   0  0  0  0  0  0
  -21.6044   -4.3054   24.7227 C   0  0  0  0  0  0
  -21.8819   -3.8144   23.4349 C   0  0  0  0  0  0
  -21.9191   -4.6958   22.3405 C   0  0  0  0  0  0
  -22.7849  -13.5232   21.1855 C   0  0  0  0  0  0
  -22.1660   -4.2145   21.0981 F   0  0  0  0  0  0
  -21.5631   -3.4540   25.7741 F   0  0  0  0  0  0
  -30.0265  -13.3295   20.4309 N   0  0  0  0  0  0
  -26.2978  -12.9270   20.3343 N   0  0  0  0  0  0
  -25.9288  -11.6448   20.5780 N   0  0  0  0  0  0
  -22.0485  -12.8230   22.0412 N   0  0  0  0  0  0
  -25.4270  -15.1844   20.4052 N   0  0  0  0  0  0
  -31.8592  -14.6354   20.1038 O   0  0  0  0  0  0
  -21.6630   -6.8866   21.4239 O   0  0  0  0  0  0
  -22.3546  -14.5542   20.6705 O   0  0  0  0  0  0
  -24.6161  -31.8666   23.2101 C   0  0  0  0  0  0
  -25.9050  -32.4811   23.8392 C   0  0  1  0  0  0
  -27.2305  -27.4154   20.0962 C   0  0  0  0  0  0
  -25.5905  -33.8612   24.2324 N   0  0  0  0  0  0
  -23.4039  -30.4920   21.5509 C   0  0  2  0  0  0
  -24.8485  -28.9586   20.1132 C   0  0  0  0  0  0
  -22.7414  -29.4653   22.4981 C   0  0  0  0  0  0
  -18.0274  -28.1370   22.8491 C   0  0  0  0  0  0
  -24.1487  -36.7316   23.2637 C   0  0  0  0  0  0
  -25.9348  -30.8281   21.3640 C   0  0  0  0  0  0
  -26.0110  -29.4620   20.7091 C   0  0  0  0  0  0
  -27.2041  -28.7000   20.6940 C   0  0  0  0  0  0
  -26.0448  -26.9348   19.4903 C   0  0  0  0  0  0
  -24.8619  -27.6959   19.4997 C   0  0  0  0  0  0
  -23.6121  -29.8278   20.1644 C   0  0  0  0  0  0
  -25.4105  -36.3105   24.0335 C   0  0  1  0  0  0
  -20.5865  -28.3658   23.1310 C   0  0  2  0  0  0
  -20.6765  -26.9393   22.5412 C   0  0  0  0  0  0
  -19.5745  -26.6379   21.5206 C   0  0  0  0  0  0
  -18.1922  -26.7914   22.1621 C   0  0  0  0  0  0
  -19.1525  -28.8832   23.2898 C   0  0  0  0  0  0
  -18.9454  -30.1444   23.8900 C   0  0  0  0  0  0
  -17.6454  -30.6577   24.0569 C   0  0  0  0  0  0
  -25.9032  -34.9470   23.5125 C   0  0  0  0  0  0
  -16.5348  -29.9079   23.6328 C   0  0  0  0  0  0
  -16.7265  -28.6500   23.0338 C   0  0  0  0  0  0
  -26.4478  -31.6589   25.0720 C   0  0  0  0  0  0
  -25.3748  -31.3692   26.1472 C   0  0  0  0  0  0
  -27.0313  -30.3033   24.6095 C   0  0  0  0  0  0
  -27.6054  -32.4308   25.7479 C   0  0  0  0  0  0
  -27.5579  -37.1810   24.8465 C   0  0  0  0  0  0
  -21.4141  -29.3032   22.3723 N   0  0  0  0  0  0
  -26.4292  -37.3787   23.9408 N   0  0  0  0  0  0
  -24.6702  -31.0763   22.1000 N   0  0  0  0  0  0
  -23.4184  -28.8183   23.3017 O   0  0  0  0  0  0
  -28.3981  -26.6696   20.1254 O   0  0  0  0  0  0
  -26.5592  -34.8924   22.4685 O   0  0  0  0  0  0
  -23.5353  -32.1421   23.7491 O   0  0  0  0  0  0
  -29.7435  -19.9937   19.8569 C   0  0  0  0  0  0
  -28.5722  -18.5312   21.9432 C   0  0  0  0  0  0
  -29.7779  -18.5749   19.8328 C   0  0  0  0  0  0
  -29.1715  -17.8249   20.8758 C   0  0  0  0  0  0
  -29.1137  -20.6961   20.9128 C   0  0  0  0  0  0
  -28.5429  -19.9422   21.9633 C   0  0  0  0  0  0
  -30.4440  -17.8796   18.6577 C   0  0  0  0  0  0
  -31.0317  -16.1369   22.3467 C   0  0  0  0  0  0
  -29.0595  -16.2851   20.8349 C   0  0  0  0  0  0
  -29.5880  -24.5000   20.3154 C   0  0  0  0  0  0
  -29.6386  -22.9837   19.9666 C   0  0  0  0  0  0
  -28.2940  -25.2461   19.9113 C   0  0  0  0  0  0
  -29.0176  -22.1064   20.9646 N   0  0  0  0  0  0
  -30.1858  -15.4711   21.3517 N   0  0  0  0  0  0
  -27.9413  -20.5830   22.9965 F   0  0  0  0  0  0
  -31.4592  -12.4242   19.1117 H   0  0  0  0  0  0
  -30.3237  -11.3248   19.8355 H   0  0  0  0  0  0
  -29.7361  -11.7737   17.4326 H   0  0  0  0  0  0
  -29.6378  -13.4863   17.7573 H   0  0  0  0  0  0
  -27.8435  -11.2860   18.8407 H   0  0  0  0  0  0
  -27.3540  -12.5887   17.7905 H   0  0  0  0  0  0
  -27.6691  -14.2287   19.5272 H   0  0  0  0  0  0
  -28.6890  -11.9965   21.3609 H   0  0  0  0  0  0
  -28.4535  -13.6442   21.8508 H   0  0  0  0  0  0
  -25.2743   -9.5674   22.4766 H   0  0  0  0  0  0
  -23.9992   -7.4619   22.7472 H   0  0  0  0  0  0
  -21.0828   -8.8754   19.8951 H   0  0  0  0  0  0
  -22.3675  -10.9664   19.6174 H   0  0  0  0  0  0
  -21.1998   -7.6144   23.9715 H   0  0  0  0  0  0
  -21.1482   -6.0523   25.9078 H   0  0  0  0  0  0
  -22.0601   -2.7607   23.2852 H   0  0  0  0  0  0
  -22.4092  -11.9890   22.4803 H   0  0  0  0  0  0
  -21.1104  -13.1262   22.2614 H   0  0  0  0  0  0
  -24.6545  -15.8333   20.5080 H   0  0  0  0  0  0
  -26.2656  -15.6247   20.0516 H   0  0  0  0  0  0
  -26.7118  -32.5516   23.1149 H   0  0  0  0  0  0
  -25.0073  -33.9773   25.0481 H   0  0  0  0  0  0
  -22.6935  -31.3098   21.4132 H   0  0  0  0  0  0
  -23.3740  -35.9658   23.3304 H   0  0  0  0  0  0
  -24.3582  -36.8923   22.2052 H   0  0  0  0  0  0
  -23.7253  -37.6528   23.6650 H   0  0  0  0  0  0
  -26.0486  -31.5941   20.5956 H   0  0  0  0  0  0
  -26.8221  -30.8803   21.9829 H   0  0  0  0  0  0
  -28.1015  -29.0859   21.1571 H   0  0  0  0  0  0
  -26.0099  -25.9715   19.0032 H   0  0  0  0  0  0
  -23.9688  -27.3041   19.0332 H   0  0  0  0  0  0
  -23.7220  -30.6049   19.4068 H   0  0  0  0  0  0
  -22.7344  -29.2511   19.8672 H   0  0  0  0  0  0
  -25.1279  -36.1964   25.0826 H   0  0  0  0  0  0
  -20.9966  -28.3221   24.1427 H   0  0  0  0  0  0
  -20.5665  -26.2264   23.3598 H   0  0  0  0  0  0
  -21.6636  -26.7428   22.1206 H   0  0  0  0  0  0
  -19.6907  -25.6294   21.1227 H   0  0  0  0  0  0
  -19.6684  -27.3202   20.6747 H   0  0  0  0  0  0
  -17.4193  -26.6670   21.4021 H   0  0  0  0  0  0
  -18.0324  -26.0047   22.9008 H   0  0  0  0  0  0
  -19.7932  -30.7270   24.2254 H   0  0  0  0  0  0
  -17.5008  -31.6255   24.5175 H   0  0  0  0  0  0
  -15.5349  -30.2985   23.7642 H   0  0  0  0  0  0
  -15.8665  -28.0833   22.7024 H   0  0  0  0  0  0
  -24.5925  -30.7026   25.7820 H   0  0  0  0  0  0
  -24.8936  -32.2846   26.4929 H   0  0  0  0  0  0
  -25.8106  -30.8866   27.0228 H   0  0  0  0  0  0
  -26.2860  -29.6783   24.1161 H   0  0  0  0  0  0
  -27.4105  -29.7271   25.4544 H   0  0  0  0  0  0
  -27.8680  -30.4353   23.9229 H   0  0  0  0  0  0
  -27.2675  -33.3599   26.2079 H   0  0  0  0  0  0
  -28.3853  -32.6876   25.0299 H   0  0  0  0  0  0
  -28.0736  -31.8418   26.5374 H   0  0  0  0  0  0
  -28.2597  -38.0108   24.7506 H   0  0  0  0  0  0
  -28.1076  -36.2637   24.6291 H   0  0  0  0  0  0
  -27.2302  -37.1463   25.8871 H   0  0  0  0  0  0
  -20.9294  -29.8775   21.6968 H   0  0  0  0  0  0
  -26.0178  -38.2862   24.1409 H   0  0  0  0  0  0
  -30.1936  -20.5387   19.0402 H   0  0  0  0  0  0
  -28.1010  -17.9902   22.7508 H   0  0  0  0  0  0
  -30.9654  -18.5903   18.0161 H   0  0  0  0  0  0
  -29.7040  -17.3627   18.0460 H   0  0  0  0  0  0
  -31.1783  -17.1528   19.0037 H   0  0  0  0  0  0
  -30.4268  -16.6065   23.1223 H   0  0  0  0  0  0
  -31.6510  -16.9040   21.8795 H   0  0  0  0  0  0
  -31.6960  -15.4265   22.8426 H   0  0  0  0  0  0
  -28.8509  -16.0152   19.8000 H   0  0  0  0  0  0
  -28.1679  -15.9950   21.3916 H   0  0  0  0  0  0
  -30.4082  -24.9808   19.7803 H   0  0  0  0  0  0
  -29.8025  -24.6560   21.3731 H   0  0  0  0  0  0
  -30.6871  -22.6929   19.8804 H   0  0  0  0  0  0
  -29.1918  -22.8100   18.9860 H   0  0  0  0  0  0
  -27.4629  -24.8338   20.4861 H   0  0  0  0  0  0
  -28.0896  -25.0587   18.8561 H   0  0  0  0  0  0
  -28.5886  -22.5113   21.7932 H   0  0  0  0  0  0
  1 25  1  0  0  0
  1 30  2  0  0  0
  1 84  1  0  0  0
  2  3  1  0  0  0
  2 25  1  0  0  0
  2 86  1  0  0  0
  2 87  1  0  0  0
  3  4  1  0  0  0
  3 88  1  0  0  0
  3 89  1  0  0  0
  4  5  1  0  0  0
  4 90  1  0  0  0
  4 91  1  0  0  0
  5  6  1  0  0  0
  5 26  1  0  0  0
  5 92  1  0  0  0
  6 25  1  0  0  0
  6 93  1  0  0  0
  6 94  1  0  0  0
  7  8  2  0  0  0
  7 26  1  0  0  0
  7 29  1  0  0  0
  8  9  1  0  0  0
  8 22  1  0  0  0
  9 10  1  0  0  0
  9 27  2  0  0  0
 10 11  2  0  0  0
 10 15  1  0  0  0
 11 12  1  0  0  0
 11 95  1  0  0  0
 12 13  2  0  0  0
 12 96  1  0  0  0
 13 14  1  0  0  0
 13 31  1  0  0  0
 14 15  2  0  0  0
 14 97  1  0  0  0
 15 98  1  0  0  0
 16 17  2  0  0  0
 16 21  1  0  0  0
 16 31  1  0  0  0
 17 18  1  0  0  0
 17 99  1  0  0  0
 18 19  2  0  0  0
 18100  1  0  0  0
 19 20  1  0  0  0
 19 24  1  0  0  0
 20 21  2  0  0  0
 20101  1  0  0  0
 21 23  1  0  0  0
 22 28  1  0  0  0
 22 32  2  0  0  0
 26 27  1  0  0  0
 28102  1  0  0  0
 28103  1  0  0  0
 29104  1  0  0  0
 29105  1  0  0  0
 33 34  1  0  0  0
 33 66  1  0  0  0
 33 70  2  0  0  0
 34 36  1  0  0  0
 34 59  1  0  0  0
 34106  1  0  0  0
 35 44  2  0  0  0
 35 45  1  0  0  0
 35 68  1  0  0  0
 36 56  1  0  0  0
 36107  1  0  0  0
 37 39  1  0  0  0
 37 47  1  0  0  0
 37 66  1  0  0  0
 37108  1  0  0  0
 38 43  2  0  0  0
 38 46  1  0  0  0
 38 47  1  0  0  0
 39 64  1  0  0  0
 39 67  2  0  0  0
 40 52  1  0  0  0
 40 53  2  0  0  0
 40 58  1  0  0  0
 41109  1  0  0  0
 41110  1  0  0  0
 41111  1  0  0  0
 41 48  1  0  0  0
 42 43  1  0  0  0
 42 66  1  0  0  0
 42112  1  0  0  0
 42113  1  0  0  0
 43 44  1  0  0  0
 44114  1  0  0  0
 45 46  2  0  0  0
 45115  1  0  0  0
 46116  1  0  0  0
 47117  1  0  0  0
 47118  1  0  0  0
 48 56  1  0  0  0
 48 65  1  0  0  0
 48119  1  0  0  0
 49 50  1  0  0  0
 49 53  1  0  0  0
 49 64  1  0  0  0
 49120  1  0  0  0
 50 51  1  0  0  0
 50121  1  0  0  0
 50122  1  0  0  0
 51 52  1  0  0  0
 51123  1  0  0  0
 51124  1  0  0  0
 52125  1  0  0  0
 52126  1  0  0  0
 53 54  1  0  0  0
 54 55  2  0  0  0
 54127  1  0  0  0
 55 57  1  0  0  0
 55128  1  0  0  0
 56 69  2  0  0  0
 57 58  2  0  0  0
 57129  1  0  0  0
 58130  1  0  0  0
 59 60  1  0  0  0
 59 61  1  0  0  0
 59 62  1  0  0  0
 60131  1  0  0  0
 60132  1  0  0  0
 60133  1  0  0  0
 61134  1  0  0  0
 61135  1  0  0  0
 61136  1  0  0  0
 62137  1  0  0  0
 62138  1  0  0  0
 62139  1  0  0  0
 63 65  1  0  0  0
 63140  1  0  0  0
 63141  1  0  0  0
 63142  1  0  0  0
 64143  1  0  0  0
 65144  1  0  0  0
 68 82  1  0  0  0
 71 73  2  0  0  0
 71 75  1  0  0  0
 71145  1  0  0  0
 72 74  2  0  0  0
 72 76  1  0  0  0
 72146  1  0  0  0
 73 74  1  0  0  0
 73 77  1  0  0  0
 74 79  1  0  0  0
 75 76  2  0  0  0
 75 83  1  0  0  0
 76 85  1  0  0  0
 77147  1  0  0  0
 77148  1  0  0  0
 77149  1  0  0  0
 78 84  1  0  0  0
 78150  1  0  0  0
 78151  1  0  0  0
 78152  1  0  0  0
 79 84  1  0  0  0
 79153  1  0  0  0
 79154  1  0  0  0
 80 81  1  0  0  0
 80 82  1  0  0  0
 80155  1  0  0  0
 80156  1  0  0  0
 81 83  1  0  0  0
 81157  1  0  0  0
 81158  1  0  0  0
 82159  1  0  0  0
 82160  1  0  0  0
 83161  1  0  0  0
M  ISO  4   1 100  68 101  82 101  84 100
M  END
> <chiral flag>
0

> <version>
0

> <s_m_source_file>
/data/baiqing/PycharmProjects/Reinvent-master-3.2/result/LINK_invent/BTK/process_docking_weight1_custom_product_contain_oxygen_bond_distance_aromatic_linkinvent_7_9_3/rearranged_h_0022.sdf

> <i_m_source_file_index>
82

> <r_mmod_Potential_Energy-OPLS-2005>
113.77010345459

> <r_mmod_Stretch_Energy-OPLS-2005>
43.2108688354492

> <r_mmod_Bend_Energy-OPLS-2005>
114.917472839355

> <r_mmod_Torsional_Energy-OPLS-2005>
263.360900878906

> <r_mmod_Improper_Torsional_Energy-OPLS-2005>
4.08108425140381

> <r_mmod_Van_der_Waal_Energy-OPLS-2005>
152.241912841797

> <r_mmod_Electrostatic_Energy-OPLS-2005>
-283.057739257812

> <r_mmod_Solvation_Energy-OPLS-2005>
-197.154876708984

> <b_mmod_Minimization_Converged-OPLS-2005>
0

> <r_mmod_RMS_Derivative-OPLS-2005>
0.651525616645813

$$$$
83
                    3D
 Structure written by MMmdl.
153162  0  0  1  0            999 V2000
  -30.5190  -15.0414   20.4094 C   0  0  0  0  0  0
  -30.4388  -12.6555   19.4955 C   0  0  0  0  0  0
  -29.5209  -12.5364   18.2567 C   0  0  0  0  0  0
  -28.0596  -12.3033   18.6838 C   0  0  0  0  0  0
  -27.6210  -13.2548   19.8273 C   0  0  2  0  0  0
  -28.6646  -13.3355   20.9603 C   0  0  0  0  0  0
  -25.2440  -13.8222   20.5727 C   0  0  0  0  0  0
  -24.1768  -13.0436   20.9240 C   0  0  0  0  0  0
  -24.6399  -11.6925   20.8768 C   0  0  0  0  0  0
  -23.9089  -10.4294   21.0419 C   0  0  0  0  0  0
  -24.3636   -9.4205   21.9193 C   0  0  0  0  0  0
  -23.6304   -8.2241   22.0757 C   0  0  0  0  0  0
  -22.4283   -8.0287   21.3547 C   0  0  0  0  0  0
  -21.9929   -9.0263   20.4648 C   0  0  0  0  0  0
  -22.7264  -10.2137   20.3063 C   0  0  0  0  0  0
  -21.6852   -6.0746   22.5282 C   0  0  0  0  0  0
  -21.4014   -6.5648   23.8216 C   0  0  0  0  0  0
  -21.3656   -5.6798   24.9176 C   0  0  0  0  0  0
  -21.6042   -4.3060   24.7225 C   0  0  0  0  0  0
  -21.8819   -3.8155   23.4345 C   0  0  0  0  0  0
  -21.9192   -4.6975   22.3403 C   0  0  0  0  0  0
  -22.7787  -13.5203   21.1889 C   0  0  0  0  0  0
  -22.1661   -4.2161   21.0981 F   0  0  0  0  0  0
  -21.5624   -3.4541   25.7735 F   0  0  0  0  0  0
  -29.9211  -13.7753   20.3410 N   0  0  0  0  0  0
  -26.2855  -12.9464   20.3226 N   0  0  0  0  0  0
  -25.9329  -11.6588   20.5734 N   0  0  0  0  0  0
  -22.0440  -12.8188   22.0442 N   0  0  0  0  0  0
  -25.4095  -15.1954   20.4159 N   0  0  0  0  0  0
  -31.7387  -15.0617   20.2060 O   0  0  0  0  0  0
  -21.6640   -6.8889   21.4245 O   0  0  0  0  0  0
  -22.3473  -14.5508   20.6729 O   0  0  0  0  0  0
  -24.6500  -31.8384   23.1830 C   0  0  0  0  0  0
  -25.9246  -32.4667   23.8243 C   0  0  1  0  0  0
  -27.2119  -27.0707   20.1685 C   0  0  0  0  0  0
  -25.5970  -33.8474   24.2158 N   0  0  0  0  0  0
  -23.4571  -30.4558   21.5302 C   0  0  2  0  0  0
  -24.9072  -28.8681   20.1153 C   0  0  0  0  0  0
  -22.7600  -29.4525   22.4844 C   0  0  0  0  0  0
  -18.0310  -28.1401   22.8481 C   0  0  0  0  0  0
  -24.1492  -36.7239   23.2645 C   0  0  0  0  0  0
  -26.0181  -30.6912   21.3916 C   0  0  0  0  0  0
  -26.0885  -29.2946   20.7368 C   0  0  0  0  0  0
  -27.2451  -28.4151   20.7402 C   0  0  0  0  0  0
  -26.0061  -26.7608   19.5070 C   0  0  0  0  0  0
  -24.8821  -27.6164   19.4819 C   0  0  0  0  0  0
  -23.6877  -29.7796   20.1526 C   0  0  0  0  0  0
  -25.4125  -36.3013   24.0313 C   0  0  1  0  0  0
  -20.5928  -28.3732   23.1223 C   0  0  2  0  0  0
  -20.6793  -26.9431   22.5402 C   0  0  0  0  0  0
  -19.5765  -26.6380   21.5217 C   0  0  0  0  0  0
  -18.1946  -26.7940   22.1625 C   0  0  0  0  0  0
  -19.1569  -28.8884   23.2842 C   0  0  0  0  0  0
  -18.9483  -30.1480   23.8869 C   0  0  0  0  0  0
  -17.6478  -30.6595   24.0559 C   0  0  0  0  0  0
  -25.9082  -34.9393   23.5044 C   0  0  0  0  0  0
  -16.5369  -29.9086   23.6340 C   0  0  0  0  0  0
  -16.7294  -28.6503   23.0365 C   0  0  0  0  0  0
  -26.4542  -31.6558   25.0713 C   0  0  0  0  0  0
  -25.3703  -31.3769   26.1391 C   0  0  0  0  0  0
  -27.0418  -30.2946   24.6342 C   0  0  0  0  0  0
  -27.6061  -32.4338   25.7498 C   0  0  0  0  0  0
  -27.5574  -37.1772   24.8463 C   0  0  0  0  0  0
  -21.4286  -29.3052   22.3591 N   0  0  0  0  0  0
  -26.4279  -37.3735   23.9414 N   0  0  0  0  0  0
  -24.7289  -31.0180   22.0896 N   0  0  0  0  0  0
  -23.4212  -28.8081   23.3024 O   0  0  0  0  0  0
  -28.2352  -26.0342   20.1728 O   0  0  0  0  0  0
  -26.5673  -34.8906   22.4628 O   0  0  0  0  0  0
  -23.5603  -32.1289   23.7008 O   0  0  0  0  0  0
  -29.3172  -19.0607   20.3879 C   0  0  0  0  0  0
  -31.2942  -17.9994   21.3537 C   0  0  0  0  0  0
  -29.7361  -20.4533   20.8062 C   0  0  0  0  0  0
  -30.9309  -20.4313   21.5448 C   0  0  0  0  0  0
  -30.0816  -17.7756   20.6712 C   0  0  0  0  0  0
  -31.7075  -19.2707   21.7884 C   0  0  0  0  0  0
  -29.3144  -22.0529   20.8355 C   0  0  0  0  0  0
  -30.3019  -22.6307   21.7552 C   0  0  0  0  0  0
  -28.4251  -23.0337   20.2747 C   0  0  0  0  0  0
  -32.3973  -21.9933   22.8972 C   0  0  0  0  0  0
  -27.9439  -24.5909   20.7448 C   0  0  0  0  0  0
  -31.2232  -21.7059   22.0663 N   0  0  0  0  0  0
  -29.7475  -16.2667   20.4342 N   0  0  0  0  0  0
  -30.3577  -23.7942   22.1687 O   0  0  0  0  0  0
  -32.8677  -19.3415   22.4839 F   0  0  0  0  0  0
  -31.4675  -12.8294   19.1753 H   0  0  0  0  0  0
  -30.4572  -11.7209   20.0582 H   0  0  0  0  0  0
  -29.8579  -11.7252   17.6099 H   0  0  0  0  0  0
  -29.5876  -13.4496   17.6632 H   0  0  0  0  0  0
  -27.9776  -11.2684   19.0178 H   0  0  0  0  0  0
  -27.3912  -12.3994   17.8275 H   0  0  0  0  0  0
  -27.5652  -14.2438   19.3716 H   0  0  0  0  0  0
  -28.7814  -12.3749   21.4639 H   0  0  0  0  0  0
  -28.3498  -14.0511   21.7217 H   0  0  0  0  0  0
  -25.2780   -9.5676   22.4771 H   0  0  0  0  0  0
  -24.0010   -7.4631   22.7475 H   0  0  0  0  0  0
  -21.0858   -8.8790   19.8952 H   0  0  0  0  0  0
  -22.3732  -10.9679   19.6172 H   0  0  0  0  0  0
  -21.2010   -7.6157   23.9725 H   0  0  0  0  0  0
  -21.1474   -6.0526   25.9079 H   0  0  0  0  0  0
  -22.0600   -2.7619   23.2839 H   0  0  0  0  0  0
  -22.4058  -11.9851   22.4828 H   0  0  0  0  0  0
  -21.1055  -13.1207   22.2643 H   0  0  0  0  0  0
  -24.6408  -15.8463   20.5339 H   0  0  0  0  0  0
  -26.2514  -15.6389   20.0737 H   0  0  0  0  0  0
  -26.7313  -32.5251   23.0969 H   0  0  0  0  0  0
  -25.0096  -33.9577   25.0293 H   0  0  0  0  0  0
  -22.7634  -31.2834   21.3694 H   0  0  0  0  0  0
  -23.3767  -35.9558   23.3284 H   0  0  0  0  0  0
  -24.3579  -36.8894   22.2064 H   0  0  0  0  0  0
  -23.7232  -37.6422   23.6698 H   0  0  0  0  0  0
  -26.1811  -31.4402   20.6155 H   0  0  0  0  0  0
  -26.8862  -30.7449   22.0375 H   0  0  0  0  0  0
  -28.1476  -28.7411   21.2376 H   0  0  0  0  0  0
  -25.9149  -25.8019   19.0168 H   0  0  0  0  0  0
  -23.9835  -27.2848   18.9798 H   0  0  0  0  0  0
  -23.8321  -30.5511   19.3953 H   0  0  0  0  0  0
  -22.8007  -29.2259   19.8393 H   0  0  0  0  0  0
  -25.1316  -36.1828   25.0805 H   0  0  0  0  0  0
  -21.0015  -28.3322   24.1345 H   0  0  0  0  0  0
  -20.5688  -26.2351   23.3629 H   0  0  0  0  0  0
  -21.6658  -26.7431   22.1199 H   0  0  0  0  0  0
  -19.6925  -25.6282   21.1267 H   0  0  0  0  0  0
  -19.6698  -27.3176   20.6736 H   0  0  0  0  0  0
  -17.4217  -26.6696   21.4027 H   0  0  0  0  0  0
  -18.0335  -26.0085   22.9022 H   0  0  0  0  0  0
  -19.7959  -30.7307   24.2225 H   0  0  0  0  0  0
  -17.5031  -31.6277   24.5165 H   0  0  0  0  0  0
  -15.5369  -30.2979   23.7683 H   0  0  0  0  0  0
  -15.8696  -28.0811   22.7099 H   0  0  0  0  0  0
  -24.5893  -30.7106   25.7707 H   0  0  0  0  0  0
  -24.8880  -32.2958   26.4733 H   0  0  0  0  0  0
  -25.7964  -30.8993   27.0222 H   0  0  0  0  0  0
  -26.3054  -29.6652   24.1333 H   0  0  0  0  0  0
  -27.3993  -29.7267   25.4942 H   0  0  0  0  0  0
  -27.8978  -30.4172   23.9702 H   0  0  0  0  0  0
  -27.2653  -33.3674   26.1987 H   0  0  0  0  0  0
  -28.3916  -32.6840   25.0353 H   0  0  0  0  0  0
  -28.0685  -31.8520   26.5484 H   0  0  0  0  0  0
  -28.2568  -38.0092   24.7530 H   0  0  0  0  0  0
  -28.1090  -36.2619   24.6257 H   0  0  0  0  0  0
  -27.2298  -37.1376   25.8867 H   0  0  0  0  0  0
  -20.9508  -29.8757   21.6754 H   0  0  0  0  0  0
  -26.0138  -38.2797   24.1432 H   0  0  0  0  0  0
  -28.3715  -18.9714   19.8722 H   0  0  0  0  0  0
  -31.9301  -17.1686   21.6180 H   0  0  0  0  0  0
  -27.7605  -22.6436   19.5185 H   0  0  0  0  0  0
  -33.3118  -21.7667   22.3486 H   0  0  0  0  0  0
  -32.3756  -21.3920   23.8059 H   0  0  0  0  0  0
  -32.4654  -23.0371   23.2052 H   0  0  0  0  0  0
  -28.1420  -24.6819   21.8108 H   0  0  0  0  0  0
  -26.8582  -24.4974   20.7369 H   0  0  0  0  0  0
  -28.7604  -16.0852   20.3338 H   0  0  0  0  0  0
  1 25  1  0  0  0
  1 30  2  0  0  0
  1 83  1  0  0  0
  2  3  1  0  0  0
  2 25  1  0  0  0
  2 86  1  0  0  0
  2 87  1  0  0  0
  3  4  1  0  0  0
  3 88  1  0  0  0
  3 89  1  0  0  0
  4  5  1  0  0  0
  4 90  1  0  0  0
  4 91  1  0  0  0
  5  6  1  0  0  0
  5 26  1  0  0  0
  5 92  1  0  0  0
  6 25  1  0  0  0
  6 93  1  0  0  0
  6 94  1  0  0  0
  7  8  2  0  0  0
  7 26  1  0  0  0
  7 29  1  0  0  0
  8  9  1  0  0  0
  8 22  1  0  0  0
  9 10  1  0  0  0
  9 27  2  0  0  0
 10 11  2  0  0  0
 10 15  1  0  0  0
 11 12  1  0  0  0
 11 95  1  0  0  0
 12 13  2  0  0  0
 12 96  1  0  0  0
 13 14  1  0  0  0
 13 31  1  0  0  0
 14 15  2  0  0  0
 14 97  1  0  0  0
 15 98  1  0  0  0
 16 17  2  0  0  0
 16 21  1  0  0  0
 16 31  1  0  0  0
 17 18  1  0  0  0
 17 99  1  0  0  0
 18 19  2  0  0  0
 18100  1  0  0  0
 19 20  1  0  0  0
 19 24  1  0  0  0
 20 21  2  0  0  0
 20101  1  0  0  0
 21 23  1  0  0  0
 22 28  1  0  0  0
 22 32  2  0  0  0
 26 27  1  0  0  0
 28102  1  0  0  0
 28103  1  0  0  0
 29104  1  0  0  0
 29105  1  0  0  0
 33 34  1  0  0  0
 33 66  1  0  0  0
 33 70  2  0  0  0
 34 36  1  0  0  0
 34 59  1  0  0  0
 34106  1  0  0  0
 35 44  2  0  0  0
 35 45  1  0  0  0
 35 68  1  0  0  0
 36 56  1  0  0  0
 36107  1  0  0  0
 37 39  1  0  0  0
 37 47  1  0  0  0
 37 66  1  0  0  0
 37108  1  0  0  0
 38 43  2  0  0  0
 38 46  1  0  0  0
 38 47  1  0  0  0
 39 64  1  0  0  0
 39 67  2  0  0  0
 40 52  1  0  0  0
 40 53  2  0  0  0
 40 58  1  0  0  0
 41109  1  0  0  0
 41110  1  0  0  0
 41111  1  0  0  0
 41 48  1  0  0  0
 42 43  1  0  0  0
 42 66  1  0  0  0
 42112  1  0  0  0
 42113  1  0  0  0
 43 44  1  0  0  0
 44114  1  0  0  0
 45 46  2  0  0  0
 45115  1  0  0  0
 46116  1  0  0  0
 47117  1  0  0  0
 47118  1  0  0  0
 48 56  1  0  0  0
 48 65  1  0  0  0
 48119  1  0  0  0
 49 50  1  0  0  0
 49 53  1  0  0  0
 49 64  1  0  0  0
 49120  1  0  0  0
 50 51  1  0  0  0
 50121  1  0  0  0
 50122  1  0  0  0
 51 52  1  0  0  0
 51123  1  0  0  0
 51124  1  0  0  0
 52125  1  0  0  0
 52126  1  0  0  0
 53 54  1  0  0  0
 54 55  2  0  0  0
 54127  1  0  0  0
 55 57  1  0  0  0
 55128  1  0  0  0
 56 69  2  0  0  0
 57 58  2  0  0  0
 57129  1  0  0  0
 58130  1  0  0  0
 59 60  1  0  0  0
 59 61  1  0  0  0
 59 62  1  0  0  0
 60131  1  0  0  0
 60132  1  0  0  0
 60133  1  0  0  0
 61134  1  0  0  0
 61135  1  0  0  0
 61136  1  0  0  0
 62137  1  0  0  0
 62138  1  0  0  0
 62139  1  0  0  0
 63 65  1  0  0  0
 63140  1  0  0  0
 63141  1  0  0  0
 63142  1  0  0  0
 64143  1  0  0  0
 65144  1  0  0  0
 68 81  1  0  0  0
 71 73  2  0  0  0
 71 75  1  0  0  0
 71145  1  0  0  0
 72 75  2  0  0  0
 72 76  1  0  0  0
 72146  1  0  0  0
 73 74  1  0  0  0
 73 77  1  0  0  0
 74 76  2  0  0  0
 74 82  1  0  0  0
 75 83  1  0  0  0
 76 85  1  0  0  0
 77 78  1  0  0  0
 77 79  2  0  0  0
 78 82  1  0  0  0
 78 84  2  0  0  0
 79 81  1  0  0  0
 79147  1  0  0  0
 80 82  1  0  0  0
 80148  1  0  0  0
 80149  1  0  0  0
 80150  1  0  0  0
 81151  1  0  0  0
 81152  1  0  0  0
 83153  1  0  0  0
M  ISO  4   1 100  68 101  81 101  83 100
M  END
> <chiral flag>
0

> <version>
0

> <s_m_source_file>
/data/baiqing/PycharmProjects/Reinvent-master-3.2/result/LINK_invent/BTK/process_docking_weight1_custom_product_contain_oxygen_bond_distance_aromatic_linkinvent_7_9_3/rearranged_h_0022.sdf

> <i_m_source_file_index>
83

> <r_mmod_Potential_Energy-OPLS-2005>
848.378173828125

> <r_mmod_Stretch_Energy-OPLS-2005>
351.483184814453

> <r_mmod_Bend_Energy-OPLS-2005>
393.726348876953

> <r_mmod_Torsional_Energy-OPLS-2005>
270.786773681641

> <r_mmod_Improper_Torsional_Energy-OPLS-2005>
7.22840023040771

> <r_mmod_Van_der_Waal_Energy-OPLS-2005>
145.466583251953

> <r_mmod_Electrostatic_Energy-OPLS-2005>
-357.605865478516

> <r_mmod_Solvation_Energy-OPLS-2005>
-223.934158325195

> <b_mmod_Minimization_Converged-OPLS-2005>
0

> <r_mmod_RMS_Derivative-OPLS-2005>
0.691870033740997

$$$$
84
                    3D
 Structure written by MMmdl.
155163  0  0  1  0            999 V2000
  -30.5991  -14.6278   20.5342 C   0  0  0  0  0  0
  -30.4461  -12.3885   19.4537 C   0  0  0  0  0  0
  -29.5118  -12.5127   18.2286 C   0  0  0  0  0  0
  -28.0342  -12.3450   18.6389 C   0  0  0  0  0  0
  -27.6583  -13.2076   19.8730 C   0  0  2  0  0  0
  -28.6984  -13.0274   21.0014 C   0  0  0  0  0  0
  -25.2559  -13.8137   20.5636 C   0  0  0  0  0  0
  -24.1818  -13.0415   20.9145 C   0  0  0  0  0  0
  -24.6385  -11.6889   20.8728 C   0  0  0  0  0  0
  -23.9053  -10.4278   21.0409 C   0  0  0  0  0  0
  -24.3609   -9.4201   21.9190 C   0  0  0  0  0  0
  -23.6286   -8.2240   22.0757 C   0  0  0  0  0  0
  -22.4266   -8.0279   21.3547 C   0  0  0  0  0  0
  -21.9903   -9.0246   20.4645 C   0  0  0  0  0  0
  -22.7226  -10.2125   20.3058 C   0  0  0  0  0  0
  -21.6854   -6.0739   22.5279 C   0  0  0  0  0  0
  -21.4011   -6.5638   23.8216 C   0  0  0  0  0  0
  -21.3657   -5.6792   24.9175 C   0  0  0  0  0  0
  -21.6047   -4.3059   24.7224 C   0  0  0  0  0  0
  -21.8819   -3.8148   23.4345 C   0  0  0  0  0  0
  -21.9186   -4.6967   22.3399 C   0  0  0  0  0  0
  -22.7842  -13.5227   21.1824 C   0  0  0  0  0  0
  -22.1660   -4.2157   21.0981 F   0  0  0  0  0  0
  -21.5626   -3.4540   25.7739 F   0  0  0  0  0  0
  -30.0191  -13.3876   20.4540 N   0  0  0  0  0  0
  -26.3004  -12.9316   20.3337 N   0  0  0  0  0  0
  -25.9316  -11.6481   20.5762 N   0  0  0  0  0  0
  -22.0495  -12.8223   22.0398 N   0  0  0  0  0  0
  -25.4252  -15.1850   20.4026 N   0  0  0  0  0  0
  -31.7270  -14.8479   20.0829 O   0  0  0  0  0  0
  -21.6627   -6.8876   21.4241 O   0  0  0  0  0  0
  -22.3524  -14.5540   20.6690 O   0  0  0  0  0  0
  -24.6249  -31.8590   23.2017 C   0  0  0  0  0  0
  -25.9100  -32.4770   23.8336 C   0  0  1  0  0  0
  -27.2352  -27.3394   20.1203 C   0  0  0  0  0  0
  -25.5920  -33.8563   24.2258 N   0  0  0  0  0  0
  -23.4197  -30.4782   21.5439 C   0  0  2  0  0  0
  -24.8695  -28.9313   20.1135 C   0  0  0  0  0  0
  -22.7469  -29.4597   22.4941 C   0  0  0  0  0  0
  -18.0274  -28.1381   22.8468 C   0  0  0  0  0  0
  -24.1498  -36.7296   23.2643 C   0  0  0  0  0  0
  -25.9568  -30.7980   21.3667 C   0  0  0  0  0  0
  -26.0362  -29.4250   20.7118 C   0  0  0  0  0  0
  -27.2254  -28.6408   20.7025 C   0  0  0  0  0  0
  -26.0476  -26.8811   19.5149 C   0  0  0  0  0  0
  -24.8745  -27.6620   19.5095 C   0  0  0  0  0  0
  -23.6363  -29.8111   20.1597 C   0  0  0  0  0  0
  -25.4116  -36.3074   24.0338 C   0  0  1  0  0  0
  -20.5882  -28.3674   23.1288 C   0  0  2  0  0  0
  -20.6774  -26.9394   22.5418 C   0  0  0  0  0  0
  -19.5753  -26.6376   21.5211 C   0  0  0  0  0  0
  -18.1921  -26.7920   22.1615 C   0  0  0  0  0  0
  -19.1533  -28.8846   23.2858 C   0  0  0  0  0  0
  -18.9468  -30.1450   23.8878 C   0  0  0  0  0  0
  -17.6473  -30.6587   24.0555 C   0  0  0  0  0  0
  -25.9060  -34.9440   23.5097 C   0  0  0  0  0  0
  -16.5356  -29.9090   23.6331 C   0  0  0  0  0  0
  -16.7262  -28.6513   23.0327 C   0  0  0  0  0  0
  -26.4485  -31.6585   25.0698 C   0  0  0  0  0  0
  -25.3722  -31.3730   26.1429 C   0  0  0  0  0  0
  -27.0313  -30.3014   24.6129 C   0  0  0  0  0  0
  -27.6042  -32.4319   25.7469 C   0  0  0  0  0  0
  -27.5577  -37.1795   24.8460 C   0  0  0  0  0  0
  -21.4196  -29.3021   22.3693 N   0  0  0  0  0  0
  -26.4282  -37.3777   23.9423 N   0  0  0  0  0  0
  -24.6856  -31.0598   22.0958 N   0  0  0  0  0  0
  -23.4191  -28.8145   23.3025 O   0  0  0  0  0  0
  -28.3611  -26.5121   20.1142 O   0  0  0  0  0  0
  -26.5627  -34.8919   22.4666 O   0  0  0  0  0  0
  -23.5419  -32.1385   23.7365 O   0  0  0  0  0  0
  -30.1647  -19.3202   20.0360 C   0  0  0  0  0  0
  -30.5064  -17.9345   20.1895 C   0  0  0  0  0  0
  -28.1041  -18.9578   21.2450 C   0  0  0  0  0  0
  -28.9449  -19.8633   20.5353 C   0  0  0  0  0  0
  -29.6407  -17.0326   20.8685 C   0  0  0  0  0  0
  -28.4547  -17.5864   21.4026 C   0  0  0  0  0  0
  -26.7810  -19.4301   21.8373 C   0  0  0  0  0  0
  -28.4260  -23.8213   20.0435 C   0  0  0  0  0  0
  -29.2686  -22.4698   20.3033 C   0  0  0  0  0  0
  -28.2620  -25.2211   20.8236 C   0  0  0  0  0  0
  -29.8038  -15.5969   21.0720 N   0  0  0  0  0  0
  -28.4804  -21.2013   20.2974 N   0  0  0  0  0  0
  -27.6126  -16.7569   22.0666 F   0  0  0  0  0  0
  -31.4866  -12.5259   19.1551 H   0  0  0  0  0  0
  -30.3896  -11.3853   19.8792 H   0  0  0  0  0  0
  -29.7782  -11.7678   17.4780 H   0  0  0  0  0  0
  -29.6512  -13.4861   17.7554 H   0  0  0  0  0  0
  -27.8741  -11.2895   18.8648 H   0  0  0  0  0  0
  -27.3785  -12.5774   17.7992 H   0  0  0  0  0  0
  -27.6881  -14.2479   19.5498 H   0  0  0  0  0  0
  -28.7068  -11.9919   21.3456 H   0  0  0  0  0  0
  -28.4290  -13.6182   21.8773 H   0  0  0  0  0  0
  -25.2760   -9.5679   22.4755 H   0  0  0  0  0  0
  -23.9996   -7.4633   22.7481 H   0  0  0  0  0  0
  -21.0839   -8.8768   19.8950 H   0  0  0  0  0  0
  -22.3698  -10.9664   19.6164 H   0  0  0  0  0  0
  -21.2010   -7.6150   23.9721 H   0  0  0  0  0  0
  -21.1478   -6.0523   25.9081 H   0  0  0  0  0  0
  -22.0601   -2.7614   23.2840 H   0  0  0  0  0  0
  -22.4111  -11.9871   22.4756 H   0  0  0  0  0  0
  -21.1127  -13.1261   22.2642 H   0  0  0  0  0  0
  -24.6664  -15.8414   20.5436 H   0  0  0  0  0  0
  -26.3040  -15.6359   20.1850 H   0  0  0  0  0  0
  -26.7167  -32.5466   23.1099 H   0  0  0  0  0  0
  -25.0035  -33.9706   25.0376 H   0  0  0  0  0  0
  -22.7103  -31.2960   21.3982 H   0  0  0  0  0  0
  -23.3750  -35.9639   23.3307 H   0  0  0  0  0  0
  -24.3590  -36.8928   22.2056 H   0  0  0  0  0  0
  -23.7252  -37.6504   23.6670 H   0  0  0  0  0  0
  -26.0774  -31.5625   20.5987 H   0  0  0  0  0  0
  -26.8409  -30.8516   21.9912 H   0  0  0  0  0  0
  -28.1241  -29.0178   21.1687 H   0  0  0  0  0  0
  -26.0283  -25.9029   19.0542 H   0  0  0  0  0  0
  -23.9813  -27.2710   19.0419 H   0  0  0  0  0  0
  -23.7590  -30.5886   19.4033 H   0  0  0  0  0  0
  -22.7568  -29.2407   19.8557 H   0  0  0  0  0  0
  -25.1289  -36.1940   25.0830 H   0  0  0  0  0  0
  -20.9925  -28.3246   24.1431 H   0  0  0  0  0  0
  -20.5698  -26.2264   23.3611 H   0  0  0  0  0  0
  -21.6639  -26.7446   22.1195 H   0  0  0  0  0  0
  -19.6928  -25.6287   21.1244 H   0  0  0  0  0  0
  -19.6724  -27.3178   20.6736 H   0  0  0  0  0  0
  -17.4196  -26.6659   21.4005 H   0  0  0  0  0  0
  -18.0312  -26.0059   22.9016 H   0  0  0  0  0  0
  -19.7951  -30.7239   24.2247 H   0  0  0  0  0  0
  -17.5042  -31.6275   24.5146 H   0  0  0  0  0  0
  -15.5359  -30.2987   23.7684 H   0  0  0  0  0  0
  -15.8655  -28.0854   22.7026 H   0  0  0  0  0  0
  -24.5889  -30.7089   25.7763 H   0  0  0  0  0  0
  -24.8904  -32.2894   26.4841 H   0  0  0  0  0  0
  -25.8030  -30.8909   27.0209 H   0  0  0  0  0  0
  -26.2856  -29.6768   24.1198 H   0  0  0  0  0  0
  -27.4072  -29.7272   25.4604 H   0  0  0  0  0  0
  -27.8708  -30.4299   23.9287 H   0  0  0  0  0  0
  -27.2657  -33.3643   26.1999 H   0  0  0  0  0  0
  -28.3877  -32.6851   25.0310 H   0  0  0  0  0  0
  -28.0680  -31.8470   26.5428 H   0  0  0  0  0  0
  -28.2574  -38.0104   24.7502 H   0  0  0  0  0  0
  -28.1086  -36.2634   24.6284 H   0  0  0  0  0  0
  -27.2290  -37.1440   25.8856 H   0  0  0  0  0  0
  -20.9373  -29.8751   21.6916 H   0  0  0  0  0  0
  -26.0174  -38.2858   24.1425 H   0  0  0  0  0  0
  -30.8378  -19.9567   19.4794 H   0  0  0  0  0  0
  -31.4292  -17.5698   19.7636 H   0  0  0  0  0  0
  -26.8201  -20.4679   22.1682 H   0  0  0  0  0  0
  -26.5115  -18.8388   22.7124 H   0  0  0  0  0  0
  -25.9821  -19.3262   21.1034 H   0  0  0  0  0  0
  -29.4124  -24.2388   19.8333 H   0  0  0  0  0  0
  -27.9562  -23.4629   20.9612 H   0  0  0  0  0  0
  -29.8172  -22.5359   21.2454 H   0  0  0  0  0  0
  -30.0316  -22.3604   19.5304 H   0  0  0  0  0  0
  -29.0216  -25.2676   21.6083 H   0  0  0  0  0  0
  -27.3185  -25.2386   21.3802 H   0  0  0  0  0  0
  -29.0006  -15.1973   21.5358 H   0  0  0  0  0  0
  -27.4931  -21.3371   20.4951 H   0  0  0  0  0  0
  1 25  1  0  0  0
  1 30  2  0  0  0
  1 81  1  0  0  0
  2  3  1  0  0  0
  2 25  1  0  0  0
  2 84  1  0  0  0
  2 85  1  0  0  0
  3  4  1  0  0  0
  3 86  1  0  0  0
  3 87  1  0  0  0
  4  5  1  0  0  0
  4 88  1  0  0  0
  4 89  1  0  0  0
  5  6  1  0  0  0
  5 26  1  0  0  0
  5 90  1  0  0  0
  6 25  1  0  0  0
  6 91  1  0  0  0
  6 92  1  0  0  0
  7  8  2  0  0  0
  7 26  1  0  0  0
  7 29  1  0  0  0
  8  9  1  0  0  0
  8 22  1  0  0  0
  9 10  1  0  0  0
  9 27  2  0  0  0
 10 11  2  0  0  0
 10 15  1  0  0  0
 11 12  1  0  0  0
 11 93  1  0  0  0
 12 13  2  0  0  0
 12 94  1  0  0  0
 13 14  1  0  0  0
 13 31  1  0  0  0
 14 15  2  0  0  0
 14 95  1  0  0  0
 15 96  1  0  0  0
 16 17  2  0  0  0
 16 21  1  0  0  0
 16 31  1  0  0  0
 17 18  1  0  0  0
 17 97  1  0  0  0
 18 19  2  0  0  0
 18 98  1  0  0  0
 19 20  1  0  0  0
 19 24  1  0  0  0
 20 21  2  0  0  0
 20 99  1  0  0  0
 21 23  1  0  0  0
 22 28  1  0  0  0
 22 32  2  0  0  0
 26 27  1  0  0  0
 28100  1  0  0  0
 28101  1  0  0  0
 29102  1  0  0  0
 29103  1  0  0  0
 33 34  1  0  0  0
 33 66  1  0  0  0
 33 70  2  0  0  0
 34 36  1  0  0  0
 34 59  1  0  0  0
 34104  1  0  0  0
 35 44  2  0  0  0
 35 45  1  0  0  0
 35 68  1  0  0  0
 36 56  1  0  0  0
 36105  1  0  0  0
 37 39  1  0  0  0
 37 47  1  0  0  0
 37 66  1  0  0  0
 37106  1  0  0  0
 38 43  2  0  0  0
 38 46  1  0  0  0
 38 47  1  0  0  0
 39 64  1  0  0  0
 39 67  2  0  0  0
 40 52  1  0  0  0
 40 53  2  0  0  0
 40 58  1  0  0  0
 41107  1  0  0  0
 41108  1  0  0  0
 41109  1  0  0  0
 41 48  1  0  0  0
 42 43  1  0  0  0
 42 66  1  0  0  0
 42110  1  0  0  0
 42111  1  0  0  0
 43 44  1  0  0  0
 44112  1  0  0  0
 45 46  2  0  0  0
 45113  1  0  0  0
 46114  1  0  0  0
 47115  1  0  0  0
 47116  1  0  0  0
 48 56  1  0  0  0
 48 65  1  0  0  0
 48117  1  0  0  0
 49 50  1  0  0  0
 49 53  1  0  0  0
 49 64  1  0  0  0
 49118  1  0  0  0
 50 51  1  0  0  0
 50119  1  0  0  0
 50120  1  0  0  0
 51 52  1  0  0  0
 51121  1  0  0  0
 51122  1  0  0  0
 52123  1  0  0  0
 52124  1  0  0  0
 53 54  1  0  0  0
 54 55  2  0  0  0
 54125  1  0  0  0
 55 57  1  0  0  0
 55126  1  0  0  0
 56 69  2  0  0  0
 57 58  2  0  0  0
 57127  1  0  0  0
 58128  1  0  0  0
 59 60  1  0  0  0
 59 61  1  0  0  0
 59 62  1  0  0  0
 60129  1  0  0  0
 60130  1  0  0  0
 60131  1  0  0  0
 61132  1  0  0  0
 61133  1  0  0  0
 61134  1  0  0  0
 62135  1  0  0  0
 62136  1  0  0  0
 62137  1  0  0  0
 63 65  1  0  0  0
 63138  1  0  0  0
 63139  1  0  0  0
 63140  1  0  0  0
 64141  1  0  0  0
 65142  1  0  0  0
 68 80  1  0  0  0
 71 72  2  0  0  0
 71 74  1  0  0  0
 71143  1  0  0  0
 72 75  1  0  0  0
 72144  1  0  0  0
 73 74  2  0  0  0
 73 76  1  0  0  0
 73 77  1  0  0  0
 74 82  1  0  0  0
 75 76  2  0  0  0
 75 81  1  0  0  0
 76 83  1  0  0  0
 77145  1  0  0  0
 77146  1  0  0  0
 77147  1  0  0  0
 78 79  1  0  0  0
 78 80  1  0  0  0
 78148  1  0  0  0
 78149  1  0  0  0
 79 82  1  0  0  0
 79150  1  0  0  0
 79151  1  0  0  0
 80152  1  0  0  0
 80153  1  0  0  0
 81154  1  0  0  0
 82155  1  0  0  0
M  ISO  4   1 100  68 101  80 101  81 100
M  END
> <chiral flag>
0

> <version>
0

> <s_m_source_file>
/data/baiqing/PycharmProjects/Reinvent-master-3.2/result/LINK_invent/BTK/process_docking_weight1_custom_product_contain_oxygen_bond_distance_aromatic_linkinvent_7_9_3/rearranged_h_0022.sdf

> <i_m_source_file_index>
84

> <r_mmod_Potential_Energy-OPLS-2005>
279.944030761719

> <r_mmod_Stretch_Energy-OPLS-2005>
78.5523681640625

> <r_mmod_Bend_Energy-OPLS-2005>
384.099731445312

> <r_mmod_Torsional_Energy-OPLS-2005>
243.490905761719

> <r_mmod_Improper_Torsional_Energy-OPLS-2005>
5.07787466049194

> <r_mmod_Van_der_Waal_Energy-OPLS-2005>
152.077087402344

> <r_mmod_Electrostatic_Energy-OPLS-2005>
-421.732574462891

> <r_mmod_Solvation_Energy-OPLS-2005>
-203.543106079102

> <b_mmod_Minimization_Converged-OPLS-2005>
0

> <r_mmod_RMS_Derivative-OPLS-2005>
2.42322611808777

$$$$
85
                    3D
 Structure written by MMmdl.
155163  0  0  1  0            999 V2000
  -30.6007  -14.6594   20.5107 C   0  0  0  0  0  0
  -30.4512  -12.4055   19.4539 C   0  0  0  0  0  0
  -29.5146  -12.5064   18.2272 C   0  0  0  0  0  0
  -28.0344  -12.3508   18.6348 C   0  0  0  0  0  0
  -27.6579  -13.2149   19.8665 C   0  0  2  0  0  0
  -28.7039  -13.0480   20.9922 C   0  0  0  0  0  0
  -25.2575  -13.8169   20.5692 C   0  0  0  0  0  0
  -24.1836  -13.0439   20.9205 C   0  0  0  0  0  0
  -24.6398  -11.6904   20.8739 C   0  0  0  0  0  0
  -23.9065  -10.4289   21.0411 C   0  0  0  0  0  0
  -24.3612   -9.4206   21.9197 C   0  0  0  0  0  0
  -23.6286   -8.2243   22.0757 C   0  0  0  0  0  0
  -22.4274   -8.0280   21.3542 C   0  0  0  0  0  0
  -21.9918   -9.0251   20.4640 C   0  0  0  0  0  0
  -22.7241  -10.2133   20.3052 C   0  0  0  0  0  0
  -21.6854   -6.0740   22.5284 C   0  0  0  0  0  0
  -21.4003   -6.5640   23.8216 C   0  0  0  0  0  0
  -21.3658   -5.6793   24.9173 C   0  0  0  0  0  0
  -21.6051   -4.3059   24.7226 C   0  0  0  0  0  0
  -21.8818   -3.8153   23.4346 C   0  0  0  0  0  0
  -21.9186   -4.6968   22.3402 C   0  0  0  0  0  0
  -22.7852  -13.5233   21.1869 C   0  0  0  0  0  0
  -22.1659   -4.2155   21.0980 F   0  0  0  0  0  0
  -21.5635   -3.4541   25.7743 F   0  0  0  0  0  0
  -30.0206  -13.4161   20.4397 N   0  0  0  0  0  0
  -26.3006  -12.9340   20.3324 N   0  0  0  0  0  0
  -25.9322  -11.6500   20.5745 N   0  0  0  0  0  0
  -22.0478  -12.8207   22.0402 N   0  0  0  0  0  0
  -25.4317  -15.1891   20.4118 N   0  0  0  0  0  0
  -31.7390  -14.8677   20.0782 O   0  0  0  0  0  0
  -21.6630   -6.8882   21.4241 O   0  0  0  0  0  0
  -22.3546  -14.5554   20.6743 O   0  0  0  0  0  0
  -24.6260  -31.8594   23.1983 C   0  0  0  0  0  0
  -25.9106  -32.4773   23.8329 C   0  0  1  0  0  0
  -27.2375  -27.3212   20.1213 C   0  0  0  0  0  0
  -25.5933  -33.8571   24.2260 N   0  0  0  0  0  0
  -23.4200  -30.4771   21.5432 C   0  0  2  0  0  0
  -24.8691  -28.9228   20.1159 C   0  0  0  0  0  0
  -22.7491  -29.4591   22.4953 C   0  0  0  0  0  0
  -18.0281  -28.1376   22.8464 C   0  0  0  0  0  0
  -24.1495  -36.7286   23.2642 C   0  0  0  0  0  0
  -25.9575  -30.7916   21.3646 C   0  0  0  0  0  0
  -26.0370  -29.4137   20.7147 C   0  0  0  0  0  0
  -27.2251  -28.6255   20.7017 C   0  0  0  0  0  0
  -26.0457  -26.8669   19.5175 C   0  0  0  0  0  0
  -24.8743  -27.6535   19.5117 C   0  0  0  0  0  0
  -23.6348  -29.8037   20.1606 C   0  0  0  0  0  0
  -25.4120  -36.3071   24.0336 C   0  0  1  0  0  0
  -20.5883  -28.3674   23.1298 C   0  0  2  0  0  0
  -20.6772  -26.9403   22.5412 C   0  0  0  0  0  0
  -19.5756  -26.6389   21.5197 C   0  0  0  0  0  0
  -18.1923  -26.7920   22.1602 C   0  0  0  0  0  0
  -19.1540  -28.8845   23.2861 C   0  0  0  0  0  0
  -18.9463  -30.1445   23.8876 C   0  0  0  0  0  0
  -17.6464  -30.6576   24.0562 C   0  0  0  0  0  0
  -25.9070  -34.9444   23.5107 C   0  0  0  0  0  0
  -16.5352  -29.9078   23.6333 C   0  0  0  0  0  0
  -16.7269  -28.6504   23.0334 C   0  0  0  0  0  0
  -26.4486  -31.6576   25.0701 C   0  0  0  0  0  0
  -25.3709  -31.3697   26.1423 C   0  0  0  0  0  0
  -27.0320  -30.3020   24.6087 C   0  0  0  0  0  0
  -27.6068  -32.4294   25.7456 C   0  0  0  0  0  0
  -27.5575  -37.1785   24.8464 C   0  0  0  0  0  0
  -21.4199  -29.3018   22.3696 N   0  0  0  0  0  0
  -26.4284  -37.3776   23.9415 N   0  0  0  0  0  0
  -24.6860  -31.0600   22.0935 N   0  0  0  0  0  0
  -23.4201  -28.8138   23.3038 O   0  0  0  0  0  0
  -28.3806  -26.5124   20.0894 O   0  0  0  0  0  0
  -26.5632  -34.8916   22.4665 O   0  0  0  0  0  0
  -23.5432  -32.1414   23.7317 O   0  0  0  0  0  0
  -28.5154  -17.6675   21.4869 C   0  0  0  0  0  0
  -30.4958  -18.0347   20.1930 C   0  0  0  0  0  0
  -28.2108  -19.0502   21.4250 C   0  0  0  0  0  0
  -30.1882  -19.4452   20.1456 C   0  0  0  0  0  0
  -29.6544  -17.1020   20.8710 C   0  0  0  0  0  0
  -29.0253  -20.0137   20.7608 C   0  0  0  0  0  0
  -27.6177  -21.7905   21.7330 C   0  0  0  0  0  0
  -28.6791  -23.8911   19.6836 C   0  0  0  0  0  0
  -29.4382  -22.5726   20.2241 C   0  0  0  0  0  0
  -28.3274  -25.1320   20.6261 C   0  0  0  0  0  0
  -29.7814  -15.6443   20.9974 N   0  0  0  0  0  0
  -28.6348  -21.4194   20.7467 N   0  0  0  0  0  0
  -31.4897  -12.5457   19.1515 H   0  0  0  0  0  0
  -30.4031  -11.4081   19.8931 H   0  0  0  0  0  0
  -29.7759  -11.7426   17.4926 H   0  0  0  0  0  0
  -29.6619  -13.4677   17.7325 H   0  0  0  0  0  0
  -27.8648  -11.2978   18.8600 H   0  0  0  0  0  0
  -27.3846  -12.5867   17.7919 H   0  0  0  0  0  0
  -27.6802  -14.2543   19.5371 H   0  0  0  0  0  0
  -28.7193  -12.0135   21.3379 H   0  0  0  0  0  0
  -28.4392  -13.6410   21.8683 H   0  0  0  0  0  0
  -25.2749   -9.5688   22.4779 H   0  0  0  0  0  0
  -23.9996   -7.4630   22.7477 H   0  0  0  0  0  0
  -21.0860   -8.8765   19.8933 H   0  0  0  0  0  0
  -22.3710  -10.9668   19.6160 H   0  0  0  0  0  0
  -21.1988   -7.6149   23.9721 H   0  0  0  0  0  0
  -21.1485   -6.0524   25.9083 H   0  0  0  0  0  0
  -22.0598   -2.7612   23.2845 H   0  0  0  0  0  0
  -22.4057  -11.9841   22.4768 H   0  0  0  0  0  0
  -21.1089  -13.1227   22.2587 H   0  0  0  0  0  0
  -24.6701  -15.8491   20.5206 H   0  0  0  0  0  0
  -26.2824  -15.6195   20.0716 H   0  0  0  0  0  0
  -26.7189  -32.5465   23.1096 H   0  0  0  0  0  0
  -25.0030  -33.9692   25.0368 H   0  0  0  0  0  0
  -22.7135  -31.2963   21.3973 H   0  0  0  0  0  0
  -23.3754  -35.9622   23.3292 H   0  0  0  0  0  0
  -24.3575  -36.8924   22.2057 H   0  0  0  0  0  0
  -23.7249  -37.6484   23.6675 H   0  0  0  0  0  0
  -26.0721  -31.5492   20.5889 H   0  0  0  0  0  0
  -26.8443  -30.8558   21.9826 H   0  0  0  0  0  0
  -28.1276  -29.0009   21.1656 H   0  0  0  0  0  0
  -26.0212  -25.8947   19.0455 H   0  0  0  0  0  0
  -23.9775  -27.2697   19.0449 H   0  0  0  0  0  0
  -23.7497  -30.5775   19.4005 H   0  0  0  0  0  0
  -22.7558  -29.2282   19.8629 H   0  0  0  0  0  0
  -25.1278  -36.1927   25.0831 H   0  0  0  0  0  0
  -20.9942  -28.3244   24.1435 H   0  0  0  0  0  0
  -20.5703  -26.2270   23.3590 H   0  0  0  0  0  0
  -21.6643  -26.7460   22.1189 H   0  0  0  0  0  0
  -19.6947  -25.6312   21.1198 H   0  0  0  0  0  0
  -19.6718  -27.3235   20.6746 H   0  0  0  0  0  0
  -17.4208  -26.6678   21.3983 H   0  0  0  0  0  0
  -18.0313  -26.0058   22.9004 H   0  0  0  0  0  0
  -19.7957  -30.7237   24.2257 H   0  0  0  0  0  0
  -17.5037  -31.6266   24.5156 H   0  0  0  0  0  0
  -15.5357  -30.2963   23.7690 H   0  0  0  0  0  0
  -15.8662  -28.0823   22.7040 H   0  0  0  0  0  0
  -24.5937  -30.6985   25.7729 H   0  0  0  0  0  0
  -24.8831  -32.2861   26.4777 H   0  0  0  0  0  0
  -25.8047  -30.8930   27.0231 H   0  0  0  0  0  0
  -26.2861  -29.6777   24.1157 H   0  0  0  0  0  0
  -27.4111  -29.7260   25.4531 H   0  0  0  0  0  0
  -27.8693  -30.4322   23.9221 H   0  0  0  0  0  0
  -27.2712  -33.3647   26.1945 H   0  0  0  0  0  0
  -28.3917  -32.6759   25.0287 H   0  0  0  0  0  0
  -28.0679  -31.8456   26.5433 H   0  0  0  0  0  0
  -28.2568  -38.0096   24.7499 H   0  0  0  0  0  0
  -28.1085  -36.2621   24.6293 H   0  0  0  0  0  0
  -27.2279  -37.1427   25.8859 H   0  0  0  0  0  0
  -20.9396  -29.8721   21.6873 H   0  0  0  0  0  0
  -26.0169  -38.2850   24.1444 H   0  0  0  0  0  0
  -27.8315  -17.0273   22.0263 H   0  0  0  0  0  0
  -31.3877  -17.6819   19.6942 H   0  0  0  0  0  0
  -27.2975  -19.3390   21.9206 H   0  0  0  0  0  0
  -30.8709  -20.0909   19.6137 H   0  0  0  0  0  0
  -27.8441  -21.3717   22.7149 H   0  0  0  0  0  0
  -26.6336  -21.4367   21.4220 H   0  0  0  0  0  0
  -27.5414  -22.8668   21.8730 H   0  0  0  0  0  0
  -27.7878  -23.6032   19.1247 H   0  0  0  0  0  0
  -29.3478  -24.3025   18.9275 H   0  0  0  0  0  0
  -30.1784  -22.8608   20.9723 H   0  0  0  0  0  0
  -30.0211  -22.1897   19.3862 H   0  0  0  0  0  0
  -29.0468  -25.1259   21.4447 H   0  0  0  0  0  0
  -27.3622  -24.9570   21.1003 H   0  0  0  0  0  0
  -28.9737  -15.2234   21.4302 H   0  0  0  0  0  0
  1 25  1  0  0  0
  1 30  2  0  0  0
  1 81  1  0  0  0
  2  3  1  0  0  0
  2 25  1  0  0  0
  2 83  1  0  0  0
  2 84  1  0  0  0
  3  4  1  0  0  0
  3 85  1  0  0  0
  3 86  1  0  0  0
  4  5  1  0  0  0
  4 87  1  0  0  0
  4 88  1  0  0  0
  5  6  1  0  0  0
  5 26  1  0  0  0
  5 89  1  0  0  0
  6 25  1  0  0  0
  6 90  1  0  0  0
  6 91  1  0  0  0
  7  8  2  0  0  0
  7 26  1  0  0  0
  7 29  1  0  0  0
  8  9  1  0  0  0
  8 22  1  0  0  0
  9 10  1  0  0  0
  9 27  2  0  0  0
 10 11  2  0  0  0
 10 15  1  0  0  0
 11 12  1  0  0  0
 11 92  1  0  0  0
 12 13  2  0  0  0
 12 93  1  0  0  0
 13 14  1  0  0  0
 13 31  1  0  0  0
 14 15  2  0  0  0
 14 94  1  0  0  0
 15 95  1  0  0  0
 16 17  2  0  0  0
 16 21  1  0  0  0
 16 31  1  0  0  0
 17 18  1  0  0  0
 17 96  1  0  0  0
 18 19  2  0  0  0
 18 97  1  0  0  0
 19 20  1  0  0  0
 19 24  1  0  0  0
 20 21  2  0  0  0
 20 98  1  0  0  0
 21 23  1  0  0  0
 22 28  1  0  0  0
 22 32  2  0  0  0
 26 27  1  0  0  0
 28 99  1  0  0  0
 28100  1  0  0  0
 29101  1  0  0  0
 29102  1  0  0  0
 33 34  1  0  0  0
 33 66  1  0  0  0
 33 70  2  0  0  0
 34 36  1  0  0  0
 34 59  1  0  0  0
 34103  1  0  0  0
 35 44  2  0  0  0
 35 45  1  0  0  0
 35 68  1  0  0  0
 36 56  1  0  0  0
 36104  1  0  0  0
 37 39  1  0  0  0
 37 47  1  0  0  0
 37 66  1  0  0  0
 37105  1  0  0  0
 38 43  2  0  0  0
 38 46  1  0  0  0
 38 47  1  0  0  0
 39 64  1  0  0  0
 39 67  2  0  0  0
 40 52  1  0  0  0
 40 53  2  0  0  0
 40 58  1  0  0  0
 41106  1  0  0  0
 41107  1  0  0  0
 41108  1  0  0  0
 41 48  1  0  0  0
 42 43  1  0  0  0
 42 66  1  0  0  0
 42109  1  0  0  0
 42110  1  0  0  0
 43 44  1  0  0  0
 44111  1  0  0  0
 45 46  2  0  0  0
 45112  1  0  0  0
 46113  1  0  0  0
 47114  1  0  0  0
 47115  1  0  0  0
 48 56  1  0  0  0
 48 65  1  0  0  0
 48116  1  0  0  0
 49 50  1  0  0  0
 49 53  1  0  0  0
 49 64  1  0  0  0
 49117  1  0  0  0
 50 51  1  0  0  0
 50118  1  0  0  0
 50119  1  0  0  0
 51 52  1  0  0  0
 51120  1  0  0  0
 51121  1  0  0  0
 52122  1  0  0  0
 52123  1  0  0  0
 53 54  1  0  0  0
 54 55  2  0  0  0
 54124  1  0  0  0
 55 57  1  0  0  0
 55125  1  0  0  0
 56 69  2  0  0  0
 57 58  2  0  0  0
 57126  1  0  0  0
 58127  1  0  0  0
 59 60  1  0  0  0
 59 61  1  0  0  0
 59 62  1  0  0  0
 60128  1  0  0  0
 60129  1  0  0  0
 60130  1  0  0  0
 61131  1  0  0  0
 61132  1  0  0  0
 61133  1  0  0  0
 62134  1  0  0  0
 62135  1  0  0  0
 62136  1  0  0  0
 63 65  1  0  0  0
 63137  1  0  0  0
 63138  1  0  0  0
 63139  1  0  0  0
 64140  1  0  0  0
 65141  1  0  0  0
 68 80  1  0  0  0
 71 73  2  0  0  0
 71 75  1  0  0  0
 71142  1  0  0  0
 72 74  1  0  0  0
 72 75  2  0  0  0
 72143  1  0  0  0
 73 76  1  0  0  0
 73144  1  0  0  0
 74 76  2  0  0  0
 74145  1  0  0  0
 75 81  1  0  0  0
 76 82  1  0  0  0
 77 82  1  0  0  0
 77146  1  0  0  0
 77147  1  0  0  0
 77148  1  0  0  0
 78 79  1  0  0  0
 78 80  1  0  0  0
 78149  1  0  0  0
 78150  1  0  0  0
 79 82  1  0  0  0
 79151  1  0  0  0
 79152  1  0  0  0
 80153  1  0  0  0
 80154  1  0  0  0
 81155  1  0  0  0
M  ISO  4   1 100  68 101  80 101  81 100
M  END
> <chiral flag>
0

> <version>
0

> <s_m_source_file>
/data/baiqing/PycharmProjects/Reinvent-master-3.2/result/LINK_invent/BTK/process_docking_weight1_custom_product_contain_oxygen_bond_distance_aromatic_linkinvent_7_9_3/rearranged_h_0022.sdf

> <i_m_source_file_index>
85

> <r_mmod_Potential_Energy-OPLS-2005>
96.0075302124023

> <r_mmod_Stretch_Energy-OPLS-2005>
90.3139038085938

> <r_mmod_Bend_Energy-OPLS-2005>
187.635864257812

> <r_mmod_Torsional_Energy-OPLS-2005>
230.668258666992

> <r_mmod_Improper_Torsional_Energy-OPLS-2005>
4.55378293991089

> <r_mmod_Van_der_Waal_Energy-OPLS-2005>
145.405334472656

> <r_mmod_Electrostatic_Energy-OPLS-2005>
-383.672637939453

> <r_mmod_Solvation_Energy-OPLS-2005>
-227.081100463867

> <b_mmod_Minimization_Converged-OPLS-2005>
0

> <r_mmod_RMS_Derivative-OPLS-2005>
2.64921760559082

$$$$
86
                    3D
 Structure written by MMmdl.
169178  0  0  1  0            999 V2000
  -30.6549  -14.4884   20.5557 C   0  0  0  0  0  0
  -30.4204  -12.3144   19.3942 C   0  0  0  0  0  0
  -29.4832  -12.5059   18.1849 C   0  0  0  0  0  0
  -28.0048  -12.3600   18.6041 C   0  0  0  0  0  0
  -27.6523  -13.1948   19.8644 C   0  0  2  0  0  0
  -28.6996  -12.9724   20.9767 C   0  0  0  0  0  0
  -25.2582  -13.8110   20.5692 C   0  0  0  0  0  0
  -24.1833  -13.0408   20.9221 C   0  0  0  0  0  0
  -24.6388  -11.6866   20.8774 C   0  0  0  0  0  0
  -23.9069  -10.4255   21.0451 C   0  0  0  0  0  0
  -24.3619   -9.4144   21.9203 C   0  0  0  0  0  0
  -23.6276   -8.2183   22.0750 C   0  0  0  0  0  0
  -22.4246   -8.0276   21.3552 C   0  0  0  0  0  0
  -21.9902   -9.0252   20.4650 C   0  0  0  0  0  0
  -22.7259  -10.2115   20.3077 C   0  0  0  0  0  0
  -21.6827   -6.0729   22.5286 C   0  0  0  0  0  0
  -21.3993   -6.5647   23.8220 C   0  0  0  0  0  0
  -21.3658   -5.6821   24.9195 C   0  0  0  0  0  0
  -21.6042   -4.3074   24.7254 C   0  0  0  0  0  0
  -21.8820   -3.8158   23.4373 C   0  0  0  0  0  0
  -21.9168   -4.6955   22.3429 C   0  0  0  0  0  0
  -22.7857  -13.5188   21.1923 C   0  0  0  0  0  0
  -22.1666   -4.2143   21.1003 F   0  0  0  0  0  0
  -21.5619   -3.4566   25.7761 F   0  0  0  0  0  0
  -30.0128  -13.3018   20.4021 N   0  0  0  0  0  0
  -26.2977  -12.9262   20.3336 N   0  0  0  0  0  0
  -25.9302  -11.6439   20.5803 N   0  0  0  0  0  0
  -22.0534  -12.8129   22.0484 N   0  0  0  0  0  0
  -25.4371  -15.1806   20.4075 N   0  0  0  0  0  0
  -31.8177  -14.6815   20.1888 O   0  0  0  0  0  0
  -21.6627   -6.8860   21.4245 O   0  0  0  0  0  0
  -22.3517  -14.5489   20.6787 O   0  0  0  0  0  0
  -24.6133  -31.8653   23.2128 C   0  0  0  0  0  0
  -25.9033  -32.4806   23.8384 C   0  0  1  0  0  0
  -27.2255  -27.4175   20.1046 C   0  0  0  0  0  0
  -25.5916  -33.8604   24.2319 N   0  0  0  0  0  0
  -23.3994  -30.4898   21.5552 C   0  0  2  0  0  0
  -24.8428  -28.9479   20.1176 C   0  0  0  0  0  0
  -22.7366  -29.4668   22.5044 C   0  0  0  0  0  0
  -18.0245  -28.1368   22.8464 C   0  0  0  0  0  0
  -24.1502  -36.7293   23.2632 C   0  0  0  0  0  0
  -25.9287  -30.8229   21.3677 C   0  0  0  0  0  0
  -26.0040  -29.4586   20.7116 C   0  0  0  0  0  0
  -27.1976  -28.7021   20.6964 C   0  0  0  0  0  0
  -26.0482  -26.9223   19.5040 C   0  0  0  0  0  0
  -24.8602  -27.6811   19.5090 C   0  0  0  0  0  0
  -23.6031  -29.8132   20.1725 C   0  0  0  0  0  0
  -25.4125  -36.3088   24.0330 C   0  0  1  0  0  0
  -20.5850  -28.3555   23.1262 C   0  0  2  0  0  0
  -20.6779  -26.9346   22.5205 C   0  0  0  0  0  0
  -19.5641  -26.6239   21.5166 C   0  0  0  0  0  0
  -18.1815  -26.7929   22.1533 C   0  0  0  0  0  0
  -19.1529  -28.8747   23.2906 C   0  0  0  0  0  0
  -18.9489  -30.1300   23.9074 C   0  0  0  0  0  0
  -17.6531  -30.6503   24.0744 C   0  0  0  0  0  0
  -25.9037  -34.9458   23.5112 C   0  0  0  0  0  0
  -16.5394  -29.9106   23.6398 C   0  0  0  0  0  0
  -16.7271  -28.6535   23.0369 C   0  0  0  0  0  0
  -26.4475  -31.6584   25.0704 C   0  0  0  0  0  0
  -25.3763  -31.3666   26.1465 C   0  0  0  0  0  0
  -27.0299  -30.3035   24.6059 C   0  0  0  0  0  0
  -27.6050  -32.4311   25.7465 C   0  0  0  0  0  0
  -27.5588  -37.1797   24.8462 C   0  0  0  0  0  0
  -21.4106  -29.3023   22.3760 N   0  0  0  0  0  0
  -26.4307  -37.3775   23.9388 N   0  0  0  0  0  0
  -24.6658  -31.0719   22.1044 N   0  0  0  0  0  0
  -23.4128  -28.8174   23.3067 O   0  0  0  0  0  0
  -28.3989  -26.6892   20.0934 O   0  0  0  0  0  0
  -26.5584  -34.8898   22.4662 O   0  0  0  0  0  0
  -23.5343  -32.1414   23.7548 O   0  0  0  0  0  0
  -30.1903  -18.5794   23.1169 C   0  0  0  0  0  0
  -30.8030  -17.9614   24.2135 C   0  0  0  0  0  0
  -30.8556  -15.9291   23.1342 C   0  0  0  0  0  0
  -29.9036  -17.8306   21.9570 C   0  0  0  0  0  0
  -30.2282  -16.4407   21.9740 C   0  0  0  0  0  0
  -29.9539  -19.5229   20.2433 C   0  0  0  0  0  0
  -27.0762  -19.3412   18.5594 C   0  0  0  0  0  0
  -27.2441  -18.0710   19.3938 C   0  0  0  0  0  0
  -28.4115  -19.9668   18.1418 C   0  0  0  0  0  0
  -27.8085  -18.3595   20.7925 C   0  0  0  0  0  0
  -29.2924  -20.5445   19.2709 C   0  0  1  0  0  0
  -28.3313  -24.2770   19.3835 C   0  0  0  0  0  0
  -29.3096  -23.0620   19.4981 C   0  0  0  0  0  0
  -28.3461  -25.3164   20.5365 C   0  0  0  0  0  0
  -31.1337  -16.6579   24.2298 N   0  0  0  0  0  0
  -29.2659  -18.5222   20.8709 N   0  0  0  0  0  0
  -29.8749  -15.5183   20.9478 N   0  0  0  0  0  0
  -28.6974  -21.7608   19.9139 N   0  3  0  0  0  0
  -31.1725  -19.6553   20.4097 O   0  0  0  0  0  0
  -31.4663  -12.4205   19.0972 H   0  0  0  0  0  0
  -30.3209  -11.3023   19.7919 H   0  0  0  0  0  0
  -29.7189  -11.7851   17.4013 H   0  0  0  0  0  0
  -29.6426  -13.4934   17.7538 H   0  0  0  0  0  0
  -27.8236  -11.3032   18.8023 H   0  0  0  0  0  0
  -27.3480  -12.6300   17.7762 H   0  0  0  0  0  0
  -27.6947  -14.2420   19.5636 H   0  0  0  0  0  0
  -28.6910  -11.9317   21.3062 H   0  0  0  0  0  0
  -28.4733  -13.5644   21.8644 H   0  0  0  0  0  0
  -25.2776   -9.5597   22.4761 H   0  0  0  0  0  0
  -23.9998   -7.4556   22.7441 H   0  0  0  0  0  0
  -21.0840   -8.8778   19.8948 H   0  0  0  0  0  0
  -22.3756  -10.9658   19.6168 H   0  0  0  0  0  0
  -21.2008   -7.6163   23.9711 H   0  0  0  0  0  0
  -21.1482   -6.0571   25.9090 H   0  0  0  0  0  0
  -22.0593   -2.7621   23.2902 H   0  0  0  0  0  0
  -22.4176  -11.9715   22.4735 H   0  0  0  0  0  0
  -21.1177  -13.1095   22.2829 H   0  0  0  0  0  0
  -24.6774  -15.8453   20.5086 H   0  0  0  0  0  0
  -26.2804  -15.5983   20.0416 H   0  0  0  0  0  0
  -26.7089  -32.5501   23.1125 H   0  0  0  0  0  0
  -25.0133  -33.9768   25.0514 H   0  0  0  0  0  0
  -22.6893  -31.3086   21.4182 H   0  0  0  0  0  0
  -23.3764  -35.9628   23.3308 H   0  0  0  0  0  0
  -24.3594  -36.8886   22.2042 H   0  0  0  0  0  0
  -23.7271  -37.6502   23.6647 H   0  0  0  0  0  0
  -26.0400  -31.5933   20.6046 H   0  0  0  0  0  0
  -26.8168  -30.8737   21.9843 H   0  0  0  0  0  0
  -28.0948  -29.0887   21.1578 H   0  0  0  0  0  0
  -26.0446  -25.9580   19.0195 H   0  0  0  0  0  0
  -23.9651  -27.2836   19.0478 H   0  0  0  0  0  0
  -23.6948  -30.5796   19.4030 H   0  0  0  0  0  0
  -22.7301  -29.2206   19.8940 H   0  0  0  0  0  0
  -25.1322  -36.1931   25.0831 H   0  0  0  0  0  0
  -20.9923  -28.3006   24.1376 H   0  0  0  0  0  0
  -20.5946  -26.2087   23.3289 H   0  0  0  0  0  0
  -21.6580  -26.7544   22.0751 H   0  0  0  0  0  0
  -19.6714  -25.6067   21.1394 H   0  0  0  0  0  0
  -19.6571  -27.2850   20.6541 H   0  0  0  0  0  0
  -17.4123  -26.6776   21.3873 H   0  0  0  0  0  0
  -18.0042  -26.0069   22.8891 H   0  0  0  0  0  0
  -19.7985  -30.6998   24.2606 H   0  0  0  0  0  0
  -17.5142  -31.6121   24.5496 H   0  0  0  0  0  0
  -15.5415  -30.3073   23.7736 H   0  0  0  0  0  0
  -15.8651  -28.0892   22.7094 H   0  0  0  0  0  0
  -24.5929  -30.7021   25.7791 H   0  0  0  0  0  0
  -24.8975  -32.2823   26.4950 H   0  0  0  0  0  0
  -25.8140  -30.8793   27.0189 H   0  0  0  0  0  0
  -26.2817  -29.6799   24.1154 H   0  0  0  0  0  0
  -27.4125  -29.7253   25.4475 H   0  0  0  0  0  0
  -27.8632  -30.4353   23.9154 H   0  0  0  0  0  0
  -27.2645  -33.3589   26.2072 H   0  0  0  0  0  0
  -28.3839  -32.6906   25.0281 H   0  0  0  0  0  0
  -28.0742  -31.8422   26.5351 H   0  0  0  0  0  0
  -28.2611  -38.0086   24.7508 H   0  0  0  0  0  0
  -28.1081  -36.2622   24.6316 H   0  0  0  0  0  0
  -27.2290  -37.1468   25.8857 H   0  0  0  0  0  0
  -20.9273  -29.8736   21.6964 H   0  0  0  0  0  0
  -26.0192  -38.2844   24.1392 H   0  0  0  0  0  0
  -29.9615  -19.6344   23.1692 H   0  0  0  0  0  0
  -31.0326  -18.5272   25.1036 H   0  0  0  0  0  0
  -31.0988  -14.8800   23.2183 H   0  0  0  0  0  0
  -26.4526  -20.0589   19.0992 H   0  0  0  0  0  0
  -26.5125  -19.0871   17.6611 H   0  0  0  0  0  0
  -27.8332  -17.3111   18.8753 H   0  0  0  0  0  0
  -26.2452  -17.6499   19.5118 H   0  0  0  0  0  0
  -28.2136  -20.7617   17.4206 H   0  0  0  0  0  0
  -28.9934  -19.2221   17.5973 H   0  0  0  0  0  0
  -27.5153  -17.5326   21.4440 H   0  0  0  0  0  0
  -27.3260  -19.2388   21.2204 H   0  0  0  0  0  0
  -30.1681  -20.8940   18.7237 H   0  0  0  0  0  0
  -27.3135  -23.9399   19.1917 H   0  0  0  0  0  0
  -28.6211  -24.8130   18.4802 H   0  0  0  0  0  0
  -30.1732  -23.2880   20.1268 H   0  0  0  0  0  0
  -29.7194  -22.9392   18.4967 H   0  0  0  0  0  0
  -27.5059  -25.1498   21.2146 H   0  0  0  0  0  0
  -29.2387  -25.1658   21.1422 H   0  0  0  0  0  0
  -28.8836  -15.3455   20.8638 H   0  0  0  0  0  0
  -28.7609  -21.6725   20.9157 H   0  0  0  0  0  0
  -27.7244  -21.7740   19.6668 H   0  0  0  0  0  0
  1 25  1  0  0  0
  1 30  2  0  0  0
  1 87  1  0  0  0
  2  3  1  0  0  0
  2 25  1  0  0  0
  2 90  1  0  0  0
  2 91  1  0  0  0
  3  4  1  0  0  0
  3 92  1  0  0  0
  3 93  1  0  0  0
  4  5  1  0  0  0
  4 94  1  0  0  0
  4 95  1  0  0  0
  5  6  1  0  0  0
  5 26  1  0  0  0
  5 96  1  0  0  0
  6 25  1  0  0  0
  6 97  1  0  0  0
  6 98  1  0  0  0
  7  8  2  0  0  0
  7 26  1  0  0  0
  7 29  1  0  0  0
  8  9  1  0  0  0
  8 22  1  0  0  0
  9 10  1  0  0  0
  9 27  2  0  0  0
 10 11  2  0  0  0
 10 15  1  0  0  0
 11 12  1  0  0  0
 11 99  1  0  0  0
 12 13  2  0  0  0
 12100  1  0  0  0
 13 14  1  0  0  0
 13 31  1  0  0  0
 14 15  2  0  0  0
 14101  1  0  0  0
 15102  1  0  0  0
 16 17  2  0  0  0
 16 21  1  0  0  0
 16 31  1  0  0  0
 17 18  1  0  0  0
 17103  1  0  0  0
 18 19  2  0  0  0
 18104  1  0  0  0
 19 20  1  0  0  0
 19 24  1  0  0  0
 20 21  2  0  0  0
 20105  1  0  0  0
 21 23  1  0  0  0
 22 28  1  0  0  0
 22 32  2  0  0  0
 26 27  1  0  0  0
 28106  1  0  0  0
 28107  1  0  0  0
 29108  1  0  0  0
 29109  1  0  0  0
 33 34  1  0  0  0
 33 66  1  0  0  0
 33 70  2  0  0  0
 34 36  1  0  0  0
 34 59  1  0  0  0
 34110  1  0  0  0
 35 44  2  0  0  0
 35 45  1  0  0  0
 35 68  1  0  0  0
 36 56  1  0  0  0
 36111  1  0  0  0
 37 39  1  0  0  0
 37 47  1  0  0  0
 37 66  1  0  0  0
 37112  1  0  0  0
 38 43  2  0  0  0
 38 46  1  0  0  0
 38 47  1  0  0  0
 39 64  1  0  0  0
 39 67  2  0  0  0
 40 52  1  0  0  0
 40 53  2  0  0  0
 40 58  1  0  0  0
 41113  1  0  0  0
 41114  1  0  0  0
 41115  1  0  0  0
 41 48  1  0  0  0
 42 43  1  0  0  0
 42 66  1  0  0  0
 42116  1  0  0  0
 42117  1  0  0  0
 43 44  1  0  0  0
 44118  1  0  0  0
 45 46  2  0  0  0
 45119  1  0  0  0
 46120  1  0  0  0
 47121  1  0  0  0
 47122  1  0  0  0
 48 56  1  0  0  0
 48 65  1  0  0  0
 48123  1  0  0  0
 49 50  1  0  0  0
 49 53  1  0  0  0
 49 64  1  0  0  0
 49124  1  0  0  0
 50 51  1  0  0  0
 50125  1  0  0  0
 50126  1  0  0  0
 51 52  1  0  0  0
 51127  1  0  0  0
 51128  1  0  0  0
 52129  1  0  0  0
 52130  1  0  0  0
 53 54  1  0  0  0
 54 55  2  0  0  0
 54131  1  0  0  0
 55 57  1  0  0  0
 55132  1  0  0  0
 56 69  2  0  0  0
 57 58  2  0  0  0
 57133  1  0  0  0
 58134  1  0  0  0
 59 60  1  0  0  0
 59 61  1  0  0  0
 59 62  1  0  0  0
 60135  1  0  0  0
 60136  1  0  0  0
 60137  1  0  0  0
 61138  1  0  0  0
 61139  1  0  0  0
 61140  1  0  0  0
 62141  1  0  0  0
 62142  1  0  0  0
 62143  1  0  0  0
 63 65  1  0  0  0
 63144  1  0  0  0
 63145  1  0  0  0
 63146  1  0  0  0
 64147  1  0  0  0
 65148  1  0  0  0
 68 84  1  0  0  0
 71 72  2  0  0  0
 71 74  1  0  0  0
 71149  1  0  0  0
 72 85  1  0  0  0
 72150  1  0  0  0
 73 75  1  0  0  0
 73 85  2  0  0  0
 73151  1  0  0  0
 74 75  2  0  0  0
 74 86  1  0  0  0
 75 87  1  0  0  0
 76 81  1  0  0  0
 76 86  1  0  0  0
 76 89  2  0  0  0
 77 78  1  0  0  0
 77 79  1  0  0  0
 77152  1  0  0  0
 77153  1  0  0  0
 78 80  1  0  0  0
 78154  1  0  0  0
 78155  1  0  0  0
 79 81  1  0  0  0
 79156  1  0  0  0
 79157  1  0  0  0
 80 86  1  0  0  0
 80158  1  0  0  0
 80159  1  0  0  0
 81 88  1  0  0  0
 81160  1  0  0  0
 82 83  1  0  0  0
 82 84  1  0  0  0
 82161  1  0  0  0
 82162  1  0  0  0
 83 88  1  0  0  0
 83163  1  0  0  0
 83164  1  0  0  0
 84165  1  0  0  0
 84166  1  0  0  0
 87167  1  0  0  0
 88168  1  0  0  0
 88169  1  0  0  0
M  CHG  1  88   1
M  ISO  4   1 100  68 101  84 101  87 100
M  END
> <chiral flag>
0

> <version>
0

> <s_m_source_file>
/data/baiqing/PycharmProjects/Reinvent-master-3.2/result/LINK_invent/BTK/process_docking_weight1_custom_product_contain_oxygen_bond_distance_aromatic_linkinvent_7_9_3/rearranged_h_0022.sdf

> <i_m_source_file_index>
86

> <r_mmod_Potential_Energy-OPLS-2005>
-260.34521484375

> <r_mmod_Stretch_Energy-OPLS-2005>
44.3880157470703

> <r_mmod_Bend_Energy-OPLS-2005>
135.419692993164

> <r_mmod_Torsional_Energy-OPLS-2005>
375.047546386719

> <r_mmod_Improper_Torsional_Energy-OPLS-2005>
7.84732246398926

> <r_mmod_Van_der_Waal_Energy-OPLS-2005>
155.937561035156

> <r_mmod_Electrostatic_Energy-OPLS-2005>
-483.456817626953

> <r_mmod_Solvation_Energy-OPLS-2005>
-512.498718261719

> <b_mmod_Minimization_Converged-OPLS-2005>
0

> <r_mmod_RMS_Derivative-OPLS-2005>
4.34262943267822

$$$$
87
                    3D
 Structure written by MMmdl.
161169  0  0  1  0            999 V2000
  -30.7275  -14.4520   20.5991 C   0  0  0  0  0  0
  -30.4216  -12.3095   19.4093 C   0  0  0  0  0  0
  -29.4851  -12.5085   18.2009 C   0  0  0  0  0  0
  -28.0102  -12.3621   18.6205 C   0  0  0  0  0  0
  -27.6622  -13.1985   19.8779 C   0  0  2  0  0  0
  -28.7097  -12.9829   20.9945 C   0  0  0  0  0  0
  -25.2601  -13.8138   20.5673 C   0  0  0  0  0  0
  -24.1857  -13.0411   20.9207 C   0  0  0  0  0  0
  -24.6413  -11.6887   20.8782 C   0  0  0  0  0  0
  -23.9077  -10.4278   21.0434 C   0  0  0  0  0  0
  -24.3639   -9.4183   21.9198 C   0  0  0  0  0  0
  -23.6306   -8.2220   22.0757 C   0  0  0  0  0  0
  -22.4284   -8.0286   21.3548 C   0  0  0  0  0  0
  -21.9932   -9.0257   20.4638 C   0  0  0  0  0  0
  -22.7260  -10.2135   20.3060 C   0  0  0  0  0  0
  -21.6840   -6.0747   22.5284 C   0  0  0  0  0  0
  -21.4011   -6.5652   23.8219 C   0  0  0  0  0  0
  -21.3661   -5.6809   24.9183 C   0  0  0  0  0  0
  -21.6047   -4.3074   24.7234 C   0  0  0  0  0  0
  -21.8826   -3.8160   23.4355 C   0  0  0  0  0  0
  -21.9189   -4.6972   22.3412 C   0  0  0  0  0  0
  -22.7881  -13.5209   21.1851 C   0  0  0  0  0  0
  -22.1660   -4.2153   21.0989 F   0  0  0  0  0  0
  -21.5618   -3.4559   25.7747 F   0  0  0  0  0  0
  -30.0360  -13.2906   20.4340 N   0  0  0  0  0  0
  -26.3037  -12.9288   20.3412 N   0  0  0  0  0  0
  -25.9341  -11.6454   20.5827 N   0  0  0  0  0  0
  -22.0543  -12.8170   22.0405 N   0  0  0  0  0  0
  -25.4319  -15.1834   20.3987 N   0  0  0  0  0  0
  -31.8559  -14.6287   20.1314 O   0  0  0  0  0  0
  -21.6635   -6.8893   21.4247 O   0  0  0  0  0  0
  -22.3558  -14.5514   20.6712 O   0  0  0  0  0  0
  -24.6165  -31.8702   23.2115 C   0  0  0  0  0  0
  -25.9050  -32.4839   23.8426 C   0  0  1  0  0  0
  -27.2341  -27.4393   20.0813 C   0  0  0  0  0  0
  -25.5900  -33.8638   24.2345 N   0  0  0  0  0  0
  -23.4038  -30.4991   21.5502 C   0  0  2  0  0  0
  -24.8482  -28.9704   20.1124 C   0  0  0  0  0  0
  -22.7414  -29.4704   22.4955 C   0  0  0  0  0  0
  -18.0280  -28.1397   22.8481 C   0  0  0  0  0  0
  -24.1484  -36.7334   23.2634 C   0  0  0  0  0  0
  -25.9350  -30.8371   21.3650 C   0  0  0  0  0  0
  -26.0109  -29.4738   20.7088 C   0  0  0  0  0  0
  -27.2065  -28.7165   20.6906 C   0  0  0  0  0  0
  -26.0458  -26.9580   19.4768 C   0  0  0  0  0  0
  -24.8611  -27.7116   19.4942 C   0  0  0  0  0  0
  -23.6109  -29.8358   20.1639 C   0  0  0  0  0  0
  -25.4103  -36.3123   24.0336 C   0  0  1  0  0  0
  -20.5871  -28.3700   23.1289 C   0  0  2  0  0  0
  -20.6773  -26.9430   22.5408 C   0  0  0  0  0  0
  -19.5753  -26.6391   21.5205 C   0  0  0  0  0  0
  -18.1932  -26.7940   22.1615 C   0  0  0  0  0  0
  -19.1530  -28.8859   23.2892 C   0  0  0  0  0  0
  -18.9461  -30.1457   23.8916 C   0  0  0  0  0  0
  -17.6465  -30.6595   24.0574 C   0  0  0  0  0  0
  -25.9028  -34.9486   23.5135 C   0  0  0  0  0  0
  -16.5352  -29.9104   23.6318 C   0  0  0  0  0  0
  -16.7269  -28.6517   23.0346 C   0  0  0  0  0  0
  -26.4461  -31.6625   25.0764 C   0  0  0  0  0  0
  -25.3719  -31.3750   26.1507 C   0  0  0  0  0  0
  -27.0294  -30.3062   24.6166 C   0  0  0  0  0  0
  -27.6040  -32.4339   25.7533 C   0  0  0  0  0  0
  -27.5585  -37.1820   24.8453 C   0  0  0  0  0  0
  -21.4141  -29.3073   22.3689 N   0  0  0  0  0  0
  -26.4291  -37.3811   23.9411 N   0  0  0  0  0  0
  -24.6703  -31.0824   22.1007 N   0  0  0  0  0  0
  -23.4183  -28.8228   23.2990 O   0  0  0  0  0  0
  -28.4042  -26.6980   20.0943 O   0  0  0  0  0  0
  -26.5590  -34.8932   22.4696 O   0  0  0  0  0  0
  -23.5350  -32.1445   23.7502 O   0  0  0  0  0  0
  -28.6861  -18.7220   21.3502 C   0  0  0  0  0  0
  -28.9001  -20.1155   21.3910 C   0  0  0  0  0  0
  -30.8262  -19.8522   19.9412 C   0  0  0  0  0  0
  -29.5293  -17.8727   20.5970 C   0  0  0  0  0  0
  -30.6048  -18.4558   19.8735 C   0  0  0  0  0  0
  -29.9782  -20.6950   20.6893 C   0  0  0  0  0  0
  -31.5365  -17.6288   19.0035 C   0  0  0  0  0  0
  -30.6474  -15.9343   22.5267 C   0  0  0  0  0  0
  -29.1980  -16.3708   20.5435 C   0  0  0  0  0  0
  -29.4840  -24.4423   20.2675 C   0  0  0  0  0  0
  -29.1057  -22.9444   20.3546 C   0  0  0  0  0  0
  -28.2623  -25.2885   19.8600 C   0  0  0  0  0  0
  -30.2262  -22.0789   20.7224 N   0  0  0  0  0  0
  -30.0901  -15.4401   21.2678 N   0  0  0  0  0  0
  -31.4628  -12.4145   19.0982 H   0  0  0  0  0  0
  -30.3306  -11.2973   19.8055 H   0  0  0  0  0  0
  -29.7227  -11.7902   17.4152 H   0  0  0  0  0  0
  -29.6453  -13.4989   17.7711 H   0  0  0  0  0  0
  -27.8230  -11.3064   18.8163 H   0  0  0  0  0  0
  -27.3543  -12.6420   17.7950 H   0  0  0  0  0  0
  -27.7002  -14.2430   19.5754 H   0  0  0  0  0  0
  -28.6923  -11.9482   21.3412 H   0  0  0  0  0  0
  -28.4730  -13.5866   21.8717 H   0  0  0  0  0  0
  -25.2792   -9.5636   22.4776 H   0  0  0  0  0  0
  -24.0004   -7.4609   22.7479 H   0  0  0  0  0  0
  -21.0864   -8.8792   19.8943 H   0  0  0  0  0  0
  -22.3734  -10.9692   19.6184 H   0  0  0  0  0  0
  -21.2015   -7.6165   23.9718 H   0  0  0  0  0  0
  -21.1471   -6.0547   25.9085 H   0  0  0  0  0  0
  -22.0604   -2.7618   23.2859 H   0  0  0  0  0  0
  -22.4197  -11.9824   22.4749 H   0  0  0  0  0  0
  -21.1167  -13.1181   22.2659 H   0  0  0  0  0  0
  -24.6603  -15.8365   20.4874 H   0  0  0  0  0  0
  -26.2736  -15.6119   20.0385 H   0  0  0  0  0  0
  -26.7143  -32.5558   23.1217 H   0  0  0  0  0  0
  -25.0056  -33.9807   25.0493 H   0  0  0  0  0  0
  -22.6940  -31.3174   21.4130 H   0  0  0  0  0  0
  -23.3747  -35.9666   23.3284 H   0  0  0  0  0  0
  -24.3591  -36.8964   22.2057 H   0  0  0  0  0  0
  -23.7227  -37.6531   23.6667 H   0  0  0  0  0  0
  -26.0498  -31.6041   20.5980 H   0  0  0  0  0  0
  -26.8227  -30.8885   21.9846 H   0  0  0  0  0  0
  -28.1029  -29.1040   21.1550 H   0  0  0  0  0  0
  -26.0051  -26.0015   18.9773 H   0  0  0  0  0  0
  -23.9701  -27.3206   19.0228 H   0  0  0  0  0  0
  -23.7156  -30.6117   19.4043 H   0  0  0  0  0  0
  -22.7348  -29.2545   19.8705 H   0  0  0  0  0  0
  -25.1270  -36.2003   25.0835 H   0  0  0  0  0  0
  -20.9979  -28.3287   24.1403 H   0  0  0  0  0  0
  -20.5672  -26.2320   23.3607 H   0  0  0  0  0  0
  -21.6647  -26.7468   22.1216 H   0  0  0  0  0  0
  -19.6922  -25.6303   21.1245 H   0  0  0  0  0  0
  -19.6691  -27.3181   20.6721 H   0  0  0  0  0  0
  -17.4203  -26.6683   21.4019 H   0  0  0  0  0  0
  -18.0332  -26.0081   22.9014 H   0  0  0  0  0  0
  -19.7943  -30.7253   24.2301 H   0  0  0  0  0  0
  -17.5033  -31.6278   24.5176 H   0  0  0  0  0  0
  -15.5362  -30.3022   23.7630 H   0  0  0  0  0  0
  -15.8666  -28.0843   22.7052 H   0  0  0  0  0  0
  -24.5875  -30.7112   25.7851 H   0  0  0  0  0  0
  -24.8921  -32.2913   26.4956 H   0  0  0  0  0  0
  -25.8056  -30.8924   27.0274 H   0  0  0  0  0  0
  -26.2864  -29.6846   24.1155 H   0  0  0  0  0  0
  -27.3974  -29.7284   25.4657 H   0  0  0  0  0  0
  -27.8737  -30.4372   23.9389 H   0  0  0  0  0  0
  -27.2674  -33.3646   26.2114 H   0  0  0  0  0  0
  -28.3854  -32.6885   25.0361 H   0  0  0  0  0  0
  -28.0702  -31.8456   26.5449 H   0  0  0  0  0  0
  -28.2575  -38.0145   24.7537 H   0  0  0  0  0  0
  -28.1106  -36.2676   24.6231 H   0  0  0  0  0  0
  -27.2315  -37.1412   25.8855 H   0  0  0  0  0  0
  -20.9289  -29.8836   21.6955 H   0  0  0  0  0  0
  -26.0179  -38.2889   24.1428 H   0  0  0  0  0  0
  -27.8521  -18.3092   21.9012 H   0  0  0  0  0  0
  -28.2337  -20.7272   21.9815 H   0  0  0  0  0  0
  -31.6521  -20.2819   19.3899 H   0  0  0  0  0  0
  -32.0083  -18.2486   18.2405 H   0  0  0  0  0  0
  -31.0129  -16.8306   18.4785 H   0  0  0  0  0  0
  -32.3325  -17.1935   19.6094 H   0  0  0  0  0  0
  -29.8920  -16.4720   23.1005 H   0  0  0  0  0  0
  -31.4907  -16.6011   22.3471 H   0  0  0  0  0  0
  -30.9940  -15.1079   23.1484 H   0  0  0  0  0  0
  -29.1107  -16.0849   19.4935 H   0  0  0  0  0  0
  -28.1997  -16.2234   20.9566 H   0  0  0  0  0  0
  -30.2864  -24.5945   19.5436 H   0  0  0  0  0  0
  -29.8580  -24.7839   21.2334 H   0  0  0  0  0  0
  -28.7006  -22.6156   19.3959 H   0  0  0  0  0  0
  -28.3040  -22.8255   21.0841 H   0  0  0  0  0  0
  -27.4096  -24.9187   20.4319 H   0  0  0  0  0  0
  -28.0490  -25.1155   18.8043 H   0  0  0  0  0  0
  -31.1257  -22.3669   20.3442 H   0  0  0  0  0  0
  1 25  1  0  0  0
  1 30  2  0  0  0
  1 84  1  0  0  0
  2  3  1  0  0  0
  2 25  1  0  0  0
  2 85  1  0  0  0
  2 86  1  0  0  0
  3  4  1  0  0  0
  3 87  1  0  0  0
  3 88  1  0  0  0
  4  5  1  0  0  0
  4 89  1  0  0  0
  4 90  1  0  0  0
  5  6  1  0  0  0
  5 26  1  0  0  0
  5 91  1  0  0  0
  6 25  1  0  0  0
  6 92  1  0  0  0
  6 93  1  0  0  0
  7  8  2  0  0  0
  7 26  1  0  0  0
  7 29  1  0  0  0
  8  9  1  0  0  0
  8 22  1  0  0  0
  9 10  1  0  0  0
  9 27  2  0  0  0
 10 11  2  0  0  0
 10 15  1  0  0  0
 11 12  1  0  0  0
 11 94  1  0  0  0
 12 13  2  0  0  0
 12 95  1  0  0  0
 13 14  1  0  0  0
 13 31  1  0  0  0
 14 15  2  0  0  0
 14 96  1  0  0  0
 15 97  1  0  0  0
 16 17  2  0  0  0
 16 21  1  0  0  0
 16 31  1  0  0  0
 17 18  1  0  0  0
 17 98  1  0  0  0
 18 19  2  0  0  0
 18 99  1  0  0  0
 19 20  1  0  0  0
 19 24  1  0  0  0
 20 21  2  0  0  0
 20100  1  0  0  0
 21 23  1  0  0  0
 22 28  1  0  0  0
 22 32  2  0  0  0
 26 27  1  0  0  0
 28101  1  0  0  0
 28102  1  0  0  0
 29103  1  0  0  0
 29104  1  0  0  0
 33 34  1  0  0  0
 33 66  1  0  0  0
 33 70  2  0  0  0
 34 36  1  0  0  0
 34 59  1  0  0  0
 34105  1  0  0  0
 35 44  2  0  0  0
 35 45  1  0  0  0
 35 68  1  0  0  0
 36 56  1  0  0  0
 36106  1  0  0  0
 37 39  1  0  0  0
 37 47  1  0  0  0
 37 66  1  0  0  0
 37107  1  0  0  0
 38 43  2  0  0  0
 38 46  1  0  0  0
 38 47  1  0  0  0
 39 64  1  0  0  0
 39 67  2  0  0  0
 40 52  1  0  0  0
 40 53  2  0  0  0
 40 58  1  0  0  0
 41108  1  0  0  0
 41109  1  0  0  0
 41110  1  0  0  0
 41 48  1  0  0  0
 42 43  1  0  0  0
 42 66  1  0  0  0
 42111  1  0  0  0
 42112  1  0  0  0
 43 44  1  0  0  0
 44113  1  0  0  0
 45 46  2  0  0  0
 45114  1  0  0  0
 46115  1  0  0  0
 47116  1  0  0  0
 47117  1  0  0  0
 48 56  1  0  0  0
 48 65  1  0  0  0
 48118  1  0  0  0
 49 50  1  0  0  0
 49 53  1  0  0  0
 49 64  1  0  0  0
 49119  1  0  0  0
 50 51  1  0  0  0
 50120  1  0  0  0
 50121  1  0  0  0
 51 52  1  0  0  0
 51122  1  0  0  0
 51123  1  0  0  0
 52124  1  0  0  0
 52125  1  0  0  0
 53 54  1  0  0  0
 54 55  2  0  0  0
 54126  1  0  0  0
 55 57  1  0  0  0
 55127  1  0  0  0
 56 69  2  0  0  0
 57 58  2  0  0  0
 57128  1  0  0  0
 58129  1  0  0  0
 59 60  1  0  0  0
 59 61  1  0  0  0
 59 62  1  0  0  0
 60130  1  0  0  0
 60131  1  0  0  0
 60132  1  0  0  0
 61133  1  0  0  0
 61134  1  0  0  0
 61135  1  0  0  0
 62136  1  0  0  0
 62137  1  0  0  0
 62138  1  0  0  0
 63 65  1  0  0  0
 63139  1  0  0  0
 63140  1  0  0  0
 63141  1  0  0  0
 64142  1  0  0  0
 65143  1  0  0  0
 68 82  1  0  0  0
 71 72  2  0  0  0
 71 74  1  0  0  0
 71144  1  0  0  0
 72 76  1  0  0  0
 72145  1  0  0  0
 73 75  1  0  0  0
 73 76  2  0  0  0
 73146  1  0  0  0
 74 75  2  0  0  0
 74 79  1  0  0  0
 75 77  1  0  0  0
 76 83  1  0  0  0
 77147  1  0  0  0
 77148  1  0  0  0
 77149  1  0  0  0
 78 84  1  0  0  0
 78150  1  0  0  0
 78151  1  0  0  0
 78152  1  0  0  0
 79 84  1  0  0  0
 79153  1  0  0  0
 79154  1  0  0  0
 80 81  1  0  0  0
 80 82  1  0  0  0
 80155  1  0  0  0
 80156  1  0  0  0
 81 83  1  0  0  0
 81157  1  0  0  0
 81158  1  0  0  0
 82159  1  0  0  0
 82160  1  0  0  0
 83161  1  0  0  0
M  ISO  4   1 100  68 101  82 101  84 100
M  END
> <chiral flag>
0

> <version>
0

> <s_m_source_file>
/data/baiqing/PycharmProjects/Reinvent-master-3.2/result/LINK_invent/BTK/process_docking_weight1_custom_product_contain_oxygen_bond_distance_aromatic_linkinvent_7_9_3/rearranged_h_0022.sdf

> <i_m_source_file_index>
87

> <r_mmod_Potential_Energy-OPLS-2005>
69.30859375

> <r_mmod_Stretch_Energy-OPLS-2005>
38.0257225036621

> <r_mmod_Bend_Energy-OPLS-2005>
95.9719390869141

> <r_mmod_Torsional_Energy-OPLS-2005>
280.688598632812

> <r_mmod_Improper_Torsional_Energy-OPLS-2005>
7.28375577926636

> <r_mmod_Van_der_Waal_Energy-OPLS-2005>
153.46354675293

> <r_mmod_Electrostatic_Energy-OPLS-2005>
-313.813812255859

> <r_mmod_Solvation_Energy-OPLS-2005>
-204.751205444336

> <b_mmod_Minimization_Converged-OPLS-2005>
0

> <r_mmod_RMS_Derivative-OPLS-2005>
2.4210033416748

$$$$
88
                    3D
 Structure written by MMmdl.
155163  0  0  1  0            999 V2000
  -30.6035  -14.6243   20.5392 C   0  0  0  0  0  0
  -30.4488  -12.3888   19.4518 C   0  0  0  0  0  0
  -29.5130  -12.5120   18.2272 C   0  0  0  0  0  0
  -28.0351  -12.3451   18.6373 C   0  0  0  0  0  0
  -27.6596  -13.2067   19.8722 C   0  0  2  0  0  0
  -28.7002  -13.0249   21.0001 C   0  0  0  0  0  0
  -25.2590  -13.8152   20.5664 C   0  0  0  0  0  0
  -24.1845  -13.0431   20.9161 C   0  0  0  0  0  0
  -24.6398  -11.6904   20.8732 C   0  0  0  0  0  0
  -23.9064  -10.4290   21.0416 C   0  0  0  0  0  0
  -24.3612   -9.4205   21.9189 C   0  0  0  0  0  0
  -23.6284   -8.2237   22.0757 C   0  0  0  0  0  0
  -22.4263   -8.0276   21.3551 C   0  0  0  0  0  0
  -21.9908   -9.0252   20.4644 C   0  0  0  0  0  0
  -22.7235  -10.2134   20.3060 C   0  0  0  0  0  0
  -21.6858   -6.0738   22.5277 C   0  0  0  0  0  0
  -21.4009   -6.5643   23.8212 C   0  0  0  0  0  0
  -21.3655   -5.6794   24.9175 C   0  0  0  0  0  0
  -21.6050   -4.3062   24.7226 C   0  0  0  0  0  0
  -21.8818   -3.8152   23.4345 C   0  0  0  0  0  0
  -21.9183   -4.6965   22.3402 C   0  0  0  0  0  0
  -22.7866  -13.5240   21.1835 C   0  0  0  0  0  0
  -22.1660   -4.2159   21.0980 F   0  0  0  0  0  0
  -21.5626   -3.4540   25.7736 F   0  0  0  0  0  0
  -30.0213  -13.3864   20.4531 N   0  0  0  0  0  0
  -26.3017  -12.9321   20.3328 N   0  0  0  0  0  0
  -25.9320  -11.6487   20.5750 N   0  0  0  0  0  0
  -22.0505  -12.8234   22.0395 N   0  0  0  0  0  0
  -25.4326  -15.1866   20.4079 N   0  0  0  0  0  0
  -31.7301  -14.8434   20.0810 O   0  0  0  0  0  0
  -21.6629   -6.8876   21.4241 O   0  0  0  0  0  0
  -22.3556  -14.5549   20.6682 O   0  0  0  0  0  0
  -24.6243  -31.8590   23.2022 C   0  0  0  0  0  0
  -25.9092  -32.4770   23.8338 C   0  0  1  0  0  0
  -27.2404  -27.3416   20.1233 C   0  0  0  0  0  0
  -25.5913  -33.8574   24.2260 N   0  0  0  0  0  0
  -23.4191  -30.4774   21.5435 C   0  0  2  0  0  0
  -24.8713  -28.9294   20.1160 C   0  0  0  0  0  0
  -22.7465  -29.4596   22.4943 C   0  0  0  0  0  0
  -18.0277  -28.1383   22.8469 C   0  0  0  0  0  0
  -24.1498  -36.7296   23.2642 C   0  0  0  0  0  0
  -25.9570  -30.7987   21.3666 C   0  0  0  0  0  0
  -26.0373  -29.4254   20.7132 C   0  0  0  0  0  0
  -27.2277  -28.6427   20.7033 C   0  0  0  0  0  0
  -26.0534  -26.8790   19.5202 C   0  0  0  0  0  0
  -24.8780  -27.6595   19.5139 C   0  0  0  0  0  0
  -23.6370  -29.8097   20.1605 C   0  0  0  0  0  0
  -25.4114  -36.3077   24.0342 C   0  0  1  0  0  0
  -20.5881  -28.3671   23.1291 C   0  0  2  0  0  0
  -20.6775  -26.9397   22.5418 C   0  0  0  0  0  0
  -19.5754  -26.6374   21.5212 C   0  0  0  0  0  0
  -18.1921  -26.7923   22.1617 C   0  0  0  0  0  0
  -19.1535  -28.8847   23.2859 C   0  0  0  0  0  0
  -18.9468  -30.1444   23.8883 C   0  0  0  0  0  0
  -17.6475  -30.6587   24.0554 C   0  0  0  0  0  0
  -25.9052  -34.9443   23.5103 C   0  0  0  0  0  0
  -16.5357  -29.9085   23.6336 C   0  0  0  0  0  0
  -16.7264  -28.6514   23.0325 C   0  0  0  0  0  0
  -26.4482  -31.6587   25.0699 C   0  0  0  0  0  0
  -25.3726  -31.3731   26.1429 C   0  0  0  0  0  0
  -27.0313  -30.3021   24.6123 C   0  0  0  0  0  0
  -27.6041  -32.4319   25.7470 C   0  0  0  0  0  0
  -27.5577  -37.1791   24.8458 C   0  0  0  0  0  0
  -21.4189  -29.3022   22.3689 N   0  0  0  0  0  0
  -26.4285  -37.3775   23.9425 N   0  0  0  0  0  0
  -24.6855  -31.0599   22.0967 N   0  0  0  0  0  0
  -23.4190  -28.8141   23.3021 O   0  0  0  0  0  0
  -28.3728  -26.5229   20.1101 O   0  0  0  0  0  0
  -26.5624  -34.8922   22.4665 O   0  0  0  0  0  0
  -23.5410  -32.1382   23.7366 O   0  0  0  0  0  0
  -30.5042  -17.9167   20.1793 C   0  0  0  0  0  0
  -30.1876  -19.3105   20.0412 C   0  0  0  0  0  0
  -28.5476  -17.6321   21.5507 C   0  0  0  0  0  0
  -28.2236  -19.0094   21.4118 C   0  0  0  0  0  0
  -29.6700  -17.0361   20.9246 C   0  0  0  0  0  0
  -29.0227  -19.8862   20.6271 C   0  0  0  0  0  0
  -26.9747  -19.5173   22.1203 C   0  0  0  0  0  0
  -28.4782  -23.8349   20.0958 C   0  0  0  0  0  0
  -29.3385  -22.4944   20.3592 C   0  0  0  0  0  0
  -28.3088  -25.2482   20.8509 C   0  0  0  0  0  0
  -29.8120  -15.5923   21.0919 N   0  0  0  0  0  0
  -28.5545  -21.2242   20.4058 N   0  0  0  0  0  0
  -31.4893  -12.5275   19.1526 H   0  0  0  0  0  0
  -30.3925  -11.3853   19.8760 H   0  0  0  0  0  0
  -29.7771  -11.7652   17.4778 H   0  0  0  0  0  0
  -29.6544  -13.4851   17.7535 H   0  0  0  0  0  0
  -27.8724  -11.2904   18.8617 H   0  0  0  0  0  0
  -27.3797  -12.5796   17.7982 H   0  0  0  0  0  0
  -27.6908  -14.2469   19.5491 H   0  0  0  0  0  0
  -28.7107  -11.9884   21.3423 H   0  0  0  0  0  0
  -28.4317  -13.6121   21.8789 H   0  0  0  0  0  0
  -25.2763   -9.5683   22.4755 H   0  0  0  0  0  0
  -23.9997   -7.4639   22.7486 H   0  0  0  0  0  0
  -21.0833   -8.8774   19.8950 H   0  0  0  0  0  0
  -22.3701  -10.9670   19.6165 H   0  0  0  0  0  0
  -21.2011   -7.6149   23.9723 H   0  0  0  0  0  0
  -21.1477   -6.0522   25.9078 H   0  0  0  0  0  0
  -22.0601   -2.7615   23.2842 H   0  0  0  0  0  0
  -22.4105  -11.9876   22.4759 H   0  0  0  0  0  0
  -21.1134  -13.1277   22.2621 H   0  0  0  0  0  0
  -24.6635  -15.8404   20.5016 H   0  0  0  0  0  0
  -26.2840  -15.6241   20.0790 H   0  0  0  0  0  0
  -26.7156  -32.5472   23.1100 H   0  0  0  0  0  0
  -25.0037  -33.9720   25.0384 H   0  0  0  0  0  0
  -22.7109  -31.2955   21.3966 H   0  0  0  0  0  0
  -23.3759  -35.9630   23.3303 H   0  0  0  0  0  0
  -24.3589  -36.8928   22.2054 H   0  0  0  0  0  0
  -23.7250  -37.6503   23.6671 H   0  0  0  0  0  0
  -26.0752  -31.5634   20.5985 H   0  0  0  0  0  0
  -26.8417  -30.8536   21.9906 H   0  0  0  0  0  0
  -28.1268  -29.0219   21.1667 H   0  0  0  0  0  0
  -26.0357  -25.9005   19.0607 H   0  0  0  0  0  0
  -23.9853  -27.2675   19.0468 H   0  0  0  0  0  0
  -23.7598  -30.5863   19.4031 H   0  0  0  0  0  0
  -22.7580  -29.2377   19.8554 H   0  0  0  0  0  0
  -25.1288  -36.1941   25.0836 H   0  0  0  0  0  0
  -20.9929  -28.3249   24.1425 H   0  0  0  0  0  0
  -20.5698  -26.2259   23.3614 H   0  0  0  0  0  0
  -21.6638  -26.7439   22.1192 H   0  0  0  0  0  0
  -19.6929  -25.6285   21.1241 H   0  0  0  0  0  0
  -19.6727  -27.3178   20.6745 H   0  0  0  0  0  0
  -17.4194  -26.6662   21.4007 H   0  0  0  0  0  0
  -18.0309  -26.0064   22.9016 H   0  0  0  0  0  0
  -19.7948  -30.7232   24.2253 H   0  0  0  0  0  0
  -17.5043  -31.6276   24.5135 H   0  0  0  0  0  0
  -15.5359  -30.2982   23.7684 H   0  0  0  0  0  0
  -15.8658  -28.0850   22.7024 H   0  0  0  0  0  0
  -24.5892  -30.7089   25.7763 H   0  0  0  0  0  0
  -24.8912  -32.2895   26.4847 H   0  0  0  0  0  0
  -25.8033  -30.8907   27.0206 H   0  0  0  0  0  0
  -26.2854  -29.6775   24.1193 H   0  0  0  0  0  0
  -27.4073  -29.7273   25.4594 H   0  0  0  0  0  0
  -27.8703  -30.4309   23.9281 H   0  0  0  0  0  0
  -27.2658  -33.3641   26.2001 H   0  0  0  0  0  0
  -28.3875  -32.6848   25.0311 H   0  0  0  0  0  0
  -28.0680  -31.8471   26.5424 H   0  0  0  0  0  0
  -28.2564  -38.0109   24.7505 H   0  0  0  0  0  0
  -28.1095  -36.2638   24.6275 H   0  0  0  0  0  0
  -27.2289  -37.1419   25.8853 H   0  0  0  0  0  0
  -20.9369  -29.8756   21.6924 H   0  0  0  0  0  0
  -26.0176  -38.2856   24.1439 H   0  0  0  0  0  0
  -31.3824  -17.5301   19.6824 H   0  0  0  0  0  0
  -30.8301  -19.9254   19.4270 H   0  0  0  0  0  0
  -27.8868  -17.0129   22.1428 H   0  0  0  0  0  0
  -26.7498  -18.9087   22.9972 H   0  0  0  0  0  0
  -26.1166  -19.4772   21.4509 H   0  0  0  0  0  0
  -27.0911  -20.5415   22.4727 H   0  0  0  0  0  0
  -29.4534  -24.2612   19.8525 H   0  0  0  0  0  0
  -28.0427  -23.4924   21.0361 H   0  0  0  0  0  0
  -29.9166  -22.5822   21.2825 H   0  0  0  0  0  0
  -30.0804  -22.3737   19.5663 H   0  0  0  0  0  0
  -29.0834  -25.3252   21.6186 H   0  0  0  0  0  0
  -27.3751  -25.2656   21.4250 H   0  0  0  0  0  0
  -29.0221  -15.1716   21.5582 H   0  0  0  0  0  0
  -27.5857  -21.3609   20.6785 H   0  0  0  0  0  0
  1 25  1  0  0  0
  1 30  2  0  0  0
  1 81  1  0  0  0
  2  3  1  0  0  0
  2 25  1  0  0  0
  2 83  1  0  0  0
  2 84  1  0  0  0
  3  4  1  0  0  0
  3 85  1  0  0  0
  3 86  1  0  0  0
  4  5  1  0  0  0
  4 87  1  0  0  0
  4 88  1  0  0  0
  5  6  1  0  0  0
  5 26  1  0  0  0
  5 89  1  0  0  0
  6 25  1  0  0  0
  6 90  1  0  0  0
  6 91  1  0  0  0
  7  8  2  0  0  0
  7 26  1  0  0  0
  7 29  1  0  0  0
  8  9  1  0  0  0
  8 22  1  0  0  0
  9 10  1  0  0  0
  9 27  2  0  0  0
 10 11  2  0  0  0
 10 15  1  0  0  0
 11 12  1  0  0  0
 11 92  1  0  0  0
 12 13  2  0  0  0
 12 93  1  0  0  0
 13 14  1  0  0  0
 13 31  1  0  0  0
 14 15  2  0  0  0
 14 94  1  0  0  0
 15 95  1  0  0  0
 16 17  2  0  0  0
 16 21  1  0  0  0
 16 31  1  0  0  0
 17 18  1  0  0  0
 17 96  1  0  0  0
 18 19  2  0  0  0
 18 97  1  0  0  0
 19 20  1  0  0  0
 19 24  1  0  0  0
 20 21  2  0  0  0
 20 98  1  0  0  0
 21 23  1  0  0  0
 22 28  1  0  0  0
 22 32  2  0  0  0
 26 27  1  0  0  0
 28 99  1  0  0  0
 28100  1  0  0  0
 29101  1  0  0  0
 29102  1  0  0  0
 33 34  1  0  0  0
 33 66  1  0  0  0
 33 70  2  0  0  0
 34 36  1  0  0  0
 34 59  1  0  0  0
 34103  1  0  0  0
 35 44  2  0  0  0
 35 45  1  0  0  0
 35 68  1  0  0  0
 36 56  1  0  0  0
 36104  1  0  0  0
 37 39  1  0  0  0
 37 47  1  0  0  0
 37 66  1  0  0  0
 37105  1  0  0  0
 38 43  2  0  0  0
 38 46  1  0  0  0
 38 47  1  0  0  0
 39 64  1  0  0  0
 39 67  2  0  0  0
 40 52  1  0  0  0
 40 53  2  0  0  0
 40 58  1  0  0  0
 41106  1  0  0  0
 41107  1  0  0  0
 41108  1  0  0  0
 41 48  1  0  0  0
 42 43  1  0  0  0
 42 66  1  0  0  0
 42109  1  0  0  0
 42110  1  0  0  0
 43 44  1  0  0  0
 44111  1  0  0  0
 45 46  2  0  0  0
 45112  1  0  0  0
 46113  1  0  0  0
 47114  1  0  0  0
 47115  1  0  0  0
 48 56  1  0  0  0
 48 65  1  0  0  0
 48116  1  0  0  0
 49 50  1  0  0  0
 49 53  1  0  0  0
 49 64  1  0  0  0
 49117  1  0  0  0
 50 51  1  0  0  0
 50118  1  0  0  0
 50119  1  0  0  0
 51 52  1  0  0  0
 51120  1  0  0  0
 51121  1  0  0  0
 52122  1  0  0  0
 52123  1  0  0  0
 53 54  1  0  0  0
 54 55  2  0  0  0
 54124  1  0  0  0
 55 57  1  0  0  0
 55125  1  0  0  0
 56 69  2  0  0  0
 57 58  2  0  0  0
 57126  1  0  0  0
 58127  1  0  0  0
 59 60  1  0  0  0
 59 61  1  0  0  0
 59 62  1  0  0  0
 60128  1  0  0  0
 60129  1  0  0  0
 60130  1  0  0  0
 61131  1  0  0  0
 61132  1  0  0  0
 61133  1  0  0  0
 62134  1  0  0  0
 62135  1  0  0  0
 62136  1  0  0  0
 63 65  1  0  0  0
 63137  1  0  0  0
 63138  1  0  0  0
 63139  1  0  0  0
 64140  1  0  0  0
 65141  1  0  0  0
 68 80  1  0  0  0
 71 72  2  0  0  0
 71 75  1  0  0  0
 71142  1  0  0  0
 72 76  1  0  0  0
 72143  1  0  0  0
 73 74  1  0  0  0
 73 75  2  0  0  0
 73144  1  0  0  0
 74 76  2  0  0  0
 74 77  1  0  0  0
 75 81  1  0  0  0
 76 82  1  0  0  0
 77145  1  0  0  0
 77146  1  0  0  0
 77147  1  0  0  0
 78 79  1  0  0  0
 78 80  1  0  0  0
 78148  1  0  0  0
 78149  1  0  0  0
 79 82  1  0  0  0
 79150  1  0  0  0
 79151  1  0  0  0
 80152  1  0  0  0
 80153  1  0  0  0
 81154  1  0  0  0
 82155  1  0  0  0
M  ISO  4   1 100  68 101  80 101  81 100
M  END
> <chiral flag>
0

> <version>
0

> <s_m_source_file>
/data/baiqing/PycharmProjects/Reinvent-master-3.2/result/LINK_invent/BTK/process_docking_weight1_custom_product_contain_oxygen_bond_distance_aromatic_linkinvent_7_9_3/rearranged_h_0022.sdf

> <i_m_source_file_index>
88

> <r_mmod_Potential_Energy-OPLS-2005>
284.398559570312

> <r_mmod_Stretch_Energy-OPLS-2005>
78.8831024169922

> <r_mmod_Bend_Energy-OPLS-2005>
384.560455322266

> <r_mmod_Torsional_Energy-OPLS-2005>
245.038589477539

> <r_mmod_Improper_Torsional_Energy-OPLS-2005>
5.21586990356445

> <r_mmod_Van_der_Waal_Energy-OPLS-2005>
150.559814453125

> <r_mmod_Electrostatic_Energy-OPLS-2005>
-407.145080566406

> <r_mmod_Solvation_Energy-OPLS-2005>
-213.08984375

> <b_mmod_Minimization_Converged-OPLS-2005>
0

> <r_mmod_RMS_Derivative-OPLS-2005>
2.42122602462769

$$$$
89
                    3D
 Structure written by MMmdl.
155163  0  0  1  0            999 V2000
  -30.6562  -14.6516   20.4993 C   0  0  0  0  0  0
  -30.4235  -12.4040   19.4569 C   0  0  0  0  0  0
  -29.4988  -12.4984   18.2255 C   0  0  0  0  0  0
  -28.0266  -12.3283   18.6465 C   0  0  0  0  0  0
  -27.6446  -13.2213   19.8564 C   0  0  2  0  0  0
  -28.6894  -13.1233   20.9893 C   0  0  0  0  0  0
  -25.2521  -13.8176   20.5714 C   0  0  0  0  0  0
  -24.1796  -13.0426   20.9194 C   0  0  0  0  0  0
  -24.6379  -11.6905   20.8744 C   0  0  0  0  0  0
  -23.9052  -10.4285   21.0402 C   0  0  0  0  0  0
  -24.3607   -9.4206   21.9183 C   0  0  0  0  0  0
  -23.6283   -8.2241   22.0754 C   0  0  0  0  0  0
  -22.4266   -8.0278   21.3545 C   0  0  0  0  0  0
  -21.9901   -9.0250   20.4642 C   0  0  0  0  0  0
  -22.7225  -10.2126   20.3053 C   0  0  0  0  0  0
  -21.6851   -6.0731   22.5276 C   0  0  0  0  0  0
  -21.4015   -6.5636   23.8212 C   0  0  0  0  0  0
  -21.3660   -5.6788   24.9172 C   0  0  0  0  0  0
  -21.6041   -4.3051   24.7224 C   0  0  0  0  0  0
  -21.8819   -3.8142   23.4345 C   0  0  0  0  0  0
  -21.9191   -4.6958   22.3399 C   0  0  0  0  0  0
  -22.7821  -13.5225   21.1847 C   0  0  0  0  0  0
  -22.1661   -4.2143   21.0977 F   0  0  0  0  0  0
  -21.5624   -3.4535   25.7739 F   0  0  0  0  0  0
  -29.9989  -13.4501   20.4114 N   0  0  0  0  0  0
  -26.2951  -12.9369   20.3328 N   0  0  0  0  0  0
  -25.9312  -11.6516   20.5775 N   0  0  0  0  0  0
  -22.0466  -12.8226   22.0416 N   0  0  0  0  0  0
  -25.4201  -15.1898   20.4171 N   0  0  0  0  0  0
  -31.8224  -14.7581   20.1065 O   0  0  0  0  0  0
  -21.6634   -6.8876   21.4240 O   0  0  0  0  0  0
  -22.3508  -14.5524   20.6689 O   0  0  0  0  0  0
  -24.6259  -31.8588   23.2013 C   0  0  0  0  0  0
  -25.9117  -32.4769   23.8338 C   0  0  1  0  0  0
  -27.2224  -27.3121   20.1085 C   0  0  0  0  0  0
  -25.5927  -33.8575   24.2268 N   0  0  0  0  0  0
  -23.4206  -30.4819   21.5429 C   0  0  2  0  0  0
  -24.8638  -28.9308   20.1090 C   0  0  0  0  0  0
  -22.7471  -29.4625   22.4921 C   0  0  0  0  0  0
  -18.0283  -28.1391   22.8482 C   0  0  0  0  0  0
  -24.1490  -36.7288   23.2639 C   0  0  0  0  0  0
  -25.9606  -30.7844   21.3739 C   0  0  0  0  0  0
  -26.0313  -29.4118   20.7138 C   0  0  0  0  0  0
  -27.2099  -28.6112   20.7058 C   0  0  0  0  0  0
  -26.0272  -26.8719   19.4982 C   0  0  0  0  0  0
  -24.8627  -27.6661   19.4972 C   0  0  0  0  0  0
  -23.6350  -29.8153   20.1576 C   0  0  0  0  0  0
  -25.4114  -36.3077   24.0327 C   0  0  1  0  0  0
  -20.5879  -28.3704   23.1274 C   0  0  2  0  0  0
  -20.6774  -26.9430   22.5401 C   0  0  0  0  0  0
  -19.5751  -26.6394   21.5200 C   0  0  0  0  0  0
  -18.1928  -26.7942   22.1609 C   0  0  0  0  0  0
  -19.1536  -28.8860   23.2874 C   0  0  0  0  0  0
  -18.9463  -30.1455   23.8908 C   0  0  0  0  0  0
  -17.6468  -30.6599   24.0556 C   0  0  0  0  0  0
  -25.9050  -34.9453   23.5100 C   0  0  0  0  0  0
  -16.5356  -29.9098   23.6326 C   0  0  0  0  0  0
  -16.7274  -28.6513   23.0362 C   0  0  0  0  0  0
  -26.4507  -31.6598   25.0722 C   0  0  0  0  0  0
  -25.3728  -31.3735   26.1442 C   0  0  0  0  0  0
  -27.0369  -30.3021   24.6201 C   0  0  0  0  0  0
  -27.6049  -32.4364   25.7493 C   0  0  0  0  0  0
  -27.5589  -37.1782   24.8457 C   0  0  0  0  0  0
  -21.4181  -29.3053   22.3665 N   0  0  0  0  0  0
  -26.4287  -37.3779   23.9419 N   0  0  0  0  0  0
  -24.6880  -31.0589   22.0964 N   0  0  0  0  0  0
  -23.4182  -28.8167   23.3016 O   0  0  0  0  0  0
  -28.3639  -26.5015   20.1735 O   0  0  0  0  0  0
  -26.5618  -34.8927   22.4664 O   0  0  0  0  0  0
  -23.5415  -32.1418   23.7318 O   0  0  0  0  0  0
  -30.3057  -19.0906   19.3751 C   0  0  0  0  0  0
  -30.2148  -20.5085   19.2741 C   0  0  0  0  0  0
  -28.2788  -20.5097   20.6896 C   0  0  0  0  0  0
  -29.3669  -18.3236   20.1062 C   0  0  0  0  0  0
  -29.1910  -21.2670   19.9025 C   0  0  0  0  0  0
  -28.3601  -19.0781   20.7812 C   0  0  0  0  0  0
  -30.4296  -16.4021   22.1571 C   0  0  0  0  0  0
  -29.3281  -16.7458   19.9578 C   0  0  0  0  0  0
  -28.3616  -23.7947   20.2722 C   0  0  0  0  0  0
  -28.4882  -25.1931   19.4946 C   0  0  0  0  0  0
  -29.1562  -22.6848   19.6514 N   0  0  0  0  0  0
  -29.9640  -15.7706   20.9226 N   0  0  0  0  0  0
  -27.4141  -18.4162   21.4892 F   0  0  0  0  0  0
  -31.4653  -12.5127   19.1508 H   0  0  0  0  0  0
  -30.3515  -11.4178   19.9188 H   0  0  0  0  0  0
  -29.7683  -11.7364   17.4929 H   0  0  0  0  0  0
  -29.6327  -13.4620   17.7310 H   0  0  0  0  0  0
  -27.8818  -11.2789   18.9069 H   0  0  0  0  0  0
  -27.3627  -12.5260   17.8041 H   0  0  0  0  0  0
  -27.6483  -14.2459   19.4869 H   0  0  0  0  0  0
  -28.7054  -12.1201   21.4181 H   0  0  0  0  0  0
  -28.4353  -13.8008   21.8059 H   0  0  0  0  0  0
  -25.2746   -9.5686   22.4762 H   0  0  0  0  0  0
  -23.9986   -7.4638   22.7480 H   0  0  0  0  0  0
  -21.0830   -8.8770   19.8953 H   0  0  0  0  0  0
  -22.3680  -10.9669   19.6167 H   0  0  0  0  0  0
  -21.2014   -7.6145   23.9715 H   0  0  0  0  0  0
  -21.1479   -6.0517   25.9076 H   0  0  0  0  0  0
  -22.0596   -2.7605   23.2845 H   0  0  0  0  0  0
  -22.4082  -11.9895   22.4819 H   0  0  0  0  0  0
  -21.1091  -13.1266   22.2614 H   0  0  0  0  0  0
  -24.6583  -15.8436   20.5596 H   0  0  0  0  0  0
  -26.2861  -15.6436   20.1609 H   0  0  0  0  0  0
  -26.7172  -32.5430   23.1064 H   0  0  0  0  0  0
  -25.0057  -33.9710   25.0403 H   0  0  0  0  0  0
  -22.7163  -31.3032   21.3974 H   0  0  0  0  0  0
  -23.3759  -35.9608   23.3264 H   0  0  0  0  0  0
  -24.3588  -36.8965   22.2066 H   0  0  0  0  0  0
  -23.7228  -37.6471   23.6689 H   0  0  0  0  0  0
  -26.0971  -31.5472   20.6069 H   0  0  0  0  0  0
  -26.8384  -30.8285   22.0066 H   0  0  0  0  0  0
  -28.1090  -28.9767   21.1834 H   0  0  0  0  0  0
  -25.9592  -25.8945   19.0445 H   0  0  0  0  0  0
  -23.9609  -27.2874   19.0353 H   0  0  0  0  0  0
  -23.7575  -30.5919   19.4017 H   0  0  0  0  0  0
  -22.7533  -29.2479   19.8552 H   0  0  0  0  0  0
  -25.1281  -36.1917   25.0820 H   0  0  0  0  0  0
  -20.9961  -28.3291   24.1400 H   0  0  0  0  0  0
  -20.5695  -26.2320   23.3605 H   0  0  0  0  0  0
  -21.6648  -26.7477   22.1193 H   0  0  0  0  0  0
  -19.6915  -25.6297   21.1256 H   0  0  0  0  0  0
  -19.6693  -27.3179   20.6708 H   0  0  0  0  0  0
  -17.4202  -26.6687   21.4007 H   0  0  0  0  0  0
  -18.0326  -26.0080   22.9001 H   0  0  0  0  0  0
  -19.7941  -30.7240   24.2322 H   0  0  0  0  0  0
  -17.5035  -31.6293   24.5137 H   0  0  0  0  0  0
  -15.5363  -30.3008   23.7660 H   0  0  0  0  0  0
  -15.8667  -28.0829   22.7095 H   0  0  0  0  0  0
  -24.5868  -30.7141   25.7743 H   0  0  0  0  0  0
  -24.8953  -32.2910   26.4897 H   0  0  0  0  0  0
  -25.8040  -30.8864   27.0199 H   0  0  0  0  0  0
  -26.2958  -29.6742   24.1246 H   0  0  0  0  0  0
  -27.4087  -29.7312   25.4718 H   0  0  0  0  0  0
  -27.8818  -30.4299   23.9429 H   0  0  0  0  0  0
  -27.2635  -33.3661   26.2058 H   0  0  0  0  0  0
  -28.3859  -32.6954   25.0329 H   0  0  0  0  0  0
  -28.0726  -31.8515   26.5426 H   0  0  0  0  0  0
  -28.2554  -38.0135   24.7582 H   0  0  0  0  0  0
  -28.1149  -36.2667   24.6182 H   0  0  0  0  0  0
  -27.2323  -37.1322   25.8866 H   0  0  0  0  0  0
  -20.9372  -29.8785   21.6872 H   0  0  0  0  0  0
  -26.0164  -38.2845   24.1453 H   0  0  0  0  0  0
  -31.0804  -18.5833   18.8187 H   0  0  0  0  0  0
  -30.9472  -21.0140   18.6599 H   0  0  0  0  0  0
  -27.4691  -21.0094   21.2009 H   0  0  0  0  0  0
  -29.6635  -17.0533   22.5783 H   0  0  0  0  0  0
  -31.3241  -16.9978   21.9680 H   0  0  0  0  0  0
  -30.6747  -15.6561   22.9156 H   0  0  0  0  0  0
  -29.7135  -16.5218   18.9608 H   0  0  0  0  0  0
  -28.2749  -16.4739   19.9033 H   0  0  0  0  0  0
  -27.3117  -23.5085   20.3479 H   0  0  0  0  0  0
  -28.7174  -23.9268   21.2945 H   0  0  0  0  0  0
  -27.9053  -25.1649   18.5748 H   0  0  0  0  0  0
  -29.5138  -25.2270   19.1279 H   0  0  0  0  0  0
  -29.8720  -23.0207   19.0112 H   0  0  0  0  0  0
  1 25  1  0  0  0
  1 30  2  0  0  0
  1 82  1  0  0  0
  2  3  1  0  0  0
  2 25  1  0  0  0
  2 84  1  0  0  0
  2 85  1  0  0  0
  3  4  1  0  0  0
  3 86  1  0  0  0
  3 87  1  0  0  0
  4  5  1  0  0  0
  4 88  1  0  0  0
  4 89  1  0  0  0
  5  6  1  0  0  0
  5 26  1  0  0  0
  5 90  1  0  0  0
  6 25  1  0  0  0
  6 91  1  0  0  0
  6 92  1  0  0  0
  7  8  2  0  0  0
  7 26  1  0  0  0
  7 29  1  0  0  0
  8  9  1  0  0  0
  8 22  1  0  0  0
  9 10  1  0  0  0
  9 27  2  0  0  0
 10 11  2  0  0  0
 10 15  1  0  0  0
 11 12  1  0  0  0
 11 93  1  0  0  0
 12 13  2  0  0  0
 12 94  1  0  0  0
 13 14  1  0  0  0
 13 31  1  0  0  0
 14 15  2  0  0  0
 14 95  1  0  0  0
 15 96  1  0  0  0
 16 17  2  0  0  0
 16 21  1  0  0  0
 16 31  1  0  0  0
 17 18  1  0  0  0
 17 97  1  0  0  0
 18 19  2  0  0  0
 18 98  1  0  0  0
 19 20  1  0  0  0
 19 24  1  0  0  0
 20 21  2  0  0  0
 20 99  1  0  0  0
 21 23  1  0  0  0
 22 28  1  0  0  0
 22 32  2  0  0  0
 26 27  1  0  0  0
 28100  1  0  0  0
 28101  1  0  0  0
 29102  1  0  0  0
 29103  1  0  0  0
 33 34  1  0  0  0
 33 66  1  0  0  0
 33 70  2  0  0  0
 34 36  1  0  0  0
 34 59  1  0  0  0
 34104  1  0  0  0
 35 44  2  0  0  0
 35 45  1  0  0  0
 35 68  1  0  0  0
 36 56  1  0  0  0
 36105  1  0  0  0
 37 39  1  0  0  0
 37 47  1  0  0  0
 37 66  1  0  0  0
 37106  1  0  0  0
 38 43  2  0  0  0
 38 46  1  0  0  0
 38 47  1  0  0  0
 39 64  1  0  0  0
 39 67  2  0  0  0
 40 52  1  0  0  0
 40 53  2  0  0  0
 40 58  1  0  0  0
 41107  1  0  0  0
 41108  1  0  0  0
 41109  1  0  0  0
 41 48  1  0  0  0
 42 43  1  0  0  0
 42 66  1  0  0  0
 42110  1  0  0  0
 42111  1  0  0  0
 43 44  1  0  0  0
 44112  1  0  0  0
 45 46  2  0  0  0
 45113  1  0  0  0
 46114  1  0  0  0
 47115  1  0  0  0
 47116  1  0  0  0
 48 56  1  0  0  0
 48 65  1  0  0  0
 48117  1  0  0  0
 49 50  1  0  0  0
 49 53  1  0  0  0
 49 64  1  0  0  0
 49118  1  0  0  0
 50 51  1  0  0  0
 50119  1  0  0  0
 50120  1  0  0  0
 51 52  1  0  0  0
 51121  1  0  0  0
 51122  1  0  0  0
 52123  1  0  0  0
 52124  1  0  0  0
 53 54  1  0  0  0
 54 55  2  0  0  0
 54125  1  0  0  0
 55 57  1  0  0  0
 55126  1  0  0  0
 56 69  2  0  0  0
 57 58  2  0  0  0
 57127  1  0  0  0
 58128  1  0  0  0
 59 60  1  0  0  0
 59 61  1  0  0  0
 59 62  1  0  0  0
 60129  1  0  0  0
 60130  1  0  0  0
 60131  1  0  0  0
 61132  1  0  0  0
 61133  1  0  0  0
 61134  1  0  0  0
 62135  1  0  0  0
 62136  1  0  0  0
 62137  1  0  0  0
 63 65  1  0  0  0
 63138  1  0  0  0
 63139  1  0  0  0
 63140  1  0  0  0
 64141  1  0  0  0
 65142  1  0  0  0
 68 80  1  0  0  0
 71 72  2  0  0  0
 71 74  1  0  0  0
 71143  1  0  0  0
 72 75  1  0  0  0
 72144  1  0  0  0
 73 75  2  0  0  0
 73 76  1  0  0  0
 73145  1  0  0  0
 74 76  2  0  0  0
 74 78  1  0  0  0
 75 81  1  0  0  0
 76 83  1  0  0  0
 77 82  1  0  0  0
 77146  1  0  0  0
 77147  1  0  0  0
 77148  1  0  0  0
 78 82  1  0  0  0
 78149  1  0  0  0
 78150  1  0  0  0
 79 80  1  0  0  0
 79 81  1  0  0  0
 79151  1  0  0  0
 79152  1  0  0  0
 80153  1  0  0  0
 80154  1  0  0  0
 81155  1  0  0  0
M  ISO  4   1 100  68 101  80 101  82 100
M  END
> <chiral flag>
0

> <version>
0

> <s_m_source_file>
/data/baiqing/PycharmProjects/Reinvent-master-3.2/result/LINK_invent/BTK/process_docking_weight1_custom_product_contain_oxygen_bond_distance_aromatic_linkinvent_7_9_3/rearranged_h_0022.sdf

> <i_m_source_file_index>
89

> <r_mmod_Potential_Energy-OPLS-2005>
244.170669555664

> <r_mmod_Stretch_Energy-OPLS-2005>
84.4320449829102

> <r_mmod_Bend_Energy-OPLS-2005>
183.915100097656

> <r_mmod_Torsional_Energy-OPLS-2005>
272.125244140625

> <r_mmod_Improper_Torsional_Energy-OPLS-2005>
6.36318778991699

> <r_mmod_Van_der_Waal_Energy-OPLS-2005>
135.017272949219

> <r_mmod_Electrostatic_Energy-OPLS-2005>
-287.794067382812

> <r_mmod_Solvation_Energy-OPLS-2005>
-201.39582824707

> <b_mmod_Minimization_Converged-OPLS-2005>
0

> <r_mmod_RMS_Derivative-OPLS-2005>
1.51282513141632

$$$$
90
                    3D
 Structure written by MMmdl.
166174  0  0  1  0            999 V2000
  -30.5344  -15.0508   20.3701 C   0  0  0  0  0  0
  -30.4299  -12.6519   19.5066 C   0  0  0  0  0  0
  -29.5317  -12.4971   18.2602 C   0  0  0  0  0  0
  -28.0544  -12.3130   18.6652 C   0  0  0  0  0  0
  -27.6128  -13.2682   19.8062 C   0  0  2  0  0  0
  -28.6537  -13.3898   20.9343 C   0  0  0  0  0  0
  -25.2425  -13.8232   20.5841 C   0  0  0  0  0  0
  -24.1786  -13.0402   20.9271 C   0  0  0  0  0  0
  -24.6420  -11.6898   20.8789 C   0  0  0  0  0  0
  -23.9136  -10.4257   21.0438 C   0  0  0  0  0  0
  -24.3730   -9.4175   21.9197 C   0  0  0  0  0  0
  -23.6384   -8.2229   22.0769 C   0  0  0  0  0  0
  -22.4349   -8.0282   21.3586 C   0  0  0  0  0  0
  -21.9977   -9.0221   20.4668 C   0  0  0  0  0  0
  -22.7310  -10.2086   20.3067 C   0  0  0  0  0  0
  -21.6874   -6.0776   22.5299 C   0  0  0  0  0  0
  -21.4002   -6.5706   23.8214 C   0  0  0  0  0  0
  -21.3638   -5.6854   24.9167 C   0  0  0  0  0  0
  -21.6044   -4.3126   24.7217 C   0  0  0  0  0  0
  -21.8831   -3.8197   23.4341 C   0  0  0  0  0  0
  -21.9206   -4.7017   22.3401 C   0  0  0  0  0  0
  -22.7801  -13.5116   21.1926 C   0  0  0  0  0  0
  -22.1690   -4.2228   21.0974 F   0  0  0  0  0  0
  -21.5603   -3.4607   25.7730 F   0  0  0  0  0  0
  -29.9105  -13.8007   20.3044 N   0  0  0  0  0  0
  -26.2830  -12.9499   20.3137 N   0  0  0  0  0  0
  -25.9330  -11.6598   20.5652 N   0  0  0  0  0  0
  -22.0521  -12.8021   22.0442 N   0  0  0  0  0  0
  -25.4060  -15.1993   20.4440 N   0  0  0  0  0  0
  -31.7705  -15.0270   20.2833 O   0  0  0  0  0  0
  -21.6674   -6.8915   21.4272 O   0  0  0  0  0  0
  -22.3454  -14.5404   20.6750 O   0  0  0  0  0  0
  -24.6508  -31.8390   23.1848 C   0  0  0  0  0  0
  -25.9262  -32.4658   23.8276 C   0  0  1  0  0  0
  -27.2052  -27.0752   20.1420 C   0  0  0  0  0  0
  -25.5990  -33.8473   24.2189 N   0  0  0  0  0  0
  -23.4583  -30.4502   21.5306 C   0  0  2  0  0  0
  -24.9030  -28.8708   20.1101 C   0  0  0  0  0  0
  -22.7621  -29.4502   22.4876 C   0  0  0  0  0  0
  -18.0288  -28.1409   22.8451 C   0  0  0  0  0  0
  -24.1477  -36.7224   23.2640 C   0  0  0  0  0  0
  -26.0172  -30.6844   21.3973 C   0  0  0  0  0  0
  -26.0815  -29.2918   20.7379 C   0  0  0  0  0  0
  -27.2306  -28.4070   20.7464 C   0  0  0  0  0  0
  -26.0107  -26.7865   19.4470 C   0  0  0  0  0  0
  -24.8829  -27.6342   19.4502 C   0  0  0  0  0  0
  -23.6870  -29.7804   20.1510 C   0  0  0  0  0  0
  -25.4127  -36.3002   24.0303 C   0  0  1  0  0  0
  -20.5893  -28.3759   23.1238 C   0  0  2  0  0  0
  -20.6806  -26.9465   22.5424 C   0  0  0  0  0  0
  -19.5799  -26.6366   21.5219 C   0  0  0  0  0  0
  -18.1958  -26.7938   22.1605 C   0  0  0  0  0  0
  -19.1537  -28.8903   23.2820 C   0  0  0  0  0  0
  -18.9468  -30.1494   23.8867 C   0  0  0  0  0  0
  -17.6489  -30.6642   24.0546 C   0  0  0  0  0  0
  -25.9090  -34.9374   23.5051 C   0  0  0  0  0  0
  -16.5370  -29.9128   23.6337 C   0  0  0  0  0  0
  -16.7275  -28.6518   23.0392 C   0  0  0  0  0  0
  -26.4560  -31.6564   25.0760 C   0  0  0  0  0  0
  -25.3763  -31.3738   26.1457 C   0  0  0  0  0  0
  -27.0485  -30.2969   24.6407 C   0  0  0  0  0  0
  -27.6090  -32.4341   25.7551 C   0  0  0  0  0  0
  -27.5572  -37.1764   24.8474 C   0  0  0  0  0  0
  -21.4304  -29.3070   22.3645 N   0  0  0  0  0  0
  -26.4273  -37.3737   23.9430 N   0  0  0  0  0  0
  -24.7289  -31.0133   22.0935 N   0  0  0  0  0  0
  -23.4204  -28.8062   23.3095 O   0  0  0  0  0  0
  -28.2254  -26.0444   20.2368 O   0  0  0  0  0  0
  -26.5678  -34.8891   22.4639 O   0  0  0  0  0  0
  -23.5610  -32.1302   23.7006 O   0  0  0  0  0  0
  -29.3363  -18.9890   19.9440 C   0  0  0  0  0  0
  -28.4841  -18.8342   22.5293 C   0  0  0  0  0  0
  -28.7794  -20.2585   20.5250 C   0  0  0  0  0  0
  -29.4878  -17.6395   20.6048 C   0  0  0  0  0  0
  -28.2126  -20.0361   21.8124 C   0  0  0  0  0  0
  -29.1317  -17.6974   21.9814 C   0  0  0  0  0  0
  -25.4128  -22.3156   21.3097 C   0  0  0  0  0  0
  -26.3709  -20.8332   24.6646 C   0  0  0  0  0  0
  -29.8187  -16.3313   18.4823 C   0  0  0  0  0  0
  -25.9515  -20.9270   21.6696 C   0  0  0  0  0  0
  -27.4193  -21.4227   23.7077 C   0  0  0  0  0  0
  -28.7054  -23.0929   20.5076 C   0  0  0  0  0  0
  -28.0163  -24.5233   19.8470 C   0  0  0  0  0  0
  -28.6639  -21.6257   19.8889 N   0  0  0  0  0  0
  -29.8428  -16.2586   19.9510 N   0  0  0  0  0  0
  -27.2679  -20.9512   22.3294 N   0  0  0  0  0  0
  -29.3795  -16.3566   23.0417 Cl  0  0  0  0  0  0
  -31.4683  -12.7993   19.2017 H   0  0  0  0  0  0
  -30.4140  -11.7408   20.1025 H   0  0  0  0  0  0
  -29.8578  -11.6294   17.6859 H   0  0  0  0  0  0
  -29.6407  -13.3577   17.5990 H   0  0  0  0  0  0
  -27.9268  -11.2769   18.9801 H   0  0  0  0  0  0
  -27.4109  -12.4455   17.7958 H   0  0  0  0  0  0
  -27.5382  -14.2510   19.3381 H   0  0  0  0  0  0
  -28.7623  -12.4666   21.5053 H   0  0  0  0  0  0
  -28.3357  -14.1580   21.6385 H   0  0  0  0  0  0
  -25.2897   -9.5663   22.4739 H   0  0  0  0  0  0
  -24.0134   -7.4601   22.7422 H   0  0  0  0  0  0
  -21.0929   -8.8661   19.8944 H   0  0  0  0  0  0
  -22.3740  -10.9610   19.6176 H   0  0  0  0  0  0
  -21.1982   -7.6208   23.9755 H   0  0  0  0  0  0
  -21.1466   -6.0570   25.9070 H   0  0  0  0  0  0
  -22.0638   -2.7671   23.2790 H   0  0  0  0  0  0
  -22.4312  -11.9745   22.4849 H   0  0  0  0  0  0
  -21.1062  -13.0821   22.2618 H   0  0  0  0  0  0
  -24.6514  -15.8510   20.6298 H   0  0  0  0  0  0
  -26.2542  -15.6574   20.1351 H   0  0  0  0  0  0
  -26.7361  -32.5208   23.1023 H   0  0  0  0  0  0
  -25.0168  -33.9616   25.0352 H   0  0  0  0  0  0
  -22.7641  -31.2779   21.3723 H   0  0  0  0  0  0
  -23.3753  -35.9541   23.3277 H   0  0  0  0  0  0
  -24.3549  -36.8906   22.2059 H   0  0  0  0  0  0
  -23.7202  -37.6393   23.6714 H   0  0  0  0  0  0
  -26.1890  -31.4280   20.6171 H   0  0  0  0  0  0
  -26.8842  -30.7313   22.0456 H   0  0  0  0  0  0
  -28.1243  -28.7163   21.2714 H   0  0  0  0  0  0
  -25.9010  -25.8556   18.9093 H   0  0  0  0  0  0
  -23.9884  -27.3158   18.9301 H   0  0  0  0  0  0
  -23.8489  -30.5551   19.4023 H   0  0  0  0  0  0
  -22.8010  -29.2317   19.8244 H   0  0  0  0  0  0
  -25.1287  -36.1833   25.0787 H   0  0  0  0  0  0
  -20.9901  -28.3352   24.1385 H   0  0  0  0  0  0
  -20.5682  -26.2397   23.3641 H   0  0  0  0  0  0
  -21.6693  -26.7502   22.1244 H   0  0  0  0  0  0
  -19.7036  -25.6240   21.1358 H   0  0  0  0  0  0
  -19.6770  -27.3104   20.6677 H   0  0  0  0  0  0
  -17.4229  -26.6587   21.4013 H   0  0  0  0  0  0
  -18.0440  -26.0098   22.9017 H   0  0  0  0  0  0
  -19.7956  -30.7295   24.2238 H   0  0  0  0  0  0
  -17.5060  -31.6306   24.5164 H   0  0  0  0  0  0
  -15.5378  -30.3068   23.7691 H   0  0  0  0  0  0
  -15.8634  -28.0832   22.7216 H   0  0  0  0  0  0
  -24.5925  -30.7122   25.7755 H   0  0  0  0  0  0
  -24.8975  -32.2906   26.4888 H   0  0  0  0  0  0
  -25.8032  -30.8881   27.0250 H   0  0  0  0  0  0
  -26.3154  -29.6640   24.1391 H   0  0  0  0  0  0
  -27.4082  -29.7292   25.5006 H   0  0  0  0  0  0
  -27.9060  -30.4202   23.9793 H   0  0  0  0  0  0
  -27.2709  -33.3682   26.2055 H   0  0  0  0  0  0
  -28.3953  -32.6855   25.0418 H   0  0  0  0  0  0
  -28.0744  -31.8539   26.5531 H   0  0  0  0  0  0
  -28.2547  -38.0092   24.7549 H   0  0  0  0  0  0
  -28.1093  -36.2616   24.6251 H   0  0  0  0  0  0
  -27.2301  -37.1374   25.8878 H   0  0  0  0  0  0
  -20.9578  -29.8755   21.6753 H   0  0  0  0  0  0
  -26.0112  -38.2795   24.1467 H   0  0  0  0  0  0
  -29.6473  -19.0726   18.9143 H   0  0  0  0  0  0
  -28.1038  -18.7331   23.5339 H   0  0  0  0  0  0
  -25.6880  -23.0939   22.0232 H   0  0  0  0  0  0
  -24.3243  -22.2918   21.2324 H   0  0  0  0  0  0
  -25.7865  -22.6044   20.3305 H   0  0  0  0  0  0
  -26.6535  -21.0164   25.7032 H   0  0  0  0  0  0
  -26.2433  -19.7569   24.5388 H   0  0  0  0  0  0
  -25.4004  -21.3086   24.5070 H   0  0  0  0  0  0
  -30.3250  -15.5052   17.9759 H   0  0  0  0  0  0
  -30.3091  -17.2304   18.1152 H   0  0  0  0  0  0
  -28.7863  -16.3441   18.1386 H   0  0  0  0  0  0
  -25.9817  -20.3324   20.7534 H   0  0  0  0  0  0
  -25.2274  -20.4250   22.3111 H   0  0  0  0  0  0
  -28.4200  -21.1823   24.0748 H   0  0  0  0  0  0
  -27.3515  -22.5127   23.7133 H   0  0  0  0  0  0
  -28.3463  -23.0301   21.5331 H   0  0  0  0  0  0
  -29.7714  -23.3079   20.6044 H   0  0  0  0  0  0
  -26.9487  -24.3493   19.9085 H   0  0  0  0  0  0
  -28.2374  -24.4989   18.7809 H   0  0  0  0  0  0
  -28.8722  -21.6283   18.8928 H   0  0  0  0  0  0
  1 25  1  0  0  0
  1 30  2  0  0  0
  1 85  1  0  0  0
  2  3  1  0  0  0
  2 25  1  0  0  0
  2 88  1  0  0  0
  2 89  1  0  0  0
  3  4  1  0  0  0
  3 90  1  0  0  0
  3 91  1  0  0  0
  4  5  1  0  0  0
  4 92  1  0  0  0
  4 93  1  0  0  0
  5  6  1  0  0  0
  5 26  1  0  0  0
  5 94  1  0  0  0
  6 25  1  0  0  0
  6 95  1  0  0  0
  6 96  1  0  0  0
  7  8  2  0  0  0
  7 26  1  0  0  0
  7 29  1  0  0  0
  8  9  1  0  0  0
  8 22  1  0  0  0
  9 10  1  0  0  0
  9 27  2  0  0  0
 10 11  2  0  0  0
 10 15  1  0  0  0
 11 12  1  0  0  0
 11 97  1  0  0  0
 12 13  2  0  0  0
 12 98  1  0  0  0
 13 14  1  0  0  0
 13 31  1  0  0  0
 14 15  2  0  0  0
 14 99  1  0  0  0
 15100  1  0  0  0
 16 17  2  0  0  0
 16 21  1  0  0  0
 16 31  1  0  0  0
 17 18  1  0  0  0
 17101  1  0  0  0
 18 19  2  0  0  0
 18102  1  0  0  0
 19 20  1  0  0  0
 19 24  1  0  0  0
 20 21  2  0  0  0
 20103  1  0  0  0
 21 23  1  0  0  0
 22 28  1  0  0  0
 22 32  2  0  0  0
 26 27  1  0  0  0
 28104  1  0  0  0
 28105  1  0  0  0
 29106  1  0  0  0
 29107  1  0  0  0
 33 34  1  0  0  0
 33 66  1  0  0  0
 33 70  2  0  0  0
 34 36  1  0  0  0
 34 59  1  0  0  0
 34108  1  0  0  0
 35 44  2  0  0  0
 35 45  1  0  0  0
 35 68  1  0  0  0
 36 56  1  0  0  0
 36109  1  0  0  0
 37 39  1  0  0  0
 37 47  1  0  0  0
 37 66  1  0  0  0
 37110  1  0  0  0
 38 43  2  0  0  0
 38 46  1  0  0  0
 38 47  1  0  0  0
 39 64  1  0  0  0
 39 67  2  0  0  0
 40 52  1  0  0  0
 40 53  2  0  0  0
 40 58  1  0  0  0
 41111  1  0  0  0
 41112  1  0  0  0
 41113  1  0  0  0
 41 48  1  0  0  0
 42 43  1  0  0  0
 42 66  1  0  0  0
 42114  1  0  0  0
 42115  1  0  0  0
 43 44  1  0  0  0
 44116  1  0  0  0
 45 46  2  0  0  0
 45117  1  0  0  0
 46118  1  0  0  0
 47119  1  0  0  0
 47120  1  0  0  0
 48 56  1  0  0  0
 48 65  1  0  0  0
 48121  1  0  0  0
 49 50  1  0  0  0
 49 53  1  0  0  0
 49 64  1  0  0  0
 49122  1  0  0  0
 50 51  1  0  0  0
 50123  1  0  0  0
 50124  1  0  0  0
 51 52  1  0  0  0
 51125  1  0  0  0
 51126  1  0  0  0
 52127  1  0  0  0
 52128  1  0  0  0
 53 54  1  0  0  0
 54 55  2  0  0  0
 54129  1  0  0  0
 55 57  1  0  0  0
 55130  1  0  0  0
 56 69  2  0  0  0
 57 58  2  0  0  0
 57131  1  0  0  0
 58132  1  0  0  0
 59 60  1  0  0  0
 59 61  1  0  0  0
 59 62  1  0  0  0
 60133  1  0  0  0
 60134  1  0  0  0
 60135  1  0  0  0
 61136  1  0  0  0
 61137  1  0  0  0
 61138  1  0  0  0
 62139  1  0  0  0
 62140  1  0  0  0
 62141  1  0  0  0
 63 65  1  0  0  0
 63142  1  0  0  0
 63143  1  0  0  0
 63144  1  0  0  0
 64145  1  0  0  0
 65146  1  0  0  0
 68 83  1  0  0  0
 71 73  2  0  0  0
 71 74  1  0  0  0
 71147  1  0  0  0
 72 75  2  0  0  0
 72 76  1  0  0  0
 72148  1  0  0  0
 73 75  1  0  0  0
 73 84  1  0  0  0
 74 76  2  0  0  0
 74 85  1  0  0  0
 75 86  1  0  0  0
 76 87  1  0  0  0
 77 80  1  0  0  0
 77149  1  0  0  0
 77150  1  0  0  0
 77151  1  0  0  0
 78 81  1  0  0  0
 78152  1  0  0  0
 78153  1  0  0  0
 78154  1  0  0  0
 79 85  1  0  0  0
 79155  1  0  0  0
 79156  1  0  0  0
 79157  1  0  0  0
 80 86  1  0  0  0
 80158  1  0  0  0
 80159  1  0  0  0
 81 86  1  0  0  0
 81160  1  0  0  0
 81161  1  0  0  0
 82 83  1  0  0  0
 82 84  1  0  0  0
 82162  1  0  0  0
 82163  1  0  0  0
 83164  1  0  0  0
 83165  1  0  0  0
 84166  1  0  0  0
M  ISO  4   1 100  68 101  83 101  85 100
M  END
> <chiral flag>
0

> <version>
0

> <s_m_source_file>
/data/baiqing/PycharmProjects/Reinvent-master-3.2/result/LINK_invent/BTK/process_docking_weight1_custom_product_contain_oxygen_bond_distance_aromatic_linkinvent_7_9_3/rearranged_h_0022.sdf

> <i_m_source_file_index>
90

> <r_mmod_Potential_Energy-OPLS-2005>
890.365417480469

> <r_mmod_Stretch_Energy-OPLS-2005>
335.432678222656

> <r_mmod_Bend_Energy-OPLS-2005>
313.333221435547

> <r_mmod_Torsional_Energy-OPLS-2005>
347.413543701172

> <r_mmod_Improper_Torsional_Energy-OPLS-2005>
25.2931175231934

> <r_mmod_Van_der_Waal_Energy-OPLS-2005>
139.980331420898

> <r_mmod_Electrostatic_Energy-OPLS-2005>
-338.155151367188

> <r_mmod_Solvation_Energy-OPLS-2005>
-207.670959472656

> <b_mmod_Minimization_Converged-OPLS-2005>
0

> <r_mmod_RMS_Derivative-OPLS-2005>
6.35159683227539

$$$$
91
                    3D
 Structure written by MMmdl.
154162  0  0  1  0            999 V2000
  -30.5858  -14.9089   20.4724 C   0  0  0  0  0  0
  -30.4345  -12.5745   19.4927 C   0  0  0  0  0  0
  -29.5149  -12.5395   18.2500 C   0  0  0  0  0  0
  -28.0451  -12.3338   18.6625 C   0  0  0  0  0  0
  -27.6334  -13.2448   19.8484 C   0  0  2  0  0  0
  -28.6782  -13.2104   20.9816 C   0  0  0  0  0  0
  -25.2463  -13.8210   20.5707 C   0  0  0  0  0  0
  -24.1773  -13.0434   20.9210 C   0  0  0  0  0  0
  -24.6388  -11.6920   20.8745 C   0  0  0  0  0  0
  -23.9072  -10.4291   21.0403 C   0  0  0  0  0  0
  -24.3622   -9.4207   21.9182 C   0  0  0  0  0  0
  -23.6297   -8.2242   22.0751 C   0  0  0  0  0  0
  -22.4280   -8.0279   21.3539 C   0  0  0  0  0  0
  -21.9916   -9.0253   20.4643 C   0  0  0  0  0  0
  -22.7244  -10.2132   20.3053 C   0  0  0  0  0  0
  -21.6854   -6.0736   22.5276 C   0  0  0  0  0  0
  -21.4016   -6.5640   23.8209 C   0  0  0  0  0  0
  -21.3659   -5.6791   24.9172 C   0  0  0  0  0  0
  -21.6043   -4.3054   24.7222 C   0  0  0  0  0  0
  -21.8819   -3.8148   23.4343 C   0  0  0  0  0  0
  -21.9192   -4.6963   22.3400 C   0  0  0  0  0  0
  -22.7794  -13.5205   21.1876 C   0  0  0  0  0  0
  -22.1661   -4.2150   21.0977 F   0  0  0  0  0  0
  -21.5627   -3.4539   25.7736 F   0  0  0  0  0  0
  -29.9520  -13.6624   20.3981 N   0  0  0  0  0  0
  -26.2896  -12.9440   20.3277 N   0  0  0  0  0  0
  -25.9324  -11.6567   20.5747 N   0  0  0  0  0  0
  -22.0450  -12.8189   22.0437 N   0  0  0  0  0  0
  -25.4128  -15.1935   20.4146 N   0  0  0  0  0  0
  -31.7653  -14.9364   20.1013 O   0  0  0  0  0  0
  -21.6640   -6.8880   21.4240 O   0  0  0  0  0  0
  -22.3469  -14.5509   20.6727 O   0  0  0  0  0  0
  -24.6415  -31.8464   23.1898 C   0  0  0  0  0  0
  -25.9197  -32.4705   23.8276 C   0  0  1  0  0  0
  -27.2138  -27.1459   20.1454 C   0  0  0  0  0  0
  -25.5958  -33.8512   24.2198 N   0  0  0  0  0  0
  -23.4446  -30.4672   21.5343 C   0  0  2  0  0  0
  -24.8945  -28.8993   20.1080 C   0  0  0  0  0  0
  -22.7561  -29.4562   22.4848 C   0  0  0  0  0  0
  -18.0309  -28.1395   22.8475 C   0  0  0  0  0  0
  -24.1494  -36.7254   23.2639 C   0  0  0  0  0  0
  -26.0007  -30.7189   21.3927 C   0  0  0  0  0  0
  -26.0695  -29.3310   20.7369 C   0  0  0  0  0  0
  -27.2266  -28.4662   20.7503 C   0  0  0  0  0  0
  -26.0204  -26.8301   19.4567 C   0  0  0  0  0  0
  -24.8817  -27.6602   19.4544 C   0  0  0  0  0  0
  -23.6713  -29.8001   20.1524 C   0  0  0  0  0  0
  -25.4125  -36.3036   24.0317 C   0  0  1  0  0  0
  -20.5922  -28.3727   23.1228 C   0  0  2  0  0  0
  -20.6796  -26.9430   22.5397 C   0  0  0  0  0  0
  -19.5770  -26.6384   21.5206 C   0  0  0  0  0  0
  -18.1951  -26.7933   22.1619 C   0  0  0  0  0  0
  -19.1565  -28.8877   23.2847 C   0  0  0  0  0  0
  -18.9486  -30.1471   23.8877 C   0  0  0  0  0  0
  -17.6485  -30.6593   24.0560 C   0  0  0  0  0  0
  -25.9077  -34.9414   23.5065 C   0  0  0  0  0  0
  -16.5375  -29.9086   23.6335 C   0  0  0  0  0  0
  -16.7294  -28.6503   23.0358 C   0  0  0  0  0  0
  -26.4520  -31.6567   25.0715 C   0  0  0  0  0  0
  -25.3696  -31.3760   26.1403 C   0  0  0  0  0  0
  -27.0383  -30.2959   24.6301 C   0  0  0  0  0  0
  -27.6060  -32.4327   25.7488 C   0  0  0  0  0  0
  -27.5582  -37.1780   24.8461 C   0  0  0  0  0  0
  -21.4255  -29.3056   22.3598 N   0  0  0  0  0  0
  -26.4286  -37.3753   23.9417 N   0  0  0  0  0  0
  -24.7150  -31.0324   22.0935 N   0  0  0  0  0  0
  -23.4214  -28.8104   23.2988 O   0  0  0  0  0  0
  -28.2566  -26.1512   20.2178 O   0  0  0  0  0  0
  -26.5658  -34.8911   22.4641 O   0  0  0  0  0  0
  -23.5537  -32.1342   23.7121 O   0  0  0  0  0  0
  -28.3684  -21.1604   20.5674 C   0  0  0  0  0  0
  -30.6128  -21.5748   20.0483 C   0  0  0  0  0  0
  -29.9259  -19.1231   20.2837 C   0  0  0  0  0  0
  -29.3504  -22.1939   20.3307 C   0  0  0  0  0  0
  -28.6320  -19.7145   20.5425 C   0  0  0  0  0  0
  -30.8882  -20.1600   20.0215 C   0  0  0  0  0  0
  -28.0328  -24.6093   20.2925 C   0  0  0  0  0  0
  -30.4903  -24.4643   20.5120 C   0  0  0  0  0  0
  -28.9609  -16.3123   21.7761 C   0  0  0  0  0  0
  -30.3937  -17.5344   20.1066 C   0  0  0  0  0  0
  -29.2173  -23.7389   20.3790 N   0  0  0  0  0  0
  -29.8923  -16.1512   20.6610 N   0  0  0  0  0  0
  -26.8974  -24.1291   20.3013 O   0  0  0  0  0  0
  -27.5836  -18.8839   20.7533 F   0  0  0  0  0  0
  -32.5109  -19.7309   19.5997 Cl  0  0  0  0  0  0
  -31.4684  -12.7192   19.1758 H   0  0  0  0  0  0
  -30.4255  -11.6111   20.0051 H   0  0  0  0  0  0
  -29.8269  -11.7465   17.5693 H   0  0  0  0  0  0
  -29.6120  -13.4742   17.6955 H   0  0  0  0  0  0
  -27.9283  -11.2874   18.9464 H   0  0  0  0  0  0
  -27.3838  -12.4941   17.8102 H   0  0  0  0  0  0
  -27.6134  -14.2619   19.4551 H   0  0  0  0  0  0
  -28.7692  -12.2006   21.3850 H   0  0  0  0  0  0
  -28.3598  -13.8187   21.8227 H   0  0  0  0  0  0
  -25.2767   -9.5682   22.4758 H   0  0  0  0  0  0
  -24.0004   -7.4634   22.7474 H   0  0  0  0  0  0
  -21.0844   -8.8773   19.8952 H   0  0  0  0  0  0
  -22.3702  -10.9669   19.6164 H   0  0  0  0  0  0
  -21.2012   -7.6147   23.9713 H   0  0  0  0  0  0
  -21.1480   -6.0522   25.9073 H   0  0  0  0  0  0
  -22.0599   -2.7611   23.2843 H   0  0  0  0  0  0
  -22.4080  -11.9855   22.4820 H   0  0  0  0  0  0
  -21.1067  -13.1205   22.2651 H   0  0  0  0  0  0
  -24.6506  -15.8492   20.5455 H   0  0  0  0  0  0
  -26.2709  -15.6404   20.1175 H   0  0  0  0  0  0
  -26.7262  -32.5319   23.1004 H   0  0  0  0  0  0
  -25.0102  -33.9630   25.0342 H   0  0  0  0  0  0
  -22.7468  -31.2932   21.3812 H   0  0  0  0  0  0
  -23.3765  -35.9576   23.3284 H   0  0  0  0  0  0
  -24.3583  -36.8898   22.2056 H   0  0  0  0  0  0
  -23.7242  -37.6447   23.6680 H   0  0  0  0  0  0
  -26.1591  -31.4720   20.6194 H   0  0  0  0  0  0
  -26.8706  -30.7676   22.0357 H   0  0  0  0  0  0
  -28.1174  -28.7867   21.2720 H   0  0  0  0  0  0
  -25.9348  -25.8950   18.9241 H   0  0  0  0  0  0
  -23.9901  -27.3283   18.9402 H   0  0  0  0  0  0
  -23.8070  -30.5758   19.3977 H   0  0  0  0  0  0
  -22.7862  -29.2426   19.8411 H   0  0  0  0  0  0
  -25.1309  -36.1861   25.0808 H   0  0  0  0  0  0
  -21.0022  -28.3320   24.1346 H   0  0  0  0  0  0
  -20.5693  -26.2342   23.3619 H   0  0  0  0  0  0
  -21.6662  -26.7436   22.1198 H   0  0  0  0  0  0
  -19.6937  -25.6288   21.1257 H   0  0  0  0  0  0
  -19.6708  -27.3175   20.6721 H   0  0  0  0  0  0
  -17.4221  -26.6679   21.4021 H   0  0  0  0  0  0
  -18.0353  -26.0077   22.9017 H   0  0  0  0  0  0
  -19.7964  -30.7291   24.2239 H   0  0  0  0  0  0
  -17.5041  -31.6272   24.5164 H   0  0  0  0  0  0
  -15.5379  -30.2988   23.7669 H   0  0  0  0  0  0
  -15.8693  -28.0819   22.7088 H   0  0  0  0  0  0
  -24.5902  -30.7077   25.7725 H   0  0  0  0  0  0
  -24.8850  -32.2940   26.4740 H   0  0  0  0  0  0
  -25.7968  -30.9002   27.0238 H   0  0  0  0  0  0
  -26.3001  -29.6682   24.1300 H   0  0  0  0  0  0
  -27.3980  -29.7264   25.4881 H   0  0  0  0  0  0
  -27.8914  -30.4192   23.9626 H   0  0  0  0  0  0
  -27.2678  -33.3669   26.1982 H   0  0  0  0  0  0
  -28.3902  -32.6820   25.0325 H   0  0  0  0  0  0
  -28.0685  -31.8501   26.5465 H   0  0  0  0  0  0
  -28.2570  -38.0105   24.7542 H   0  0  0  0  0  0
  -28.1110  -36.2639   24.6242 H   0  0  0  0  0  0
  -27.2306  -37.1367   25.8864 H   0  0  0  0  0  0
  -20.9460  -29.8780   21.6789 H   0  0  0  0  0  0
  -26.0151  -38.2816   24.1442 H   0  0  0  0  0  0
  -27.3568  -21.4701   20.7846 H   0  0  0  0  0  0
  -31.4566  -22.2041   19.8122 H   0  0  0  0  0  0
  -31.1948  -23.9201   21.1411 H   0  0  0  0  0  0
  -30.3990  -25.4344   21.0009 H   0  0  0  0  0  0
  -30.9466  -24.6210   19.5341 H   0  0  0  0  0  0
  -27.9415  -16.0903   21.4630 H   0  0  0  0  0  0
  -28.9728  -17.3268   22.1717 H   0  0  0  0  0  0
  -29.2252  -15.6681   22.6157 H   0  0  0  0  0  0
  -31.4310  -17.5265   20.4371 H   0  0  0  0  0  0
  -30.4508  -17.3908   19.0272 H   0  0  0  0  0  0
  1 25  1  0  0  0
  1 30  2  0  0  0
  1 82  1  0  0  0
  2  3  1  0  0  0
  2 25  1  0  0  0
  2 86  1  0  0  0
  2 87  1  0  0  0
  3  4  1  0  0  0
  3 88  1  0  0  0
  3 89  1  0  0  0
  4  5  1  0  0  0
  4 90  1  0  0  0
  4 91  1  0  0  0
  5  6  1  0  0  0
  5 26  1  0  0  0
  5 92  1  0  0  0
  6 25  1  0  0  0
  6 93  1  0  0  0
  6 94  1  0  0  0
  7  8  2  0  0  0
  7 26  1  0  0  0
  7 29  1  0  0  0
  8  9  1  0  0  0
  8 22  1  0  0  0
  9 10  1  0  0  0
  9 27  2  0  0  0
 10 11  2  0  0  0
 10 15  1  0  0  0
 11 12  1  0  0  0
 11 95  1  0  0  0
 12 13  2  0  0  0
 12 96  1  0  0  0
 13 14  1  0  0  0
 13 31  1  0  0  0
 14 15  2  0  0  0
 14 97  1  0  0  0
 15 98  1  0  0  0
 16 17  2  0  0  0
 16 21  1  0  0  0
 16 31  1  0  0  0
 17 18  1  0  0  0
 17 99  1  0  0  0
 18 19  2  0  0  0
 18100  1  0  0  0
 19 20  1  0  0  0
 19 24  1  0  0  0
 20 21  2  0  0  0
 20101  1  0  0  0
 21 23  1  0  0  0
 22 28  1  0  0  0
 22 32  2  0  0  0
 26 27  1  0  0  0
 28102  1  0  0  0
 28103  1  0  0  0
 29104  1  0  0  0
 29105  1  0  0  0
 33 34  1  0  0  0
 33 66  1  0  0  0
 33 70  2  0  0  0
 34 36  1  0  0  0
 34 59  1  0  0  0
 34106  1  0  0  0
 35 44  2  0  0  0
 35 45  1  0  0  0
 35 68  1  0  0  0
 36 56  1  0  0  0
 36107  1  0  0  0
 37 39  1  0  0  0
 37 47  1  0  0  0
 37 66  1  0  0  0
 37108  1  0  0  0
 38 43  2  0  0  0
 38 46  1  0  0  0
 38 47  1  0  0  0
 39 64  1  0  0  0
 39 67  2  0  0  0
 40 52  1  0  0  0
 40 53  2  0  0  0
 40 58  1  0  0  0
 41109  1  0  0  0
 41110  1  0  0  0
 41111  1  0  0  0
 41 48  1  0  0  0
 42 43  1  0  0  0
 42 66  1  0  0  0
 42112  1  0  0  0
 42113  1  0  0  0
 43 44  1  0  0  0
 44114  1  0  0  0
 45 46  2  0  0  0
 45115  1  0  0  0
 46116  1  0  0  0
 47117  1  0  0  0
 47118  1  0  0  0
 48 56  1  0  0  0
 48 65  1  0  0  0
 48119  1  0  0  0
 49 50  1  0  0  0
 49 53  1  0  0  0
 49 64  1  0  0  0
 49120  1  0  0  0
 50 51  1  0  0  0
 50121  1  0  0  0
 50122  1  0  0  0
 51 52  1  0  0  0
 51123  1  0  0  0
 51124  1  0  0  0
 52125  1  0  0  0
 52126  1  0  0  0
 53 54  1  0  0  0
 54 55  2  0  0  0
 54127  1  0  0  0
 55 57  1  0  0  0
 55128  1  0  0  0
 56 69  2  0  0  0
 57 58  2  0  0  0
 57129  1  0  0  0
 58130  1  0  0  0
 59 60  1  0  0  0
 59 61  1  0  0  0
 59 62  1  0  0  0
 60131  1  0  0  0
 60132  1  0  0  0
 60133  1  0  0  0
 61134  1  0  0  0
 61135  1  0  0  0
 61136  1  0  0  0
 62137  1  0  0  0
 62138  1  0  0  0
 62139  1  0  0  0
 63 65  1  0  0  0
 63140  1  0  0  0
 63141  1  0  0  0
 63142  1  0  0  0
 64143  1  0  0  0
 65144  1  0  0  0
 68 77  1  0  0  0
 71 74  2  0  0  0
 71 75  1  0  0  0
 71145  1  0  0  0
 72 74  1  0  0  0
 72 76  2  0  0  0
 72146  1  0  0  0
 73 75  2  0  0  0
 73 76  1  0  0  0
 73 80  1  0  0  0
 74 81  1  0  0  0
 75 84  1  0  0  0
 76 85  1  0  0  0
 77 81  1  0  0  0
 77 83  2  0  0  0
 78 81  1  0  0  0
 78147  1  0  0  0
 78148  1  0  0  0
 78149  1  0  0  0
 79 82  1  0  0  0
 79150  1  0  0  0
 79151  1  0  0  0
 79152  1  0  0  0
 80 82  1  0  0  0
 80153  1  0  0  0
 80154  1  0  0  0
M  ISO  4   1 100  68 101  77 101  82 100
M  END
> <chiral flag>
0

> <version>
0

> <s_m_source_file>
/data/baiqing/PycharmProjects/Reinvent-master-3.2/result/LINK_invent/BTK/process_docking_weight1_custom_product_contain_oxygen_bond_distance_aromatic_linkinvent_7_9_3/rearranged_h_0022.sdf

> <i_m_source_file_index>
91

> <r_mmod_Potential_Energy-OPLS-2005>
649.646118164062

> <r_mmod_Stretch_Energy-OPLS-2005>
261.152252197266

> <r_mmod_Bend_Energy-OPLS-2005>
280.897735595703

> <r_mmod_Torsional_Energy-OPLS-2005>
258.814361572266

> <r_mmod_Improper_Torsional_Energy-OPLS-2005>
8.69799613952637

> <r_mmod_Van_der_Waal_Energy-OPLS-2005>
157.035705566406

> <r_mmod_Electrostatic_Energy-OPLS-2005>
-287.819183349609

> <r_mmod_Solvation_Energy-OPLS-2005>
-197.777420043945

> <b_mmod_Minimization_Converged-OPLS-2005>
0

> <r_mmod_RMS_Derivative-OPLS-2005>
0.628367245197296

$$$$
92
                    3D
 Structure written by MMmdl.
152160  0  0  1  0            999 V2000
  -30.6018  -14.6280   20.5004 C   0  0  0  0  0  0
  -30.4413  -12.3824   19.4466 C   0  0  0  0  0  0
  -29.5103  -12.5071   18.2194 C   0  0  0  0  0  0
  -28.0294  -12.3483   18.6265 C   0  0  0  0  0  0
  -27.6523  -13.2114   19.8599 C   0  0  2  0  0  0
  -28.6958  -13.0450   20.9869 C   0  0  0  0  0  0
  -25.2550  -13.8146   20.5651 C   0  0  0  0  0  0
  -24.1813  -13.0427   20.9193 C   0  0  0  0  0  0
  -24.6376  -11.6902   20.8746 C   0  0  0  0  0  0
  -23.9044  -10.4293   21.0414 C   0  0  0  0  0  0
  -24.3596   -9.4209   21.9184 C   0  0  0  0  0  0
  -23.6282   -8.2236   22.0763 C   0  0  0  0  0  0
  -22.4257   -8.0276   21.3548 C   0  0  0  0  0  0
  -21.9887   -9.0249   20.4652 C   0  0  0  0  0  0
  -22.7216  -10.2117   20.3069 C   0  0  0  0  0  0
  -21.6841   -6.0732   22.5271 C   0  0  0  0  0  0
  -21.4012   -6.5635   23.8208 C   0  0  0  0  0  0
  -21.3673   -5.6783   24.9169 C   0  0  0  0  0  0
  -21.6042   -4.3049   24.7218 C   0  0  0  0  0  0
  -21.8822   -3.8145   23.4342 C   0  0  0  0  0  0
  -21.9186   -4.6961   22.3397 C   0  0  0  0  0  0
  -22.7840  -13.5229   21.1842 C   0  0  0  0  0  0
  -22.1657   -4.2162   21.0978 F   0  0  0  0  0  0
  -21.5630   -3.4529   25.7731 F   0  0  0  0  0  0
  -30.0123  -13.3949   20.4296 N   0  0  0  0  0  0
  -26.2967  -12.9325   20.3268 N   0  0  0  0  0  0
  -25.9299  -11.6479   20.5703 N   0  0  0  0  0  0
  -22.0467  -12.8270   22.0418 N   0  0  0  0  0  0
  -25.4226  -15.1871   20.4036 N   0  0  0  0  0  0
  -31.7684  -14.8071   20.1360 O   0  0  0  0  0  0
  -21.6636   -6.8859   21.4230 O   0  0  0  0  0  0
  -22.3526  -14.5523   20.6658 O   0  0  0  0  0  0
  -24.6241  -31.8624   23.2048 C   0  0  0  0  0  0
  -25.9103  -32.4792   23.8371 C   0  0  1  0  0  0
  -27.2218  -27.3337   20.1190 C   0  0  0  0  0  0
  -25.5930  -33.8599   24.2288 N   0  0  0  0  0  0
  -23.4163  -30.4870   21.5457 C   0  0  2  0  0  0
  -24.8638  -28.9482   20.1086 C   0  0  0  0  0  0
  -22.7471  -29.4627   22.4933 C   0  0  0  0  0  0
  -18.0287  -28.1373   22.8480 C   0  0  0  0  0  0
  -24.1487  -36.7308   23.2634 C   0  0  0  0  0  0
  -25.9570  -30.7970   21.3748 C   0  0  0  0  0  0
  -26.0319  -29.4269   20.7163 C   0  0  0  0  0  0
  -27.2141  -28.6309   20.7127 C   0  0  0  0  0  0
  -26.0324  -26.9104   19.4805 C   0  0  0  0  0  0
  -24.8660  -27.6952   19.4816 C   0  0  0  0  0  0
  -23.6312  -29.8250   20.1591 C   0  0  0  0  0  0
  -25.4106  -36.3092   24.0324 C   0  0  1  0  0  0
  -20.5889  -28.3677   23.1275 C   0  0  2  0  0  0
  -20.6780  -26.9401   22.5406 C   0  0  0  0  0  0
  -19.5755  -26.6369   21.5204 C   0  0  0  0  0  0
  -18.1935  -26.7913   22.1618 C   0  0  0  0  0  0
  -19.1547  -28.8841   23.2870 C   0  0  0  0  0  0
  -18.9470  -30.1446   23.8891 C   0  0  0  0  0  0
  -17.6472  -30.6571   24.0559 C   0  0  0  0  0  0
  -25.9045  -34.9461   23.5095 C   0  0  0  0  0  0
  -16.5357  -29.9073   23.6327 C   0  0  0  0  0  0
  -16.7276  -28.6490   23.0339 C   0  0  0  0  0  0
  -26.4488  -31.6602   25.0734 C   0  0  0  0  0  0
  -25.3733  -31.3757   26.1474 C   0  0  0  0  0  0
  -27.0329  -30.3027   24.6180 C   0  0  0  0  0  0
  -27.6038  -32.4343   25.7517 C   0  0  0  0  0  0
  -27.5576  -37.1802   24.8451 C   0  0  0  0  0  0
  -21.4188  -29.3035   22.3684 N   0  0  0  0  0  0
  -26.4286  -37.3792   23.9412 N   0  0  0  0  0  0
  -24.6842  -31.0649   22.0980 N   0  0  0  0  0  0
  -23.4206  -28.8155   23.2995 O   0  0  0  0  0  0
  -28.3360  -26.4825   20.1794 O   0  0  0  0  0  0
  -26.5606  -34.8922   22.4654 O   0  0  0  0  0  0
  -23.5407  -32.1409   23.7380 O   0  0  0  0  0  0
  -28.6422  -17.8780   20.8537 C   0  0  0  0  0  0
  -28.6291  -19.3047   20.7973 C   0  0  0  0  0  0
  -31.0202  -17.8562   20.4855 C   0  0  0  0  0  0
  -29.8317  -17.1112   20.7041 C   0  0  0  0  0  0
  -29.8230  -20.0445   20.6105 C   0  0  0  0  0  0
  -31.0122  -19.2821   20.4485 C   0  0  0  0  0  0
  -29.2099  -23.9861   20.4602 C   0  0  0  0  0  0
  -28.8048  -22.4462   20.3950 C   0  0  0  0  0  0
  -28.0723  -25.0304   20.1140 C   0  0  0  0  0  0
  -29.7491  -15.6566   20.8134 N   0  0  0  0  0  0
  -29.9131  -21.4753   20.6050 N   0  0  0  0  0  0
  -32.1817  -19.9392   20.2553 F   0  0  0  0  0  0
  -31.4847  -12.5116   19.1519 H   0  0  0  0  0  0
  -30.3770  -11.3838   19.8824 H   0  0  0  0  0  0
  -29.7748  -11.7620   17.4683 H   0  0  0  0  0  0
  -29.6548  -13.4802   17.7465 H   0  0  0  0  0  0
  -27.8598  -11.2943   18.8508 H   0  0  0  0  0  0
  -27.3795  -12.5876   17.7844 H   0  0  0  0  0  0
  -27.6760  -14.2485   19.5268 H   0  0  0  0  0  0
  -28.7036  -12.0175   21.3524 H   0  0  0  0  0  0
  -28.4474  -13.6578   21.8542 H   0  0  0  0  0  0
  -25.2750   -9.5689   22.4740 H   0  0  0  0  0  0
  -24.0015   -7.4622   22.7477 H   0  0  0  0  0  0
  -21.0818   -8.8760   19.8956 H   0  0  0  0  0  0
  -22.3685  -10.9653   19.6181 H   0  0  0  0  0  0
  -21.2015   -7.6145   23.9726 H   0  0  0  0  0  0
  -21.1488   -6.0502   25.9066 H   0  0  0  0  0  0
  -22.0594   -2.7614   23.2817 H   0  0  0  0  0  0
  -22.4056  -11.9964   22.4877 H   0  0  0  0  0  0
  -21.1076  -13.1313   22.2570 H   0  0  0  0  0  0
  -24.6406  -15.8272   20.4965 H   0  0  0  0  0  0
  -26.2412  -15.6221   20.0000 H   0  0  0  0  0  0
  -26.7161  -32.5475   23.1116 H   0  0  0  0  0  0
  -25.0114  -33.9739   25.0458 H   0  0  0  0  0  0
  -22.7076  -31.3062   21.4061 H   0  0  0  0  0  0
  -23.3743  -35.9643   23.3296 H   0  0  0  0  0  0
  -24.3581  -36.8939   22.2049 H   0  0  0  0  0  0
  -23.7241  -37.6505   23.6670 H   0  0  0  0  0  0
  -26.0879  -31.5582   20.6049 H   0  0  0  0  0  0
  -26.8367  -30.8475   22.0041 H   0  0  0  0  0  0
  -28.1080  -28.9901   21.2034 H   0  0  0  0  0  0
  -25.9677  -25.9564   18.9812 H   0  0  0  0  0  0
  -23.9732  -27.3225   18.9987 H   0  0  0  0  0  0
  -23.7503  -30.6020   19.4030 H   0  0  0  0  0  0
  -22.7525  -29.2526   19.8559 H   0  0  0  0  0  0
  -25.1284  -36.1951   25.0812 H   0  0  0  0  0  0
  -20.9977  -28.3257   24.1394 H   0  0  0  0  0  0
  -20.5683  -26.2284   23.3605 H   0  0  0  0  0  0
  -21.6650  -26.7440   22.1208 H   0  0  0  0  0  0
  -19.6920  -25.6280   21.1230 H   0  0  0  0  0  0
  -19.6686  -27.3176   20.6733 H   0  0  0  0  0  0
  -17.4205  -26.6658   21.4020 H   0  0  0  0  0  0
  -18.0344  -26.0063   22.9024 H   0  0  0  0  0  0
  -19.7943  -30.7267   24.2255 H   0  0  0  0  0  0
  -17.5021  -31.6248   24.5160 H   0  0  0  0  0  0
  -15.5363  -30.2965   23.7655 H   0  0  0  0  0  0
  -15.8672  -28.0806   22.7047 H   0  0  0  0  0  0
  -24.5868  -30.7145   25.7810 H   0  0  0  0  0  0
  -24.8972  -32.2945   26.4915 H   0  0  0  0  0  0
  -25.8055  -30.8916   27.0238 H   0  0  0  0  0  0
  -26.2896  -29.6792   24.1190 H   0  0  0  0  0  0
  -27.4021  -29.7272   25.4675 H   0  0  0  0  0  0
  -27.8774  -30.4320   23.9407 H   0  0  0  0  0  0
  -27.2615  -33.3620   26.2114 H   0  0  0  0  0  0
  -28.3837  -32.6943   25.0351 H   0  0  0  0  0  0
  -28.0721  -31.8475   26.5423 H   0  0  0  0  0  0
  -28.2580  -38.0117   24.7520 H   0  0  0  0  0  0
  -28.1090  -36.2646   24.6249 H   0  0  0  0  0  0
  -27.2306  -37.1422   25.8858 H   0  0  0  0  0  0
  -20.9364  -29.8796   21.6931 H   0  0  0  0  0  0
  -26.0166  -38.2862   24.1421 H   0  0  0  0  0  0
  -27.7023  -17.3732   21.0245 H   0  0  0  0  0  0
  -27.6878  -19.8196   20.9273 H   0  0  0  0  0  0
  -31.9642  -17.3518   20.3579 H   0  0  0  0  0  0
  -30.0426  -24.1605   19.7784 H   0  0  0  0  0  0
  -29.5919  -24.2139   21.4565 H   0  0  0  0  0  0
  -28.3618  -22.2396   19.4191 H   0  0  0  0  0  0
  -28.0251  -22.2487   21.1314 H   0  0  0  0  0  0
  -27.2313  -24.8141   20.7764 H   0  0  0  0  0  0
  -27.7457  -24.7895   19.1030 H   0  0  0  0  0  0
  -28.8349  -15.3146   21.0642 H   0  0  0  0  0  0
  -30.8602  -21.8344   20.5057 H   0  0  0  0  0  0
  1 25  1  0  0  0
  1 30  2  0  0  0
  1 80  1  0  0  0
  2  3  1  0  0  0
  2 25  1  0  0  0
  2 83  1  0  0  0
  2 84  1  0  0  0
  3  4  1  0  0  0
  3 85  1  0  0  0
  3 86  1  0  0  0
  4  5  1  0  0  0
  4 87  1  0  0  0
  4 88  1  0  0  0
  5  6  1  0  0  0
  5 26  1  0  0  0
  5 89  1  0  0  0
  6 25  1  0  0  0
  6 90  1  0  0  0
  6 91  1  0  0  0
  7  8  2  0  0  0
  7 26  1  0  0  0
  7 29  1  0  0  0
  8  9  1  0  0  0
  8 22  1  0  0  0
  9 10  1  0  0  0
  9 27  2  0  0  0
 10 11  2  0  0  0
 10 15  1  0  0  0
 11 12  1  0  0  0
 11 92  1  0  0  0
 12 13  2  0  0  0
 12 93  1  0  0  0
 13 14  1  0  0  0
 13 31  1  0  0  0
 14 15  2  0  0  0
 14 94  1  0  0  0
 15 95  1  0  0  0
 16 17  2  0  0  0
 16 21  1  0  0  0
 16 31  1  0  0  0
 17 18  1  0  0  0
 17 96  1  0  0  0
 18 19  2  0  0  0
 18 97  1  0  0  0
 19 20  1  0  0  0
 19 24  1  0  0  0
 20 21  2  0  0  0
 20 98  1  0  0  0
 21 23  1  0  0  0
 22 28  1  0  0  0
 22 32  2  0  0  0
 26 27  1  0  0  0
 28 99  1  0  0  0
 28100  1  0  0  0
 29101  1  0  0  0
 29102  1  0  0  0
 33 34  1  0  0  0
 33 66  1  0  0  0
 33 70  2  0  0  0
 34 36  1  0  0  0
 34 59  1  0  0  0
 34103  1  0  0  0
 35 44  2  0  0  0
 35 45  1  0  0  0
 35 68  1  0  0  0
 36 56  1  0  0  0
 36104  1  0  0  0
 37 39  1  0  0  0
 37 47  1  0  0  0
 37 66  1  0  0  0
 37105  1  0  0  0
 38 43  2  0  0  0
 38 46  1  0  0  0
 38 47  1  0  0  0
 39 64  1  0  0  0
 39 67  2  0  0  0
 40 52  1  0  0  0
 40 53  2  0  0  0
 40 58  1  0  0  0
 41106  1  0  0  0
 41107  1  0  0  0
 41108  1  0  0  0
 41 48  1  0  0  0
 42 43  1  0  0  0
 42 66  1  0  0  0
 42109  1  0  0  0
 42110  1  0  0  0
 43 44  1  0  0  0
 44111  1  0  0  0
 45 46  2  0  0  0
 45112  1  0  0  0
 46113  1  0  0  0
 47114  1  0  0  0
 47115  1  0  0  0
 48 56  1  0  0  0
 48 65  1  0  0  0
 48116  1  0  0  0
 49 50  1  0  0  0
 49 53  1  0  0  0
 49 64  1  0  0  0
 49117  1  0  0  0
 50 51  1  0  0  0
 50118  1  0  0  0
 50119  1  0  0  0
 51 52  1  0  0  0
 51120  1  0  0  0
 51121  1  0  0  0
 52122  1  0  0  0
 52123  1  0  0  0
 53 54  1  0  0  0
 54 55  2  0  0  0
 54124  1  0  0  0
 55 57  1  0  0  0
 55125  1  0  0  0
 56 69  2  0  0  0
 57 58  2  0  0  0
 57126  1  0  0  0
 58127  1  0  0  0
 59 60  1  0  0  0
 59 61  1  0  0  0
 59 62  1  0  0  0
 60128  1  0  0  0
 60129  1  0  0  0
 60130  1  0  0  0
 61131  1  0  0  0
 61132  1  0  0  0
 61133  1  0  0  0
 62134  1  0  0  0
 62135  1  0  0  0
 62136  1  0  0  0
 63 65  1  0  0  0
 63137  1  0  0  0
 63138  1  0  0  0
 63139  1  0  0  0
 64140  1  0  0  0
 65141  1  0  0  0
 68 79  1  0  0  0
 71 72  2  0  0  0
 71 74  1  0  0  0
 71142  1  0  0  0
 72 75  1  0  0  0
 72143  1  0  0  0
 73 74  2  0  0  0
 73 76  1  0  0  0
 73144  1  0  0  0
 74 80  1  0  0  0
 75 76  2  0  0  0
 75 81  1  0  0  0
 76 82  1  0  0  0
 77 78  1  0  0  0
 77 79  1  0  0  0
 77145  1  0  0  0
 77146  1  0  0  0
 78 81  1  0  0  0
 78147  1  0  0  0
 78148  1  0  0  0
 79149  1  0  0  0
 79150  1  0  0  0
 80151  1  0  0  0
 81152  1  0  0  0
M  ISO  4   1 100  68 101  79 101  80 100
M  END
> <chiral flag>
0

> <version>
0

> <s_m_source_file>
/data/baiqing/PycharmProjects/Reinvent-master-3.2/result/LINK_invent/BTK/process_docking_weight1_custom_product_contain_oxygen_bond_distance_aromatic_linkinvent_7_9_3/rearranged_h_0022.sdf

> <i_m_source_file_index>
92

> <r_mmod_Potential_Energy-OPLS-2005>
58.7932014465332

> <r_mmod_Stretch_Energy-OPLS-2005>
70.3346176147461

> <r_mmod_Bend_Energy-OPLS-2005>
142.606964111328

> <r_mmod_Torsional_Energy-OPLS-2005>
202.512619018555

> <r_mmod_Improper_Torsional_Energy-OPLS-2005>
5.64249610900879

> <r_mmod_Van_der_Waal_Energy-OPLS-2005>
146.385101318359

> <r_mmod_Electrostatic_Energy-OPLS-2005>
-340.856323242188

> <r_mmod_Solvation_Energy-OPLS-2005>
-213.716110229492

> <b_mmod_Minimization_Converged-OPLS-2005>
0

> <r_mmod_RMS_Derivative-OPLS-2005>
2.849365234375

$$$$
93
                    3D
 Structure written by MMmdl.
157165  0  0  1  0            999 V2000
  -30.5497  -15.0618   20.4114 C   0  0  0  0  0  0
  -30.4134  -12.6719   19.4969 C   0  0  0  0  0  0
  -29.4997  -12.5585   18.2550 C   0  0  0  0  0  0
  -28.0442  -12.3040   18.6825 C   0  0  0  0  0  0
  -27.6018  -13.2535   19.8242 C   0  0  2  0  0  0
  -28.6463  -13.3786   20.9567 C   0  0  0  0  0  0
  -25.2321  -13.8199   20.5800 C   0  0  0  0  0  0
  -24.1680  -13.0394   20.9302 C   0  0  0  0  0  0
  -24.6322  -11.6892   20.8829 C   0  0  0  0  0  0
  -23.9028  -10.4244   21.0438 C   0  0  0  0  0  0
  -24.3592   -9.4142   21.9180 C   0  0  0  0  0  0
  -23.6273   -8.2174   22.0733 C   0  0  0  0  0  0
  -22.4244   -8.0241   21.3540 C   0  0  0  0  0  0
  -21.9899   -9.0194   20.4631 C   0  0  0  0  0  0
  -22.7220  -10.2076   20.3041 C   0  0  0  0  0  0
  -21.6807   -6.0697   22.5269 C   0  0  0  0  0  0
  -21.3942   -6.5622   23.8189 C   0  0  0  0  0  0
  -21.3690   -5.6806   24.9172 C   0  0  0  0  0  0
  -21.6056   -4.3055   24.7234 C   0  0  0  0  0  0
  -21.8787   -3.8119   23.4351 C   0  0  0  0  0  0
  -21.9168   -4.6922   22.3390 C   0  0  0  0  0  0
  -22.7697  -13.5152   21.1911 C   0  0  0  0  0  0
  -22.1635   -4.2100   21.0967 F   0  0  0  0  0  0
  -21.5705   -3.4552   25.7760 F   0  0  0  0  0  0
  -29.9079  -13.8078   20.3355 N   0  0  0  0  0  0
  -26.2734  -12.9438   20.3263 N   0  0  0  0  0  0
  -25.9250  -11.6562   20.5790 N   0  0  0  0  0  0
  -22.0337  -12.8165   22.0468 N   0  0  0  0  0  0
  -25.3924  -15.1941   20.4269 N   0  0  0  0  0  0
  -31.7715  -15.0162   20.2236 O   0  0  0  0  0  0
  -21.6605   -6.8841   21.4237 O   0  0  0  0  0  0
  -22.3358  -14.5432   20.6709 O   0  0  0  0  0  0
  -24.6487  -31.8367   23.1858 C   0  0  0  0  0  0
  -25.9207  -32.4669   23.8293 C   0  0  1  0  0  0
  -27.2149  -27.0528   20.1835 C   0  0  0  0  0  0
  -25.5941  -33.8491   24.2192 N   0  0  0  0  0  0
  -23.4588  -30.4488   21.5345 C   0  0  2  0  0  0
  -24.9118  -28.8599   20.1206 C   0  0  0  0  0  0
  -22.7626  -29.4456   22.4890 C   0  0  0  0  0  0
  -18.0297  -28.1375   22.8489 C   0  0  0  0  0  0
  -24.1484  -36.7240   23.2651 C   0  0  0  0  0  0
  -26.0191  -30.6839   21.3980 C   0  0  0  0  0  0
  -26.0918  -29.2842   20.7449 C   0  0  0  0  0  0
  -27.2443  -28.3996   20.7522 C   0  0  0  0  0  0
  -26.0083  -26.7452   19.5167 C   0  0  0  0  0  0
  -24.8859  -27.6078   19.4876 C   0  0  0  0  0  0
  -23.6918  -29.7714   20.1567 C   0  0  0  0  0  0
  -25.4124  -36.3025   24.0320 C   0  0  1  0  0  0
  -20.5918  -28.3700   23.1242 C   0  0  2  0  0  0
  -20.6777  -26.9395   22.5413 C   0  0  0  0  0  0
  -19.5748  -26.6359   21.5225 C   0  0  0  0  0  0
  -18.1934  -26.7919   22.1629 C   0  0  0  0  0  0
  -19.1564  -28.8866   23.2852 C   0  0  0  0  0  0
  -18.9471  -30.1480   23.8858 C   0  0  0  0  0  0
  -17.6461  -30.6575   24.0555 C   0  0  0  0  0  0
  -25.9080  -34.9393   23.5071 C   0  0  0  0  0  0
  -16.5350  -29.9057   23.6338 C   0  0  0  0  0  0
  -16.7290  -28.6472   23.0373 C   0  0  0  0  0  0
  -26.4508  -31.6571   25.0768 C   0  0  0  0  0  0
  -25.3690  -31.3744   26.1468 C   0  0  0  0  0  0
  -27.0384  -30.2977   24.6370 C   0  0  0  0  0  0
  -27.6044  -32.4356   25.7523 C   0  0  0  0  0  0
  -27.5585  -37.1767   24.8461 C   0  0  0  0  0  0
  -21.4304  -29.3013   22.3634 N   0  0  0  0  0  0
  -26.4279  -37.3754   23.9421 N   0  0  0  0  0  0
  -24.7287  -31.0120   22.0940 N   0  0  0  0  0  0
  -23.4222  -28.8019   23.3075 O   0  0  0  0  0  0
  -28.2504  -26.0232   20.2032 O   0  0  0  0  0  0
  -26.5683  -34.8890   22.4661 O   0  0  0  0  0  0
  -23.5567  -32.1262   23.7009 O   0  0  0  0  0  0
  -31.7054  -19.5292   22.9753 C   0  0  0  0  0  0
  -31.8923  -18.1615   23.1044 C   0  0  0  0  0  0
  -30.8020  -20.0077   22.0239 C   0  0  0  0  0  0
  -31.2039  -17.2873   22.2553 C   0  0  0  0  0  0
  -30.0417  -19.2044   21.1272 C   0  0  0  0  0  0
  -30.3182  -17.6727   21.2007 C   0  0  0  0  0  0
  -28.7492  -23.1162   20.1095 C   0  0  0  0  0  0
  -28.7717  -16.5672   19.5337 C   0  0  0  0  0  0
  -28.0700  -21.7468   22.0425 C   0  0  0  0  0  0
  -29.1393  -20.2990   20.2420 C   0  0  0  0  0  0
  -27.9773  -24.5242   20.6658 C   0  0  0  0  0  0
  -29.8743  -16.3653   20.4702 N   0  0  0  0  0  0
  -28.7147  -21.7989   20.7244 N   0  0  0  0  0  0
  -29.3548  -23.2317   19.0395 O   0  0  0  0  0  0
  -31.4493  -12.8166   19.1811 H   0  0  0  0  0  0
  -30.3993  -11.7371   20.0593 H   0  0  0  0  0  0
  -29.8376  -11.7575   17.5974 H   0  0  0  0  0  0
  -29.5565  -13.4826   17.6754 H   0  0  0  0  0  0
  -27.9720  -11.2684   19.0135 H   0  0  0  0  0  0
  -27.3686  -12.3892   17.8286 H   0  0  0  0  0  0
  -27.5124  -14.2223   19.3437 H   0  0  0  0  0  0
  -28.7546  -12.4298   21.4852 H   0  0  0  0  0  0
  -28.3222  -14.1172   21.6946 H   0  0  0  0  0  0
  -25.2732   -9.5587   22.4750 H   0  0  0  0  0  0
  -23.9973   -7.4541   22.7435 H   0  0  0  0  0  0
  -21.0828   -8.8669   19.8933 H   0  0  0  0  0  0
  -22.3673  -10.9587   19.6124 H   0  0  0  0  0  0
  -21.1821   -7.6112   23.9662 H   0  0  0  0  0  0
  -21.1613   -6.0550   25.9094 H   0  0  0  0  0  0
  -22.0529   -2.7572   23.2867 H   0  0  0  0  0  0
  -22.4053  -11.9983   22.5035 H   0  0  0  0  0  0
  -21.0880  -13.1045   22.2511 H   0  0  0  0  0  0
  -24.6211  -15.8415   20.5537 H   0  0  0  0  0  0
  -26.2324  -15.6426   20.0879 H   0  0  0  0  0  0
  -26.7276  -32.5247   23.1024 H   0  0  0  0  0  0
  -25.0079  -33.9625   25.0330 H   0  0  0  0  0  0
  -22.7631  -31.2749   21.3732 H   0  0  0  0  0  0
  -23.3777  -35.9536   23.3260 H   0  0  0  0  0  0
  -24.3579  -36.8931   22.2072 H   0  0  0  0  0  0
  -23.7172  -37.6395   23.6718 H   0  0  0  0  0  0
  -26.1798  -31.4295   20.6182 H   0  0  0  0  0  0
  -26.8882  -30.7428   22.0417 H   0  0  0  0  0  0
  -28.1481  -28.7179   21.2544 H   0  0  0  0  0  0
  -25.9099  -25.7875   19.0269 H   0  0  0  0  0  0
  -23.9870  -27.2809   18.9833 H   0  0  0  0  0  0
  -23.8389  -30.5426   19.4001 H   0  0  0  0  0  0
  -22.8056  -29.2173   19.8399 H   0  0  0  0  0  0
  -25.1295  -36.1869   25.0812 H   0  0  0  0  0  0
  -20.9998  -28.3263   24.1372 H   0  0  0  0  0  0
  -20.5663  -26.2304   23.3640 H   0  0  0  0  0  0
  -21.6635  -26.7388   22.1201 H   0  0  0  0  0  0
  -19.6893  -25.6260   21.1278 H   0  0  0  0  0  0
  -19.6677  -27.3158   20.6746 H   0  0  0  0  0  0
  -17.4203  -26.6695   21.4027 H   0  0  0  0  0  0
  -18.0316  -26.0053   22.9010 H   0  0  0  0  0  0
  -19.7948  -30.7331   24.2186 H   0  0  0  0  0  0
  -17.4992  -31.6257   24.5156 H   0  0  0  0  0  0
  -15.5343  -30.2932   23.7681 H   0  0  0  0  0  0
  -15.8696  -28.0767   22.7117 H   0  0  0  0  0  0
  -24.5872  -30.7096   25.7765 H   0  0  0  0  0  0
  -24.8881  -32.2910   26.4892 H   0  0  0  0  0  0
  -25.7976  -30.8903   27.0260 H   0  0  0  0  0  0
  -26.3012  -29.6714   24.1337 H   0  0  0  0  0  0
  -27.3944  -29.7257   25.4947 H   0  0  0  0  0  0
  -27.8940  -30.4221   23.9734 H   0  0  0  0  0  0
  -27.2659  -33.3689   26.2032 H   0  0  0  0  0  0
  -28.3869  -32.6878   25.0351 H   0  0  0  0  0  0
  -28.0711  -31.8552   26.5492 H   0  0  0  0  0  0
  -28.2546  -38.0123   24.7592 H   0  0  0  0  0  0
  -28.1143  -36.2658   24.6182 H   0  0  0  0  0  0
  -27.2330  -37.1278   25.8872 H   0  0  0  0  0  0
  -20.9557  -29.8726   21.6796 H   0  0  0  0  0  0
  -26.0149  -38.2811   24.1484 H   0  0  0  0  0  0
  -32.2412  -20.2152   23.6183 H   0  0  0  0  0  0
  -32.5677  -17.7798   23.8578 H   0  0  0  0  0  0
  -30.7140  -21.0817   22.0025 H   0  0  0  0  0  0
  -31.4131  -16.2533   22.4691 H   0  0  0  0  0  0
  -28.7707  -17.5800   19.1302 H   0  0  0  0  0  0
  -27.8295  -16.4248   20.0578 H   0  0  0  0  0  0
  -28.8139  -15.8907   18.6752 H   0  0  0  0  0  0
  -27.0649  -22.1693   22.0159 H   0  0  0  0  0  0
  -28.6509  -22.3087   22.7777 H   0  0  0  0  0  0
  -27.9775  -20.7245   22.4158 H   0  0  0  0  0  0
  -28.2137  -19.7919   19.9672 H   0  0  0  0  0  0
  -29.6749  -20.4218   19.3007 H   0  0  0  0  0  0
  -28.1416  -24.5387   21.7433 H   0  0  0  0  0  0
  -26.9113  -24.3286   20.5532 H   0  0  0  0  0  0
  1 25  1  0  0  0
  1 30  2  0  0  0
  1 82  1  0  0  0
  2  3  1  0  0  0
  2 25  1  0  0  0
  2 85  1  0  0  0
  2 86  1  0  0  0
  3  4  1  0  0  0
  3 87  1  0  0  0
  3 88  1  0  0  0
  4  5  1  0  0  0
  4 89  1  0  0  0
  4 90  1  0  0  0
  5  6  1  0  0  0
  5 26  1  0  0  0
  5 91  1  0  0  0
  6 25  1  0  0  0
  6 92  1  0  0  0
  6 93  1  0  0  0
  7  8  2  0  0  0
  7 26  1  0  0  0
  7 29  1  0  0  0
  8  9  1  0  0  0
  8 22  1  0  0  0
  9 10  1  0  0  0
  9 27  2  0  0  0
 10 11  2  0  0  0
 10 15  1  0  0  0
 11 12  1  0  0  0
 11 94  1  0  0  0
 12 13  2  0  0  0
 12 95  1  0  0  0
 13 14  1  0  0  0
 13 31  1  0  0  0
 14 15  2  0  0  0
 14 96  1  0  0  0
 15 97  1  0  0  0
 16 17  2  0  0  0
 16 21  1  0  0  0
 16 31  1  0  0  0
 17 18  1  0  0  0
 17 98  1  0  0  0
 18 19  2  0  0  0
 18 99  1  0  0  0
 19 20  1  0  0  0
 19 24  1  0  0  0
 20 21  2  0  0  0
 20100  1  0  0  0
 21 23  1  0  0  0
 22 28  1  0  0  0
 22 32  2  0  0  0
 26 27  1  0  0  0
 28101  1  0  0  0
 28102  1  0  0  0
 29103  1  0  0  0
 29104  1  0  0  0
 33 34  1  0  0  0
 33 66  1  0  0  0
 33 70  2  0  0  0
 34 36  1  0  0  0
 34 59  1  0  0  0
 34105  1  0  0  0
 35 44  2  0  0  0
 35 45  1  0  0  0
 35 68  1  0  0  0
 36 56  1  0  0  0
 36106  1  0  0  0
 37 39  1  0  0  0
 37 47  1  0  0  0
 37 66  1  0  0  0
 37107  1  0  0  0
 38 43  2  0  0  0
 38 46  1  0  0  0
 38 47  1  0  0  0
 39 64  1  0  0  0
 39 67  2  0  0  0
 40 52  1  0  0  0
 40 53  2  0  0  0
 40 58  1  0  0  0
 41108  1  0  0  0
 41109  1  0  0  0
 41110  1  0  0  0
 41 48  1  0  0  0
 42 43  1  0  0  0
 42 66  1  0  0  0
 42111  1  0  0  0
 42112  1  0  0  0
 43 44  1  0  0  0
 44113  1  0  0  0
 45 46  2  0  0  0
 45114  1  0  0  0
 46115  1  0  0  0
 47116  1  0  0  0
 47117  1  0  0  0
 48 56  1  0  0  0
 48 65  1  0  0  0
 48118  1  0  0  0
 49 50  1  0  0  0
 49 53  1  0  0  0
 49 64  1  0  0  0
 49119  1  0  0  0
 50 51  1  0  0  0
 50120  1  0  0  0
 50121  1  0  0  0
 51 52  1  0  0  0
 51122  1  0  0  0
 51123  1  0  0  0
 52124  1  0  0  0
 52125  1  0  0  0
 53 54  1  0  0  0
 54 55  2  0  0  0
 54126  1  0  0  0
 55 57  1  0  0  0
 55127  1  0  0  0
 56 69  2  0  0  0
 57 58  2  0  0  0
 57128  1  0  0  0
 58129  1  0  0  0
 59 60  1  0  0  0
 59 61  1  0  0  0
 59 62  1  0  0  0
 60130  1  0  0  0
 60131  1  0  0  0
 60132  1  0  0  0
 61133  1  0  0  0
 61134  1  0  0  0
 61135  1  0  0  0
 62136  1  0  0  0
 62137  1  0  0  0
 62138  1  0  0  0
 63 65  1  0  0  0
 63139  1  0  0  0
 63140  1  0  0  0
 63141  1  0  0  0
 64142  1  0  0  0
 65143  1  0  0  0
 68 81  1  0  0  0
 71 72  2  0  0  0
 71 73  1  0  0  0
 71144  1  0  0  0
 72 74  1  0  0  0
 72145  1  0  0  0
 73 75  2  0  0  0
 73146  1  0  0  0
 74 76  2  0  0  0
 74147  1  0  0  0
 75 76  1  0  0  0
 75 80  1  0  0  0
 76 82  1  0  0  0
 77 81  1  0  0  0
 77 83  1  0  0  0
 77 84  2  0  0  0
 78 82  1  0  0  0
 78148  1  0  0  0
 78149  1  0  0  0
 78150  1  0  0  0
 79 83  1  0  0  0
 79151  1  0  0  0
 79152  1  0  0  0
 79153  1  0  0  0
 80 83  1  0  0  0
 80154  1  0  0  0
 80155  1  0  0  0
 81156  1  0  0  0
 81157  1  0  0  0
M  ISO  4   1 100  68 101  81 101  82 100
M  END
> <chiral flag>
0

> <version>
0

> <s_m_source_file>
/data/baiqing/PycharmProjects/Reinvent-master-3.2/result/LINK_invent/BTK/process_docking_weight1_custom_product_contain_oxygen_bond_distance_aromatic_linkinvent_7_9_3/rearranged_h_0022.sdf

> <i_m_source_file_index>
93

> <r_mmod_Potential_Energy-OPLS-2005>
1013.63214111328

> <r_mmod_Stretch_Energy-OPLS-2005>
403.718658447266

> <r_mmod_Bend_Energy-OPLS-2005>
370.353302001953

> <r_mmod_Torsional_Energy-OPLS-2005>
306.195495605469

> <r_mmod_Improper_Torsional_Energy-OPLS-2005>
5.40503597259521

> <r_mmod_Van_der_Waal_Energy-OPLS-2005>
141.430404663086

> <r_mmod_Electrostatic_Energy-OPLS-2005>
-260.943054199219

> <r_mmod_Solvation_Energy-OPLS-2005>
-228.874404907227

> <b_mmod_Minimization_Converged-OPLS-2005>
0

> <r_mmod_RMS_Derivative-OPLS-2005>
4.07801055908203

$$$$
94
                    3D
 Structure written by MMmdl.
158166  0  0  1  0            999 V2000
  -30.7048  -14.5510   20.5590 C   0  0  0  0  0  0
  -30.4130  -12.3583   19.4413 C   0  0  0  0  0  0
  -29.4953  -12.5218   18.2154 C   0  0  0  0  0  0
  -28.0180  -12.3698   18.6249 C   0  0  0  0  0  0
  -27.6573  -13.2152   19.8773 C   0  0  2  0  0  0
  -28.7052  -13.0215   20.9998 C   0  0  0  0  0  0
  -25.2610  -13.8177   20.5738 C   0  0  0  0  0  0
  -24.1870  -13.0456   20.9226 C   0  0  0  0  0  0
  -24.6432  -11.6915   20.8805 C   0  0  0  0  0  0
  -23.9101  -10.4291   21.0462 C   0  0  0  0  0  0
  -24.3628   -9.4189   21.9231 C   0  0  0  0  0  0
  -23.6290   -8.2232   22.0776 C   0  0  0  0  0  0
  -22.4285   -8.0279   21.3558 C   0  0  0  0  0  0
  -21.9943   -9.0267   20.4674 C   0  0  0  0  0  0
  -22.7282  -10.2140   20.3108 C   0  0  0  0  0  0
  -21.6828   -6.0765   22.5287 C   0  0  0  0  0  0
  -21.3986   -6.5667   23.8216 C   0  0  0  0  0  0
  -21.3670   -5.6822   24.9187 C   0  0  0  0  0  0
  -21.6034   -4.3081   24.7246 C   0  0  0  0  0  0
  -21.8794   -3.8181   23.4360 C   0  0  0  0  0  0
  -21.9164   -4.6997   22.3417 C   0  0  0  0  0  0
  -22.7894  -13.5272   21.1844 C   0  0  0  0  0  0
  -22.1649   -4.2183   21.1003 F   0  0  0  0  0  0
  -21.5614   -3.4561   25.7755 F   0  0  0  0  0  0
  -30.0136  -13.3737   20.4399 N   0  0  0  0  0  0
  -26.3024  -12.9352   20.3387 N   0  0  0  0  0  0
  -25.9352  -11.6494   20.5794 N   0  0  0  0  0  0
  -22.0523  -12.8264   22.0382 N   0  0  0  0  0  0
  -25.4349  -15.1887   20.4142 N   0  0  0  0  0  0
  -31.8342  -14.6656   20.0746 O   0  0  0  0  0  0
  -21.6626   -6.8897   21.4249 O   0  0  0  0  0  0
  -22.3630  -14.5598   20.6685 O   0  0  0  0  0  0
  -24.6219  -31.8648   23.2073 C   0  0  0  0  0  0
  -25.9075  -32.4803   23.8383 C   0  0  1  0  0  0
  -27.2286  -27.3877   20.0727 C   0  0  0  0  0  0
  -25.5919  -33.8606   24.2307 N   0  0  0  0  0  0
  -23.4083  -30.4947   21.5490 C   0  0  2  0  0  0
  -24.8465  -28.9443   20.1203 C   0  0  0  0  0  0
  -22.7434  -29.4720   22.4980 C   0  0  0  0  0  0
  -18.0314  -28.1435   22.8454 C   0  0  0  0  0  0
  -24.1501  -36.7314   23.2622 C   0  0  0  0  0  0
  -25.9413  -30.8134   21.3637 C   0  0  0  0  0  0
  -26.0116  -29.4445   20.7092 C   0  0  0  0  0  0
  -27.2014  -28.6714   20.6825 C   0  0  0  0  0  0
  -26.0319  -26.9047   19.4963 C   0  0  0  0  0  0
  -24.8503  -27.6741   19.5198 C   0  0  0  0  0  0
  -23.6188  -29.8274   20.1647 C   0  0  0  0  0  0
  -25.4119  -36.3093   24.0324 C   0  0  1  0  0  0
  -20.5902  -28.3766   23.1306 C   0  0  2  0  0  0
  -20.6862  -26.9525   22.5384 C   0  0  0  0  0  0
  -19.5861  -26.6464   21.5194 C   0  0  0  0  0  0
  -18.2004  -26.7996   22.1557 C   0  0  0  0  0  0
  -19.1550  -28.8915   23.2886 C   0  0  0  0  0  0
  -18.9439  -30.1494   23.8960 C   0  0  0  0  0  0
  -17.6417  -30.6602   24.0642 C   0  0  0  0  0  0
  -25.9050  -34.9465   23.5120 C   0  0  0  0  0  0
  -16.5350  -29.9115   23.6325 C   0  0  0  0  0  0
  -16.7288  -28.6559   23.0306 C   0  0  0  0  0  0
  -26.4466  -31.6596   25.0731 C   0  0  0  0  0  0
  -25.3684  -31.3778   26.1458 C   0  0  0  0  0  0
  -27.0325  -30.3051   24.6127 C   0  0  0  0  0  0
  -27.6070  -32.4292   25.7478 C   0  0  0  0  0  0
  -27.5594  -37.1823   24.8456 C   0  0  0  0  0  0
  -21.4164  -29.3145   22.3720 N   0  0  0  0  0  0
  -26.4315  -37.3775   23.9378 N   0  0  0  0  0  0
  -24.6763  -31.0713   22.0993 N   0  0  0  0  0  0
  -23.4205  -28.8227   23.3038 O   0  0  0  0  0  0
  -28.4147  -26.6627   20.0798 O   0  0  0  0  0  0
  -26.5592  -34.8916   22.4676 O   0  0  0  0  0  0
  -23.5405  -32.1444   23.7456 O   0  0  0  0  0  0
  -28.1696  -21.3662   21.3831 C   0  0  0  0  0  0
  -29.6650  -20.5124   19.6998 C   0  0  0  0  0  0
  -28.1246  -20.0873   22.0016 C   0  0  0  0  0  0
  -28.8365  -18.9794   21.4513 C   0  0  0  0  0  0
  -28.9435  -21.6088   20.2276 C   0  0  0  0  0  0
  -29.6127  -19.2227   20.2912 C   0  0  0  0  0  0
  -27.3257  -19.9652   23.2925 C   0  0  0  0  0  0
  -28.8224  -17.5827   22.1353 C   0  0  0  0  0  0
  -28.8779  -16.2807   21.2567 C   0  0  0  0  0  0
  -28.4154  -24.1082   20.2056 C   0  0  0  0  0  0
  -28.5783  -25.4147   19.3535 C   0  0  0  0  0  0
  -29.0095  -22.8886   19.6089 N   0  0  0  0  0  0
  -30.2110  -15.6238   21.2353 N   0  0  0  0  0  0
  -30.3407  -18.2220   19.7437 F   0  0  0  0  0  0
  -31.4589  -12.4396   19.1374 H   0  0  0  0  0  0
  -30.3162  -11.3544   19.8579 H   0  0  0  0  0  0
  -29.7489  -11.7845   17.4518 H   0  0  0  0  0  0
  -29.6524  -13.5032   17.7635 H   0  0  0  0  0  0
  -27.8473  -11.3144   18.8336 H   0  0  0  0  0  0
  -27.3637  -12.6292   17.7918 H   0  0  0  0  0  0
  -27.6873  -14.2579   19.5651 H   0  0  0  0  0  0
  -28.7135  -11.9798   21.3212 H   0  0  0  0  0  0
  -28.4772  -13.5751   21.9064 H   0  0  0  0  0  0
  -25.2761   -9.5628   22.4843 H   0  0  0  0  0  0
  -23.9973   -7.4610   22.7495 H   0  0  0  0  0  0
  -21.0866   -8.8800   19.8989 H   0  0  0  0  0  0
  -22.3746  -10.9690   19.6246 H   0  0  0  0  0  0
  -21.1963   -7.6176   23.9723 H   0  0  0  0  0  0
  -21.1537   -6.0573   25.9082 H   0  0  0  0  0  0
  -22.0573   -2.7647   23.2853 H   0  0  0  0  0  0
  -22.4107  -11.9881   22.4711 H   0  0  0  0  0  0
  -21.1161  -13.1330   22.2626 H   0  0  0  0  0  0
  -24.6661  -15.8411   20.5166 H   0  0  0  0  0  0
  -26.2680  -15.6103   20.0260 H   0  0  0  0  0  0
  -26.7125  -32.5495   23.1121 H   0  0  0  0  0  0
  -25.0091  -33.9786   25.0463 H   0  0  0  0  0  0
  -22.7032  -31.3183   21.4095 H   0  0  0  0  0  0
  -23.3755  -35.9665   23.3295 H   0  0  0  0  0  0
  -24.3584  -36.8933   22.2038 H   0  0  0  0  0  0
  -23.7298  -37.6541   23.6633 H   0  0  0  0  0  0
  -26.0492  -31.5792   20.5958 H   0  0  0  0  0  0
  -26.8291  -30.8718   21.9779 H   0  0  0  0  0  0
  -28.1038  -29.0543   21.1395 H   0  0  0  0  0  0
  -25.9794  -25.9319   19.0307 H   0  0  0  0  0  0
  -23.9447  -27.2820   19.0785 H   0  0  0  0  0  0
  -23.7527  -30.6064   19.4121 H   0  0  0  0  0  0
  -22.7326  -29.2723   19.8542 H   0  0  0  0  0  0
  -25.1308  -36.1957   25.0828 H   0  0  0  0  0  0
  -20.9974  -28.3357   24.1430 H   0  0  0  0  0  0
  -20.5910  -26.2363   23.3562 H   0  0  0  0  0  0
  -21.6743  -26.7703   22.1111 H   0  0  0  0  0  0
  -19.6820  -27.3257   20.6711 H   0  0  0  0  0  0
  -19.7077  -25.6370   21.1242 H   0  0  0  0  0  0
  -17.4322  -26.6774   21.3899 H   0  0  0  0  0  0
  -18.0390  -26.0109   22.8928 H   0  0  0  0  0  0
  -19.7893  -30.7316   24.2390 H   0  0  0  0  0  0
  -17.4952  -31.6260   24.5278 H   0  0  0  0  0  0
  -15.5333  -30.3031   23.7619 H   0  0  0  0  0  0
  -15.8699  -28.0910   22.6958 H   0  0  0  0  0  0
  -24.5799  -30.7188   25.7769 H   0  0  0  0  0  0
  -24.8919  -32.2992   26.4846 H   0  0  0  0  0  0
  -25.7963  -30.8945   27.0248 H   0  0  0  0  0  0
  -26.2939  -29.6818   24.1062 H   0  0  0  0  0  0
  -27.4008  -29.7273   25.4606 H   0  0  0  0  0  0
  -27.8778  -30.4403   23.9372 H   0  0  0  0  0  0
  -27.2709  -33.3566   26.2129 H   0  0  0  0  0  0
  -28.3831  -32.6892   25.0258 H   0  0  0  0  0  0
  -28.0767  -31.8342   26.5323 H   0  0  0  0  0  0
  -28.2609  -38.0111   24.7466 H   0  0  0  0  0  0
  -28.1096  -36.2652   24.6324 H   0  0  0  0  0  0
  -27.2299  -37.1521   25.8852 H   0  0  0  0  0  0
  -20.9330  -29.8865   21.6922 H   0  0  0  0  0  0
  -26.0205  -38.2865   24.1344 H   0  0  0  0  0  0
  -27.6062  -22.1737   21.8238 H   0  0  0  0  0  0
  -30.2800  -20.6324   18.8186 H   0  0  0  0  0  0
  -26.9376  -20.9325   23.6143 H   0  0  0  0  0  0
  -27.9524  -19.5770   24.0971 H   0  0  0  0  0  0
  -26.4680  -19.3042   23.1733 H   0  0  0  0  0  0
  -27.9006  -17.5136   22.7169 H   0  0  0  0  0  0
  -29.6112  -17.5588   22.8889 H   0  0  0  0  0  0
  -28.4972  -16.4733   20.2553 H   0  0  0  0  0  0
  -28.1637  -15.6032   21.7146 H   0  0  0  0  0  0
  -27.3537  -23.9356   20.3878 H   0  0  0  0  0  0
  -28.8803  -24.2684   21.1778 H   0  0  0  0  0  0
  -27.9708  -25.3742   18.4511 H   0  0  0  0  0  0
  -29.6052  -25.4461   18.9863 H   0  0  0  0  0  0
  -29.6323  -23.0074   18.8094 H   0  0  0  0  0  0
  -30.9380  -16.3281   21.3003 H   0  0  0  0  0  0
  1 25  1  0  0  0
  1 30  2  0  0  0
  1 83  1  0  0  0
  2  3  1  0  0  0
  2 25  1  0  0  0
  2 85  1  0  0  0
  2 86  1  0  0  0
  3  4  1  0  0  0
  3 87  1  0  0  0
  3 88  1  0  0  0
  4  5  1  0  0  0
  4 89  1  0  0  0
  4 90  1  0  0  0
  5  6  1  0  0  0
  5 26  1  0  0  0
  5 91  1  0  0  0
  6 25  1  0  0  0
  6 92  1  0  0  0
  6 93  1  0  0  0
  7  8  2  0  0  0
  7 26  1  0  0  0
  7 29  1  0  0  0
  8  9  1  0  0  0
  8 22  1  0  0  0
  9 10  1  0  0  0
  9 27  2  0  0  0
 10 11  2  0  0  0
 10 15  1  0  0  0
 11 12  1  0  0  0
 11 94  1  0  0  0
 12 13  2  0  0  0
 12 95  1  0  0  0
 13 14  1  0  0  0
 13 31  1  0  0  0
 14 15  2  0  0  0
 14 96  1  0  0  0
 15 97  1  0  0  0
 16 17  2  0  0  0
 16 21  1  0  0  0
 16 31  1  0  0  0
 17 18  1  0  0  0
 17 98  1  0  0  0
 18 19  2  0  0  0
 18 99  1  0  0  0
 19 20  1  0  0  0
 19 24  1  0  0  0
 20 21  2  0  0  0
 20100  1  0  0  0
 21 23  1  0  0  0
 22 28  1  0  0  0
 22 32  2  0  0  0
 26 27  1  0  0  0
 28101  1  0  0  0
 28102  1  0  0  0
 29103  1  0  0  0
 29104  1  0  0  0
 33 34  1  0  0  0
 33 66  1  0  0  0
 33 70  2  0  0  0
 34 36  1  0  0  0
 34 59  1  0  0  0
 34105  1  0  0  0
 35 44  2  0  0  0
 35 45  1  0  0  0
 35 68  1  0  0  0
 36 56  1  0  0  0
 36106  1  0  0  0
 37 39  1  0  0  0
 37 47  1  0  0  0
 37 66  1  0  0  0
 37107  1  0  0  0
 38 43  2  0  0  0
 38 46  1  0  0  0
 38 47  1  0  0  0
 39 64  1  0  0  0
 39 67  2  0  0  0
 40 52  1  0  0  0
 40 53  2  0  0  0
 40 58  1  0  0  0
 41108  1  0  0  0
 41109  1  0  0  0
 41110  1  0  0  0
 41 48  1  0  0  0
 42 43  1  0  0  0
 42 66  1  0  0  0
 42111  1  0  0  0
 42112  1  0  0  0
 43 44  1  0  0  0
 44113  1  0  0  0
 45 46  2  0  0  0
 45114  1  0  0  0
 46115  1  0  0  0
 47116  1  0  0  0
 47117  1  0  0  0
 48 56  1  0  0  0
 48 65  1  0  0  0
 48118  1  0  0  0
 49 50  1  0  0  0
 49 53  1  0  0  0
 49 64  1  0  0  0
 49119  1  0  0  0
 50 51  1  0  0  0
 50120  1  0  0  0
 50121  1  0  0  0
 51 52  1  0  0  0
 51122  1  0  0  0
 51123  1  0  0  0
 52124  1  0  0  0
 52125  1  0  0  0
 53 54  1  0  0  0
 54 55  2  0  0  0
 54126  1  0  0  0
 55 57  1  0  0  0
 55127  1  0  0  0
 56 69  2  0  0  0
 57 58  2  0  0  0
 57128  1  0  0  0
 58129  1  0  0  0
 59 60  1  0  0  0
 59 61  1  0  0  0
 59 62  1  0  0  0
 60130  1  0  0  0
 60131  1  0  0  0
 60132  1  0  0  0
 61133  1  0  0  0
 61134  1  0  0  0
 61135  1  0  0  0
 62136  1  0  0  0
 62137  1  0  0  0
 62138  1  0  0  0
 63 65  1  0  0  0
 63139  1  0  0  0
 63140  1  0  0  0
 63141  1  0  0  0
 64142  1  0  0  0
 65143  1  0  0  0
 68 81  1  0  0  0
 71 73  2  0  0  0
 71 75  1  0  0  0
 71144  1  0  0  0
 72 75  2  0  0  0
 72 76  1  0  0  0
 72145  1  0  0  0
 73 74  1  0  0  0
 73 77  1  0  0  0
 74 76  2  0  0  0
 74 78  1  0  0  0
 75 82  1  0  0  0
 76 84  1  0  0  0
 77146  1  0  0  0
 77147  1  0  0  0
 77148  1  0  0  0
 78 79  1  0  0  0
 78149  1  0  0  0
 78150  1  0  0  0
 79 83  1  0  0  0
 79151  1  0  0  0
 79152  1  0  0  0
 80 81  1  0  0  0
 80 82  1  0  0  0
 80153  1  0  0  0
 80154  1  0  0  0
 81155  1  0  0  0
 81156  1  0  0  0
 82157  1  0  0  0
 83158  1  0  0  0
M  ISO  4   1 100  68 101  81 101  83 100
M  END
> <chiral flag>
0

> <version>
0

> <s_m_source_file>
/data/baiqing/PycharmProjects/Reinvent-master-3.2/result/LINK_invent/BTK/process_docking_weight1_custom_product_contain_oxygen_bond_distance_aromatic_linkinvent_7_9_3/rearranged_h_0022.sdf

> <i_m_source_file_index>
94

> <r_mmod_Potential_Energy-OPLS-2005>
56.8263740539551

> <r_mmod_Stretch_Energy-OPLS-2005>
53.7918357849121

> <r_mmod_Bend_Energy-OPLS-2005>
162.935043334961

> <r_mmod_Torsional_Energy-OPLS-2005>
241.259216308594

> <r_mmod_Improper_Torsional_Energy-OPLS-2005>
5.55640554428101

> <r_mmod_Van_der_Waal_Energy-OPLS-2005>
149.259643554688

> <r_mmod_Electrostatic_Energy-OPLS-2005>
-366.256805419922

> <r_mmod_Solvation_Energy-OPLS-2005>
-211.881134033203

> <b_mmod_Minimization_Converged-OPLS-2005>
0

> <r_mmod_RMS_Derivative-OPLS-2005>
5.44857215881348

$$$$
95
                    3D
 Structure written by MMmdl.
159168  0  0  1  0            999 V2000
  -30.6602  -14.6518   20.5607 C   0  0  0  0  0  0
  -30.4220  -12.4159   19.4644 C   0  0  0  0  0  0
  -29.5004  -12.5150   18.2308 C   0  0  0  0  0  0
  -28.0268  -12.3450   18.6425 C   0  0  0  0  0  0
  -27.6459  -13.2272   19.8596 C   0  0  2  0  0  0
  -28.6822  -13.1084   20.9955 C   0  0  0  0  0  0
  -25.2515  -13.8197   20.5700 C   0  0  0  0  0  0
  -24.1797  -13.0442   20.9200 C   0  0  0  0  0  0
  -24.6383  -11.6918   20.8743 C   0  0  0  0  0  0
  -23.9069  -10.4291   21.0408 C   0  0  0  0  0  0
  -24.3616   -9.4207   21.9187 C   0  0  0  0  0  0
  -23.6290   -8.2238   22.0756 C   0  0  0  0  0  0
  -22.4276   -8.0274   21.3546 C   0  0  0  0  0  0
  -21.9911   -9.0247   20.4647 C   0  0  0  0  0  0
  -22.7240  -10.2126   20.3054 C   0  0  0  0  0  0
  -21.6853   -6.0732   22.5277 C   0  0  0  0  0  0
  -21.4014   -6.5639   23.8210 C   0  0  0  0  0  0
  -21.3660   -5.6793   24.9178 C   0  0  0  0  0  0
  -21.6042   -4.3056   24.7225 C   0  0  0  0  0  0
  -21.8819   -3.8150   23.4347 C   0  0  0  0  0  0
  -21.9190   -4.6962   22.3405 C   0  0  0  0  0  0
  -22.7819  -13.5220   21.1868 C   0  0  0  0  0  0
  -22.1659   -4.2146   21.0981 F   0  0  0  0  0  0
  -21.5628   -3.4545   25.7742 F   0  0  0  0  0  0
  -30.0013  -13.4481   20.4411 N   0  0  0  0  0  0
  -26.2943  -12.9400   20.3303 N   0  0  0  0  0  0
  -25.9309  -11.6545   20.5750 N   0  0  0  0  0  0
  -22.0474  -12.8195   22.0425 N   0  0  0  0  0  0
  -25.4227  -15.1918   20.4142 N   0  0  0  0  0  0
  -31.7547  -14.8178   20.0120 O   0  0  0  0  0  0
  -21.6638   -6.8872   21.4238 O   0  0  0  0  0  0
  -22.3490  -14.5522   20.6722 O   0  0  0  0  0  0
  -24.6262  -31.8556   23.1970 C   0  0  0  0  0  0
  -25.9103  -32.4750   23.8322 C   0  0  1  0  0  0
  -27.2297  -27.2964   20.1239 C   0  0  0  0  0  0
  -25.5924  -33.8549   24.2254 N   0  0  0  0  0  0
  -23.4214  -30.4756   21.5369 C   0  0  2  0  0  0
  -24.8705  -28.9194   20.1057 C   0  0  0  0  0  0
  -22.7459  -29.4601   22.4897 C   0  0  0  0  0  0
  -18.0284  -28.1356   22.8507 C   0  0  0  0  0  0
  -24.1479  -36.7287   23.2640 C   0  0  0  0  0  0
  -25.9601  -30.7800   21.3679 C   0  0  0  0  0  0
  -26.0347  -29.4025   20.7148 C   0  0  0  0  0  0
  -27.2124  -28.6001   20.7162 C   0  0  0  0  0  0
  -26.0442  -26.8607   19.4943 C   0  0  0  0  0  0
  -24.8783  -27.6559   19.4868 C   0  0  0  0  0  0
  -23.6378  -29.8008   20.1539 C   0  0  0  0  0  0
  -25.4102  -36.3064   24.0325 C   0  0  1  0  0  0
  -20.5880  -28.3675   23.1274 C   0  0  2  0  0  0
  -20.6765  -26.9393   22.5400 C   0  0  0  0  0  0
  -19.5737  -26.6362   21.5205 C   0  0  0  0  0  0
  -18.1921  -26.7906   22.1623 C   0  0  0  0  0  0
  -19.1538  -28.8829   23.2895 C   0  0  0  0  0  0
  -18.9467  -30.1431   23.8918 C   0  0  0  0  0  0
  -17.6471  -30.6579   24.0558 C   0  0  0  0  0  0
  -25.9043  -34.9430   23.5082 C   0  0  0  0  0  0
  -16.5362  -29.9070   23.6326 C   0  0  0  0  0  0
  -16.7269  -28.6467   23.0385 C   0  0  0  0  0  0
  -26.4490  -31.6586   25.0713 C   0  0  0  0  0  0
  -25.3728  -31.3725   26.1456 C   0  0  0  0  0  0
  -27.0327  -30.3006   24.6171 C   0  0  0  0  0  0
  -27.6046  -32.4337   25.7486 C   0  0  0  0  0  0
  -27.5564  -37.1792   24.8462 C   0  0  0  0  0  0
  -21.4167  -29.3050   22.3671 N   0  0  0  0  0  0
  -26.4275  -37.3767   23.9414 N   0  0  0  0  0  0
  -24.6886  -31.0552   22.0915 N   0  0  0  0  0  0
  -23.4183  -28.8153   23.2991 O   0  0  0  0  0  0
  -28.3672  -26.4793   20.2129 O   0  0  0  0  0  0
  -26.5605  -34.8908   22.4646 O   0  0  0  0  0  0
  -23.5425  -32.1356   23.7297 O   0  0  0  0  0  0
  -29.5094  -19.4672   21.5864 C   0  0  0  0  0  0
  -28.7950  -18.7242   19.4308 C   0  0  0  0  0  0
  -29.8992  -18.1252   21.9064 C   0  0  0  0  0  0
  -29.7806  -17.0317   20.9842 C   0  0  0  0  0  0
  -28.9140  -19.8102   20.3493 C   0  0  0  0  0  0
  -29.2198  -17.3853   19.7236 C   0  0  0  0  0  0
  -30.4121  -17.8604   23.3068 C   0  0  0  0  0  0
  -30.0163  -16.4603   23.7668 C   0  0  0  0  0  0
  -30.5325  -15.4017   22.7868 C   0  0  0  0  0  0
  -28.1034  -23.7634   20.3893 C   0  0  0  0  0  0
  -29.0256  -22.4472   20.2102 C   0  0  0  0  0  0
  -28.4995  -25.1203   19.6230 C   0  0  0  0  0  0
  -30.1398  -15.6376   21.3803 N   0  0  0  0  0  0
  -28.3496  -21.1104   20.0654 N   0  0  0  0  0  0
  -29.0292  -16.4233   18.7880 F   0  0  0  0  0  0
  -31.4654  -12.5249   19.1635 H   0  0  0  0  0  0
  -30.3505  -11.4245   19.9150 H   0  0  0  0  0  0
  -29.7696  -11.7544   17.4962 H   0  0  0  0  0  0
  -29.6381  -13.4805   17.7412 H   0  0  0  0  0  0
  -27.8725  -11.2935   18.8880 H   0  0  0  0  0  0
  -27.3691  -12.5587   17.7987 H   0  0  0  0  0  0
  -27.6592  -14.2593   19.5092 H   0  0  0  0  0  0
  -28.6948  -12.0973   21.4053 H   0  0  0  0  0  0
  -28.3984  -13.7641   21.8190 H   0  0  0  0  0  0
  -25.2755   -9.5679   22.4768 H   0  0  0  0  0  0
  -23.9999   -7.4627   22.7474 H   0  0  0  0  0  0
  -21.0843   -8.8761   19.8949 H   0  0  0  0  0  0
  -22.3700  -10.9661   19.6160 H   0  0  0  0  0  0
  -21.2008   -7.6146   23.9713 H   0  0  0  0  0  0
  -21.1483   -6.0529   25.9079 H   0  0  0  0  0  0
  -22.0597   -2.7609   23.2854 H   0  0  0  0  0  0
  -22.4095  -11.9844   22.4789 H   0  0  0  0  0  0
  -21.1084  -13.1204   22.2643 H   0  0  0  0  0  0
  -24.6617  -15.8506   20.5375 H   0  0  0  0  0  0
  -26.2811  -15.6299   20.1053 H   0  0  0  0  0  0
  -26.7174  -32.5400   23.1072 H   0  0  0  0  0  0
  -25.0138  -33.9704   25.0445 H   0  0  0  0  0  0
  -22.7162  -31.2959   21.3854 H   0  0  0  0  0  0
  -23.3734  -35.9629   23.3287 H   0  0  0  0  0  0
  -24.3582  -36.8921   22.2060 H   0  0  0  0  0  0
  -23.7237  -37.6483   23.6678 H   0  0  0  0  0  0
  -26.0858  -31.5364   20.5927 H   0  0  0  0  0  0
  -26.8435  -30.8371   21.9923 H   0  0  0  0  0  0
  -28.1058  -28.9639   21.2047 H   0  0  0  0  0  0
  -25.9948  -25.8866   19.0307 H   0  0  0  0  0  0
  -23.9838  -27.2788   19.0111 H   0  0  0  0  0  0
  -23.7520  -30.5716   19.3903 H   0  0  0  0  0  0
  -22.7597  -29.2238   19.8578 H   0  0  0  0  0  0
  -25.1273  -36.1907   25.0812 H   0  0  0  0  0  0
  -20.9997  -28.3246   24.1384 H   0  0  0  0  0  0
  -20.5641  -26.2281   23.3598 H   0  0  0  0  0  0
  -21.6631  -26.7393   22.1203 H   0  0  0  0  0  0
  -19.6893  -25.6266   21.1239 H   0  0  0  0  0  0
  -19.6680  -27.3168   20.6725 H   0  0  0  0  0  0
  -17.4189  -26.6682   21.4024 H   0  0  0  0  0  0
  -18.0328  -26.0021   22.8989 H   0  0  0  0  0  0
  -19.7946  -30.7240   24.2301 H   0  0  0  0  0  0
  -17.5025  -31.6272   24.5132 H   0  0  0  0  0  0
  -15.5364  -30.2992   23.7619 H   0  0  0  0  0  0
  -15.8663  -28.0774   22.7130 H   0  0  0  0  0  0
  -24.5949  -30.6996   25.7833 H   0  0  0  0  0  0
  -24.8864  -32.2876   26.4839 H   0  0  0  0  0  0
  -25.8087  -30.8984   27.0257 H   0  0  0  0  0  0
  -26.2885  -29.6772   24.1203 H   0  0  0  0  0  0
  -27.4025  -29.7264   25.4676 H   0  0  0  0  0  0
  -27.8753  -30.4287   23.9374 H   0  0  0  0  0  0
  -27.2666  -33.3685   26.1969 H   0  0  0  0  0  0
  -28.3911  -32.6813   25.0345 H   0  0  0  0  0  0
  -28.0637  -31.8505   26.5480 H   0  0  0  0  0  0
  -28.2565  -38.0102   24.7515 H   0  0  0  0  0  0
  -28.1069  -36.2626   24.6269 H   0  0  0  0  0  0
  -27.2288  -37.1421   25.8869 H   0  0  0  0  0  0
  -20.9326  -29.8799   21.6922 H   0  0  0  0  0  0
  -26.0138  -38.2831   24.1439 H   0  0  0  0  0  0
  -29.6078  -20.2340   22.3420 H   0  0  0  0  0  0
  -28.3399  -18.9002   18.4669 H   0  0  0  0  0  0
  -30.0165  -18.6021   24.0032 H   0  0  0  0  0  0
  -31.4970  -17.9703   23.3101 H   0  0  0  0  0  0
  -28.9305  -16.3901   23.8462 H   0  0  0  0  0  0
  -30.4116  -16.2700   24.7658 H   0  0  0  0  0  0
  -30.1959  -14.4195   23.1230 H   0  0  0  0  0  0
  -31.6234  -15.3798   22.8509 H   0  0  0  0  0  0
  -28.0579  -23.9822   21.4567 H   0  0  0  0  0  0
  -27.0754  -23.5242   20.1172 H   0  0  0  0  0  0
  -29.7353  -22.3997   21.0382 H   0  0  0  0  0  0
  -29.6373  -22.5828   19.3169 H   0  0  0  0  0  0
  -28.0607  -25.1117   18.6246 H   0  0  0  0  0  0
  -29.5699  -25.0429   19.4292 H   0  0  0  0  0  0
  -27.6992  -21.0965   19.2829 H   0  0  0  0  0  0
  1 25  1  0  0  0
  1 30  2  0  0  0
  1 83  1  0  0  0
  2  3  1  0  0  0
  2 25  1  0  0  0
  2 86  1  0  0  0
  2 87  1  0  0  0
  3  4  1  0  0  0
  3 88  1  0  0  0
  3 89  1  0  0  0
  4  5  1  0  0  0
  4 90  1  0  0  0
  4 91  1  0  0  0
  5  6  1  0  0  0
  5 26  1  0  0  0
  5 92  1  0  0  0
  6 25  1  0  0  0
  6 93  1  0  0  0
  6 94  1  0  0  0
  7  8  2  0  0  0
  7 26  1  0  0  0
  7 29  1  0  0  0
  8  9  1  0  0  0
  8 22  1  0  0  0
  9 10  1  0  0  0
  9 27  2  0  0  0
 10 11  2  0  0  0
 10 15  1  0  0  0
 11 12  1  0  0  0
 11 95  1  0  0  0
 12 13  2  0  0  0
 12 96  1  0  0  0
 13 14  1  0  0  0
 13 31  1  0  0  0
 14 15  2  0  0  0
 14 97  1  0  0  0
 15 98  1  0  0  0
 16 17  2  0  0  0
 16 21  1  0  0  0
 16 31  1  0  0  0
 17 18  1  0  0  0
 17 99  1  0  0  0
 18 19  2  0  0  0
 18100  1  0  0  0
 19 20  1  0  0  0
 19 24  1  0  0  0
 20 21  2  0  0  0
 20101  1  0  0  0
 21 23  1  0  0  0
 22 28  1  0  0  0
 22 32  2  0  0  0
 26 27  1  0  0  0
 28102  1  0  0  0
 28103  1  0  0  0
 29104  1  0  0  0
 29105  1  0  0  0
 33 34  1  0  0  0
 33 66  1  0  0  0
 33 70  2  0  0  0
 34 36  1  0  0  0
 34 59  1  0  0  0
 34106  1  0  0  0
 35 44  2  0  0  0
 35 45  1  0  0  0
 35 68  1  0  0  0
 36 56  1  0  0  0
 36107  1  0  0  0
 37 39  1  0  0  0
 37 47  1  0  0  0
 37 66  1  0  0  0
 37108  1  0  0  0
 38 43  2  0  0  0
 38 46  1  0  0  0
 38 47  1  0  0  0
 39 64  1  0  0  0
 39 67  2  0  0  0
 40 52  1  0  0  0
 40 53  2  0  0  0
 40 58  1  0  0  0
 41109  1  0  0  0
 41110  1  0  0  0
 41111  1  0  0  0
 41 48  1  0  0  0
 42 43  1  0  0  0
 42 66  1  0  0  0
 42112  1  0  0  0
 42113  1  0  0  0
 43 44  1  0  0  0
 44114  1  0  0  0
 45 46  2  0  0  0
 45115  1  0  0  0
 46116  1  0  0  0
 47117  1  0  0  0
 47118  1  0  0  0
 48 56  1  0  0  0
 48 65  1  0  0  0
 48119  1  0  0  0
 49 50  1  0  0  0
 49 53  1  0  0  0
 49 64  1  0  0  0
 49120  1  0  0  0
 50 51  1  0  0  0
 50121  1  0  0  0
 50122  1  0  0  0
 51 52  1  0  0  0
 51123  1  0  0  0
 51124  1  0  0  0
 52125  1  0  0  0
 52126  1  0  0  0
 53 54  1  0  0  0
 54 55  2  0  0  0
 54127  1  0  0  0
 55 57  1  0  0  0
 55128  1  0  0  0
 56 69  2  0  0  0
 57 58  2  0  0  0
 57129  1  0  0  0
 58130  1  0  0  0
 59 60  1  0  0  0
 59 61  1  0  0  0
 59 62  1  0  0  0
 60131  1  0  0  0
 60132  1  0  0  0
 60133  1  0  0  0
 61134  1  0  0  0
 61135  1  0  0  0
 61136  1  0  0  0
 62137  1  0  0  0
 62138  1  0  0  0
 62139  1  0  0  0
 63 65  1  0  0  0
 63140  1  0  0  0
 63141  1  0  0  0
 63142  1  0  0  0
 64143  1  0  0  0
 65144  1  0  0  0
 68 82  1  0  0  0
 71 73  2  0  0  0
 71 75  1  0  0  0
 71145  1  0  0  0
 72 75  2  0  0  0
 72 76  1  0  0  0
 72146  1  0  0  0
 73 74  1  0  0  0
 73 77  1  0  0  0
 74 76  2  0  0  0
 74 83  1  0  0  0
 75 84  1  0  0  0
 76 85  1  0  0  0
 77 78  1  0  0  0
 77147  1  0  0  0
 77148  1  0  0  0
 78 79  1  0  0  0
 78149  1  0  0  0
 78150  1  0  0  0
 79 83  1  0  0  0
 79151  1  0  0  0
 79152  1  0  0  0
 80 81  1  0  0  0
 80 82  1  0  0  0
 80153  1  0  0  0
 80154  1  0  0  0
 81 84  1  0  0  0
 81155  1  0  0  0
 81156  1  0  0  0
 82157  1  0  0  0
 82158  1  0  0  0
 84159  1  0  0  0
M  ISO  4   1 100  68 101  82 101  83 100
M  END
> <chiral flag>
0

> <version>
0

> <s_m_source_file>
/data/baiqing/PycharmProjects/Reinvent-master-3.2/result/LINK_invent/BTK/process_docking_weight1_custom_product_contain_oxygen_bond_distance_aromatic_linkinvent_7_9_3/rearranged_h_0022.sdf

> <i_m_source_file_index>
95

> <r_mmod_Potential_Energy-OPLS-2005>
279.934448242188

> <r_mmod_Stretch_Energy-OPLS-2005>
102.309692382812

> <r_mmod_Bend_Energy-OPLS-2005>
181.142486572266

> <r_mmod_Torsional_Energy-OPLS-2005>
298.005920410156

> <r_mmod_Improper_Torsional_Energy-OPLS-2005>
7.27693223953247

> <r_mmod_Van_der_Waal_Energy-OPLS-2005>
140.128219604492

> <r_mmod_Electrostatic_Energy-OPLS-2005>
-301.706115722656

> <r_mmod_Solvation_Energy-OPLS-2005>
-201.649108886719

> <b_mmod_Minimization_Converged-OPLS-2005>
0

> <r_mmod_RMS_Derivative-OPLS-2005>
1.72785222530365

$$$$
96
                    3D
 Structure written by MMmdl.
152160  0  0  1  0            999 V2000
  -30.5551  -14.9319   20.3623 C   0  0  0  0  0  0
  -30.4439  -12.5636   19.4778 C   0  0  0  0  0  0
  -29.5130  -12.4623   18.2468 C   0  0  0  0  0  0
  -28.0425  -12.2887   18.6755 C   0  0  0  0  0  0
  -27.6256  -13.2341   19.8343 C   0  0  2  0  0  0
  -28.6820  -13.2871   20.9566 C   0  0  0  0  0  0
  -25.2465  -13.8177   20.5743 C   0  0  0  0  0  0
  -24.1765  -13.0422   20.9245 C   0  0  0  0  0  0
  -24.6372  -11.6907   20.8795 C   0  0  0  0  0  0
  -23.9058  -10.4286   21.0436 C   0  0  0  0  0  0
  -24.3611   -9.4193   21.9203 C   0  0  0  0  0  0
  -23.6284   -8.2231   22.0761 C   0  0  0  0  0  0
  -22.4268   -8.0276   21.3548 C   0  0  0  0  0  0
  -21.9908   -9.0252   20.4654 C   0  0  0  0  0  0
  -22.7239  -10.2131   20.3073 C   0  0  0  0  0  0
  -21.6844   -6.0731   22.5278 C   0  0  0  0  0  0
  -21.4011   -6.5636   23.8211 C   0  0  0  0  0  0
  -21.3657   -5.6791   24.9175 C   0  0  0  0  0  0
  -21.6042   -4.3052   24.7226 C   0  0  0  0  0  0
  -21.8817   -3.8143   23.4348 C   0  0  0  0  0  0
  -21.9190   -4.6959   22.3403 C   0  0  0  0  0  0
  -22.7788  -13.5213   21.1884 C   0  0  0  0  0  0
  -22.1658   -4.2147   21.0979 F   0  0  0  0  0  0
  -21.5631   -3.4535   25.7738 F   0  0  0  0  0  0
  -29.9487  -13.6789   20.3260 N   0  0  0  0  0  0
  -26.2882  -12.9380   20.3315 N   0  0  0  0  0  0
  -25.9305  -11.6531   20.5826 N   0  0  0  0  0  0
  -22.0425  -12.8214   22.0438 N   0  0  0  0  0  0
  -25.4154  -15.1897   20.4131 N   0  0  0  0  0  0
  -31.7879  -14.9648   20.2800 O   0  0  0  0  0  0
  -21.6631   -6.8874   21.4241 O   0  0  0  0  0  0
  -22.3484  -14.5517   20.6717 O   0  0  0  0  0  0
  -24.6413  -31.8464   23.1914 C   0  0  0  0  0  0
  -25.9195  -32.4709   23.8294 C   0  0  1  0  0  0
  -27.2209  -27.1615   20.1480 C   0  0  0  0  0  0
  -25.5944  -33.8510   24.2211 N   0  0  0  0  0  0
  -23.4448  -30.4669   21.5358 C   0  0  2  0  0  0
  -24.8952  -28.8997   20.1108 C   0  0  0  0  0  0
  -22.7563  -29.4558   22.4863 C   0  0  0  0  0  0
  -18.0303  -28.1401   22.8475 C   0  0  0  0  0  0
  -24.1492  -36.7266   23.2642 C   0  0  0  0  0  0
  -25.9989  -30.7285   21.3873 C   0  0  0  0  0  0
  -26.0714  -29.3423   20.7285 C   0  0  0  0  0  0
  -27.2355  -28.4889   20.7311 C   0  0  0  0  0  0
  -26.0170  -26.8156   19.4927 C   0  0  0  0  0  0
  -24.8793  -27.6488   19.4780 C   0  0  0  0  0  0
  -23.6716  -29.7993   20.1541 C   0  0  0  0  0  0
  -25.4122  -36.3041   24.0316 C   0  0  1  0  0  0
  -20.5916  -28.3734   23.1237 C   0  0  2  0  0  0
  -20.6795  -26.9440   22.5403 C   0  0  0  0  0  0
  -19.5767  -26.6390   21.5212 C   0  0  0  0  0  0
  -18.1946  -26.7939   22.1622 C   0  0  0  0  0  0
  -19.1558  -28.8883   23.2853 C   0  0  0  0  0  0
  -18.9479  -30.1474   23.8884 C   0  0  0  0  0  0
  -17.6479  -30.6600   24.0559 C   0  0  0  0  0  0
  -25.9070  -34.9413   23.5077 C   0  0  0  0  0  0
  -16.5366  -29.9094   23.6338 C   0  0  0  0  0  0
  -16.7288  -28.6512   23.0353 C   0  0  0  0  0  0
  -26.4527  -31.6565   25.0723 C   0  0  0  0  0  0
  -25.3714  -31.3736   26.1419 C   0  0  0  0  0  0
  -27.0395  -30.2963   24.6288 C   0  0  0  0  0  0
  -27.6068  -32.4324   25.7498 C   0  0  0  0  0  0
  -27.5580  -37.1785   24.8463 C   0  0  0  0  0  0
  -21.4255  -29.3061   22.3612 N   0  0  0  0  0  0
  -26.4293  -37.3746   23.9403 N   0  0  0  0  0  0
  -24.7148  -31.0338   22.0939 N   0  0  0  0  0  0
  -23.4214  -28.8110   23.3013 O   0  0  0  0  0  0
  -28.2802  -26.1906   20.2187 O   0  0  0  0  0  0
  -26.5657  -34.8908   22.4655 O   0  0  0  0  0  0
  -23.5533  -32.1321   23.7151 O   0  0  0  0  0  0
  -30.5740  -18.5599   20.3993 C   0  0  0  0  0  0
  -28.2736  -18.0568   20.2721 C   0  0  0  0  0  0
  -29.5933  -17.5065   20.3032 C   0  0  0  0  0  0
  -28.9232  -20.5231   20.3558 C   0  0  0  0  0  0
  -30.2626  -19.9907   20.4328 C   0  0  0  0  0  0
  -27.9583  -19.4647   20.2989 C   0  0  0  0  0  0
  -29.6694  -15.9836   18.4120 C   0  0  0  0  0  0
  -28.9963  -23.3651   20.3647 C   0  0  0  0  0  0
  -27.9843  -24.6770   20.0886 C   0  0  0  0  0  0
  -28.4256  -21.9255   20.2995 N   0  0  0  0  0  0
  -29.8134  -16.0527   19.8783 N   0  0  0  0  0  0
  -31.2962  -20.8658   20.4980 F   0  0  0  0  0  0
  -26.6506  -19.8174   20.2233 F   0  0  0  0  0  0
  -31.4724  -12.7293   19.1521 H   0  0  0  0  0  0
  -30.4510  -11.6283   20.0398 H   0  0  0  0  0  0
  -29.8152  -11.6229   17.6192 H   0  0  0  0  0  0
  -29.6118  -13.3462   17.6200 H   0  0  0  0  0  0
  -27.9242  -11.2525   18.9933 H   0  0  0  0  0  0
  -27.3794  -12.4184   17.8198 H   0  0  0  0  0  0
  -27.5693  -14.2283   19.4000 H   0  0  0  0  0  0
  -28.7720  -12.3264   21.4659 H   0  0  0  0  0  0
  -28.3977  -14.0216   21.7119 H   0  0  0  0  0  0
  -25.2751   -9.5666   22.4786 H   0  0  0  0  0  0
  -23.9983   -7.4622   22.7485 H   0  0  0  0  0  0
  -21.0837   -8.8785   19.8960 H   0  0  0  0  0  0
  -22.3703  -10.9680   19.6189 H   0  0  0  0  0  0
  -21.2003   -7.6144   23.9716 H   0  0  0  0  0  0
  -21.1480   -6.0519   25.9078 H   0  0  0  0  0  0
  -22.0598   -2.7606   23.2850 H   0  0  0  0  0  0
  -22.4031  -11.9870   22.4827 H   0  0  0  0  0  0
  -21.1050  -13.1261   22.2653 H   0  0  0  0  0  0
  -24.6479  -15.8449   20.5145 H   0  0  0  0  0  0
  -26.2666  -15.6197   20.0784 H   0  0  0  0  0  0
  -26.7260  -32.5335   23.1026 H   0  0  0  0  0  0
  -25.0048  -33.9618   25.0329 H   0  0  0  0  0  0
  -22.7466  -31.2926   21.3840 H   0  0  0  0  0  0
  -23.3755  -35.9596   23.3292 H   0  0  0  0  0  0
  -24.3577  -36.8912   22.2058 H   0  0  0  0  0  0
  -23.7248  -37.6459   23.6689 H   0  0  0  0  0  0
  -26.1496  -31.4853   20.6162 H   0  0  0  0  0  0
  -26.8701  -30.7800   22.0283 H   0  0  0  0  0  0
  -28.1317  -28.8209   21.2368 H   0  0  0  0  0  0
  -25.9182  -25.8617   18.9981 H   0  0  0  0  0  0
  -23.9807  -27.3047   18.9836 H   0  0  0  0  0  0
  -23.8107  -30.5759   19.4014 H   0  0  0  0  0  0
  -22.7868  -29.2425   19.8411 H   0  0  0  0  0  0
  -25.1305  -36.1877   25.0808 H   0  0  0  0  0  0
  -21.0001  -28.3333   24.1359 H   0  0  0  0  0  0
  -20.5701  -26.2345   23.3623 H   0  0  0  0  0  0
  -21.6662  -26.7458   22.1194 H   0  0  0  0  0  0
  -19.6932  -25.6293   21.1262 H   0  0  0  0  0  0
  -19.6703  -27.3187   20.6734 H   0  0  0  0  0  0
  -17.4214  -26.6681   21.4028 H   0  0  0  0  0  0
  -18.0349  -26.0085   22.9025 H   0  0  0  0  0  0
  -19.7957  -30.7287   24.2253 H   0  0  0  0  0  0
  -17.5036  -31.6276   24.5171 H   0  0  0  0  0  0
  -15.5369  -30.2993   23.7668 H   0  0  0  0  0  0
  -15.8689  -28.0831   22.7073 H   0  0  0  0  0  0
  -24.5907  -30.7072   25.7729 H   0  0  0  0  0  0
  -24.8882  -32.2908   26.4796 H   0  0  0  0  0  0
  -25.7996  -30.8939   27.0229 H   0  0  0  0  0  0
  -26.3010  -29.6673   24.1303 H   0  0  0  0  0  0
  -27.4026  -29.7270   25.4855 H   0  0  0  0  0  0
  -27.8912  -30.4200   23.9594 H   0  0  0  0  0  0
  -27.2679  -33.3648   26.2023 H   0  0  0  0  0  0
  -28.3903  -32.6838   25.0340 H   0  0  0  0  0  0
  -28.0709  -31.8481   26.5452 H   0  0  0  0  0  0
  -28.2581  -38.0096   24.7512 H   0  0  0  0  0  0
  -28.1094  -36.2623   24.6292 H   0  0  0  0  0  0
  -27.2295  -37.1432   25.8866 H   0  0  0  0  0  0
  -20.9467  -29.8773   21.6788 H   0  0  0  0  0  0
  -26.0167  -38.2813   24.1413 H   0  0  0  0  0  0
  -31.6169  -18.2813   20.3771 H   0  0  0  0  0  0
  -27.4458  -17.3756   20.1512 H   0  0  0  0  0  0
  -28.7315  -15.5150   18.1232 H   0  0  0  0  0  0
  -30.4843  -15.4431   17.9257 H   0  0  0  0  0  0
  -29.6711  -16.9726   17.9513 H   0  0  0  0  0  0
  -29.4401  -23.4875   21.3534 H   0  0  0  0  0  0
  -29.8300  -23.4240   19.6632 H   0  0  0  0  0  0
  -27.1073  -24.5064   20.7146 H   0  0  0  0  0  0
  -27.6387  -24.5393   19.0645 H   0  0  0  0  0  0
  -27.4114  -21.9265   20.2212 H   0  0  0  0  0  0
  1 25  1  0  0  0
  1 30  2  0  0  0
  1 81  1  0  0  0
  2  3  1  0  0  0
  2 25  1  0  0  0
  2 84  1  0  0  0
  2 85  1  0  0  0
  3  4  1  0  0  0
  3 86  1  0  0  0
  3 87  1  0  0  0
  4  5  1  0  0  0
  4 88  1  0  0  0
  4 89  1  0  0  0
  5  6  1  0  0  0
  5 26  1  0  0  0
  5 90  1  0  0  0
  6 25  1  0  0  0
  6 91  1  0  0  0
  6 92  1  0  0  0
  7  8  2  0  0  0
  7 26  1  0  0  0
  7 29  1  0  0  0
  8  9  1  0  0  0
  8 22  1  0  0  0
  9 10  1  0  0  0
  9 27  2  0  0  0
 10 11  2  0  0  0
 10 15  1  0  0  0
 11 12  1  0  0  0
 11 93  1  0  0  0
 12 13  2  0  0  0
 12 94  1  0  0  0
 13 14  1  0  0  0
 13 31  1  0  0  0
 14 15  2  0  0  0
 14 95  1  0  0  0
 15 96  1  0  0  0
 16 17  2  0  0  0
 16 21  1  0  0  0
 16 31  1  0  0  0
 17 18  1  0  0  0
 17 97  1  0  0  0
 18 19  2  0  0  0
 18 98  1  0  0  0
 19 20  1  0  0  0
 19 24  1  0  0  0
 20 21  2  0  0  0
 20 99  1  0  0  0
 21 23  1  0  0  0
 22 28  1  0  0  0
 22 32  2  0  0  0
 26 27  1  0  0  0
 28100  1  0  0  0
 28101  1  0  0  0
 29102  1  0  0  0
 29103  1  0  0  0
 33 34  1  0  0  0
 33 66  1  0  0  0
 33 70  2  0  0  0
 34 36  1  0  0  0
 34 59  1  0  0  0
 34104  1  0  0  0
 35 44  2  0  0  0
 35 45  1  0  0  0
 35 68  1  0  0  0
 36 56  1  0  0  0
 36105  1  0  0  0
 37 39  1  0  0  0
 37 47  1  0  0  0
 37 66  1  0  0  0
 37106  1  0  0  0
 38 43  2  0  0  0
 38 46  1  0  0  0
 38 47  1  0  0  0
 39 64  1  0  0  0
 39 67  2  0  0  0
 40 52  1  0  0  0
 40 53  2  0  0  0
 40 58  1  0  0  0
 41107  1  0  0  0
 41108  1  0  0  0
 41109  1  0  0  0
 41 48  1  0  0  0
 42 43  1  0  0  0
 42 66  1  0  0  0
 42110  1  0  0  0
 42111  1  0  0  0
 43 44  1  0  0  0
 44112  1  0  0  0
 45 46  2  0  0  0
 45113  1  0  0  0
 46114  1  0  0  0
 47115  1  0  0  0
 47116  1  0  0  0
 48 56  1  0  0  0
 48 65  1  0  0  0
 48117  1  0  0  0
 49 50  1  0  0  0
 49 53  1  0  0  0
 49 64  1  0  0  0
 49118  1  0  0  0
 50 51  1  0  0  0
 50119  1  0  0  0
 50120  1  0  0  0
 51 52  1  0  0  0
 51121  1  0  0  0
 51122  1  0  0  0
 52123  1  0  0  0
 52124  1  0  0  0
 53 54  1  0  0  0
 54 55  2  0  0  0
 54125  1  0  0  0
 55 57  1  0  0  0
 55126  1  0  0  0
 56 69  2  0  0  0
 57 58  2  0  0  0
 57127  1  0  0  0
 58128  1  0  0  0
 59 60  1  0  0  0
 59 61  1  0  0  0
 59 62  1  0  0  0
 60129  1  0  0  0
 60130  1  0  0  0
 60131  1  0  0  0
 61132  1  0  0  0
 61133  1  0  0  0
 61134  1  0  0  0
 62135  1  0  0  0
 62136  1  0  0  0
 62137  1  0  0  0
 63 65  1  0  0  0
 63138  1  0  0  0
 63139  1  0  0  0
 63140  1  0  0  0
 64141  1  0  0  0
 65142  1  0  0  0
 68 79  1  0  0  0
 71 73  2  0  0  0
 71 75  1  0  0  0
 71143  1  0  0  0
 72 73  1  0  0  0
 72 76  2  0  0  0
 72144  1  0  0  0
 73 81  1  0  0  0
 74 75  2  0  0  0
 74 76  1  0  0  0
 74 80  1  0  0  0
 75 82  1  0  0  0
 76 83  1  0  0  0
 77 81  1  0  0  0
 77145  1  0  0  0
 77146  1  0  0  0
 77147  1  0  0  0
 78 79  1  0  0  0
 78 80  1  0  0  0
 78148  1  0  0  0
 78149  1  0  0  0
 79150  1  0  0  0
 79151  1  0  0  0
 80152  1  0  0  0
M  ISO  4   1 100  68 101  79 101  81 100
M  END
> <chiral flag>
0

> <version>
0

> <s_m_source_file>
/data/baiqing/PycharmProjects/Reinvent-master-3.2/result/LINK_invent/BTK/process_docking_weight1_custom_product_contain_oxygen_bond_distance_aromatic_linkinvent_7_9_3/rearranged_h_0022.sdf

> <i_m_source_file_index>
96

> <r_mmod_Potential_Energy-OPLS-2005>
713.995483398438

> <r_mmod_Stretch_Energy-OPLS-2005>
209.762145996094

> <r_mmod_Bend_Energy-OPLS-2005>
284.473175048828

> <r_mmod_Torsional_Energy-OPLS-2005>
321.541687011719

> <r_mmod_Improper_Torsional_Energy-OPLS-2005>
27.66237449646

> <r_mmod_Van_der_Waal_Energy-OPLS-2005>
135.314102172852

> <r_mmod_Electrostatic_Energy-OPLS-2005>
-247.111999511719

> <r_mmod_Solvation_Energy-OPLS-2005>
-201.741470336914

> <b_mmod_Minimization_Converged-OPLS-2005>
0

> <r_mmod_RMS_Derivative-OPLS-2005>
0.953398108482361

$$$$
