0
                    3D
 Structure written by MMmdl.
156165  0  0  1  0            999 V2000
  -30.5082  -14.9473   20.4155 C   0  0  0  0  0  0
  -30.4555  -12.5838   19.4957 C   0  0  0  0  0  0
  -29.5290  -12.5332   18.2570 C   0  0  0  0  0  0
  -28.0600  -12.3184   18.6718 C   0  0  0  0  0  0
  -27.6361  -13.2441   19.8413 C   0  0  2  0  0  0
  -28.6797  -13.2459   20.9802 C   0  0  0  0  0  0
  -25.2481  -13.8223   20.5714 C   0  0  0  0  0  0
  -24.1788  -13.0452   20.9252 C   0  0  0  0  0  0
  -24.6389  -11.6931   20.8752 C   0  0  0  0  0  0
  -23.9064  -10.4301   21.0404 C   0  0  0  0  0  0
  -24.3617   -9.4218   21.9181 C   0  0  0  0  0  0
  -23.6298   -8.2248   22.0748 C   0  0  0  0  0  0
  -22.4278   -8.0283   21.3541 C   0  0  0  0  0  0
  -21.9907   -9.0262   20.4646 C   0  0  0  0  0  0
  -22.7234  -10.2144   20.3054 C   0  0  0  0  0  0
  -21.6854   -6.0726   22.5276 C   0  0  0  0  0  0
  -21.4009   -6.5631   23.8207 C   0  0  0  0  0  0
  -21.3663   -5.6786   24.9173 C   0  0  0  0  0  0
  -21.6054   -4.3049   24.7226 C   0  0  0  0  0  0
  -21.8818   -3.8134   23.4342 C   0  0  0  0  0  0
  -21.9194   -4.6951   22.3399 C   0  0  0  0  0  0
  -22.7801  -13.5222   21.1913 C   0  0  0  0  0  0
  -22.1662   -4.2136   21.0976 F   0  0  0  0  0  0
  -21.5639   -3.4531   25.7735 F   0  0  0  0  0  0
  -29.9619  -13.6646   20.3955 N   0  0  0  0  0  0
  -26.2902  -12.9445   20.3224 N   0  0  0  0  0  0
  -25.9319  -11.6576   20.5714 N   0  0  0  0  0  0
  -22.0431  -12.8213   22.0457 N   0  0  0  0  0  0
  -25.4157  -15.1953   20.4133 N   0  0  0  0  0  0
  -31.6932  -15.0716   20.0874 O   0  0  0  0  0  0
  -21.6644   -6.8872   21.4239 O   0  0  0  0  0  0
  -22.3484  -14.5528   20.6753 O   0  0  0  0  0  0
  -24.6414  -31.8448   23.1879 C   0  0  0  0  0  0
  -25.9193  -32.4694   23.8266 C   0  0  1  0  0  0
  -27.2195  -27.1465   20.1436 C   0  0  0  0  0  0
  -25.5946  -33.8502   24.2183 N   0  0  0  0  0  0
  -23.4435  -30.4627   21.5338 C   0  0  2  0  0  0
  -24.8922  -28.8875   20.1061 C   0  0  0  0  0  0
  -22.7557  -29.4541   22.4869 C   0  0  0  0  0  0
  -18.0304  -28.1382   22.8476 C   0  0  0  0  0  0
  -24.1492  -36.7255   23.2642 C   0  0  0  0  0  0
  -25.9973  -30.7216   21.3829 C   0  0  0  0  0  0
  -26.0671  -29.3332   20.7230 C   0  0  0  0  0  0
  -27.2278  -28.4768   20.7250 C   0  0  0  0  0  0
  -26.0161  -26.7907   19.4977 C   0  0  0  0  0  0
  -24.8784  -27.6301   19.4800 C   0  0  0  0  0  0
  -23.6672  -29.7887   20.1528 C   0  0  0  0  0  0
  -25.4125  -36.3033   24.0316 C   0  0  1  0  0  0
  -20.5916  -28.3702   23.1245 C   0  0  2  0  0  0
  -20.6782  -26.9403   22.5416 C   0  0  0  0  0  0
  -19.5758  -26.6360   21.5224 C   0  0  0  0  0  0
  -18.1939  -26.7917   22.1626 C   0  0  0  0  0  0
  -19.1560  -28.8863   23.2848 C   0  0  0  0  0  0
  -18.9476  -30.1466   23.8856 C   0  0  0  0  0  0
  -17.6473  -30.6576   24.0558 C   0  0  0  0  0  0
  -25.9078  -34.9408   23.5059 C   0  0  0  0  0  0
  -16.5364  -29.9067   23.6335 C   0  0  0  0  0  0
  -16.7291  -28.6492   23.0346 C   0  0  0  0  0  0
  -26.4511  -31.6560   25.0711 C   0  0  0  0  0  0
  -25.3699  -31.3775   26.1416 C   0  0  0  0  0  0
  -27.0374  -30.2950   24.6299 C   0  0  0  0  0  0
  -27.6042  -32.4322   25.7496 C   0  0  0  0  0  0
  -27.5582  -37.1776   24.8455 C   0  0  0  0  0  0
  -21.4254  -29.3027   22.3615 N   0  0  0  0  0  0
  -26.4281  -37.3750   23.9417 N   0  0  0  0  0  0
  -24.7140  -31.0314   22.0900 N   0  0  0  0  0  0
  -23.4214  -28.8098   23.3013 O   0  0  0  0  0  0
  -28.3055  -26.2076   20.2428 O   0  0  0  0  0  0
  -26.5664  -34.8907   22.4639 O   0  0  0  0  0  0
  -23.5539  -32.1322   23.7112 O   0  0  0  0  0  0
  -30.2414  -19.8977   19.6511 C   0  0  0  0  0  0
  -30.4527  -18.4591   19.7744 C   0  0  0  0  0  0
  -28.5697  -18.3598   21.1612 C   0  0  0  0  0  0
  -28.3673  -19.8085   21.0813 C   0  0  0  0  0  0
  -29.1959  -20.6857   20.2757 C   0  0  0  0  0  0
  -29.6081  -17.5860   20.5324 C   0  0  0  0  0  0
  -29.7735  -24.4103   19.2747 C   0  0  0  0  0  0
  -29.9239  -22.8649   19.0893 C   0  0  0  0  0  0
  -28.1982  -23.3209   20.6151 C   0  0  0  0  0  0
  -28.3487  -24.7272   19.7630 C   0  0  1  0  0  0
  -27.2104  -20.3913   21.8973 C   0  0  0  0  0  0
  -29.0662  -22.1742   20.0568 N   0  0  0  0  0  0
  -29.6495  -16.0517   20.6700 N   0  0  0  0  0  0
  -26.6234  -19.4783   22.6730 F   0  0  0  0  0  0
  -27.6424  -21.3594   22.7065 F   0  0  0  0  0  0
  -26.2729  -20.8812   21.0858 F   0  0  0  0  0  0
  -31.4851  -12.7602   19.1796 H   0  0  0  0  0  0
  -30.4655  -11.6265   20.0186 H   0  0  0  0  0  0
  -29.8494  -11.7418   17.5780 H   0  0  0  0  0  0
  -29.6154  -13.4677   17.7004 H   0  0  0  0  0  0
  -27.9514  -11.2755   18.9709 H   0  0  0  0  0  0
  -27.3990  -12.4604   17.8162 H   0  0  0  0  0  0
  -27.6064  -14.2505   19.4222 H   0  0  0  0  0  0
  -28.7633  -12.2588   21.4360 H   0  0  0  0  0  0
  -28.3770  -13.9260   21.7777 H   0  0  0  0  0  0
  -25.2761   -9.5705   22.4746 H   0  0  0  0  0  0
  -24.0016   -7.4636   22.7459 H   0  0  0  0  0  0
  -21.0832   -8.8778   19.8955 H   0  0  0  0  0  0
  -22.3688  -10.9677   19.6156 H   0  0  0  0  0  0
  -21.1990   -7.6138   23.9709 H   0  0  0  0  0  0
  -21.1495   -6.0512   25.9078 H   0  0  0  0  0  0
  -22.0593   -2.7595   23.2843 H   0  0  0  0  0  0
  -22.4032  -11.9892   22.4880 H   0  0  0  0  0  0
  -21.1039  -13.1234   22.2632 H   0  0  0  0  0  0
  -24.6466  -15.8451   20.5314 H   0  0  0  0  0  0
  -26.2406  -15.6292   20.0206 H   0  0  0  0  0  0
  -26.7255  -32.5296   23.0993 H   0  0  0  0  0  0
  -25.0079  -33.9608   25.0321 H   0  0  0  0  0  0
  -22.7449  -31.2877   21.3806 H   0  0  0  0  0  0
  -23.3763  -35.9576   23.3281 H   0  0  0  0  0  0
  -24.3584  -36.8916   22.2062 H   0  0  0  0  0  0
  -23.7229  -37.6436   23.6695 H   0  0  0  0  0  0
  -26.1508  -31.4787   20.6123 H   0  0  0  0  0  0
  -26.8676  -30.7704   22.0260 H   0  0  0  0  0  0
  -28.1245  -28.8117   21.2279 H   0  0  0  0  0  0
  -25.9151  -25.8223   19.0332 H   0  0  0  0  0  0
  -23.9772  -27.2822   18.9942 H   0  0  0  0  0  0
  -23.7958  -30.5622   19.3947 H   0  0  0  0  0  0
  -22.7815  -29.2283   19.8477 H   0  0  0  0  0  0
  -25.1309  -36.1858   25.0805 H   0  0  0  0  0  0
  -21.0015  -28.3290   24.1366 H   0  0  0  0  0  0
  -20.5683  -26.2310   23.3635 H   0  0  0  0  0  0
  -21.6645  -26.7403   22.1214 H   0  0  0  0  0  0
  -19.6916  -25.6267   21.1259 H   0  0  0  0  0  0
  -19.6696  -27.3167   20.6755 H   0  0  0  0  0  0
  -17.4217  -26.6675   21.4022 H   0  0  0  0  0  0
  -18.0322  -26.0061   22.9021 H   0  0  0  0  0  0
  -19.7958  -30.7291   24.2192 H   0  0  0  0  0  0
  -17.5029  -31.6253   24.5170 H   0  0  0  0  0  0
  -15.5361  -30.2951   23.7682 H   0  0  0  0  0  0
  -15.8698  -28.0808   22.7050 H   0  0  0  0  0  0
  -24.5825  -30.7187   25.7737 H   0  0  0  0  0  0
  -24.8955  -32.2980   26.4828 H   0  0  0  0  0  0
  -25.7969  -30.8929   27.0205 H   0  0  0  0  0  0
  -26.2994  -29.6660   24.1307 H   0  0  0  0  0  0
  -27.3978  -29.7263   25.4883 H   0  0  0  0  0  0
  -27.8905  -30.4177   23.9623 H   0  0  0  0  0  0
  -27.2622  -33.3619   26.2056 H   0  0  0  0  0  0
  -28.3862  -32.6886   25.0338 H   0  0  0  0  0  0
  -28.0699  -31.8463   26.5430 H   0  0  0  0  0  0
  -28.2567  -38.0104   24.7535 H   0  0  0  0  0  0
  -28.1098  -36.2628   24.6223 H   0  0  0  0  0  0
  -27.2304  -37.1368   25.8858 H   0  0  0  0  0  0
  -20.9461  -29.8724   21.6782 H   0  0  0  0  0  0
  -26.0142  -38.2812   24.1438 H   0  0  0  0  0  0
  -30.9530  -20.4072   19.0208 H   0  0  0  0  0  0
  -31.2855  -18.0252   19.2384 H   0  0  0  0  0  0
  -27.8665  -17.7991   21.7575 H   0  0  0  0  0  0
  -30.0263  -24.9551   18.3647 H   0  0  0  0  0  0
  -30.4787  -24.7372   20.0401 H   0  0  0  0  0  0
  -30.9700  -22.5835   19.2159 H   0  0  0  0  0  0
  -29.6264  -22.5757   18.0797 H   0  0  0  0  0  0
  -27.1481  -23.0337   20.6507 H   0  0  0  0  0  0
  -28.5024  -23.5028   21.6460 H   0  0  0  0  0  0
  -27.7026  -24.6412   18.8895 H   0  0  0  0  0  0
  -28.7738  -15.6898   21.0138 H   0  0  0  0  0  0
  1 25  1  0  0  0
  1 30  2  0  0  0
  1 83  1  0  0  0
  2  3  1  0  0  0
  2 25  1  0  0  0
  2 87  1  0  0  0
  2 88  1  0  0  0
  3  4  1  0  0  0
  3 89  1  0  0  0
  3 90  1  0  0  0
  4  5  1  0  0  0
  4 91  1  0  0  0
  4 92  1  0  0  0
  5  6  1  0  0  0
  5 26  1  0  0  0
  5 93  1  0  0  0
  6 25  1  0  0  0
  6 94  1  0  0  0
  6 95  1  0  0  0
  7  8  2  0  0  0
  7 26  1  0  0  0
  7 29  1  0  0  0
  8  9  1  0  0  0
  8 22  1  0  0  0
  9 10  1  0  0  0
  9 27  2  0  0  0
 10 11  2  0  0  0
 10 15  1  0  0  0
 11 12  1  0  0  0
 11 96  1  0  0  0
 12 13  2  0  0  0
 12 97  1  0  0  0
 13 14  1  0  0  0
 13 31  1  0  0  0
 14 15  2  0  0  0
 14 98  1  0  0  0
 15 99  1  0  0  0
 16 17  2  0  0  0
 16 21  1  0  0  0
 16 31  1  0  0  0
 17 18  1  0  0  0
 17100  1  0  0  0
 18 19  2  0  0  0
 18101  1  0  0  0
 19 20  1  0  0  0
 19 24  1  0  0  0
 20 21  2  0  0  0
 20102  1  0  0  0
 21 23  1  0  0  0
 22 28  1  0  0  0
 22 32  2  0  0  0
 26 27  1  0  0  0
 28103  1  0  0  0
 28104  1  0  0  0
 29105  1  0  0  0
 29106  1  0  0  0
 33 34  1  0  0  0
 33 66  1  0  0  0
 33 70  2  0  0  0
 34 36  1  0  0  0
 34 59  1  0  0  0
 34107  1  0  0  0
 35 44  2  0  0  0
 35 45  1  0  0  0
 35 68  1  0  0  0
 36 56  1  0  0  0
 36108  1  0  0  0
 37 39  1  0  0  0
 37 47  1  0  0  0
 37 66  1  0  0  0
 37109  1  0  0  0
 38 43  2  0  0  0
 38 46  1  0  0  0
 38 47  1  0  0  0
 39 64  1  0  0  0
 39 67  2  0  0  0
 40 52  1  0  0  0
 40 53  2  0  0  0
 40 58  1  0  0  0
 41110  1  0  0  0
 41111  1  0  0  0
 41112  1  0  0  0
 41 48  1  0  0  0
 42 43  1  0  0  0
 42 66  1  0  0  0
 42113  1  0  0  0
 42114  1  0  0  0
 43 44  1  0  0  0
 44115  1  0  0  0
 45 46  2  0  0  0
 45116  1  0  0  0
 46117  1  0  0  0
 47118  1  0  0  0
 47119  1  0  0  0
 48 56  1  0  0  0
 48 65  1  0  0  0
 48120  1  0  0  0
 49 50  1  0  0  0
 49 53  1  0  0  0
 49 64  1  0  0  0
 49121  1  0  0  0
 50 51  1  0  0  0
 50122  1  0  0  0
 50123  1  0  0  0
 51 52  1  0  0  0
 51124  1  0  0  0
 51125  1  0  0  0
 52126  1  0  0  0
 52127  1  0  0  0
 53 54  1  0  0  0
 54 55  2  0  0  0
 54128  1  0  0  0
 55 57  1  0  0  0
 55129  1  0  0  0
 56 69  2  0  0  0
 57 58  2  0  0  0
 57130  1  0  0  0
 58131  1  0  0  0
 59 60  1  0  0  0
 59 61  1  0  0  0
 59 62  1  0  0  0
 60132  1  0  0  0
 60133  1  0  0  0
 60134  1  0  0  0
 61135  1  0  0  0
 61136  1  0  0  0
 61137  1  0  0  0
 62138  1  0  0  0
 62139  1  0  0  0
 62140  1  0  0  0
 63 65  1  0  0  0
 63141  1  0  0  0
 63142  1  0  0  0
 63143  1  0  0  0
 64144  1  0  0  0
 65145  1  0  0  0
 68 80  1  0  0  0
 71 72  2  0  0  0
 71 75  1  0  0  0
 71146  1  0  0  0
 72 76  1  0  0  0
 72147  1  0  0  0
 73 74  1  0  0  0
 73 76  2  0  0  0
 73148  1  0  0  0
 74 75  2  0  0  0
 74 81  1  0  0  0
 75 82  1  0  0  0
 76 83  1  0  0  0
 77 78  1  0  0  0
 77 80  1  0  0  0
 77149  1  0  0  0
 77150  1  0  0  0
 78 82  1  0  0  0
 78151  1  0  0  0
 78152  1  0  0  0
 79 80  1  0  0  0
 79 82  1  0  0  0
 79153  1  0  0  0
 79154  1  0  0  0
 80155  1  0  0  0
 81 84  1  0  0  0
 81 85  1  0  0  0
 81 86  1  0  0  0
 83156  1  0  0  0
M  ISO  4   1 100  68 101  80 101  83 100
M  END
> <chiral flag>
0

> <version>
0

> <s_m_source_file>
/data/baiqing/PycharmProjects/Reinvent-master-3.2/result/LINK_invent/BTK/process_docking_weight1_custom_product_contain_oxygen_bond_distance_aromatic_linkinvent_7_9_3/rearranged_h_0008.sdf

> <i_m_source_file_index>
1

> <r_mmod_Potential_Energy-OPLS-2005>
615.0234375

> <r_mmod_Stretch_Energy-OPLS-2005>
224.136016845703

> <r_mmod_Bend_Energy-OPLS-2005>
334.533874511719

> <r_mmod_Torsional_Energy-OPLS-2005>
250.492797851562

> <r_mmod_Improper_Torsional_Energy-OPLS-2005>
3.5887279510498

> <r_mmod_Van_der_Waal_Energy-OPLS-2005>
134.448043823242

> <r_mmod_Electrostatic_Energy-OPLS-2005>
-297.319122314453

> <r_mmod_Solvation_Energy-OPLS-2005>
-220.857055664062

> <b_mmod_Minimization_Converged-OPLS-2005>
0

> <r_mmod_RMS_Derivative-OPLS-2005>
1.79841411113739

$$$$
1
                    3D
 Structure written by MMmdl.
163172  0  0  1  0            999 V2000
  -30.7067  -14.5179   20.5432 C   0  0  0  0  0  0
  -30.4120  -12.3363   19.4415 C   0  0  0  0  0  0
  -29.4940  -12.5109   18.2127 C   0  0  0  0  0  0
  -28.0149  -12.3536   18.6222 C   0  0  0  0  0  0
  -27.6481  -13.2037   19.8710 C   0  0  2  0  0  0
  -28.6970  -13.0200   20.9970 C   0  0  0  0  0  0
  -25.2498  -13.8062   20.5763 C   0  0  0  0  0  0
  -24.1770  -13.0315   20.9238 C   0  0  0  0  0  0
  -24.6357  -11.6809   20.8790 C   0  0  0  0  0  0
  -23.9027  -10.4183   21.0459 C   0  0  0  0  0  0
  -24.3577   -9.4067   21.9218 C   0  0  0  0  0  0
  -23.6235   -8.2093   22.0719 C   0  0  0  0  0  0
  -22.4209   -8.0180   21.3539 C   0  0  0  0  0  0
  -21.9896   -9.0156   20.4634 C   0  0  0  0  0  0
  -22.7221  -10.2046   20.3082 C   0  0  0  0  0  0
  -21.6785   -6.0655   22.5308 C   0  0  0  0  0  0
  -21.3976   -6.5559   23.8253 C   0  0  0  0  0  0
  -21.3704   -5.6733   24.9240 C   0  0  0  0  0  0
  -21.6062   -4.2995   24.7288 C   0  0  0  0  0  0
  -21.8786   -3.8064   23.4415 C   0  0  0  0  0  0
  -21.9159   -4.6875   22.3456 C   0  0  0  0  0  0
  -22.7824  -13.5157   21.1945 C   0  0  0  0  0  0
  -22.1607   -4.2045   21.1035 F   0  0  0  0  0  0
  -21.5721   -3.4496   25.7815 F   0  0  0  0  0  0
  -30.0097  -13.3514   20.4287 N   0  0  0  0  0  0
  -26.2926  -12.9258   20.3395 N   0  0  0  0  0  0
  -25.9257  -11.6408   20.5774 N   0  0  0  0  0  0
  -22.0490  -12.8158   22.0557 N   0  0  0  0  0  0
  -25.4088  -15.1782   20.4310 N   0  0  0  0  0  0
  -31.8820  -14.6128   20.1917 O   0  0  0  0  0  0
  -21.6541   -6.8811   21.4268 O   0  0  0  0  0  0
  -22.3473  -14.5437   20.6789 O   0  0  0  0  0  0
  -24.6205  -31.8687   23.2149 C   0  0  0  0  0  0
  -25.9101  -32.4813   23.8474 C   0  0  1  0  0  0
  -27.2061  -27.4149   20.0531 C   0  0  0  0  0  0
  -25.5967  -33.8617   24.2389 N   0  0  0  0  0  0
  -23.4079  -30.5019   21.5571 C   0  0  2  0  0  0
  -24.8458  -28.9842   20.1091 C   0  0  0  0  0  0
  -22.7453  -29.4650   22.4944 C   0  0  0  0  0  0
  -18.0393  -28.1333   22.8651 C   0  0  0  0  0  0
  -24.1519  -36.7280   23.2634 C   0  0  0  0  0  0
  -25.9463  -30.8176   21.3881 C   0  0  0  0  0  0
  -26.0157  -29.4611   20.7160 C   0  0  0  0  0  0
  -27.1990  -28.6768   20.6976 C   0  0  0  0  0  0
  -26.0194  -27.0046   19.3928 C   0  0  0  0  0  0
  -24.8379  -27.7480   19.4603 C   0  0  0  0  0  0
  -23.6197  -29.8636   20.1640 C   0  0  0  0  0  0
  -25.4124  -36.3085   24.0350 C   0  0  1  0  0  0
  -20.5911  -28.3759   23.1535 C   0  0  2  0  0  0
  -20.6828  -26.9323   22.5938 C   0  0  0  0  0  0
  -19.5930  -26.6148   21.5665 C   0  0  0  0  0  0
  -18.2068  -26.7769   22.2008 C   0  0  0  0  0  0
  -19.1579  -28.8905   23.2968 C   0  0  0  0  0  0
  -18.9388  -30.1524   23.8920 C   0  0  0  0  0  0
  -17.6365  -30.6660   24.0334 C   0  0  0  0  0  0
  -25.9033  -34.9465   23.5118 C   0  0  0  0  0  0
  -16.5323  -29.8996   23.6244 C   0  0  0  0  0  0
  -16.7350  -28.6322   23.0539 C   0  0  0  0  0  0
  -26.4517  -31.6567   25.0806 C   0  0  0  0  0  0
  -25.3803  -31.3658   26.1566 C   0  0  0  0  0  0
  -27.0334  -30.2985   24.6224 C   0  0  0  0  0  0
  -27.6092  -32.4286   25.7572 C   0  0  0  0  0  0
  -27.5581  -37.1803   24.8478 C   0  0  0  0  0  0
  -21.4156  -29.3066   22.3852 N   0  0  0  0  0  0
  -26.4295  -37.3777   23.9417 N   0  0  0  0  0  0
  -24.6769  -31.0768   22.1098 N   0  0  0  0  0  0
  -23.4266  -28.8088   23.2832 O   0  0  0  0  0  0
  -28.3193  -26.5807   20.1058 O   0  0  0  0  0  0
  -26.5595  -34.8901   22.4672 O   0  0  0  0  0  0
  -23.5382  -32.1450   23.7500 O   0  0  0  0  0  0
  -29.3769  -18.5591   20.7181 C   0  0  0  0  0  0
  -29.0594  -19.9409   20.7258 C   0  0  0  0  0  0
  -28.6217  -17.6260   21.4763 C   0  0  0  0  0  0
  -27.9442  -20.4139   21.4541 C   0  0  0  0  0  0
  -27.5251  -18.1137   22.2360 C   0  0  0  0  0  0
  -27.1861  -19.4813   22.1924 C   0  0  0  0  0  0
  -28.2902  -24.3601   18.7845 C   0  0  0  0  0  0
  -28.1806  -22.8695   19.2157 C   0  0  0  0  0  0
  -28.5783  -24.2244   21.1561 C   0  0  0  0  0  0
  -28.0153  -25.1544   20.0827 C   0  0  2  0  0  0
  -26.6881  -17.2281   23.1531 C   0  0  0  0  0  0
  -28.9633  -16.1256   21.5048 C   0  0  0  0  0  0
  -27.5481  -21.8859   21.6108 C   0  0  0  0  0  0
  -30.0226  -15.6785   20.6049 N   0  0  0  0  0  0
  -27.9581  -22.9682   20.6737 N   0  3  2  0  0  0
  -26.1257  -19.9111   22.9285 F   0  0  0  0  0  0
  -31.4591  -12.4213   19.1449 H   0  0  0  0  0  0
  -30.2999  -11.3384   19.8666 H   0  0  0  0  0  0
  -29.7550  -11.7909   17.4355 H   0  0  0  0  0  0
  -29.6542  -13.4993   17.7809 H   0  0  0  0  0  0
  -27.8415  -11.2989   18.8318 H   0  0  0  0  0  0
  -27.3608  -12.6076   17.7847 H   0  0  0  0  0  0
  -27.6738  -14.2400   19.5311 H   0  0  0  0  0  0
  -28.6933  -11.9845   21.3367 H   0  0  0  0  0  0
  -28.4633  -13.6007   21.8873 H   0  0  0  0  0  0
  -25.2716   -9.5459   22.4841 H   0  0  0  0  0  0
  -23.9898   -7.4402   22.7382 H   0  0  0  0  0  0
  -21.0856   -8.8714   19.8877 H   0  0  0  0  0  0
  -22.3727  -10.9602   19.6192 H   0  0  0  0  0  0
  -21.1897   -7.6057   23.9740 H   0  0  0  0  0  0
  -21.1629   -6.0479   25.9168 H   0  0  0  0  0  0
  -22.0538   -2.7489   23.2968 H   0  0  0  0  0  0
  -22.4044  -11.9785   22.4934 H   0  0  0  0  0  0
  -21.1126  -13.1220   22.2722 H   0  0  0  0  0  0
  -24.6337  -15.8198   20.5695 H   0  0  0  0  0  0
  -26.2763  -15.6414   20.1936 H   0  0  0  0  0  0
  -26.7153  -32.5471   23.1194 H   0  0  0  0  0  0
  -25.0245  -33.9800   25.0632 H   0  0  0  0  0  0
  -22.6974  -31.3206   21.4239 H   0  0  0  0  0  0
  -23.3780  -35.9610   23.3305 H   0  0  0  0  0  0
  -24.3607  -36.8881   22.2040 H   0  0  0  0  0  0
  -23.7262  -37.6491   23.6623 H   0  0  0  0  0  0
  -26.0978  -31.5945   20.6381 H   0  0  0  0  0  0
  -26.8214  -30.8387   22.0262 H   0  0  0  0  0  0
  -28.0906  -29.0214   21.2053 H   0  0  0  0  0  0
  -25.9632  -26.0891   18.8258 H   0  0  0  0  0  0
  -23.9408  -27.3736   18.9893 H   0  0  0  0  0  0
  -23.7531  -30.6537   19.4257 H   0  0  0  0  0  0
  -22.7365  -29.3083   19.8431 H   0  0  0  0  0  0
  -25.1291  -36.1958   25.0850 H   0  0  0  0  0  0
  -20.9900  -28.3504   24.1721 H   0  0  0  0  0  0
  -20.5494  -26.2407   23.4298 H   0  0  0  0  0  0
  -21.6763  -26.7178   22.2028 H   0  0  0  0  0  0
  -19.6926  -27.2769   20.7055 H   0  0  0  0  0  0
  -19.7110  -25.5987   21.1967 H   0  0  0  0  0  0
  -17.4388  -26.6340   21.4450 H   0  0  0  0  0  0
  -18.0569  -26.0069   22.9594 H   0  0  0  0  0  0
  -19.7794  -30.7447   24.2264 H   0  0  0  0  0  0
  -17.4821  -31.6398   24.4819 H   0  0  0  0  0  0
  -15.5312  -30.2781   23.7561 H   0  0  0  0  0  0
  -15.8761  -28.0452   22.7499 H   0  0  0  0  0  0
  -24.6024  -30.6916   25.7955 H   0  0  0  0  0  0
  -24.8967  -32.2796   26.5036 H   0  0  0  0  0  0
  -25.8247  -30.8870   27.0314 H   0  0  0  0  0  0
  -26.2881  -29.6740   24.1280 H   0  0  0  0  0  0
  -27.4038  -29.7238   25.4748 H   0  0  0  0  0  0
  -27.8783  -30.4273   23.9447 H   0  0  0  0  0  0
  -27.2714  -33.3584   26.2162 H   0  0  0  0  0  0
  -28.3909  -32.6835   25.0395 H   0  0  0  0  0  0
  -28.0736  -31.8394   26.5491 H   0  0  0  0  0  0
  -28.2612  -38.0103   24.7499 H   0  0  0  0  0  0
  -28.1079  -36.2616   24.6337 H   0  0  0  0  0  0
  -27.2289  -37.1479   25.8890 H   0  0  0  0  0  0
  -20.9189  -29.9030   21.7396 H   0  0  0  0  0  0
  -26.0183  -38.2857   24.1411 H   0  0  0  0  0  0
  -30.2281  -18.2382   20.1352 H   0  0  0  0  0  0
  -29.6929  -20.6206   20.1774 H   0  0  0  0  0  0
  -27.5866  -24.6098   17.9917 H   0  0  0  0  0  0
  -29.2931  -24.5683   18.4110 H   0  0  0  0  0  0
  -29.1079  -22.3482   18.9783 H   0  0  0  0  0  0
  -27.3641  -22.3498   18.7081 H   0  0  0  0  0  0
  -28.2726  -24.5077   22.1610 H   0  0  0  0  0  0
  -29.6647  -24.1608   21.1191 H   0  0  0  0  0  0
  -26.9544  -25.0325   20.3136 H   0  0  0  0  0  0
  -26.9987  -16.1847   23.1898 H   0  0  0  0  0  0
  -25.6448  -17.2482   22.8472 H   0  0  0  0  0  0
  -26.7454  -17.6170   24.1743 H   0  0  0  0  0  0
  -29.2277  -15.8356   22.5243 H   0  0  0  0  0  0
  -28.0405  -15.6179   21.2365 H   0  0  0  0  0  0
  -27.7696  -22.1874   22.6345 H   0  0  0  0  0  0
  -26.4563  -21.9187   21.5494 H   0  0  0  0  0  0
  -30.5980  -16.4500   20.3035 H   0  0  0  0  0  0
  -27.0158  -23.3260   20.5995 H   0  0  0  0  0  0
  1 25  1  0  0  0
  1 30  2  0  0  0
  1 84  1  0  0  0
  2  3  1  0  0  0
  2 25  1  0  0  0
  2 87  1  0  0  0
  2 88  1  0  0  0
  3  4  1  0  0  0
  3 89  1  0  0  0
  3 90  1  0  0  0
  4  5  1  0  0  0
  4 91  1  0  0  0
  4 92  1  0  0  0
  5  6  1  0  0  0
  5 26  1  0  0  0
  5 93  1  0  0  0
  6 25  1  0  0  0
  6 94  1  0  0  0
  6 95  1  0  0  0
  7  8  2  0  0  0
  7 26  1  0  0  0
  7 29  1  0  0  0
  8  9  1  0  0  0
  8 22  1  0  0  0
  9 10  1  0  0  0
  9 27  2  0  0  0
 10 11  2  0  0  0
 10 15  1  0  0  0
 11 12  1  0  0  0
 11 96  1  0  0  0
 12 13  2  0  0  0
 12 97  1  0  0  0
 13 14  1  0  0  0
 13 31  1  0  0  0
 14 15  2  0  0  0
 14 98  1  0  0  0
 15 99  1  0  0  0
 16 17  2  0  0  0
 16 21  1  0  0  0
 16 31  1  0  0  0
 17 18  1  0  0  0
 17100  1  0  0  0
 18 19  2  0  0  0
 18101  1  0  0  0
 19 20  1  0  0  0
 19 24  1  0  0  0
 20 21  2  0  0  0
 20102  1  0  0  0
 21 23  1  0  0  0
 22 28  1  0  0  0
 22 32  2  0  0  0
 26 27  1  0  0  0
 28103  1  0  0  0
 28104  1  0  0  0
 29105  1  0  0  0
 29106  1  0  0  0
 33 34  1  0  0  0
 33 66  1  0  0  0
 33 70  2  0  0  0
 34 36  1  0  0  0
 34 59  1  0  0  0
 34107  1  0  0  0
 35 44  2  0  0  0
 35 45  1  0  0  0
 35 68  1  0  0  0
 36 56  1  0  0  0
 36108  1  0  0  0
 37 39  1  0  0  0
 37 47  1  0  0  0
 37 66  1  0  0  0
 37109  1  0  0  0
 38 43  2  0  0  0
 38 46  1  0  0  0
 38 47  1  0  0  0
 39 64  1  0  0  0
 39 67  2  0  0  0
 40 52  1  0  0  0
 40 53  2  0  0  0
 40 58  1  0  0  0
 41110  1  0  0  0
 41111  1  0  0  0
 41112  1  0  0  0
 41 48  1  0  0  0
 42 43  1  0  0  0
 42 66  1  0  0  0
 42113  1  0  0  0
 42114  1  0  0  0
 43 44  1  0  0  0
 44115  1  0  0  0
 45 46  2  0  0  0
 45116  1  0  0  0
 46117  1  0  0  0
 47118  1  0  0  0
 47119  1  0  0  0
 48 56  1  0  0  0
 48 65  1  0  0  0
 48120  1  0  0  0
 49 50  1  0  0  0
 49 53  1  0  0  0
 49 64  1  0  0  0
 49121  1  0  0  0
 50 51  1  0  0  0
 50122  1  0  0  0
 50123  1  0  0  0
 51 52  1  0  0  0
 51124  1  0  0  0
 51125  1  0  0  0
 52126  1  0  0  0
 52127  1  0  0  0
 53 54  1  0  0  0
 54 55  2  0  0  0
 54128  1  0  0  0
 55 57  1  0  0  0
 55129  1  0  0  0
 56 69  2  0  0  0
 57 58  2  0  0  0
 57130  1  0  0  0
 58131  1  0  0  0
 59 60  1  0  0  0
 59 61  1  0  0  0
 59 62  1  0  0  0
 60132  1  0  0  0
 60133  1  0  0  0
 60134  1  0  0  0
 61135  1  0  0  0
 61136  1  0  0  0
 61137  1  0  0  0
 62138  1  0  0  0
 62139  1  0  0  0
 62140  1  0  0  0
 63 65  1  0  0  0
 63141  1  0  0  0
 63142  1  0  0  0
 63143  1  0  0  0
 64144  1  0  0  0
 65145  1  0  0  0
 68 80  1  0  0  0
 71 72  2  0  0  0
 71 73  1  0  0  0
 71146  1  0  0  0
 72 74  1  0  0  0
 72147  1  0  0  0
 73 75  2  0  0  0
 73 82  1  0  0  0
 74 76  2  0  0  0
 74 83  1  0  0  0
 75 76  1  0  0  0
 75 81  1  0  0  0
 76 86  1  0  0  0
 77 78  1  0  0  0
 77 80  1  0  0  0
 77148  1  0  0  0
 77149  1  0  0  0
 78 85  1  0  0  0
 78150  1  0  0  0
 78151  1  0  0  0
 79 80  1  0  0  0
 79 85  1  0  0  0
 79152  1  0  0  0
 79153  1  0  0  0
 80154  1  0  0  0
 81155  1  0  0  0
 81156  1  0  0  0
 81157  1  0  0  0
 82 84  1  0  0  0
 82158  1  0  0  0
 82159  1  0  0  0
 83160  1  0  0  0
 83161  1  0  0  0
 83 85  1  0  0  0
 84162  1  0  0  0
 85163  1  0  0  0
M  CHG  1  85   1
M  ISO  4   1 100  68 101  80 101  84 100
M  END
> <chiral flag>
0

> <version>
0

> <s_m_source_file>
/data/baiqing/PycharmProjects/Reinvent-master-3.2/result/LINK_invent/BTK/process_docking_weight1_custom_product_contain_oxygen_bond_distance_aromatic_linkinvent_7_9_3/rearranged_h_0008.sdf

> <i_m_source_file_index>
2

> <r_mmod_Potential_Energy-OPLS-2005>
43.1530456542969

> <r_mmod_Stretch_Energy-OPLS-2005>
42.1061363220215

> <r_mmod_Bend_Energy-OPLS-2005>
259.998504638672

> <r_mmod_Torsional_Energy-OPLS-2005>
301.248901367188

> <r_mmod_Improper_Torsional_Energy-OPLS-2005>
15.7279281616211

> <r_mmod_Van_der_Waal_Energy-OPLS-2005>
165.325256347656

> <r_mmod_Electrostatic_Energy-OPLS-2005>
-337.681823730469

> <r_mmod_Solvation_Energy-OPLS-2005>
-433.129272460938

> <b_mmod_Minimization_Converged-OPLS-2005>
0

> <r_mmod_RMS_Derivative-OPLS-2005>
7.70004940032959

$$$$
2
                    3D
 Structure written by MMmdl.
163172  0  0  1  0            999 V2000
  -30.7147  -14.4491   20.4566 C   0  0  0  0  0  0
  -30.4040  -12.2706   19.4180 C   0  0  0  0  0  0
  -29.4999  -12.5424   18.1982 C   0  0  0  0  0  0
  -28.0154  -12.4100   18.5918 C   0  0  0  0  0  0
  -27.6583  -13.2221   19.8677 C   0  0  2  0  0  0
  -28.7053  -13.0185   20.9896 C   0  0  0  0  0  0
  -25.2566  -13.8185   20.5688 C   0  0  0  0  0  0
  -24.1840  -13.0427   20.9179 C   0  0  0  0  0  0
  -24.6420  -11.6906   20.8735 C   0  0  0  0  0  0
  -23.9107  -10.4265   21.0409 C   0  0  0  0  0  0
  -24.3645   -9.4178   21.9181 C   0  0  0  0  0  0
  -23.6304   -8.2225   22.0789 C   0  0  0  0  0  0
  -22.4292   -8.0285   21.3563 C   0  0  0  0  0  0
  -21.9925   -9.0252   20.4663 C   0  0  0  0  0  0
  -22.7282  -10.2108   20.3055 C   0  0  0  0  0  0
  -21.6823   -6.0754   22.5283 C   0  0  0  0  0  0
  -21.4015   -6.5654   23.8224 C   0  0  0  0  0  0
  -21.3681   -5.6810   24.9185 C   0  0  0  0  0  0
  -21.6043   -4.3072   24.7227 C   0  0  0  0  0  0
  -21.8802   -3.8159   23.4348 C   0  0  0  0  0  0
  -21.9187   -4.6982   22.3409 C   0  0  0  0  0  0
  -22.7866  -13.5222   21.1835 C   0  0  0  0  0  0
  -22.1649   -4.2171   21.0988 F   0  0  0  0  0  0
  -21.5639   -3.4546   25.7732 F   0  0  0  0  0  0
  -30.0384  -13.2734   20.4242 N   0  0  0  0  0  0
  -26.3010  -12.9388   20.3304 N   0  0  0  0  0  0
  -25.9355  -11.6525   20.5703 N   0  0  0  0  0  0
  -22.0492  -12.8208   22.0371 N   0  0  0  0  0  0
  -25.4250  -15.1913   20.4184 N   0  0  0  0  0  0
  -31.9216  -14.5329   20.2376 O   0  0  0  0  0  0
  -21.6625   -6.8917   21.4258 O   0  0  0  0  0  0
  -22.3511  -14.5492   20.6649 O   0  0  0  0  0  0
  -24.6157  -31.8668   23.2090 C   0  0  0  0  0  0
  -25.9037  -32.4814   23.8406 C   0  0  1  0  0  0
  -27.2398  -27.4193   20.0827 C   0  0  0  0  0  0
  -25.5861  -33.8605   24.2316 N   0  0  0  0  0  0
  -23.4084  -30.4884   21.5472 C   0  0  2  0  0  0
  -24.8548  -28.9559   20.1050 C   0  0  0  0  0  0
  -22.7432  -29.4643   22.4948 C   0  0  0  0  0  0
  -18.0279  -28.1381   22.8516 C   0  0  0  0  0  0
  -24.1472  -36.7336   23.2644 C   0  0  0  0  0  0
  -25.9393  -30.8136   21.3783 C   0  0  0  0  0  0
  -26.0098  -29.4484   20.7257 C   0  0  0  0  0  0
  -27.1927  -28.6751   20.7341 C   0  0  0  0  0  0
  -26.0759  -26.9661   19.4205 C   0  0  0  0  0  0
  -24.8839  -27.7150   19.4481 C   0  0  0  0  0  0
  -23.6186  -29.8235   20.1588 C   0  0  0  0  0  0
  -25.4094  -36.3110   24.0342 C   0  0  1  0  0  0
  -20.5876  -28.3678   23.1302 C   0  0  2  0  0  0
  -20.6780  -26.9404   22.5429 C   0  0  0  0  0  0
  -19.5742  -26.6387   21.5236 C   0  0  0  0  0  0
  -18.1914  -26.7944   22.1628 C   0  0  0  0  0  0
  -19.1532  -28.8841   23.2917 C   0  0  0  0  0  0
  -18.9462  -30.1450   23.8930 C   0  0  0  0  0  0
  -17.6466  -30.6605   24.0560 C   0  0  0  0  0  0
  -25.9030  -34.9469   23.5137 C   0  0  0  0  0  0
  -16.5357  -29.9117   23.6303 C   0  0  0  0  0  0
  -16.7273  -28.6513   23.0368 C   0  0  0  0  0  0
  -26.4431  -31.6624   25.0766 C   0  0  0  0  0  0
  -25.3685  -31.3767   26.1516 C   0  0  0  0  0  0
  -27.0287  -30.3056   24.6223 C   0  0  0  0  0  0
  -27.5991  -32.4361   25.7531 C   0  0  0  0  0  0
  -27.5585  -37.1816   24.8449 C   0  0  0  0  0  0
  -21.4156  -29.3035   22.3682 N   0  0  0  0  0  0
  -26.4284  -37.3803   23.9412 N   0  0  0  0  0  0
  -24.6721  -31.0733   22.1016 N   0  0  0  0  0  0
  -23.4188  -28.8185   23.3009 O   0  0  0  0  0  0
  -28.4134  -26.6882   20.1485 O   0  0  0  0  0  0
  -26.5603  -34.8929   22.4709 O   0  0  0  0  0  0
  -23.5331  -32.1421   23.7447 O   0  0  0  0  0  0
  -31.3840  -17.8677   17.8128 C   0  0  0  0  0  0
  -30.8604  -19.0936   18.2326 C   0  0  0  0  0  0
  -31.0619  -16.6993   18.5203 C   0  0  0  0  0  0
  -29.6712  -17.9860   20.0598 C   0  0  0  0  0  0
  -29.9922  -19.1687   19.3401 C   0  0  0  0  0  0
  -30.2355  -16.7401   19.6760 C   0  0  0  0  0  0
  -28.3003  -20.6517   20.6624 C   0  0  0  0  0  0
  -30.5102  -21.5173   20.1835 C   0  0  0  0  0  0
  -27.6763  -22.0663   20.6214 C   0  0  0  0  0  0
  -30.0318  -22.9785   20.0909 C   0  0  0  0  0  0
  -29.4431  -20.5588   19.6601 C   0  0  1  0  0  0
  -27.9416  -24.2472   19.5239 C   0  0  0  0  0  0
  -28.6651  -25.6028   19.2409 C   0  0  0  0  0  0
  -29.9401  -15.5529   20.4264 N   0  0  0  0  0  0
  -28.5954  -23.2490   20.4394 N   0  3  1  0  0  0
  -31.4557  -12.3184   19.1357 H   0  0  0  0  0  0
  -30.2391  -11.2625   19.8033 H   0  0  0  0  0  0
  -29.7454  -11.8703   17.3766 H   0  0  0  0  0  0
  -29.6851  -13.5525   17.8196 H   0  0  0  0  0  0
  -27.7962  -11.3521   18.7390 H   0  0  0  0  0  0
  -27.3903  -12.7404   17.7606 H   0  0  0  0  0  0
  -27.6905  -14.2708   19.5761 H   0  0  0  0  0  0
  -28.6644  -11.9967   21.3702 H   0  0  0  0  0  0
  -28.5066  -13.6667   21.8456 H   0  0  0  0  0  0
  -25.2791   -9.5625   22.4746 H   0  0  0  0  0  0
  -23.9972   -7.4626   22.7539 H   0  0  0  0  0  0
  -21.0860   -8.8810   19.8973 H   0  0  0  0  0  0
  -22.3792  -10.9651   19.6160 H   0  0  0  0  0  0
  -21.1991   -7.6154   23.9743 H   0  0  0  0  0  0
  -21.1536   -6.0536   25.9093 H   0  0  0  0  0  0
  -22.0563   -2.7615   23.2843 H   0  0  0  0  0  0
  -22.4064  -11.9864   22.4747 H   0  0  0  0  0  0
  -21.1118  -13.1304   22.2573 H   0  0  0  0  0  0
  -24.6547  -15.8406   20.5474 H   0  0  0  0  0  0
  -26.2609  -15.6382   20.0630 H   0  0  0  0  0  0
  -26.7114  -32.5513   23.1175 H   0  0  0  0  0  0
  -24.9942  -33.9758   25.0411 H   0  0  0  0  0  0
  -22.7015  -31.3075   21.4079 H   0  0  0  0  0  0
  -23.3721  -35.9684   23.3282 H   0  0  0  0  0  0
  -24.3573  -36.8976   22.2066 H   0  0  0  0  0  0
  -23.7229  -37.6539   23.6673 H   0  0  0  0  0  0
  -26.0701  -31.5735   20.6067 H   0  0  0  0  0  0
  -26.8209  -30.8573   22.0068 H   0  0  0  0  0  0
  -28.0783  -29.0383   21.2361 H   0  0  0  0  0  0
  -26.0566  -26.0438   18.8620 H   0  0  0  0  0  0
  -24.0060  -27.3440   18.9345 H   0  0  0  0  0  0
  -23.7315  -30.6004   19.4028 H   0  0  0  0  0  0
  -22.7416  -29.2460   19.8588 H   0  0  0  0  0  0
  -25.1258  -36.1983   25.0839 H   0  0  0  0  0  0
  -20.9989  -28.3279   24.1415 H   0  0  0  0  0  0
  -20.5698  -26.2298   23.3639 H   0  0  0  0  0  0
  -21.6651  -26.7459   22.1210 H   0  0  0  0  0  0
  -19.6906  -25.6299   21.1267 H   0  0  0  0  0  0
  -19.6685  -27.3202   20.6769 H   0  0  0  0  0  0
  -17.4202  -26.6719   21.4009 H   0  0  0  0  0  0
  -18.0278  -26.0090   22.9008 H   0  0  0  0  0  0
  -19.7933  -30.7246   24.2347 H   0  0  0  0  0  0
  -17.5020  -31.6280   24.5160 H   0  0  0  0  0  0
  -15.5361  -30.3024   23.7616 H   0  0  0  0  0  0
  -15.8677  -28.0834   22.7091 H   0  0  0  0  0  0
  -24.5800  -30.7186   25.7843 H   0  0  0  0  0  0
  -24.8955  -32.2954   26.5006 H   0  0  0  0  0  0
  -25.8015  -30.8882   27.0259 H   0  0  0  0  0  0
  -26.2886  -29.6830   24.1193 H   0  0  0  0  0  0
  -27.3910  -29.7289   25.4743 H   0  0  0  0  0  0
  -27.8771  -30.4338   23.9500 H   0  0  0  0  0  0
  -27.2573  -33.3615   26.2184 H   0  0  0  0  0  0
  -28.3763  -32.7016   25.0351 H   0  0  0  0  0  0
  -28.0719  -31.8470   26.5402 H   0  0  0  0  0  0
  -28.2562  -38.0148   24.7532 H   0  0  0  0  0  0
  -28.1115  -36.2683   24.6206 H   0  0  0  0  0  0
  -27.2322  -37.1391   25.8854 H   0  0  0  0  0  0
  -20.9329  -29.8750   21.6887 H   0  0  0  0  0  0
  -26.0165  -38.2878   24.1428 H   0  0  0  0  0  0
  -32.0325  -17.8304   16.9478 H   0  0  0  0  0  0
  -31.1141  -19.9913   17.6865 H   0  0  0  0  0  0
  -31.4781  -15.7705   18.1521 H   0  0  0  0  0  0
  -29.0053  -18.0237   20.9094 H   0  0  0  0  0  0
  -27.5263  -19.9239   20.4169 H   0  0  0  0  0  0
  -28.6448  -20.4007   21.6655 H   0  0  0  0  0  0
  -30.7890  -21.2523   21.2032 H   0  0  0  0  0  0
  -31.4273  -21.4267   19.6025 H   0  0  0  0  0  0
  -27.0802  -22.2191   21.5207 H   0  0  0  0  0  0
  -26.9520  -22.0515   19.8071 H   0  0  0  0  0  0
  -30.2400  -23.3116   19.0745 H   0  0  0  0  0  0
  -30.6555  -23.5915   20.7450 H   0  0  0  0  0  0
  -29.0733  -20.9347   18.7024 H   0  0  0  0  0  0
  -27.8294  -23.7541   18.5553 H   0  0  0  0  0  0
  -26.9296  -24.4165   19.8855 H   0  0  0  0  0  0
  -28.4027  -25.9424   18.2385 H   0  0  0  0  0  0
  -29.7438  -25.4651   19.1994 H   0  0  0  0  0  0
  -28.9957  -15.4453   20.7625 H   0  0  0  0  0  0
  -28.6347  -23.6869   21.3497 H   0  0  0  0  0  0
  1 25  1  0  0  0
  1 30  2  0  0  0
  1 84  1  0  0  0
  2  3  1  0  0  0
  2 25  1  0  0  0
  2 86  1  0  0  0
  2 87  1  0  0  0
  3  4  1  0  0  0
  3 88  1  0  0  0
  3 89  1  0  0  0
  4  5  1  0  0  0
  4 90  1  0  0  0
  4 91  1  0  0  0
  5  6  1  0  0  0
  5 26  1  0  0  0
  5 92  1  0  0  0
  6 25  1  0  0  0
  6 93  1  0  0  0
  6 94  1  0  0  0
  7  8  2  0  0  0
  7 26  1  0  0  0
  7 29  1  0  0  0
  8  9  1  0  0  0
  8 22  1  0  0  0
  9 10  1  0  0  0
  9 27  2  0  0  0
 10 11  2  0  0  0
 10 15  1  0  0  0
 11 12  1  0  0  0
 11 95  1  0  0  0
 12 13  2  0  0  0
 12 96  1  0  0  0
 13 14  1  0  0  0
 13 31  1  0  0  0
 14 15  2  0  0  0
 14 97  1  0  0  0
 15 98  1  0  0  0
 16 17  2  0  0  0
 16 21  1  0  0  0
 16 31  1  0  0  0
 17 18  1  0  0  0
 17 99  1  0  0  0
 18 19  2  0  0  0
 18100  1  0  0  0
 19 20  1  0  0  0
 19 24  1  0  0  0
 20 21  2  0  0  0
 20101  1  0  0  0
 21 23  1  0  0  0
 22 28  1  0  0  0
 22 32  2  0  0  0
 26 27  1  0  0  0
 28102  1  0  0  0
 28103  1  0  0  0
 29104  1  0  0  0
 29105  1  0  0  0
 33 34  1  0  0  0
 33 66  1  0  0  0
 33 70  2  0  0  0
 34 36  1  0  0  0
 34 59  1  0  0  0
 34106  1  0  0  0
 35 44  2  0  0  0
 35 45  1  0  0  0
 35 68  1  0  0  0
 36 56  1  0  0  0
 36107  1  0  0  0
 37 39  1  0  0  0
 37 47  1  0  0  0
 37 66  1  0  0  0
 37108  1  0  0  0
 38 43  2  0  0  0
 38 46  1  0  0  0
 38 47  1  0  0  0
 39 64  1  0  0  0
 39 67  2  0  0  0
 40 52  1  0  0  0
 40 53  2  0  0  0
 40 58  1  0  0  0
 41109  1  0  0  0
 41110  1  0  0  0
 41111  1  0  0  0
 41 48  1  0  0  0
 42 43  1  0  0  0
 42 66  1  0  0  0
 42112  1  0  0  0
 42113  1  0  0  0
 43 44  1  0  0  0
 44114  1  0  0  0
 45 46  2  0  0  0
 45115  1  0  0  0
 46116  1  0  0  0
 47117  1  0  0  0
 47118  1  0  0  0
 48 56  1  0  0  0
 48 65  1  0  0  0
 48119  1  0  0  0
 49 50  1  0  0  0
 49 53  1  0  0  0
 49 64  1  0  0  0
 49120  1  0  0  0
 50 51  1  0  0  0
 50121  1  0  0  0
 50122  1  0  0  0
 51 52  1  0  0  0
 51123  1  0  0  0
 51124  1  0  0  0
 52125  1  0  0  0
 52126  1  0  0  0
 53 54  1  0  0  0
 54 55  2  0  0  0
 54127  1  0  0  0
 55 57  1  0  0  0
 55128  1  0  0  0
 56 69  2  0  0  0
 57 58  2  0  0  0
 57129  1  0  0  0
 58130  1  0  0  0
 59 60  1  0  0  0
 59 61  1  0  0  0
 59 62  1  0  0  0
 60131  1  0  0  0
 60132  1  0  0  0
 60133  1  0  0  0
 61134  1  0  0  0
 61135  1  0  0  0
 61136  1  0  0  0
 62137  1  0  0  0
 62138  1  0  0  0
 62139  1  0  0  0
 63 65  1  0  0  0
 63140  1  0  0  0
 63141  1  0  0  0
 63142  1  0  0  0
 64143  1  0  0  0
 65144  1  0  0  0
 68 83  1  0  0  0
 71 72  2  0  0  0
 71 73  1  0  0  0
 71145  1  0  0  0
 72 75  1  0  0  0
 72146  1  0  0  0
 73 76  2  0  0  0
 73147  1  0  0  0
 74 75  2  0  0  0
 74 76  1  0  0  0
 74148  1  0  0  0
 75 81  1  0  0  0
 76 84  1  0  0  0
 77 79  1  0  0  0
 77 81  1  0  0  0
 77149  1  0  0  0
 77150  1  0  0  0
 78 80  1  0  0  0
 78 81  1  0  0  0
 78151  1  0  0  0
 78152  1  0  0  0
 79 85  1  0  0  0
 79153  1  0  0  0
 79154  1  0  0  0
 80 85  1  0  0  0
 80155  1  0  0  0
 80156  1  0  0  0
 81157  1  0  0  0
 82 83  1  0  0  0
 82158  1  0  0  0
 82159  1  0  0  0
 82 85  1  0  0  0
 83160  1  0  0  0
 83161  1  0  0  0
 84162  1  0  0  0
 85163  1  0  0  0
M  CHG  1  85   1
M  ISO  4   1 100  68 101  83 101  84 100
M  END
> <chiral flag>
0

> <version>
0

> <s_m_source_file>
/data/baiqing/PycharmProjects/Reinvent-master-3.2/result/LINK_invent/BTK/process_docking_weight1_custom_product_contain_oxygen_bond_distance_aromatic_linkinvent_7_9_3/rearranged_h_0008.sdf

> <i_m_source_file_index>
3

> <r_mmod_Potential_Energy-OPLS-2005>
-0.898796439170837

> <r_mmod_Stretch_Energy-OPLS-2005>
42.8451461791992

> <r_mmod_Bend_Energy-OPLS-2005>
137.483917236328

> <r_mmod_Torsional_Energy-OPLS-2005>
297.32666015625

> <r_mmod_Improper_Torsional_Energy-OPLS-2005>
8.62738704681396

> <r_mmod_Van_der_Waal_Energy-OPLS-2005>
172.238891601562

> <r_mmod_Electrostatic_Energy-OPLS-2005>
-249.885101318359

> <r_mmod_Solvation_Energy-OPLS-2005>
-435.089660644531

> <b_mmod_Minimization_Converged-OPLS-2005>
0

> <r_mmod_RMS_Derivative-OPLS-2005>
5.16309595108032

$$$$
3
                    3D
 Structure written by MMmdl.
148156  0  0  1  0            999 V2000
  -30.5182  -14.9243   20.4273 C   0  0  0  0  0  0
  -30.4485  -12.5676   19.5002 C   0  0  0  0  0  0
  -29.5256  -12.5341   18.2581 C   0  0  0  0  0  0
  -28.0559  -12.3244   18.6711 C   0  0  0  0  0  0
  -27.6374  -13.2425   19.8489 C   0  0  2  0  0  0
  -28.6796  -13.2319   20.9887 C   0  0  0  0  0  0
  -25.2490  -13.8205   20.5707 C   0  0  0  0  0  0
  -24.1793  -13.0436   20.9212 C   0  0  0  0  0  0
  -24.6401  -11.6919   20.8745 C   0  0  0  0  0  0
  -23.9080  -10.4292   21.0404 C   0  0  0  0  0  0
  -24.3627   -9.4208   21.9183 C   0  0  0  0  0  0
  -23.6298   -8.2244   22.0754 C   0  0  0  0  0  0
  -22.4280   -8.0283   21.3545 C   0  0  0  0  0  0
  -21.9918   -9.0257   20.4646 C   0  0  0  0  0  0
  -22.7251  -10.2134   20.3054 C   0  0  0  0  0  0
  -21.6855   -6.0737   22.5279 C   0  0  0  0  0  0
  -21.4015   -6.5641   23.8213 C   0  0  0  0  0  0
  -21.3660   -5.6793   24.9174 C   0  0  0  0  0  0
  -21.6044   -4.3056   24.7225 C   0  0  0  0  0  0
  -21.8819   -3.8148   23.4346 C   0  0  0  0  0  0
  -21.9193   -4.6965   22.3402 C   0  0  0  0  0  0
  -22.7813  -13.5212   21.1871 C   0  0  0  0  0  0
  -22.1662   -4.2151   21.0980 F   0  0  0  0  0  0
  -21.5628   -3.4539   25.7737 F   0  0  0  0  0  0
  -29.9639  -13.6466   20.4064 N   0  0  0  0  0  0
  -26.2921  -12.9428   20.3276 N   0  0  0  0  0  0
  -25.9336  -11.6561   20.5746 N   0  0  0  0  0  0
  -22.0465  -12.8199   22.0428 N   0  0  0  0  0  0
  -25.4163  -15.1932   20.4141 N   0  0  0  0  0  0
  -31.6994  -15.0452   20.0829 O   0  0  0  0  0  0
  -21.6642   -6.8881   21.4242 O   0  0  0  0  0  0
  -22.3492  -14.5516   20.6719 O   0  0  0  0  0  0
  -24.6426  -31.8438   23.1879 C   0  0  0  0  0  0
  -25.9201  -32.4692   23.8268 C   0  0  1  0  0  0
  -27.2223  -27.1392   20.1425 C   0  0  0  0  0  0
  -25.5951  -33.8498   24.2185 N   0  0  0  0  0  0
  -23.4460  -30.4626   21.5332 C   0  0  2  0  0  0
  -24.8954  -28.8895   20.1072 C   0  0  0  0  0  0
  -22.7563  -29.4543   22.4859 C   0  0  0  0  0  0
  -18.0303  -28.1395   22.8479 C   0  0  0  0  0  0
  -24.1491  -36.7253   23.2642 C   0  0  0  0  0  0
  -26.0011  -30.7171   21.3868 C   0  0  0  0  0  0
  -26.0706  -29.3288   20.7274 C   0  0  0  0  0  0
  -27.2298  -28.4677   20.7317 C   0  0  0  0  0  0
  -26.0182  -26.7996   19.4846 C   0  0  0  0  0  0
  -24.8819  -27.6384   19.4725 C   0  0  0  0  0  0
  -23.6715  -29.7909   20.1521 C   0  0  0  0  0  0
  -25.4124  -36.3031   24.0316 C   0  0  1  0  0  0
  -20.5915  -28.3719   23.1238 C   0  0  2  0  0  0
  -20.6787  -26.9424   22.5404 C   0  0  0  0  0  0
  -19.5760  -26.6382   21.5213 C   0  0  0  0  0  0
  -18.1942  -26.7933   22.1627 C   0  0  0  0  0  0
  -19.1560  -28.8876   23.2850 C   0  0  0  0  0  0
  -18.9477  -30.1473   23.8875 C   0  0  0  0  0  0
  -17.6473  -30.6592   24.0559 C   0  0  0  0  0  0
  -25.9074  -34.9406   23.5060 C   0  0  0  0  0  0
  -16.5364  -29.9085   23.6336 C   0  0  0  0  0  0
  -16.7288  -28.6504   23.0358 C   0  0  0  0  0  0
  -26.4524  -31.6563   25.0712 C   0  0  0  0  0  0
  -25.3709  -31.3759   26.1410 C   0  0  0  0  0  0
  -27.0387  -30.2957   24.6298 C   0  0  0  0  0  0
  -27.6056  -32.4328   25.7496 C   0  0  0  0  0  0
  -27.5575  -37.1784   24.8466 C   0  0  0  0  0  0
  -21.4256  -29.3044   22.3609 N   0  0  0  0  0  0
  -26.4287  -37.3744   23.9408 N   0  0  0  0  0  0
  -24.7163  -31.0294   22.0911 N   0  0  0  0  0  0
  -23.4208  -28.8095   23.3011 O   0  0  0  0  0  0
  -28.2978  -26.1831   20.2513 O   0  0  0  0  0  0
  -26.5662  -34.8905   22.4640 O   0  0  0  0  0  0
  -23.5547  -32.1315   23.7102 O   0  0  0  0  0  0
  -30.4933  -18.3565   19.6582 C   0  0  0  0  0  0
  -28.5603  -19.8249   21.0345 C   0  0  0  0  0  0
  -29.6793  -17.5586   20.5240 C   0  0  0  0  0  0
  -29.3532  -20.6200   20.1431 C   0  0  0  0  0  0
  -30.3291  -19.7915   19.4747 C   0  0  0  0  0  0
  -28.7081  -18.3830   21.2002 C   0  0  0  0  0  0
  -28.3216  -24.7180   19.7170 C   0  0  0  0  0  0
  -28.5917  -23.2487   20.5102 C   0  0  0  0  0  0
  -29.6856  -16.0342   20.7086 N   0  0  0  0  0  0
  -29.2413  -22.0463   19.8039 O   0  0  0  0  0  0
  -31.1555  -20.3988   18.5893 F   0  0  0  0  0  0
  -27.8534  -17.7570   22.0444 F   0  0  0  0  0  0
  -31.4823  -12.7307   19.1917 H   0  0  0  0  0  0
  -30.4409  -11.6048   20.0137 H   0  0  0  0  0  0
  -29.8390  -11.7442   17.5741 H   0  0  0  0  0  0
  -29.6201  -13.4712   17.7072 H   0  0  0  0  0  0
  -27.9426  -11.2795   18.9621 H   0  0  0  0  0  0
  -27.3951  -12.4757   17.8167 H   0  0  0  0  0  0
  -27.6122  -14.2531   19.4405 H   0  0  0  0  0  0
  -28.7569  -12.2410   21.4389 H   0  0  0  0  0  0
  -28.3804  -13.9079   21.7911 H   0  0  0  0  0  0
  -25.2771   -9.5683   22.4760 H   0  0  0  0  0  0
  -24.0005   -7.4636   22.7475 H   0  0  0  0  0  0
  -21.0849   -8.8779   19.8952 H   0  0  0  0  0  0
  -22.3710  -10.9674   19.6164 H   0  0  0  0  0  0
  -21.2008   -7.6149   23.9716 H   0  0  0  0  0  0
  -21.1482   -6.0524   25.9077 H   0  0  0  0  0  0
  -22.0598   -2.7610   23.2846 H   0  0  0  0  0  0
  -22.4089  -11.9862   22.4814 H   0  0  0  0  0  0
  -21.1081  -13.1217   22.2636 H   0  0  0  0  0  0
  -24.6501  -15.8455   20.5392 H   0  0  0  0  0  0
  -26.2653  -15.6402   20.0942 H   0  0  0  0  0  0
  -26.7265  -32.5294   23.0994 H   0  0  0  0  0  0
  -25.0075  -33.9613   25.0317 H   0  0  0  0  0  0
  -22.7485  -31.2885   21.3788 H   0  0  0  0  0  0
  -23.3759  -35.9579   23.3293 H   0  0  0  0  0  0
  -24.3576  -36.8897   22.2059 H   0  0  0  0  0  0
  -23.7241  -37.6444   23.6687 H   0  0  0  0  0  0
  -26.1577  -31.4720   20.6150 H   0  0  0  0  0  0
  -26.8713  -30.7661   22.0297 H   0  0  0  0  0  0
  -28.1234  -28.7980   21.2425 H   0  0  0  0  0  0
  -25.8999  -25.8458   18.9982 H   0  0  0  0  0  0
  -23.9827  -27.2959   18.9789 H   0  0  0  0  0  0
  -23.8066  -30.5651   19.3960 H   0  0  0  0  0  0
  -22.7864  -29.2321   19.8428 H   0  0  0  0  0  0
  -25.1313  -36.1857   25.0808 H   0  0  0  0  0  0
  -21.0008  -28.3309   24.1359 H   0  0  0  0  0  0
  -20.5681  -26.2334   23.3622 H   0  0  0  0  0  0
  -21.6653  -26.7430   22.1201 H   0  0  0  0  0  0
  -19.6921  -25.6287   21.1255 H   0  0  0  0  0  0
  -19.6695  -27.3181   20.6733 H   0  0  0  0  0  0
  -17.4209  -26.6674   21.4033 H   0  0  0  0  0  0
  -18.0346  -26.0082   22.9031 H   0  0  0  0  0  0
  -19.7952  -30.7296   24.2233 H   0  0  0  0  0  0
  -17.5026  -31.6270   24.5165 H   0  0  0  0  0  0
  -15.5363  -30.2980   23.7673 H   0  0  0  0  0  0
  -15.8688  -28.0814   22.7087 H   0  0  0  0  0  0
  -24.5887  -30.7108   25.7731 H   0  0  0  0  0  0
  -24.8900  -32.2944   26.4783 H   0  0  0  0  0  0
  -25.7990  -30.8963   27.0221 H   0  0  0  0  0  0
  -26.3003  -29.6678   24.1300 H   0  0  0  0  0  0
  -27.3989  -29.7261   25.4875 H   0  0  0  0  0  0
  -27.8917  -30.4189   23.9622 H   0  0  0  0  0  0
  -27.2656  -33.3659   26.2001 H   0  0  0  0  0  0
  -28.3906  -32.6836   25.0349 H   0  0  0  0  0  0
  -28.0678  -31.8497   26.5471 H   0  0  0  0  0  0
  -28.2586  -38.0086   24.7511 H   0  0  0  0  0  0
  -28.1077  -36.2615   24.6296 H   0  0  0  0  0  0
  -27.2290  -37.1434   25.8869 H   0  0  0  0  0  0
  -20.9466  -29.8753   21.6784 H   0  0  0  0  0  0
  -26.0152  -38.2812   24.1410 H   0  0  0  0  0  0
  -31.2573  -17.8619   19.0776 H   0  0  0  0  0  0
  -27.7775  -20.3151   21.5926 H   0  0  0  0  0  0
  -27.4790  -24.5474   19.0542 H   0  0  0  0  0  0
  -29.1561  -24.7744   19.0182 H   0  0  0  0  0  0
  -27.6494  -22.9152   20.9451 H   0  0  0  0  0  0
  -29.2379  -23.4612   21.3619 H   0  0  0  0  0  0
  -28.8179  -15.7174   21.1150 H   0  0  0  0  0  0
  1 25  1  0  0  0
  1 30  2  0  0  0
  1 79  1  0  0  0
  2  3  1  0  0  0
  2 25  1  0  0  0
  2 83  1  0  0  0
  2 84  1  0  0  0
  3  4  1  0  0  0
  3 85  1  0  0  0
  3 86  1  0  0  0
  4  5  1  0  0  0
  4 87  1  0  0  0
  4 88  1  0  0  0
  5  6  1  0  0  0
  5 26  1  0  0  0
  5 89  1  0  0  0
  6 25  1  0  0  0
  6 90  1  0  0  0
  6 91  1  0  0  0
  7  8  2  0  0  0
  7 26  1  0  0  0
  7 29  1  0  0  0
  8  9  1  0  0  0
  8 22  1  0  0  0
  9 10  1  0  0  0
  9 27  2  0  0  0
 10 11  2  0  0  0
 10 15  1  0  0  0
 11 12  1  0  0  0
 11 92  1  0  0  0
 12 13  2  0  0  0
 12 93  1  0  0  0
 13 14  1  0  0  0
 13 31  1  0  0  0
 14 15  2  0  0  0
 14 94  1  0  0  0
 15 95  1  0  0  0
 16 17  2  0  0  0
 16 21  1  0  0  0
 16 31  1  0  0  0
 17 18  1  0  0  0
 17 96  1  0  0  0
 18 19  2  0  0  0
 18 97  1  0  0  0
 19 20  1  0  0  0
 19 24  1  0  0  0
 20 21  2  0  0  0
 20 98  1  0  0  0
 21 23  1  0  0  0
 22 28  1  0  0  0
 22 32  2  0  0  0
 26 27  1  0  0  0
 28 99  1  0  0  0
 28100  1  0  0  0
 29101  1  0  0  0
 29102  1  0  0  0
 33 34  1  0  0  0
 33 66  1  0  0  0
 33 70  2  0  0  0
 34 36  1  0  0  0
 34 59  1  0  0  0
 34103  1  0  0  0
 35 44  2  0  0  0
 35 45  1  0  0  0
 35 68  1  0  0  0
 36 56  1  0  0  0
 36104  1  0  0  0
 37 39  1  0  0  0
 37 47  1  0  0  0
 37 66  1  0  0  0
 37105  1  0  0  0
 38 43  2  0  0  0
 38 46  1  0  0  0
 38 47  1  0  0  0
 39 64  1  0  0  0
 39 67  2  0  0  0
 40 52  1  0  0  0
 40 53  2  0  0  0
 40 58  1  0  0  0
 41106  1  0  0  0
 41107  1  0  0  0
 41108  1  0  0  0
 41 48  1  0  0  0
 42 43  1  0  0  0
 42 66  1  0  0  0
 42109  1  0  0  0
 42110  1  0  0  0
 43 44  1  0  0  0
 44111  1  0  0  0
 45 46  2  0  0  0
 45112  1  0  0  0
 46113  1  0  0  0
 47114  1  0  0  0
 47115  1  0  0  0
 48 56  1  0  0  0
 48 65  1  0  0  0
 48116  1  0  0  0
 49 50  1  0  0  0
 49 53  1  0  0  0
 49 64  1  0  0  0
 49117  1  0  0  0
 50 51  1  0  0  0
 50118  1  0  0  0
 50119  1  0  0  0
 51 52  1  0  0  0
 51120  1  0  0  0
 51121  1  0  0  0
 52122  1  0  0  0
 52123  1  0  0  0
 53 54  1  0  0  0
 54 55  2  0  0  0
 54124  1  0  0  0
 55 57  1  0  0  0
 55125  1  0  0  0
 56 69  2  0  0  0
 57 58  2  0  0  0
 57126  1  0  0  0
 58127  1  0  0  0
 59 60  1  0  0  0
 59 61  1  0  0  0
 59 62  1  0  0  0
 60128  1  0  0  0
 60129  1  0  0  0
 60130  1  0  0  0
 61131  1  0  0  0
 61132  1  0  0  0
 61133  1  0  0  0
 62134  1  0  0  0
 62135  1  0  0  0
 62136  1  0  0  0
 63 65  1  0  0  0
 63137  1  0  0  0
 63138  1  0  0  0
 63139  1  0  0  0
 64140  1  0  0  0
 65141  1  0  0  0
 68 77  1  0  0  0
 71 73  2  0  0  0
 71 75  1  0  0  0
 71142  1  0  0  0
 72 74  1  0  0  0
 72 76  2  0  0  0
 72143  1  0  0  0
 73 76  1  0  0  0
 73 79  1  0  0  0
 74 75  2  0  0  0
 74 80  1  0  0  0
 75 81  1  0  0  0
 76 82  1  0  0  0
 77 78  1  0  0  0
 77144  1  0  0  0
 77145  1  0  0  0
 78 80  1  0  0  0
 78146  1  0  0  0
 78147  1  0  0  0
 79148  1  0  0  0
M  ISO  4   1 100  68 101  77 101  79 100
M  END
> <chiral flag>
0

> <version>
0

> <s_m_source_file>
/data/baiqing/PycharmProjects/Reinvent-master-3.2/result/LINK_invent/BTK/process_docking_weight1_custom_product_contain_oxygen_bond_distance_aromatic_linkinvent_7_9_3/rearranged_h_0008.sdf

> <i_m_source_file_index>
4

> <r_mmod_Potential_Energy-OPLS-2005>
455.152130126953

> <r_mmod_Stretch_Energy-OPLS-2005>
227.920120239258

> <r_mmod_Bend_Energy-OPLS-2005>
295.857421875

> <r_mmod_Torsional_Energy-OPLS-2005>
212.856811523438

> <r_mmod_Improper_Torsional_Energy-OPLS-2005>
3.46052241325378

> <r_mmod_Van_der_Waal_Energy-OPLS-2005>
130.192138671875

> <r_mmod_Electrostatic_Energy-OPLS-2005>
-386.322631835938

> <r_mmod_Solvation_Energy-OPLS-2005>
-209.379211425781

> <b_mmod_Minimization_Converged-OPLS-2005>
0

> <r_mmod_RMS_Derivative-OPLS-2005>
0.111098766326904

$$$$
4
                    3D
 Structure written by MMmdl.
150158  0  0  1  0            999 V2000
  -30.5004  -15.0290   20.3869 C   0  0  0  0  0  0
  -30.4425  -12.6296   19.5308 C   0  0  0  0  0  0
  -29.5349  -12.5298   18.2808 C   0  0  0  0  0  0
  -28.0659  -12.3157   18.6889 C   0  0  0  0  0  0
  -27.6296  -13.2543   19.8438 C   0  0  2  0  0  0
  -28.6655  -13.3107   20.9877 C   0  0  0  0  0  0
  -25.2458  -13.8226   20.5727 C   0  0  0  0  0  0
  -24.1773  -13.0444   20.9225 C   0  0  0  0  0  0
  -24.6394  -11.6930   20.8749 C   0  0  0  0  0  0
  -23.9079  -10.4296   21.0402 C   0  0  0  0  0  0
  -24.3627   -9.4210   21.9180 C   0  0  0  0  0  0
  -23.6299   -8.2247   22.0752 C   0  0  0  0  0  0
  -22.4280   -8.0284   21.3544 C   0  0  0  0  0  0
  -21.9918   -9.0257   20.4645 C   0  0  0  0  0  0
  -22.7250  -10.2134   20.3053 C   0  0  0  0  0  0
  -21.6856   -6.0736   22.5277 C   0  0  0  0  0  0
  -21.4017   -6.5639   23.8210 C   0  0  0  0  0  0
  -21.3661   -5.6792   24.9172 C   0  0  0  0  0  0
  -21.6044   -4.3054   24.7223 C   0  0  0  0  0  0
  -21.8821   -3.8146   23.4344 C   0  0  0  0  0  0
  -21.9193   -4.6963   22.3401 C   0  0  0  0  0  0
  -22.7792  -13.5210   21.1878 C   0  0  0  0  0  0
  -22.1663   -4.2150   21.0978 F   0  0  0  0  0  0
  -21.5627   -3.4537   25.7736 F   0  0  0  0  0  0
  -29.9401  -13.7427   20.3984 N   0  0  0  0  0  0
  -26.2885  -12.9465   20.3264 N   0  0  0  0  0  0
  -25.9331  -11.6589   20.5746 N   0  0  0  0  0  0
  -22.0446  -12.8194   22.0435 N   0  0  0  0  0  0
  -25.4136  -15.1957   20.4177 N   0  0  0  0  0  0
  -31.6846  -15.0968   20.0354 O   0  0  0  0  0  0
  -21.6645   -6.8880   21.4241 O   0  0  0  0  0  0
  -22.3473  -14.5514   20.6724 O   0  0  0  0  0  0
  -24.6474  -31.8372   23.1819 C   0  0  0  0  0  0
  -25.9224  -32.4656   23.8230 C   0  0  1  0  0  0
  -27.2257  -27.0819   20.1538 C   0  0  0  0  0  0
  -25.5950  -33.8466   24.2145 N   0  0  0  0  0  0
  -23.4545  -30.4523   21.5271 C   0  0  2  0  0  0
  -24.9074  -28.8681   20.1021 C   0  0  0  0  0  0
  -22.7590  -29.4501   22.4827 C   0  0  0  0  0  0
  -18.0308  -28.1400   22.8473 C   0  0  0  0  0  0
  -24.1492  -36.7241   23.2644 C   0  0  0  0  0  0
  -26.0123  -30.6915   21.3901 C   0  0  0  0  0  0
  -26.0816  -29.2980   20.7305 C   0  0  0  0  0  0
  -27.2325  -28.4178   20.7443 C   0  0  0  0  0  0
  -26.0263  -26.7654   19.4777 C   0  0  0  0  0  0
  -24.8959  -27.6183   19.4605 C   0  0  0  0  0  0
  -23.6843  -29.7752   20.1475 C   0  0  0  0  0  0
  -25.4126  -36.3009   24.0309 C   0  0  1  0  0  0
  -20.5923  -28.3726   23.1226 C   0  0  2  0  0  0
  -20.6788  -26.9423   22.5408 C   0  0  0  0  0  0
  -19.5763  -26.6378   21.5215 C   0  0  0  0  0  0
  -18.1944  -26.7937   22.1623 C   0  0  0  0  0  0
  -19.1566  -28.8883   23.2839 C   0  0  0  0  0  0
  -18.9481  -30.1479   23.8865 C   0  0  0  0  0  0
  -17.6476  -30.6593   24.0559 C   0  0  0  0  0  0
  -25.9080  -34.9386   23.5043 C   0  0  0  0  0  0
  -16.5367  -29.9084   23.6339 C   0  0  0  0  0  0
  -16.7292  -28.6505   23.0355 C   0  0  0  0  0  0
  -26.4530  -31.6554   25.0702 C   0  0  0  0  0  0
  -25.3699  -31.3765   26.1388 C   0  0  0  0  0  0
  -27.0412  -30.2942   24.6337 C   0  0  0  0  0  0
  -27.6043  -32.4341   25.7495 C   0  0  0  0  0  0
  -27.5574  -37.1776   24.8464 C   0  0  0  0  0  0
  -21.4276  -29.3038   22.3587 N   0  0  0  0  0  0
  -26.4285  -37.3729   23.9407 N   0  0  0  0  0  0
  -24.7246  -31.0171   22.0878 N   0  0  0  0  0  0
  -23.4209  -28.8060   23.3006 O   0  0  0  0  0  0
  -28.2729  -26.0844   20.3211 O   0  0  0  0  0  0
  -26.5676  -34.8897   22.4629 O   0  0  0  0  0  0
  -23.5582  -32.1276   23.7007 O   0  0  0  0  0  0
  -28.7207  -20.0980   18.6403 C   0  0  0  0  0  0
  -28.6965  -18.8214   18.0374 C   0  0  0  0  0  0
  -29.5350  -19.0023   20.6455 C   0  0  0  0  0  0
  -29.1481  -20.2959   19.9669 C   0  0  0  0  0  0
  -29.5330  -17.6173   20.0424 C   0  0  0  0  0  0
  -29.0851  -17.6292   18.6923 C   0  0  0  0  0  0
  -29.3557  -21.9058   20.4098 C   0  0  0  0  0  0
  -28.3948  -24.7114   19.6118 C   0  0  0  0  0  0
  -29.7447  -16.2151   20.6958 N   0  0  0  0  0  0
  -28.3203  -23.1304   20.4934 N   0  3  0  0  0  0
  -28.9212  -16.1721   17.7776 Cl  0  0  0  0  0  0
  -31.4771  -12.7870   19.2226 H   0  0  0  0  0  0
  -30.4433  -11.6875   20.0814 H   0  0  0  0  0  0
  -29.8665  -11.7142   17.6368 H   0  0  0  0  0  0
  -29.6262  -13.4392   17.6874 H   0  0  0  0  0  0
  -27.9639  -11.2764   19.0034 H   0  0  0  0  0  0
  -27.4091  -12.4397   17.8271 H   0  0  0  0  0  0
  -27.5834  -14.2507   19.4065 H   0  0  0  0  0  0
  -28.7642  -12.3413   21.4783 H   0  0  0  0  0  0
  -28.3460  -14.0141   21.7578 H   0  0  0  0  0  0
  -25.2772   -9.5686   22.4756 H   0  0  0  0  0  0
  -24.0007   -7.4638   22.7472 H   0  0  0  0  0  0
  -21.0848   -8.8776   19.8951 H   0  0  0  0  0  0
  -22.3708  -10.9671   19.6162 H   0  0  0  0  0  0
  -21.2014   -7.6147   23.9714 H   0  0  0  0  0  0
  -21.1481   -6.0522   25.9075 H   0  0  0  0  0  0
  -22.0599   -2.7607   23.2844 H   0  0  0  0  0  0
  -22.4075  -11.9864   22.4828 H   0  0  0  0  0  0
  -21.1057  -13.1201   22.2638 H   0  0  0  0  0  0
  -24.6436  -15.8466   20.5259 H   0  0  0  0  0  0
  -26.2569  -15.6335   20.0704 H   0  0  0  0  0  0
  -26.7286  -32.5241   23.0949 H   0  0  0  0  0  0
  -25.0062  -33.9566   25.0269 H   0  0  0  0  0  0
  -22.7598  -31.2793   21.3671 H   0  0  0  0  0  0
  -23.3760  -35.9566   23.3286 H   0  0  0  0  0  0
  -24.3573  -36.8900   22.2062 H   0  0  0  0  0  0
  -23.7243  -37.6427   23.6702 H   0  0  0  0  0  0
  -26.1762  -31.4434   20.6170 H   0  0  0  0  0  0
  -26.8793  -30.7421   22.0371 H   0  0  0  0  0  0
  -28.1190  -28.7353   21.2753 H   0  0  0  0  0  0
  -25.9105  -25.8030   19.0044 H   0  0  0  0  0  0
  -23.9975  -27.2826   18.9608 H   0  0  0  0  0  0
  -23.8219  -30.5474   19.3898 H   0  0  0  0  0  0
  -22.7989  -29.2174   19.8375 H   0  0  0  0  0  0
  -25.1318  -36.1825   25.0801 H   0  0  0  0  0  0
  -21.0012  -28.3325   24.1348 H   0  0  0  0  0  0
  -20.5675  -26.2340   23.3633 H   0  0  0  0  0  0
  -21.6653  -26.7418   22.1210 H   0  0  0  0  0  0
  -19.6921  -25.6279   21.1265 H   0  0  0  0  0  0
  -19.6704  -27.3172   20.6733 H   0  0  0  0  0  0
  -17.4213  -26.6682   21.4027 H   0  0  0  0  0  0
  -18.0340  -26.0089   22.9028 H   0  0  0  0  0  0
  -19.7957  -30.7307   24.2217 H   0  0  0  0  0  0
  -17.5028  -31.6270   24.5168 H   0  0  0  0  0  0
  -15.5367  -30.2974   23.7683 H   0  0  0  0  0  0
  -15.8693  -28.0815   22.7084 H   0  0  0  0  0  0
  -24.5885  -30.7106   25.7710 H   0  0  0  0  0  0
  -24.8881  -32.2956   26.4735 H   0  0  0  0  0  0
  -25.7966  -30.8990   27.0217 H   0  0  0  0  0  0
  -26.3048  -29.6642   24.1334 H   0  0  0  0  0  0
  -27.3990  -29.7269   25.4940 H   0  0  0  0  0  0
  -27.8968  -30.4163   23.9692 H   0  0  0  0  0  0
  -27.2620  -33.3665   26.1996 H   0  0  0  0  0  0
  -28.3893  -32.6865   25.0354 H   0  0  0  0  0  0
  -28.0669  -31.8521   26.5477 H   0  0  0  0  0  0
  -28.2576  -38.0085   24.7512 H   0  0  0  0  0  0
  -28.1086  -36.2613   24.6291 H   0  0  0  0  0  0
  -27.2290  -37.1419   25.8865 H   0  0  0  0  0  0
  -20.9499  -29.8740   21.6748 H   0  0  0  0  0  0
  -26.0146  -38.2794   24.1412 H   0  0  0  0  0  0
  -28.4408  -20.9524   18.0393 H   0  0  0  0  0  0
  -28.3621  -18.7520   17.0120 H   0  0  0  0  0  0
  -29.8735  -19.0790   21.6691 H   0  0  0  0  0  0
  -30.1675  -22.2696   19.7803 H   0  0  0  0  0  0
  -29.8018  -21.8616   21.4029 H   0  0  0  0  0  0
  -27.7134  -24.6477   18.7656 H   0  0  0  0  0  0
  -29.3908  -24.7260   19.1696 H   0  0  0  0  0  0
  -28.9498  -15.9643   21.2644 H   0  0  0  0  0  0
  -28.3135  -23.3478   21.4743 H   0  0  0  0  0  0
  -27.4160  -22.7243   20.3285 H   0  0  0  0  0  0
  1 25  1  0  0  0
  1 30  2  0  0  0
  1 79  1  0  0  0
  2  3  1  0  0  0
  2 25  1  0  0  0
  2 82  1  0  0  0
  2 83  1  0  0  0
  3  4  1  0  0  0
  3 84  1  0  0  0
  3 85  1  0  0  0
  4  5  1  0  0  0
  4 86  1  0  0  0
  4 87  1  0  0  0
  5  6  1  0  0  0
  5 26  1  0  0  0
  5 88  1  0  0  0
  6 25  1  0  0  0
  6 89  1  0  0  0
  6 90  1  0  0  0
  7  8  2  0  0  0
  7 26  1  0  0  0
  7 29  1  0  0  0
  8  9  1  0  0  0
  8 22  1  0  0  0
  9 10  1  0  0  0
  9 27  2  0  0  0
 10 11  2  0  0  0
 10 15  1  0  0  0
 11 12  1  0  0  0
 11 91  1  0  0  0
 12 13  2  0  0  0
 12 92  1  0  0  0
 13 14  1  0  0  0
 13 31  1  0  0  0
 14 15  2  0  0  0
 14 93  1  0  0  0
 15 94  1  0  0  0
 16 17  2  0  0  0
 16 21  1  0  0  0
 16 31  1  0  0  0
 17 18  1  0  0  0
 17 95  1  0  0  0
 18 19  2  0  0  0
 18 96  1  0  0  0
 19 20  1  0  0  0
 19 24  1  0  0  0
 20 21  2  0  0  0
 20 97  1  0  0  0
 21 23  1  0  0  0
 22 28  1  0  0  0
 22 32  2  0  0  0
 26 27  1  0  0  0
 28 98  1  0  0  0
 28 99  1  0  0  0
 29100  1  0  0  0
 29101  1  0  0  0
 33 34  1  0  0  0
 33 66  1  0  0  0
 33 70  2  0  0  0
 34 36  1  0  0  0
 34 59  1  0  0  0
 34102  1  0  0  0
 35 44  2  0  0  0
 35 45  1  0  0  0
 35 68  1  0  0  0
 36 56  1  0  0  0
 36103  1  0  0  0
 37 39  1  0  0  0
 37 47  1  0  0  0
 37 66  1  0  0  0
 37104  1  0  0  0
 38 43  2  0  0  0
 38 46  1  0  0  0
 38 47  1  0  0  0
 39 64  1  0  0  0
 39 67  2  0  0  0
 40 52  1  0  0  0
 40 53  2  0  0  0
 40 58  1  0  0  0
 41105  1  0  0  0
 41106  1  0  0  0
 41107  1  0  0  0
 41 48  1  0  0  0
 42 43  1  0  0  0
 42 66  1  0  0  0
 42108  1  0  0  0
 42109  1  0  0  0
 43 44  1  0  0  0
 44110  1  0  0  0
 45 46  2  0  0  0
 45111  1  0  0  0
 46112  1  0  0  0
 47113  1  0  0  0
 47114  1  0  0  0
 48 56  1  0  0  0
 48 65  1  0  0  0
 48115  1  0  0  0
 49 50  1  0  0  0
 49 53  1  0  0  0
 49 64  1  0  0  0
 49116  1  0  0  0
 50 51  1  0  0  0
 50117  1  0  0  0
 50118  1  0  0  0
 51 52  1  0  0  0
 51119  1  0  0  0
 51120  1  0  0  0
 52121  1  0  0  0
 52122  1  0  0  0
 53 54  1  0  0  0
 54 55  2  0  0  0
 54123  1  0  0  0
 55 57  1  0  0  0
 55124  1  0  0  0
 56 69  2  0  0  0
 57 58  2  0  0  0
 57125  1  0  0  0
 58126  1  0  0  0
 59 60  1  0  0  0
 59 61  1  0  0  0
 59 62  1  0  0  0
 60127  1  0  0  0
 60128  1  0  0  0
 60129  1  0  0  0
 61130  1  0  0  0
 61131  1  0  0  0
 61132  1  0  0  0
 62133  1  0  0  0
 62134  1  0  0  0
 62135  1  0  0  0
 63 65  1  0  0  0
 63136  1  0  0  0
 63137  1  0  0  0
 63138  1  0  0  0
 64139  1  0  0  0
 65140  1  0  0  0
 68 78  1  0  0  0
 71 72  2  0  0  0
 71 74  1  0  0  0
 71141  1  0  0  0
 72 76  1  0  0  0
 72142  1  0  0  0
 73 74  2  0  0  0
 73 75  1  0  0  0
 73143  1  0  0  0
 74 77  1  0  0  0
 75 76  2  0  0  0
 75 79  1  0  0  0
 76 81  1  0  0  0
 77 80  1  0  0  0
 77144  1  0  0  0
 77145  1  0  0  0
 78 80  1  0  0  0
 78146  1  0  0  0
 78147  1  0  0  0
 79148  1  0  0  0
 80149  1  0  0  0
 80150  1  0  0  0
M  CHG  1  80   1
M  ISO  4   1 100  68 101  78 101  79 100
M  END
> <chiral flag>
0

> <version>
0

> <s_m_source_file>
/data/baiqing/PycharmProjects/Reinvent-master-3.2/result/LINK_invent/BTK/process_docking_weight1_custom_product_contain_oxygen_bond_distance_aromatic_linkinvent_7_9_3/rearranged_h_0008.sdf

> <i_m_source_file_index>
5

> <r_mmod_Potential_Energy-OPLS-2005>
454.934448242188

> <r_mmod_Stretch_Energy-OPLS-2005>
338.192260742188

> <r_mmod_Bend_Energy-OPLS-2005>
333.066864013672

> <r_mmod_Torsional_Energy-OPLS-2005>
261.729736328125

> <r_mmod_Improper_Torsional_Energy-OPLS-2005>
6.3314414024353

> <r_mmod_Van_der_Waal_Energy-OPLS-2005>
124.686164855957

> <r_mmod_Electrostatic_Energy-OPLS-2005>
-338.610870361328

> <r_mmod_Solvation_Energy-OPLS-2005>
-522.558898925781

> <b_mmod_Minimization_Converged-OPLS-2005>
0

> <r_mmod_RMS_Derivative-OPLS-2005>
0.333284169435501

$$$$
5
                    3D
 Structure written by MMmdl.
156164  0  0  1  0            999 V2000
  -30.6805  -14.4637   20.4635 C   0  0  0  0  0  0
  -30.4181  -12.2713   19.4174 C   0  0  0  0  0  0
  -29.4912  -12.4690   18.1989 C   0  0  0  0  0  0
  -28.0091  -12.3537   18.6102 C   0  0  0  0  0  0
  -27.6580  -13.2005   19.8647 C   0  0  2  0  0  0
  -28.7074  -12.9948   20.9856 C   0  0  0  0  0  0
  -25.2589  -13.8135   20.5657 C   0  0  0  0  0  0
  -24.1839  -13.0428   20.9206 C   0  0  0  0  0  0
  -24.6380  -11.6895   20.8755 C   0  0  0  0  0  0
  -23.9017  -10.4286   21.0413 C   0  0  0  0  0  0
  -24.3572   -9.4204   21.9185 C   0  0  0  0  0  0
  -23.6266   -8.2230   22.0751 C   0  0  0  0  0  0
  -22.4243   -8.0267   21.3551 C   0  0  0  0  0  0
  -21.9873   -9.0228   20.4640 C   0  0  0  0  0  0
  -22.7193  -10.2119   20.3060 C   0  0  0  0  0  0
  -21.6848   -6.0711   22.5277 C   0  0  0  0  0  0
  -21.4007   -6.5621   23.8203 C   0  0  0  0  0  0
  -21.3669   -5.6789   24.9162 C   0  0  0  0  0  0
  -21.6041   -4.3050   24.7228 C   0  0  0  0  0  0
  -21.8820   -3.8128   23.4351 C   0  0  0  0  0  0
  -21.9183   -4.6936   22.3394 C   0  0  0  0  0  0
  -22.7868  -13.5256   21.1844 C   0  0  0  0  0  0
  -22.1660   -4.2126   21.0980 F   0  0  0  0  0  0
  -21.5620   -3.4538   25.7737 F   0  0  0  0  0  0
  -30.0351  -13.2728   20.4212 N   0  0  0  0  0  0
  -26.3011  -12.9285   20.3349 N   0  0  0  0  0  0
  -25.9308  -11.6461   20.5799 N   0  0  0  0  0  0
  -22.0476  -12.8269   22.0387 N   0  0  0  0  0  0
  -25.4323  -15.1837   20.3987 N   0  0  0  0  0  0
  -31.8547  -14.6069   20.1169 O   0  0  0  0  0  0
  -21.6631   -6.8852   21.4239 O   0  0  0  0  0  0
  -22.3569  -14.5560   20.6680 O   0  0  0  0  0  0
  -24.6097  -31.8687   23.2145 C   0  0  0  0  0  0
  -25.9007  -32.4824   23.8421 C   0  0  1  0  0  0
  -27.2407  -27.4515   20.0845 C   0  0  0  0  0  0
  -25.5879  -33.8626   24.2342 N   0  0  0  0  0  0
  -23.3968  -30.4882   21.5568 C   0  0  2  0  0  0
  -24.8430  -28.9589   20.1170 C   0  0  0  0  0  0
  -22.7409  -29.4606   22.5041 C   0  0  0  0  0  0
  -18.0291  -28.1325   22.8545 C   0  0  0  0  0  0
  -24.1478  -36.7323   23.2642 C   0  0  0  0  0  0
  -25.9227  -30.8375   21.3653 C   0  0  0  0  0  0
  -25.9997  -29.4712   20.7139 C   0  0  0  0  0  0
  -27.1955  -28.7220   20.6993 C   0  0  0  0  0  0
  -26.0624  -26.9483   19.4837 C   0  0  0  0  0  0
  -24.8689  -27.6953   19.4988 C   0  0  0  0  0  0
  -23.6052  -29.8246   20.1695 C   0  0  0  0  0  0
  -25.4102  -36.3121   24.0340 C   0  0  1  0  0  0
  -20.5881  -28.3559   23.1342 C   0  0  2  0  0  0
  -20.6767  -26.9294   22.5439 C   0  0  0  0  0  0
  -19.5734  -26.6289   21.5269 C   0  0  0  0  0  0
  -18.1921  -26.7866   22.1686 C   0  0  0  0  0  0
  -19.1561  -28.8775   23.2916 C   0  0  0  0  0  0
  -18.9534  -30.1444   23.8824 C   0  0  0  0  0  0
  -17.6548  -30.6617   24.0510 C   0  0  0  0  0  0
  -25.9025  -34.9485   23.5142 C   0  0  0  0  0  0
  -16.5421  -29.9080   23.6389 C   0  0  0  0  0  0
  -16.7290  -28.6471   23.0456 C   0  0  0  0  0  0
  -26.4460  -31.6588   25.0731 C   0  0  0  0  0  0
  -25.3742  -31.3689   26.1489 C   0  0  0  0  0  0
  -27.0284  -30.3042   24.6068 C   0  0  0  0  0  0
  -27.6033  -32.4311   25.7488 C   0  0  0  0  0  0
  -27.5575  -37.1810   24.8468 C   0  0  0  0  0  0
  -21.4150  -29.2932   22.3773 N   0  0  0  0  0  0
  -26.4293  -37.3796   23.9411 N   0  0  0  0  0  0
  -24.6611  -31.0793   22.1043 N   0  0  0  0  0  0
  -23.4194  -28.8185   23.3093 O   0  0  0  0  0  0
  -28.4456  -26.7770   20.0962 O   0  0  0  0  0  0
  -26.5577  -34.8914   22.4699 O   0  0  0  0  0  0
  -23.5302  -32.1454   23.7557 O   0  0  0  0  0  0
  -27.7246  -19.7418   19.7859 C   0  0  0  0  0  0
  -28.2673  -18.4698   19.4984 C   0  0  0  0  0  0
  -29.4260  -20.0763   21.4904 C   0  0  0  0  0  0
  -28.3198  -20.5651   20.7639 C   0  0  0  0  0  0
  -29.4126  -18.0063   20.1860 C   0  0  0  0  0  0
  -29.9706  -18.8063   21.2113 C   0  0  0  0  0  0
  -30.1084  -16.7284   19.7338 C   0  0  0  0  0  0
  -27.7633  -21.9584   21.0475 C   0  0  0  0  0  0
  -28.0246  -24.3945   20.5891 C   0  0  0  0  0  0
  -28.5556  -25.4448   19.5879 C   0  0  0  0  0  0
  -29.8600  -15.5263   20.5374 N   0  0  0  0  0  0
  -28.4234  -23.0039   20.2359 N   0  3  0  0  0  0
  -31.3441  -18.2722   22.1145 Cl  0  0  0  0  0  0
  -31.4622  -12.3547   19.1117 H   0  0  0  0  0  0
  -30.3110  -11.2660   19.8286 H   0  0  0  0  0  0
  -29.7249  -11.7261   17.4350 H   0  0  0  0  0  0
  -29.6747  -13.4422   17.7398 H   0  0  0  0  0  0
  -27.8094  -11.2988   18.8094 H   0  0  0  0  0  0
  -27.3658  -12.6356   17.7746 H   0  0  0  0  0  0
  -27.6906  -14.2430   19.5511 H   0  0  0  0  0  0
  -28.6772  -11.9649   21.3417 H   0  0  0  0  0  0
  -28.4997  -13.6270   21.8514 H   0  0  0  0  0  0
  -25.2715   -9.5679   22.4762 H   0  0  0  0  0  0
  -23.9973   -7.4619   22.7471 H   0  0  0  0  0  0
  -21.0803   -8.8734   19.8943 H   0  0  0  0  0  0
  -22.3646  -10.9646   19.6160 H   0  0  0  0  0  0
  -21.2008   -7.6138   23.9709 H   0  0  0  0  0  0
  -21.1502   -6.0513   25.9074 H   0  0  0  0  0  0
  -22.0595   -2.7601   23.2858 H   0  0  0  0  0  0
  -22.4081  -11.9935   22.4789 H   0  0  0  0  0  0
  -21.1091  -13.1315   22.2579 H   0  0  0  0  0  0
  -24.6596  -15.8358   20.4754 H   0  0  0  0  0  0
  -26.2738  -15.6120   20.0390 H   0  0  0  0  0  0
  -26.7090  -32.5547   23.1195 H   0  0  0  0  0  0
  -25.0065  -33.9804   25.0507 H   0  0  0  0  0  0
  -22.6817  -31.3019   21.4250 H   0  0  0  0  0  0
  -23.3731  -35.9664   23.3316 H   0  0  0  0  0  0
  -24.3590  -36.8920   22.2058 H   0  0  0  0  0  0
  -23.7231  -37.6530   23.6649 H   0  0  0  0  0  0
  -26.0225  -31.6010   20.5934 H   0  0  0  0  0  0
  -26.8168  -30.9003   21.9752 H   0  0  0  0  0  0
  -28.0933  -29.1190   21.1540 H   0  0  0  0  0  0
  -26.0368  -25.9913   18.9866 H   0  0  0  0  0  0
  -23.9807  -27.3000   19.0262 H   0  0  0  0  0  0
  -23.7133  -30.6044   19.4144 H   0  0  0  0  0  0
  -22.7288  -29.2460   19.8727 H   0  0  0  0  0  0
  -25.1271  -36.1994   25.0832 H   0  0  0  0  0  0
  -20.9957  -28.3035   24.1461 H   0  0  0  0  0  0
  -20.5668  -26.2178   23.3653 H   0  0  0  0  0  0
  -21.6611  -26.7311   22.1161 H   0  0  0  0  0  0
  -19.6694  -27.3114   20.6828 H   0  0  0  0  0  0
  -19.6935  -25.6211   21.1284 H   0  0  0  0  0  0
  -17.4183  -26.6637   21.4102 H   0  0  0  0  0  0
  -18.0298  -26.0049   22.9116 H   0  0  0  0  0  0
  -19.8062  -30.7242   24.2111 H   0  0  0  0  0  0
  -17.5179  -31.6353   24.5012 H   0  0  0  0  0  0
  -15.5437  -30.2992   23.7787 H   0  0  0  0  0  0
  -15.8666  -28.0753   22.7273 H   0  0  0  0  0  0
  -24.5916  -30.7021   25.7853 H   0  0  0  0  0  0
  -24.8918  -32.2832   26.4951 H   0  0  0  0  0  0
  -25.8108  -30.8869   27.0239 H   0  0  0  0  0  0
  -26.2813  -29.6806   24.1145 H   0  0  0  0  0  0
  -27.4103  -29.7270   25.4495 H   0  0  0  0  0  0
  -27.8622  -30.4383   23.9175 H   0  0  0  0  0  0
  -27.2652  -33.3611   26.2080 H   0  0  0  0  0  0
  -28.3834  -32.6866   25.0303 H   0  0  0  0  0  0
  -28.0706  -31.8421   26.5388 H   0  0  0  0  0  0
  -28.2594  -38.0102   24.7500 H   0  0  0  0  0  0
  -28.1058  -36.2629   24.6303 H   0  0  0  0  0  0
  -27.2296  -37.1476   25.8871 H   0  0  0  0  0  0
  -20.9337  -29.8521   21.6876 H   0  0  0  0  0  0
  -26.0181  -38.2873   24.1405 H   0  0  0  0  0  0
  -26.8582  -20.0889   19.2392 H   0  0  0  0  0  0
  -27.8207  -17.8717   18.7162 H   0  0  0  0  0  0
  -29.8813  -20.6761   22.2656 H   0  0  0  0  0  0
  -31.1768  -16.9454   19.6779 H   0  0  0  0  0  0
  -29.8127  -16.5092   18.7054 H   0  0  0  0  0  0
  -27.8835  -22.1876   22.1078 H   0  0  0  0  0  0
  -26.6920  -21.9734   20.8423 H   0  0  0  0  0  0
  -26.9372  -24.4611   20.6571 H   0  0  0  0  0  0
  -28.4109  -24.6178   21.5849 H   0  0  0  0  0  0
  -28.0951  -25.3454   18.6050 H   0  0  0  0  0  0
  -29.6205  -25.2740   19.4295 H   0  0  0  0  0  0
  -28.9104  -15.3567   20.8245 H   0  0  0  0  0  0
  -28.2140  -22.8216   19.2665 H   0  0  0  0  0  0
  -29.4208  -22.8997   20.3473 H   0  0  0  0  0  0
  1 25  1  0  0  0
  1 30  2  0  0  0
  1 81  1  0  0  0
  2  3  1  0  0  0
  2 25  1  0  0  0
  2 84  1  0  0  0
  2 85  1  0  0  0
  3  4  1  0  0  0
  3 86  1  0  0  0
  3 87  1  0  0  0
  4  5  1  0  0  0
  4 88  1  0  0  0
  4 89  1  0  0  0
  5  6  1  0  0  0
  5 26  1  0  0  0
  5 90  1  0  0  0
  6 25  1  0  0  0
  6 91  1  0  0  0
  6 92  1  0  0  0
  7  8  2  0  0  0
  7 26  1  0  0  0
  7 29  1  0  0  0
  8  9  1  0  0  0
  8 22  1  0  0  0
  9 10  1  0  0  0
  9 27  2  0  0  0
 10 11  2  0  0  0
 10 15  1  0  0  0
 11 12  1  0  0  0
 11 93  1  0  0  0
 12 13  2  0  0  0
 12 94  1  0  0  0
 13 14  1  0  0  0
 13 31  1  0  0  0
 14 15  2  0  0  0
 14 95  1  0  0  0
 15 96  1  0  0  0
 16 17  2  0  0  0
 16 21  1  0  0  0
 16 31  1  0  0  0
 17 18  1  0  0  0
 17 97  1  0  0  0
 18 19  2  0  0  0
 18 98  1  0  0  0
 19 20  1  0  0  0
 19 24  1  0  0  0
 20 21  2  0  0  0
 20 99  1  0  0  0
 21 23  1  0  0  0
 22 28  1  0  0  0
 22 32  2  0  0  0
 26 27  1  0  0  0
 28100  1  0  0  0
 28101  1  0  0  0
 29102  1  0  0  0
 29103  1  0  0  0
 33 34  1  0  0  0
 33 66  1  0  0  0
 33 70  2  0  0  0
 34 36  1  0  0  0
 34 59  1  0  0  0
 34104  1  0  0  0
 35 44  2  0  0  0
 35 45  1  0  0  0
 35 68  1  0  0  0
 36 56  1  0  0  0
 36105  1  0  0  0
 37 39  1  0  0  0
 37 47  1  0  0  0
 37 66  1  0  0  0
 37106  1  0  0  0
 38 43  2  0  0  0
 38 46  1  0  0  0
 38 47  1  0  0  0
 39 64  1  0  0  0
 39 67  2  0  0  0
 40 52  1  0  0  0
 40 53  2  0  0  0
 40 58  1  0  0  0
 41107  1  0  0  0
 41108  1  0  0  0
 41109  1  0  0  0
 41 48  1  0  0  0
 42 43  1  0  0  0
 42 66  1  0  0  0
 42110  1  0  0  0
 42111  1  0  0  0
 43 44  1  0  0  0
 44112  1  0  0  0
 45 46  2  0  0  0
 45113  1  0  0  0
 46114  1  0  0  0
 47115  1  0  0  0
 47116  1  0  0  0
 48 56  1  0  0  0
 48 65  1  0  0  0
 48117  1  0  0  0
 49 50  1  0  0  0
 49 53  1  0  0  0
 49 64  1  0  0  0
 49118  1  0  0  0
 50 51  1  0  0  0
 50119  1  0  0  0
 50120  1  0  0  0
 51 52  1  0  0  0
 51121  1  0  0  0
 51122  1  0  0  0
 52123  1  0  0  0
 52124  1  0  0  0
 53 54  1  0  0  0
 54 55  2  0  0  0
 54125  1  0  0  0
 55 57  1  0  0  0
 55126  1  0  0  0
 56 69  2  0  0  0
 57 58  2  0  0  0
 57127  1  0  0  0
 58128  1  0  0  0
 59 60  1  0  0  0
 59 61  1  0  0  0
 59 62  1  0  0  0
 60129  1  0  0  0
 60130  1  0  0  0
 60131  1  0  0  0
 61132  1  0  0  0
 61133  1  0  0  0
 61134  1  0  0  0
 62135  1  0  0  0
 62136  1  0  0  0
 62137  1  0  0  0
 63 65  1  0  0  0
 63138  1  0  0  0
 63139  1  0  0  0
 63140  1  0  0  0
 64141  1  0  0  0
 65142  1  0  0  0
 68 80  1  0  0  0
 71 72  2  0  0  0
 71 74  1  0  0  0
 71143  1  0  0  0
 72 75  1  0  0  0
 72144  1  0  0  0
 73 74  2  0  0  0
 73 76  1  0  0  0
 73145  1  0  0  0
 74 78  1  0  0  0
 75 76  2  0  0  0
 75 77  1  0  0  0
 76 83  1  0  0  0
 77 81  1  0  0  0
 77146  1  0  0  0
 77147  1  0  0  0
 78 82  1  0  0  0
 78148  1  0  0  0
 78149  1  0  0  0
 79 80  1  0  0  0
 79 82  1  0  0  0
 79150  1  0  0  0
 79151  1  0  0  0
 80152  1  0  0  0
 80153  1  0  0  0
 81154  1  0  0  0
 82155  1  0  0  0
 82156  1  0  0  0
M  CHG  1  82   1
M  ISO  4   1 100  68 101  80 101  81 100
M  END
> <chiral flag>
0

> <version>
0

> <s_m_source_file>
/data/baiqing/PycharmProjects/Reinvent-master-3.2/result/LINK_invent/BTK/process_docking_weight1_custom_product_contain_oxygen_bond_distance_aromatic_linkinvent_7_9_3/rearranged_h_0008.sdf

> <i_m_source_file_index>
6

> <r_mmod_Potential_Energy-OPLS-2005>
-257.629669189453

> <r_mmod_Stretch_Energy-OPLS-2005>
33.175537109375

> <r_mmod_Bend_Energy-OPLS-2005>
94.9782257080078

> <r_mmod_Torsional_Energy-OPLS-2005>
205.663009643555

> <r_mmod_Improper_Torsional_Energy-OPLS-2005>
12.4747438430786

> <r_mmod_Van_der_Waal_Energy-OPLS-2005>
148.742126464844

> <r_mmod_Electrostatic_Energy-OPLS-2005>
-296.524047851562

> <r_mmod_Solvation_Energy-OPLS-2005>
-472.645599365234

> <b_mmod_Minimization_Converged-OPLS-2005>
0

> <r_mmod_RMS_Derivative-OPLS-2005>
4.29200172424316

$$$$
6
                    3D
 Structure written by MMmdl.
152161  0  0  1  0            999 V2000
  -30.6689  -14.8424   20.4666 C   0  0  0  0  0  0
  -30.4252  -12.5409   19.4747 C   0  0  0  0  0  0
  -29.4978  -12.5171   18.2416 C   0  0  0  0  0  0
  -28.0361  -12.3024   18.6725 C   0  0  0  0  0  0
  -27.6302  -13.2242   19.8512 C   0  0  2  0  0  0
  -28.6943  -13.2113   20.9795 C   0  0  0  0  0  0
  -25.2291  -13.8053   20.5549 C   0  0  0  0  0  0
  -24.1664  -13.0301   20.9170 C   0  0  0  0  0  0
  -24.6357  -11.6827   20.8820 C   0  0  0  0  0  0
  -23.9067  -10.4214   21.0461 C   0  0  0  0  0  0
  -24.3610   -9.4131   21.9239 C   0  0  0  0  0  0
  -23.6275   -8.2175   22.0773 C   0  0  0  0  0  0
  -22.4268   -8.0241   21.3540 C   0  0  0  0  0  0
  -21.9912   -9.0223   20.4651 C   0  0  0  0  0  0
  -22.7253  -10.2089   20.3086 C   0  0  0  0  0  0
  -21.6836   -6.0716   22.5277 C   0  0  0  0  0  0
  -21.4004   -6.5627   23.8209 C   0  0  0  0  0  0
  -21.3650   -5.6783   24.9174 C   0  0  0  0  0  0
  -21.6047   -4.3048   24.7232 C   0  0  0  0  0  0
  -21.8820   -3.8134   23.4355 C   0  0  0  0  0  0
  -21.9183   -4.6945   22.3402 C   0  0  0  0  0  0
  -22.7704  -13.5102   21.1857 C   0  0  0  0  0  0
  -22.1656   -4.2128   21.0980 F   0  0  0  0  0  0
  -21.5630   -3.4536   25.7747 F   0  0  0  0  0  0
  -29.9611  -13.6425   20.3686 N   0  0  0  0  0  0
  -26.2861  -12.9338   20.3385 N   0  0  0  0  0  0
  -25.9313  -11.6488   20.5931 N   0  0  0  0  0  0
  -22.0385  -12.8121   22.0459 N   0  0  0  0  0  0
  -25.3654  -15.1729   20.3703 N   0  0  0  0  0  0
  -31.8740  -14.7756   20.2061 O   0  0  0  0  0  0
  -21.6615   -6.8854   21.4240 O   0  0  0  0  0  0
  -22.3387  -14.5426   20.6738 O   0  0  0  0  0  0
  -24.6319  -31.8528   23.1951 C   0  0  0  0  0  0
  -25.9132  -32.4747   23.8317 C   0  0  1  0  0  0
  -27.2364  -27.2502   20.1514 C   0  0  0  0  0  0
  -25.5920  -33.8549   24.2252 N   0  0  0  0  0  0
  -23.4312  -30.4700   21.5383 C   0  0  2  0  0  0
  -24.8834  -28.9035   20.1204 C   0  0  0  0  0  0
  -22.7506  -29.4582   22.4915 C   0  0  0  0  0  0
  -18.0287  -28.1382   22.8474 C   0  0  0  0  0  0
  -24.1483  -36.7272   23.2640 C   0  0  0  0  0  0
  -25.9757  -30.7642   21.3738 C   0  0  0  0  0  0
  -26.0534  -29.3812   20.7247 C   0  0  0  0  0  0
  -27.2348  -28.5705   20.7189 C   0  0  0  0  0  0
  -26.0427  -26.8298   19.5321 C   0  0  0  0  0  0
  -24.8834  -27.6362   19.5118 C   0  0  0  0  0  0
  -23.6533  -29.7925   20.1591 C   0  0  0  0  0  0
  -25.4108  -36.3068   24.0334 C   0  0  1  0  0  0
  -20.5891  -28.3698   23.1269 C   0  0  2  0  0  0
  -20.6774  -26.9411   22.5412 C   0  0  0  0  0  0
  -19.5755  -26.6382   21.5207 C   0  0  0  0  0  0
  -18.1932  -26.7925   22.1614 C   0  0  0  0  0  0
  -19.1541  -28.8857   23.2863 C   0  0  0  0  0  0
  -18.9465  -30.1453   23.8889 C   0  0  0  0  0  0
  -17.6466  -30.6583   24.0557 C   0  0  0  0  0  0
  -25.9056  -34.9437   23.5103 C   0  0  0  0  0  0
  -16.5355  -29.9080   23.6330 C   0  0  0  0  0  0
  -16.7277  -28.6499   23.0350 C   0  0  0  0  0  0
  -26.4502  -31.6573   25.0709 C   0  0  0  0  0  0
  -25.3719  -31.3712   26.1430 C   0  0  0  0  0  0
  -27.0356  -30.2998   24.6181 C   0  0  0  0  0  0
  -27.6060  -32.4312   25.7477 C   0  0  0  0  0  0
  -27.5586  -37.1776   24.8453 C   0  0  0  0  0  0
  -21.4212  -29.3040   22.3660 N   0  0  0  0  0  0
  -26.4279  -37.3774   23.9433 N   0  0  0  0  0  0
  -24.6987  -31.0480   22.0926 N   0  0  0  0  0  0
  -23.4193  -28.8137   23.3035 O   0  0  0  0  0  0
  -28.3568  -26.3873   20.1237 O   0  0  0  0  0  0
  -26.5630  -34.8916   22.4673 O   0  0  0  0  0  0
  -23.5463  -32.1352   23.7240 O   0  0  0  0  0  0
  -27.7033  -19.0241   20.6681 C   0  0  0  0  0  0
  -27.8937  -20.4415   20.5793 C   0  0  0  0  0  0
  -28.8171  -18.1459   20.6501 C   0  0  0  0  0  0
  -30.0774  -18.6594   20.5225 C   0  0  0  0  0  0
  -29.1875  -21.0362   20.5085 C   0  0  0  0  0  0
  -30.2959  -20.0901   20.4736 C   0  0  0  0  0  0
  -28.8618  -16.6351   20.7780 C   0  0  0  0  0  0
  -30.9968  -17.4087   20.4839 C   0  0  0  0  0  0
  -28.5471  -23.6066   19.9399 C   0  0  0  0  0  0
  -28.3198  -25.0128   20.7459 C   0  0  0  0  0  0
  -30.1330  -16.1525   20.5989 N   0  0  0  0  0  0
  -29.3775  -22.4829   20.5601 N   0  0  0  0  0  0
  -27.8424  -16.0162   21.0486 O   0  0  0  0  0  0
  -31.5643  -20.5624   20.4118 F   0  0  0  0  0  0
  -31.4566  -12.6658   19.1425 H   0  0  0  0  0  0
  -30.4064  -11.5818   19.9951 H   0  0  0  0  0  0
  -29.8041  -11.7332   17.5479 H   0  0  0  0  0  0
  -29.5868  -13.4599   17.7005 H   0  0  0  0  0  0
  -27.9310  -11.2578   18.9683 H   0  0  0  0  0  0
  -27.3646  -12.4495   17.8266 H   0  0  0  0  0  0
  -27.5962  -14.2195   19.4130 H   0  0  0  0  0  0
  -28.7864  -12.2087   21.3995 H   0  0  0  0  0  0
  -28.4226  -13.8377   21.8271 H   0  0  0  0  0  0
  -25.2743   -9.5584   22.4843 H   0  0  0  0  0  0
  -23.9952   -7.4550   22.7494 H   0  0  0  0  0  0
  -21.0840   -8.8767   19.8955 H   0  0  0  0  0  0
  -22.3742  -10.9644   19.6201 H   0  0  0  0  0  0
  -21.2007   -7.6138   23.9708 H   0  0  0  0  0  0
  -21.1474   -6.0519   25.9073 H   0  0  0  0  0  0
  -22.0617   -2.7597   23.2868 H   0  0  0  0  0  0
  -22.4004  -11.9763   22.4800 H   0  0  0  0  0  0
  -21.1022  -13.1172   22.2720 H   0  0  0  0  0  0
  -24.6229  -15.8069   20.6398 H   0  0  0  0  0  0
  -26.2976  -15.5758   20.4895 H   0  0  0  0  0  0
  -26.7198  -32.5404   23.1061 H   0  0  0  0  0  0
  -25.0079  -33.9681   25.0404 H   0  0  0  0  0  0
  -22.7281  -31.2916   21.3848 H   0  0  0  0  0  0
  -23.3771  -35.9573   23.3256 H   0  0  0  0  0  0
  -24.3589  -36.8937   22.2064 H   0  0  0  0  0  0
  -23.7198  -37.6442   23.6692 H   0  0  0  0  0  0
  -26.1081  -31.5202   20.5988 H   0  0  0  0  0  0
  -26.8552  -30.8236   22.0033 H   0  0  0  0  0  0
  -28.1393  -28.9418   21.1804 H   0  0  0  0  0  0
  -26.0065  -25.8567   19.0627 H   0  0  0  0  0  0
  -23.9880  -27.2636   19.0341 H   0  0  0  0  0  0
  -23.7797  -30.5639   19.3986 H   0  0  0  0  0  0
  -22.7727  -29.2236   19.8550 H   0  0  0  0  0  0
  -25.1278  -36.1915   25.0825 H   0  0  0  0  0  0
  -20.9972  -28.3280   24.1394 H   0  0  0  0  0  0
  -20.5663  -26.2304   23.3616 H   0  0  0  0  0  0
  -21.6645  -26.7427   22.1214 H   0  0  0  0  0  0
  -19.6920  -25.6291   21.1239 H   0  0  0  0  0  0
  -19.6703  -27.3184   20.6733 H   0  0  0  0  0  0
  -17.4201  -26.6671   21.4012 H   0  0  0  0  0  0
  -18.0331  -26.0063   22.9008 H   0  0  0  0  0  0
  -19.7942  -30.7262   24.2262 H   0  0  0  0  0  0
  -17.5021  -31.6266   24.5157 H   0  0  0  0  0  0
  -15.5358  -30.2983   23.7662 H   0  0  0  0  0  0
  -15.8675  -28.0819   22.7076 H   0  0  0  0  0  0
  -24.5916  -30.7037   25.7754 H   0  0  0  0  0  0
  -24.8883  -32.2867   26.4842 H   0  0  0  0  0  0
  -25.8035  -30.8905   27.0220 H   0  0  0  0  0  0
  -26.2937  -29.6736   24.1210 H   0  0  0  0  0  0
  -27.4061  -29.7270   25.4695 H   0  0  0  0  0  0
  -27.8801  -30.4291   23.9407 H   0  0  0  0  0  0
  -27.2686  -33.3632   26.2019 H   0  0  0  0  0  0
  -28.3883  -32.6831   25.0303 H   0  0  0  0  0  0
  -28.0709  -31.8448   26.5413 H   0  0  0  0  0  0
  -28.2550  -38.0127   24.7588 H   0  0  0  0  0  0
  -28.1141  -36.2666   24.6171 H   0  0  0  0  0  0
  -27.2321  -37.1287   25.8855 H   0  0  0  0  0  0
  -20.9408  -29.8757   21.6852 H   0  0  0  0  0  0
  -26.0157  -38.2834   24.1488 H   0  0  0  0  0  0
  -26.7051  -18.6193   20.7630 H   0  0  0  0  0  0
  -27.0224  -21.0790   20.6173 H   0  0  0  0  0  0
  -31.7127  -17.4520   21.3062 H   0  0  0  0  0  0
  -31.5602  -17.4024   19.5502 H   0  0  0  0  0  0
  -29.0487  -23.8555   19.0039 H   0  0  0  0  0  0
  -27.5762  -23.2122   19.6399 H   0  0  0  0  0  0
  -29.1035  -25.0592   21.5018 H   0  0  0  0  0  0
  -27.4013  -24.9220   21.3279 H   0  0  0  0  0  0
  -30.3610  -22.7285   20.6562 H   0  0  0  0  0  0
  1 25  1  0  0  0
  1 30  2  0  0  0
  1 81  1  0  0  0
  2  3  1  0  0  0
  2 25  1  0  0  0
  2 85  1  0  0  0
  2 86  1  0  0  0
  3  4  1  0  0  0
  3 87  1  0  0  0
  3 88  1  0  0  0
  4  5  1  0  0  0
  4 89  1  0  0  0
  4 90  1  0  0  0
  5  6  1  0  0  0
  5 26  1  0  0  0
  5 91  1  0  0  0
  6 25  1  0  0  0
  6 92  1  0  0  0
  6 93  1  0  0  0
  7  8  2  0  0  0
  7 26  1  0  0  0
  7 29  1  0  0  0
  8  9  1  0  0  0
  8 22  1  0  0  0
  9 10  1  0  0  0
  9 27  2  0  0  0
 10 11  2  0  0  0
 10 15  1  0  0  0
 11 12  1  0  0  0
 11 94  1  0  0  0
 12 13  2  0  0  0
 12 95  1  0  0  0
 13 14  1  0  0  0
 13 31  1  0  0  0
 14 15  2  0  0  0
 14 96  1  0  0  0
 15 97  1  0  0  0
 16 17  2  0  0  0
 16 21  1  0  0  0
 16 31  1  0  0  0
 17 18  1  0  0  0
 17 98  1  0  0  0
 18 19  2  0  0  0
 18 99  1  0  0  0
 19 20  1  0  0  0
 19 24  1  0  0  0
 20 21  2  0  0  0
 20100  1  0  0  0
 21 23  1  0  0  0
 22 28  1  0  0  0
 22 32  2  0  0  0
 26 27  1  0  0  0
 28101  1  0  0  0
 28102  1  0  0  0
 29103  1  0  0  0
 29104  1  0  0  0
 33 34  1  0  0  0
 33 66  1  0  0  0
 33 70  2  0  0  0
 34 36  1  0  0  0
 34 59  1  0  0  0
 34105  1  0  0  0
 35 44  2  0  0  0
 35 45  1  0  0  0
 35 68  1  0  0  0
 36 56  1  0  0  0
 36106  1  0  0  0
 37 39  1  0  0  0
 37 47  1  0  0  0
 37 66  1  0  0  0
 37107  1  0  0  0
 38 43  2  0  0  0
 38 46  1  0  0  0
 38 47  1  0  0  0
 39 64  1  0  0  0
 39 67  2  0  0  0
 40 52  1  0  0  0
 40 53  2  0  0  0
 40 58  1  0  0  0
 41108  1  0  0  0
 41109  1  0  0  0
 41110  1  0  0  0
 41 48  1  0  0  0
 42 43  1  0  0  0
 42 66  1  0  0  0
 42111  1  0  0  0
 42112  1  0  0  0
 43 44  1  0  0  0
 44113  1  0  0  0
 45 46  2  0  0  0
 45114  1  0  0  0
 46115  1  0  0  0
 47116  1  0  0  0
 47117  1  0  0  0
 48 56  1  0  0  0
 48 65  1  0  0  0
 48118  1  0  0  0
 49 50  1  0  0  0
 49 53  1  0  0  0
 49 64  1  0  0  0
 49119  1  0  0  0
 50 51  1  0  0  0
 50120  1  0  0  0
 50121  1  0  0  0
 51 52  1  0  0  0
 51122  1  0  0  0
 51123  1  0  0  0
 52124  1  0  0  0
 52125  1  0  0  0
 53 54  1  0  0  0
 54 55  2  0  0  0
 54126  1  0  0  0
 55 57  1  0  0  0
 55127  1  0  0  0
 56 69  2  0  0  0
 57 58  2  0  0  0
 57128  1  0  0  0
 58129  1  0  0  0
 59 60  1  0  0  0
 59 61  1  0  0  0
 59 62  1  0  0  0
 60130  1  0  0  0
 60131  1  0  0  0
 60132  1  0  0  0
 61133  1  0  0  0
 61134  1  0  0  0
 61135  1  0  0  0
 62136  1  0  0  0
 62137  1  0  0  0
 62138  1  0  0  0
 63 65  1  0  0  0
 63139  1  0  0  0
 63140  1  0  0  0
 63141  1  0  0  0
 64142  1  0  0  0
 65143  1  0  0  0
 68 80  1  0  0  0
 71 72  2  0  0  0
 71 73  1  0  0  0
 71144  1  0  0  0
 72 75  1  0  0  0
 72145  1  0  0  0
 73 74  2  0  0  0
 73 77  1  0  0  0
 74 76  1  0  0  0
 74 78  1  0  0  0
 75 76  2  0  0  0
 75 82  1  0  0  0
 76 84  1  0  0  0
 77 81  1  0  0  0
 77 83  2  0  0  0
 78 81  1  0  0  0
 78146  1  0  0  0
 78147  1  0  0  0
 79 80  1  0  0  0
 79 82  1  0  0  0
 79148  1  0  0  0
 79149  1  0  0  0
 80150  1  0  0  0
 80151  1  0  0  0
 82152  1  0  0  0
M  ISO  4   1 100  68 101  80 101  81 100
M  END
> <chiral flag>
0

> <version>
0

> <s_m_source_file>
/data/baiqing/PycharmProjects/Reinvent-master-3.2/result/LINK_invent/BTK/process_docking_weight1_custom_product_contain_oxygen_bond_distance_aromatic_linkinvent_7_9_3/rearranged_h_0008.sdf

> <i_m_source_file_index>
7

> <r_mmod_Potential_Energy-OPLS-2005>
401.782257080078

> <r_mmod_Stretch_Energy-OPLS-2005>
142.77961730957

> <r_mmod_Bend_Energy-OPLS-2005>
294.306976318359

> <r_mmod_Torsional_Energy-OPLS-2005>
248.846343994141

> <r_mmod_Improper_Torsional_Energy-OPLS-2005>
10.1311149597168

> <r_mmod_Van_der_Waal_Energy-OPLS-2005>
145.64860534668

> <r_mmod_Electrostatic_Energy-OPLS-2005>
-360.857788085938

> <r_mmod_Solvation_Energy-OPLS-2005>
-188.584228515625

> <b_mmod_Minimization_Converged-OPLS-2005>
0

> <r_mmod_RMS_Derivative-OPLS-2005>
1.2054271697998

$$$$
7
                    3D
 Structure written by MMmdl.
149157  0  0  1  0            999 V2000
  -30.4103  -15.2402   20.3833 C   0  0  0  0  0  0
  -30.4472  -12.7872   19.5302 C   0  0  0  0  0  0
  -29.5400  -12.5819   18.2894 C   0  0  0  0  0  0
  -28.0852  -12.3065   18.7112 C   0  0  0  0  0  0
  -27.6172  -13.2687   19.8309 C   0  0  2  0  0  0
  -28.6500  -13.4094   20.9693 C   0  0  0  0  0  0
  -25.2391  -13.8203   20.5693 C   0  0  0  0  0  0
  -24.1751  -13.0415   20.9260 C   0  0  0  0  0  0
  -24.6404  -11.6914   20.8777 C   0  0  0  0  0  0
  -23.9092  -10.4281   21.0415 C   0  0  0  0  0  0
  -24.3635   -9.4195   21.9194 C   0  0  0  0  0  0
  -23.6300   -8.2236   22.0760 C   0  0  0  0  0  0
  -22.4281   -8.0280   21.3546 C   0  0  0  0  0  0
  -21.9923   -9.0257   20.4649 C   0  0  0  0  0  0
  -22.7262  -10.2131   20.3061 C   0  0  0  0  0  0
  -21.6852   -6.0736   22.5278 C   0  0  0  0  0  0
  -21.4014   -6.5638   23.8212 C   0  0  0  0  0  0
  -21.3660   -5.6793   24.9175 C   0  0  0  0  0  0
  -21.6044   -4.3055   24.7223 C   0  0  0  0  0  0
  -21.8820   -3.8146   23.4344 C   0  0  0  0  0  0
  -21.9191   -4.6964   22.3401 C   0  0  0  0  0  0
  -22.7772  -13.5185   21.1903 C   0  0  0  0  0  0
  -22.1661   -4.2151   21.0979 F   0  0  0  0  0  0
  -21.5628   -3.4539   25.7735 F   0  0  0  0  0  0
  -29.8895  -13.9170   20.3579 N   0  0  0  0  0  0
  -26.2834  -12.9482   20.3218 N   0  0  0  0  0  0
  -25.9342  -11.6596   20.5734 N   0  0  0  0  0  0
  -22.0422  -12.8174   22.0457 N   0  0  0  0  0  0
  -25.3980  -15.1913   20.3997 N   0  0  0  0  0  0
  -31.6221  -15.2970   20.1249 O   0  0  0  0  0  0
  -21.6639   -6.8880   21.4240 O   0  0  0  0  0  0
  -22.3460  -14.5492   20.6742 O   0  0  0  0  0  0
  -24.6601  -31.8254   23.1708 C   0  0  0  0  0  0
  -25.9294  -32.4595   23.8165 C   0  0  1  0  0  0
  -27.2238  -26.9448   20.1906 C   0  0  0  0  0  0
  -25.5965  -33.8408   24.2072 N   0  0  0  0  0  0
  -23.4752  -30.4356   21.5188 C   0  0  2  0  0  0
  -24.9297  -28.8205   20.1153 C   0  0  0  0  0  0
  -22.7658  -29.4445   22.4779 C   0  0  0  0  0  0
  -18.0324  -28.1415   22.8467 C   0  0  0  0  0  0
  -24.1494  -36.7211   23.2650 C   0  0  0  0  0  0
  -26.0416  -30.6350   21.4010 C   0  0  0  0  0  0
  -26.1094  -29.2233   20.7538 C   0  0  0  0  0  0
  -27.2484  -28.3033   20.7725 C   0  0  0  0  0  0
  -26.0187  -26.6893   19.4998 C   0  0  0  0  0  0
  -24.9068  -27.5718   19.4711 C   0  0  0  0  0  0
  -23.7160  -29.7486   20.1459 C   0  0  0  0  0  0
  -25.4134  -36.2971   24.0301 C   0  0  1  0  0  0
  -20.5946  -28.3755   23.1195 C   0  0  2  0  0  0
  -20.6803  -26.9440   22.5407 C   0  0  0  0  0  0
  -19.5776  -26.6383   21.5221 C   0  0  0  0  0  0
  -18.1955  -26.7948   22.1625 C   0  0  0  0  0  0
  -19.1586  -28.8907   23.2817 C   0  0  0  0  0  0
  -18.9498  -30.1495   23.8855 C   0  0  0  0  0  0
  -17.6494  -30.6605   24.0560 C   0  0  0  0  0  0
  -25.9095  -34.9354   23.5009 C   0  0  0  0  0  0
  -16.5382  -29.9096   23.6345 C   0  0  0  0  0  0
  -16.7309  -28.6519   23.0362 C   0  0  0  0  0  0
  -26.4551  -31.6537   25.0691 C   0  0  0  0  0  0
  -25.3680  -31.3798   26.1346 C   0  0  0  0  0  0
  -27.0445  -30.2905   24.6417 C   0  0  0  0  0  0
  -27.6043  -32.4350   25.7493 C   0  0  0  0  0  0
  -27.5559  -37.1774   24.8476 C   0  0  0  0  0  0
  -21.4328  -29.3040   22.3532 N   0  0  0  0  0  0
  -26.4288  -37.3698   23.9394 N   0  0  0  0  0  0
  -24.7466  -30.9930   22.0838 N   0  0  0  0  0  0
  -23.4210  -28.8020   23.3019 O   0  0  0  0  0  0
  -28.2611  -25.8787   20.2137 O   0  0  0  0  0  0
  -26.5708  -34.8886   22.4606 O   0  0  0  0  0  0
  -23.5675  -32.1214   23.6811 O   0  0  0  0  0  0
  -28.1391  -20.3347   20.7998 C   0  0  0  0  0  0
  -30.4339  -19.0549   19.9815 C   0  0  0  0  0  0
  -28.3185  -18.8533   20.8676 C   0  0  0  0  0  0
  -29.0832  -21.3283   20.3160 C   0  0  0  0  0  0
  -29.4873  -18.0578   20.4603 C   0  0  0  0  0  0
  -30.2516  -20.5342   19.9200 C   0  0  0  0  0  0
  -27.1369  -18.0868   21.4324 C   0  0  0  0  0  0
  -29.0341  -23.0840   20.2869 C   0  0  0  0  0  0
  -29.5551  -16.4365   20.5396 N   0  0  0  0  0  0
  -27.8807  -24.2292   20.2826 N   0  0  0  0  0  0
  -31.3089  -21.2367   19.4465 F   0  0  0  0  0  0
  -31.4658  -13.0000   19.2037 H   0  0  0  0  0  0
  -30.5136  -11.8702   20.1184 H   0  0  0  0  0  0
  -29.9150  -11.7639   17.6729 H   0  0  0  0  0  0
  -29.5742  -13.4765   17.6650 H   0  0  0  0  0  0
  -28.0338  -11.2778   19.0692 H   0  0  0  0  0  0
  -27.4189  -12.3658   17.8500 H   0  0  0  0  0  0
  -27.5435  -14.2449   19.3509 H   0  0  0  0  0  0
  -28.8083  -12.4606   21.4843 H   0  0  0  0  0  0
  -28.2934  -14.1130   21.7228 H   0  0  0  0  0  0
  -25.2775   -9.5670   22.4777 H   0  0  0  0  0  0
  -24.0001   -7.4625   22.7480 H   0  0  0  0  0  0
  -21.0853   -8.8784   19.8952 H   0  0  0  0  0  0
  -22.3722  -10.9676   19.6176 H   0  0  0  0  0  0
  -21.2010   -7.6147   23.9716 H   0  0  0  0  0  0
  -21.1482   -6.0522   25.9077 H   0  0  0  0  0  0
  -22.0598   -2.7605   23.2844 H   0  0  0  0  0  0
  -22.4037  -11.9834   22.4841 H   0  0  0  0  0  0
  -21.1044  -13.1204   22.2677 H   0  0  0  0  0  0
  -24.6013  -15.8161   20.4520 H   0  0  0  0  0  0
  -26.1980  -15.6062   19.9421 H   0  0  0  0  0  0
  -26.7363  -32.5143   23.0879 H   0  0  0  0  0  0
  -25.0062  -33.9488   25.0188 H   0  0  0  0  0  0
  -22.7873  -31.2659   21.3471 H   0  0  0  0  0  0
  -23.3749  -35.9553   23.3337 H   0  0  0  0  0  0
  -24.3556  -36.8834   22.2058 H   0  0  0  0  0  0
  -23.7277  -37.6421   23.6691 H   0  0  0  0  0  0
  -26.2183  -31.3731   20.6176 H   0  0  0  0  0  0
  -26.9031  -30.6947   22.0540 H   0  0  0  0  0  0
  -28.1463  -28.6114   21.2895 H   0  0  0  0  0  0
  -25.9137  -25.7368   18.9997 H   0  0  0  0  0  0
  -24.0117  -27.2586   18.9511 H   0  0  0  0  0  0
  -23.8719  -30.5157   19.3864 H   0  0  0  0  0  0
  -22.8262  -29.2028   19.8284 H   0  0  0  0  0  0
  -25.1339  -36.1776   25.0796 H   0  0  0  0  0  0
  -21.0033  -28.3372   24.1319 H   0  0  0  0  0  0
  -20.5702  -26.2372   23.3645 H   0  0  0  0  0  0
  -21.6666  -26.7428   22.1202 H   0  0  0  0  0  0
  -19.6940  -25.6286   21.1278 H   0  0  0  0  0  0
  -19.6725  -27.3168   20.6733 H   0  0  0  0  0  0
  -17.4226  -26.6698   21.4024 H   0  0  0  0  0  0
  -18.0345  -26.0103   22.9035 H   0  0  0  0  0  0
  -19.7977  -30.7319   24.2204 H   0  0  0  0  0  0
  -17.5052  -31.6283   24.5169 H   0  0  0  0  0  0
  -15.5382  -30.2988   23.7699 H   0  0  0  0  0  0
  -15.8707  -28.0828   22.7095 H   0  0  0  0  0  0
  -24.5869  -30.7140   25.7658 H   0  0  0  0  0  0
  -24.8854  -32.3003   26.4641 H   0  0  0  0  0  0
  -25.7897  -30.9051   27.0214 H   0  0  0  0  0  0
  -26.3104  -29.6583   24.1407 H   0  0  0  0  0  0
  -27.3966  -29.7269   25.5070 H   0  0  0  0  0  0
  -27.9054  -30.4093   23.9833 H   0  0  0  0  0  0
  -27.2612  -33.3703   26.1929 H   0  0  0  0  0  0
  -28.3922  -32.6829   25.0367 H   0  0  0  0  0  0
  -28.0632  -31.8571   26.5527 H   0  0  0  0  0  0
  -28.2598  -38.0041   24.7444 H   0  0  0  0  0  0
  -28.1030  -36.2565   24.6409 H   0  0  0  0  0  0
  -27.2261  -37.1542   25.8876 H   0  0  0  0  0  0
  -20.9579  -29.8726   21.6659 H   0  0  0  0  0  0
  -26.0142  -38.2769   24.1359 H   0  0  0  0  0  0
  -27.2010  -20.7318   21.1613 H   0  0  0  0  0  0
  -31.3827  -18.6805   19.6266 H   0  0  0  0  0  0
  -26.5224  -18.7197   22.0738 H   0  0  0  0  0  0
  -27.4560  -17.2360   22.0345 H   0  0  0  0  0  0
  -26.5089  -17.7250   20.6196 H   0  0  0  0  0  0
  -29.6362  -23.3292   19.4120 H   0  0  0  0  0  0
  -29.6691  -23.3609   21.1290 H   0  0  0  0  0  0
  -28.6415  -16.0806   20.7750 H   0  0  0  0  0  0
  -27.3359  -24.1222   21.1339 H   0  0  0  0  0  0
  1 25  1  0  0  0
  1 30  2  0  0  0
  1 79  1  0  0  0
  2  3  1  0  0  0
  2 25  1  0  0  0
  2 82  1  0  0  0
  2 83  1  0  0  0
  3  4  1  0  0  0
  3 84  1  0  0  0
  3 85  1  0  0  0
  4  5  1  0  0  0
  4 86  1  0  0  0
  4 87  1  0  0  0
  5  6  1  0  0  0
  5 26  1  0  0  0
  5 88  1  0  0  0
  6 25  1  0  0  0
  6 89  1  0  0  0
  6 90  1  0  0  0
  7  8  2  0  0  0
  7 26  1  0  0  0
  7 29  1  0  0  0
  8  9  1  0  0  0
  8 22  1  0  0  0
  9 10  1  0  0  0
  9 27  2  0  0  0
 10 11  2  0  0  0
 10 15  1  0  0  0
 11 12  1  0  0  0
 11 91  1  0  0  0
 12 13  2  0  0  0
 12 92  1  0  0  0
 13 14  1  0  0  0
 13 31  1  0  0  0
 14 15  2  0  0  0
 14 93  1  0  0  0
 15 94  1  0  0  0
 16 17  2  0  0  0
 16 21  1  0  0  0
 16 31  1  0  0  0
 17 18  1  0  0  0
 17 95  1  0  0  0
 18 19  2  0  0  0
 18 96  1  0  0  0
 19 20  1  0  0  0
 19 24  1  0  0  0
 20 21  2  0  0  0
 20 97  1  0  0  0
 21 23  1  0  0  0
 22 28  1  0  0  0
 22 32  2  0  0  0
 26 27  1  0  0  0
 28 98  1  0  0  0
 28 99  1  0  0  0
 29100  1  0  0  0
 29101  1  0  0  0
 33 34  1  0  0  0
 33 66  1  0  0  0
 33 70  2  0  0  0
 34 36  1  0  0  0
 34 59  1  0  0  0
 34102  1  0  0  0
 35 44  2  0  0  0
 35 45  1  0  0  0
 35 68  1  0  0  0
 36 56  1  0  0  0
 36103  1  0  0  0
 37 39  1  0  0  0
 37 47  1  0  0  0
 37 66  1  0  0  0
 37104  1  0  0  0
 38 43  2  0  0  0
 38 46  1  0  0  0
 38 47  1  0  0  0
 39 64  1  0  0  0
 39 67  2  0  0  0
 40 52  1  0  0  0
 40 53  2  0  0  0
 40 58  1  0  0  0
 41105  1  0  0  0
 41106  1  0  0  0
 41107  1  0  0  0
 41 48  1  0  0  0
 42 43  1  0  0  0
 42 66  1  0  0  0
 42108  1  0  0  0
 42109  1  0  0  0
 43 44  1  0  0  0
 44110  1  0  0  0
 45 46  2  0  0  0
 45111  1  0  0  0
 46112  1  0  0  0
 47113  1  0  0  0
 47114  1  0  0  0
 48 56  1  0  0  0
 48 65  1  0  0  0
 48115  1  0  0  0
 49 50  1  0  0  0
 49 53  1  0  0  0
 49 64  1  0  0  0
 49116  1  0  0  0
 50 51  1  0  0  0
 50117  1  0  0  0
 50118  1  0  0  0
 51 52  1  0  0  0
 51119  1  0  0  0
 51120  1  0  0  0
 52121  1  0  0  0
 52122  1  0  0  0
 53 54  1  0  0  0
 54 55  2  0  0  0
 54123  1  0  0  0
 55 57  1  0  0  0
 55124  1  0  0  0
 56 69  2  0  0  0
 57 58  2  0  0  0
 57125  1  0  0  0
 58126  1  0  0  0
 59 60  1  0  0  0
 59 61  1  0  0  0
 59 62  1  0  0  0
 60127  1  0  0  0
 60128  1  0  0  0
 60129  1  0  0  0
 61130  1  0  0  0
 61131  1  0  0  0
 61132  1  0  0  0
 62133  1  0  0  0
 62134  1  0  0  0
 62135  1  0  0  0
 63 65  1  0  0  0
 63136  1  0  0  0
 63137  1  0  0  0
 63138  1  0  0  0
 64139  1  0  0  0
 65140  1  0  0  0
 68 80  1  0  0  0
 71 73  2  0  0  0
 71 74  1  0  0  0
 71141  1  0  0  0
 72 75  2  0  0  0
 72 76  1  0  0  0
 72142  1  0  0  0
 73 75  1  0  0  0
 73 77  1  0  0  0
 74 76  2  0  0  0
 74 78  1  0  0  0
 75 79  1  0  0  0
 76 81  1  0  0  0
 77143  1  0  0  0
 77144  1  0  0  0
 77145  1  0  0  0
 78 80  1  0  0  0
 78146  1  0  0  0
 78147  1  0  0  0
 79148  1  0  0  0
 80149  1  0  0  0
M  ISO  4   1 100  68 101  79 100  80 101
M  END
> <chiral flag>
0

> <version>
0

> <s_m_source_file>
/data/baiqing/PycharmProjects/Reinvent-master-3.2/result/LINK_invent/BTK/process_docking_weight1_custom_product_contain_oxygen_bond_distance_aromatic_linkinvent_7_9_3/rearranged_h_0008.sdf

> <i_m_source_file_index>
8

> <r_mmod_Potential_Energy-OPLS-2005>
1115.77905273438

> <r_mmod_Stretch_Energy-OPLS-2005>
496.513824462891

> <r_mmod_Bend_Energy-OPLS-2005>
429.315399169922

> <r_mmod_Torsional_Energy-OPLS-2005>
215.169235229492

> <r_mmod_Improper_Torsional_Energy-OPLS-2005>
4.37593698501587

> <r_mmod_Van_der_Waal_Energy-OPLS-2005>
126.489463806152

> <r_mmod_Electrostatic_Energy-OPLS-2005>
-367.758941650391

> <r_mmod_Solvation_Energy-OPLS-2005>
-216.410980224609

> <b_mmod_Minimization_Converged-OPLS-2005>
0

> <r_mmod_RMS_Derivative-OPLS-2005>
0.849619626998901

$$$$
8
                    3D
 Structure written by MMmdl.
155164  0  0  1  0            999 V2000
  -30.6041  -14.6714   20.4994 C   0  0  0  0  0  0
  -30.4520  -12.4073   19.4664 C   0  0  0  0  0  0
  -29.5294  -12.5176   18.2313 C   0  0  0  0  0  0
  -28.0475  -12.3429   18.6300 C   0  0  0  0  0  0
  -27.6559  -13.2153   19.8528 C   0  0  2  0  0  0
  -28.6973  -13.0791   20.9880 C   0  0  0  0  0  0
  -25.2567  -13.8160   20.5574 C   0  0  0  0  0  0
  -24.1839  -13.0431   20.9141 C   0  0  0  0  0  0
  -24.6403  -11.6904   20.8667 C   0  0  0  0  0  0
  -23.9065  -10.4293   21.0360 C   0  0  0  0  0  0
  -24.3595   -9.4217   21.9157 C   0  0  0  0  0  0
  -23.6281   -8.2241   22.0736 C   0  0  0  0  0  0
  -22.4269   -8.0259   21.3525 C   0  0  0  0  0  0
  -21.9900   -9.0251   20.4651 C   0  0  0  0  0  0
  -22.7215  -10.2136   20.3048 C   0  0  0  0  0  0
  -21.6861   -6.0719   22.5264 C   0  0  0  0  0  0
  -21.4021   -6.5622   23.8195 C   0  0  0  0  0  0
  -21.3653   -5.6772   24.9158 C   0  0  0  0  0  0
  -21.6046   -4.3039   24.7209 C   0  0  0  0  0  0
  -21.8830   -3.8134   23.4329 C   0  0  0  0  0  0
  -21.9179   -4.6950   22.3383 C   0  0  0  0  0  0
  -22.7849  -13.5228   21.1803 C   0  0  0  0  0  0
  -22.1667   -4.2137   21.0964 F   0  0  0  0  0  0
  -21.5626   -3.4525   25.7721 F   0  0  0  0  0  0
  -30.0129  -13.4345   20.4311 N   0  0  0  0  0  0
  -26.2996  -12.9340   20.3201 N   0  0  0  0  0  0
  -25.9340  -11.6512   20.5662 N   0  0  0  0  0  0
  -22.0476  -12.8266   22.0383 N   0  0  0  0  0  0
  -25.4287  -15.1861   20.3917 N   0  0  0  0  0  0
  -31.7789  -14.8353   20.1501 O   0  0  0  0  0  0
  -21.6628   -6.8855   21.4212 O   0  0  0  0  0  0
  -22.3541  -14.5509   20.6591 O   0  0  0  0  0  0
  -24.6257  -31.8592   23.2029 C   0  0  0  0  0  0
  -25.9102  -32.4762   23.8347 C   0  0  1  0  0  0
  -27.2189  -27.3110   20.1215 C   0  0  0  0  0  0
  -25.5929  -33.8561   24.2281 N   0  0  0  0  0  0
  -23.4179  -30.4817   21.5489 C   0  0  2  0  0  0
  -24.8635  -28.9429   20.1062 C   0  0  0  0  0  0
  -22.7451  -29.4615   22.4973 C   0  0  0  0  0  0
  -18.0270  -28.1375   22.8484 C   0  0  0  0  0  0
  -24.1490  -36.7316   23.2635 C   0  0  0  0  0  0
  -25.9589  -30.7889   21.3725 C   0  0  0  0  0  0
  -26.0312  -29.4151   20.7169 C   0  0  0  0  0  0
  -27.2099  -28.6113   20.7169 C   0  0  0  0  0  0
  -26.0284  -26.9001   19.4744 C   0  0  0  0  0  0
  -24.8663  -27.6923   19.4716 C   0  0  0  0  0  0
  -23.6285  -29.8184   20.1632 C   0  0  0  0  0  0
  -25.4112  -36.3086   24.0317 C   0  0  1  0  0  0
  -20.5864  -28.3672   23.1305 C   0  0  2  0  0  0
  -20.6762  -26.9399   22.5418 C   0  0  0  0  0  0
  -19.5746  -26.6376   21.5219 C   0  0  0  0  0  0
  -18.1928  -26.7919   22.1619 C   0  0  0  0  0  0
  -19.1520  -28.8846   23.2884 C   0  0  0  0  0  0
  -18.9441  -30.1466   23.8868 C   0  0  0  0  0  0
  -17.6438  -30.6576   24.0563 C   0  0  0  0  0  0
  -25.9051  -34.9441   23.5098 C   0  0  0  0  0  0
  -16.5332  -29.9068   23.6333 C   0  0  0  0  0  0
  -16.7257  -28.6492   23.0340 C   0  0  0  0  0  0
  -26.4490  -31.6553   25.0703 C   0  0  0  0  0  0
  -25.3739  -31.3693   26.1460 C   0  0  0  0  0  0
  -27.0293  -30.2969   24.6127 C   0  0  0  0  0  0
  -27.6077  -32.4263   25.7451 C   0  0  0  0  0  0
  -27.5594  -37.1796   24.8443 C   0  0  0  0  0  0
  -21.4167  -29.3023   22.3710 N   0  0  0  0  0  0
  -26.4291  -37.3782   23.9405 N   0  0  0  0  0  0
  -24.6875  -31.0590   22.0989 N   0  0  0  0  0  0
  -23.4187  -28.8170   23.3049 O   0  0  0  0  0  0
  -28.3337  -26.4557   20.1896 O   0  0  0  0  0  0
  -26.5608  -34.8901   22.4657 O   0  0  0  0  0  0
  -23.5421  -32.1410   23.7337 O   0  0  0  0  0  0
  -28.7212  -19.4246   20.6784 C   0  0  0  0  0  0
  -28.6966  -17.9910   20.6993 C   0  0  0  0  0  0
  -31.0937  -17.9141   20.6979 C   0  0  0  0  0  0
  -29.9443  -20.1475   20.6907 C   0  0  0  0  0  0
  -29.8757  -17.1860   20.7142 C   0  0  0  0  0  0
  -31.1217  -19.3411   20.6893 C   0  0  0  0  0  0
  -29.3718  -24.0641   20.0604 C   0  0  0  0  0  0
  -27.3099  -24.2938   21.1434 C   0  0  0  0  0  0
  -27.7576  -22.8034   21.1072 C   0  0  0  0  0  0
  -28.1177  -24.9892   20.0374 C   0  0  1  0  0  0
  -30.1283  -21.7207   20.7730 C   0  0  0  0  0  0
  -29.0979  -22.8013   20.5193 N   0  0  0  0  0  0
  -29.7594  -15.7188   20.7857 N   0  0  0  0  0  0
  -30.4844  -24.4610   19.6979 O   0  0  0  0  0  0
  -32.3297  -19.9552   20.7013 F   0  0  0  0  0  0
  -31.4966  -12.5348   19.1767 H   0  0  0  0  0  0
  -30.3833  -11.4136   19.9136 H   0  0  0  0  0  0
  -29.8129  -11.7766   17.4824 H   0  0  0  0  0  0
  -29.6668  -13.4923   17.7584 H   0  0  0  0  0  0
  -27.8870  -11.2893   18.8609 H   0  0  0  0  0  0
  -27.4008  -12.5692   17.7823 H   0  0  0  0  0  0
  -27.6690  -14.2464   19.4992 H   0  0  0  0  0  0
  -28.7152  -12.0588   21.3753 H   0  0  0  0  0  0
  -28.4404  -13.7104   21.8392 H   0  0  0  0  0  0
  -25.2758   -9.5692   22.4691 H   0  0  0  0  0  0
  -24.0010   -7.4626   22.7456 H   0  0  0  0  0  0
  -21.0827   -8.8751   19.8965 H   0  0  0  0  0  0
  -22.3660  -10.9644   19.6136 H   0  0  0  0  0  0
  -21.2052   -7.6137   23.9703 H   0  0  0  0  0  0
  -21.1464   -6.0498   25.9051 H   0  0  0  0  0  0
  -22.0621   -2.7599   23.2818 H   0  0  0  0  0  0
  -22.4097  -12.0001   22.4912 H   0  0  0  0  0  0
  -21.1062  -13.1300   22.2491 H   0  0  0  0  0  0
  -24.6531  -15.8354   20.4636 H   0  0  0  0  0  0
  -26.2607  -15.6015   19.9912 H   0  0  0  0  0  0
  -26.7163  -32.5423   23.1090 H   0  0  0  0  0  0
  -25.0078  -33.9686   25.0425 H   0  0  0  0  0  0
  -22.7127  -31.3033   21.4099 H   0  0  0  0  0  0
  -23.3737  -35.9665   23.3260 H   0  0  0  0  0  0
  -24.3624  -36.8984   22.2071 H   0  0  0  0  0  0
  -23.7250  -37.6502   23.6684 H   0  0  0  0  0  0
  -26.0775  -31.5534   20.6042 H   0  0  0  0  0  0
  -26.8428  -30.8460   21.9945 H   0  0  0  0  0  0
  -28.1036  -28.9661   21.2099 H   0  0  0  0  0  0
  -25.9540  -25.9530   18.9647 H   0  0  0  0  0  0
  -23.9747  -27.3328   18.9764 H   0  0  0  0  0  0
  -23.7323  -30.5933   19.4038 H   0  0  0  0  0  0
  -22.7492  -29.2408   19.8732 H   0  0  0  0  0  0
  -25.1290  -36.1947   25.0809 H   0  0  0  0  0  0
  -20.9950  -28.3239   24.1427 H   0  0  0  0  0  0
  -20.5693  -26.2264   23.3601 H   0  0  0  0  0  0
  -21.6631  -26.7452   22.1225 H   0  0  0  0  0  0
  -19.6922  -25.6291   21.1254 H   0  0  0  0  0  0
  -19.6707  -27.3171   20.6739 H   0  0  0  0  0  0
  -17.4211  -26.6657   21.4015 H   0  0  0  0  0  0
  -18.0329  -26.0065   22.9018 H   0  0  0  0  0  0
  -19.7918  -30.7299   24.2212 H   0  0  0  0  0  0
  -17.4983  -31.6249   24.5178 H   0  0  0  0  0  0
  -15.5334  -30.2950   23.7671 H   0  0  0  0  0  0
  -15.8657  -28.0815   22.7039 H   0  0  0  0  0  0
  -24.5823  -30.7166   25.7766 H   0  0  0  0  0  0
  -24.9043  -32.2872   26.5007 H   0  0  0  0  0  0
  -25.8076  -30.8736   27.0158 H   0  0  0  0  0  0
  -26.2844  -29.6731   24.1188 H   0  0  0  0  0  0
  -27.4024  -29.7217   25.4606 H   0  0  0  0  0  0
  -27.8707  -30.4215   23.9310 H   0  0  0  0  0  0
  -27.2717  -33.3535   26.2098 H   0  0  0  0  0  0
  -28.3857  -32.6867   25.0261 H   0  0  0  0  0  0
  -28.0794  -31.8344   26.5304 H   0  0  0  0  0  0
  -28.2568  -38.0129   24.7536 H   0  0  0  0  0  0
  -28.1125  -36.2660   24.6202 H   0  0  0  0  0  0
  -27.2326  -37.1398   25.8844 H   0  0  0  0  0  0
  -20.9338  -29.8723   21.6907 H   0  0  0  0  0  0
  -26.0168  -38.2855   24.1404 H   0  0  0  0  0  0
  -27.7823  -19.9605   20.6741 H   0  0  0  0  0  0
  -27.7306  -17.5029   20.7013 H   0  0  0  0  0  0
  -32.0368  -17.3902   20.7086 H   0  0  0  0  0  0
  -27.5630  -24.7348   22.1100 H   0  0  0  0  0  0
  -26.2340  -24.4078   21.0116 H   0  0  0  0  0  0
  -27.0894  -22.2264   20.4671 H   0  0  0  0  0  0
  -27.7436  -22.3506   22.0996 H   0  0  0  0  0  0
  -27.6776  -24.7830   19.0636 H   0  0  0  0  0  0
  -30.9568  -21.9308   20.0966 H   0  0  0  0  0  0
  -30.5265  -21.9224   21.7689 H   0  0  0  0  0  0
  -28.8276  -15.3911   20.9918 H   0  0  0  0  0  0
  1 25  1  0  0  0
  1 30  2  0  0  0
  1 83  1  0  0  0
  2  3  1  0  0  0
  2 25  1  0  0  0
  2 86  1  0  0  0
  2 87  1  0  0  0
  3  4  1  0  0  0
  3 88  1  0  0  0
  3 89  1  0  0  0
  4  5  1  0  0  0
  4 90  1  0  0  0
  4 91  1  0  0  0
  5  6  1  0  0  0
  5 26  1  0  0  0
  5 92  1  0  0  0
  6 25  1  0  0  0
  6 93  1  0  0  0
  6 94  1  0  0  0
  7  8  2  0  0  0
  7 26  1  0  0  0
  7 29  1  0  0  0
  8  9  1  0  0  0
  8 22  1  0  0  0
  9 10  1  0  0  0
  9 27  2  0  0  0
 10 11  2  0  0  0
 10 15  1  0  0  0
 11 12  1  0  0  0
 11 95  1  0  0  0
 12 13  2  0  0  0
 12 96  1  0  0  0
 13 14  1  0  0  0
 13 31  1  0  0  0
 14 15  2  0  0  0
 14 97  1  0  0  0
 15 98  1  0  0  0
 16 17  2  0  0  0
 16 21  1  0  0  0
 16 31  1  0  0  0
 17 18  1  0  0  0
 17 99  1  0  0  0
 18 19  2  0  0  0
 18100  1  0  0  0
 19 20  1  0  0  0
 19 24  1  0  0  0
 20 21  2  0  0  0
 20101  1  0  0  0
 21 23  1  0  0  0
 22 28  1  0  0  0
 22 32  2  0  0  0
 26 27  1  0  0  0
 28102  1  0  0  0
 28103  1  0  0  0
 29104  1  0  0  0
 29105  1  0  0  0
 33 34  1  0  0  0
 33 66  1  0  0  0
 33 70  2  0  0  0
 34 36  1  0  0  0
 34 59  1  0  0  0
 34106  1  0  0  0
 35 44  2  0  0  0
 35 45  1  0  0  0
 35 68  1  0  0  0
 36 56  1  0  0  0
 36107  1  0  0  0
 37 39  1  0  0  0
 37 47  1  0  0  0
 37 66  1  0  0  0
 37108  1  0  0  0
 38 43  2  0  0  0
 38 46  1  0  0  0
 38 47  1  0  0  0
 39 64  1  0  0  0
 39 67  2  0  0  0
 40 52  1  0  0  0
 40 53  2  0  0  0
 40 58  1  0  0  0
 41109  1  0  0  0
 41110  1  0  0  0
 41111  1  0  0  0
 41 48  1  0  0  0
 42 43  1  0  0  0
 42 66  1  0  0  0
 42112  1  0  0  0
 42113  1  0  0  0
 43 44  1  0  0  0
 44114  1  0  0  0
 45 46  2  0  0  0
 45115  1  0  0  0
 46116  1  0  0  0
 47117  1  0  0  0
 47118  1  0  0  0
 48 56  1  0  0  0
 48 65  1  0  0  0
 48119  1  0  0  0
 49 50  1  0  0  0
 49 53  1  0  0  0
 49 64  1  0  0  0
 49120  1  0  0  0
 50 51  1  0  0  0
 50121  1  0  0  0
 50122  1  0  0  0
 51 52  1  0  0  0
 51123  1  0  0  0
 51124  1  0  0  0
 52125  1  0  0  0
 52126  1  0  0  0
 53 54  1  0  0  0
 54 55  2  0  0  0
 54127  1  0  0  0
 55 57  1  0  0  0
 55128  1  0  0  0
 56 69  2  0  0  0
 57 58  2  0  0  0
 57129  1  0  0  0
 58130  1  0  0  0
 59 60  1  0  0  0
 59 61  1  0  0  0
 59 62  1  0  0  0
 60131  1  0  0  0
 60132  1  0  0  0
 60133  1  0  0  0
 61134  1  0  0  0
 61135  1  0  0  0
 61136  1  0  0  0
 62137  1  0  0  0
 62138  1  0  0  0
 62139  1  0  0  0
 63 65  1  0  0  0
 63140  1  0  0  0
 63141  1  0  0  0
 63142  1  0  0  0
 64143  1  0  0  0
 65144  1  0  0  0
 68 80  1  0  0  0
 71 72  2  0  0  0
 71 74  1  0  0  0
 71145  1  0  0  0
 72 75  1  0  0  0
 72146  1  0  0  0
 73 75  2  0  0  0
 73 76  1  0  0  0
 73147  1  0  0  0
 74 76  2  0  0  0
 74 81  1  0  0  0
 75 83  1  0  0  0
 76 85  1  0  0  0
 77 80  1  0  0  0
 77 82  1  0  0  0
 77 84  2  0  0  0
 78 79  1  0  0  0
 78 80  1  0  0  0
 78148  1  0  0  0
 78149  1  0  0  0
 79 82  1  0  0  0
 79150  1  0  0  0
 79151  1  0  0  0
 80152  1  0  0  0
 81 82  1  0  0  0
 81153  1  0  0  0
 81154  1  0  0  0
 83155  1  0  0  0
M  ISO  4   1 100  68 101  80 101  83 100
M  END
> <chiral flag>
0

> <version>
0

> <s_m_source_file>
/data/baiqing/PycharmProjects/Reinvent-master-3.2/result/LINK_invent/BTK/process_docking_weight1_custom_product_contain_oxygen_bond_distance_aromatic_linkinvent_7_9_3/rearranged_h_0008.sdf

> <i_m_source_file_index>
9

> <r_mmod_Potential_Energy-OPLS-2005>
144.584716796875

> <r_mmod_Stretch_Energy-OPLS-2005>
85.5951156616211

> <r_mmod_Bend_Energy-OPLS-2005>
198.883499145508

> <r_mmod_Torsional_Energy-OPLS-2005>
231.26432800293

> <r_mmod_Improper_Torsional_Energy-OPLS-2005>
5.80612993240356

> <r_mmod_Van_der_Waal_Energy-OPLS-2005>
137.812301635742

> <r_mmod_Electrostatic_Energy-OPLS-2005>
-330.693664550781

> <r_mmod_Solvation_Energy-OPLS-2005>
-241.349395751953

> <b_mmod_Minimization_Converged-OPLS-2005>
0

> <r_mmod_RMS_Derivative-OPLS-2005>
3.97656869888306

$$$$
9
                    3D
 Structure written by MMmdl.
156165  0  0  1  0            999 V2000
  -30.4832  -15.1087   20.2896 C   0  0  0  0  0  0
  -30.4659  -12.6636   19.5093 C   0  0  0  0  0  0
  -29.5492  -12.4213   18.2826 C   0  0  0  0  0  0
  -28.0711  -12.2468   18.7017 C   0  0  0  0  0  0
  -27.6189  -13.2043   19.8382 C   0  0  2  0  0  0
  -28.6790  -13.3578   20.9513 C   0  0  0  0  0  0
  -25.2514  -13.8068   20.5809 C   0  0  0  0  0  0
  -24.1769  -13.0362   20.9285 C   0  0  0  0  0  0
  -24.6334  -11.6834   20.8830 C   0  0  0  0  0  0
  -23.9007  -10.4240   21.0452 C   0  0  0  0  0  0
  -24.3581   -9.4162   21.9198 C   0  0  0  0  0  0
  -23.6281   -8.2194   22.0740 C   0  0  0  0  0  0
  -22.4262   -8.0243   21.3537 C   0  0  0  0  0  0
  -21.9895   -9.0207   20.4633 C   0  0  0  0  0  0
  -22.7203  -10.2099   20.3073 C   0  0  0  0  0  0
  -21.6831   -6.0725   22.5284 C   0  0  0  0  0  0
  -21.3987   -6.5634   23.8214 C   0  0  0  0  0  0
  -21.3666   -5.6790   24.9181 C   0  0  0  0  0  0
  -21.6050   -4.3056   24.7231 C   0  0  0  0  0  0
  -21.8823   -3.8150   23.4350 C   0  0  0  0  0  0
  -21.9189   -4.6962   22.3408 C   0  0  0  0  0  0
  -22.7817  -13.5205   21.1922 C   0  0  0  0  0  0
  -22.1666   -4.2153   21.0988 F   0  0  0  0  0  0
  -21.5648   -3.4543   25.7743 F   0  0  0  0  0  0
  -29.9294  -13.8074   20.3107 N   0  0  0  0  0  0
  -26.2871  -12.9165   20.3412 N   0  0  0  0  0  0
  -25.9257  -11.6358   20.5892 N   0  0  0  0  0  0
  -22.0427  -12.8185   22.0449 N   0  0  0  0  0  0
  -25.4282  -15.1789   20.4266 N   0  0  0  0  0  0
  -31.7197  -15.1542   20.2407 O   0  0  0  0  0  0
  -21.6623   -6.8855   21.4241 O   0  0  0  0  0  0
  -22.3543  -14.5530   20.6777 O   0  0  0  0  0  0
  -24.6440  -31.8399   23.1782 C   0  0  0  0  0  0
  -25.9201  -32.4662   23.8194 C   0  0  1  0  0  0
  -27.2478  -27.1009   20.1758 C   0  0  0  0  0  0
  -25.5940  -33.8467   24.2131 N   0  0  0  0  0  0
  -23.4524  -30.4499   21.5226 C   0  0  2  0  0  0
  -24.9098  -28.8612   20.1061 C   0  0  0  0  0  0
  -22.7576  -29.4515   22.4818 C   0  0  0  0  0  0
  -18.0307  -28.1398   22.8468 C   0  0  0  0  0  0
  -24.1498  -36.7238   23.2647 C   0  0  0  0  0  0
  -26.0069  -30.7012   21.3841 C   0  0  0  0  0  0
  -26.0802  -29.3055   20.7317 C   0  0  0  0  0  0
  -27.2390  -28.4394   20.7521 C   0  0  0  0  0  0
  -26.0551  -26.7623   19.4974 C   0  0  0  0  0  0
  -24.9120  -27.6039   19.4739 C   0  0  0  0  0  0
  -23.6826  -29.7643   20.1466 C   0  0  0  0  0  0
  -25.4134  -36.3007   24.0313 C   0  0  1  0  0  0
  -20.5921  -28.3729   23.1215 C   0  0  2  0  0  0
  -20.6791  -26.9428   22.5401 C   0  0  0  0  0  0
  -19.5767  -26.6378   21.5210 C   0  0  0  0  0  0
  -18.1946  -26.7930   22.1621 C   0  0  0  0  0  0
  -19.1566  -28.8878   23.2835 C   0  0  0  0  0  0
  -18.9484  -30.1471   23.8864 C   0  0  0  0  0  0
  -17.6481  -30.6592   24.0553 C   0  0  0  0  0  0
  -25.9087  -34.9390   23.5043 C   0  0  0  0  0  0
  -16.5371  -29.9082   23.6337 C   0  0  0  0  0  0
  -16.7291  -28.6502   23.0353 C   0  0  0  0  0  0
  -26.4524  -31.6530   25.0642 C   0  0  0  0  0  0
  -25.3702  -31.3729   26.1326 C   0  0  0  0  0  0
  -27.0412  -30.2917   24.6259 C   0  0  0  0  0  0
  -27.6044  -32.4302   25.7432 C   0  0  0  0  0  0
  -27.5581  -37.1774   24.8471 C   0  0  0  0  0  0
  -21.4264  -29.3047   22.3579 N   0  0  0  0  0  0
  -26.4294  -37.3725   23.9409 N   0  0  0  0  0  0
  -24.7204  -31.0201   22.0839 N   0  0  0  0  0  0
  -23.4185  -28.8111   23.3034 O   0  0  0  0  0  0
  -28.3230  -26.1370   20.3482 O   0  0  0  0  0  0
  -26.5693  -34.8904   22.4638 O   0  0  0  0  0  0
  -23.5553  -32.1297   23.6980 O   0  0  0  0  0  0
  -28.9463  -20.6028   20.3232 C   0  0  0  0  0  0
  -31.0340  -19.6361   21.1253 C   0  0  0  0  0  0
  -30.5978  -22.0922   21.2350 C   0  0  0  0  0  0
  -29.7917  -19.3721   20.5172 C   0  0  0  0  0  0
  -29.3012  -22.0119   20.6746 C   0  0  0  0  0  0
  -31.4232  -20.9584   21.4599 C   0  0  0  0  0  0
  -29.5902  -16.8807   17.6223 C   0  0  0  0  0  0
  -29.9043  -18.1634   18.3339 C   0  0  0  0  0  0
  -28.9650  -16.0121   18.7056 C   0  0  0  0  0  0
  -29.5296  -17.9063   19.7914 C   0  0  1  0  0  0
  -28.3825  -23.4169   20.7414 C   0  0  0  0  0  0
  -29.6466  -16.2765   20.0014 N   0  0  0  0  0  0
  -28.2903  -24.6362   19.7557 N   0  0  0  0  0  0
  -32.6458  -21.1514   22.0107 F   0  0  0  0  0  0
  -31.4849  -12.8597   19.1743 H   0  0  0  0  0  0
  -30.5272  -11.7631   20.1223 H   0  0  0  0  0  0
  -29.8825  -11.5235   17.7593 H   0  0  0  0  0  0
  -29.6659  -13.2126   17.5455 H   0  0  0  0  0  0
  -27.9675  -11.2168   19.0442 H   0  0  0  0  0  0
  -27.4149  -12.3412   17.8359 H   0  0  0  0  0  0
  -27.4864  -14.1577   19.3620 H   0  0  0  0  0  0
  -28.8201  -12.4216   21.4920 H   0  0  0  0  0  0
  -28.3527  -14.0928   21.6879 H   0  0  0  0  0  0
  -25.2709   -9.5661   22.4775 H   0  0  0  0  0  0
  -24.0008   -7.4583   22.7435 H   0  0  0  0  0  0
  -21.0844   -8.8715   19.8922 H   0  0  0  0  0  0
  -22.3651  -10.9649   19.6201 H   0  0  0  0  0  0
  -21.1935   -7.6134   23.9719 H   0  0  0  0  0  0
  -21.1502   -6.0519   25.9093 H   0  0  0  0  0  0
  -22.0595   -2.7612   23.2845 H   0  0  0  0  0  0
  -22.4052  -11.9855   22.4836 H   0  0  0  0  0  0
  -21.1036  -13.1217   22.2599 H   0  0  0  0  0  0
  -24.6717  -15.8434   20.5464 H   0  0  0  0  0  0
  -26.3030  -15.6167   20.1691 H   0  0  0  0  0  0
  -26.7271  -32.5260   23.0921 H   0  0  0  0  0  0
  -25.0023  -33.9578   25.0228 H   0  0  0  0  0  0
  -22.7555  -31.2755   21.3592 H   0  0  0  0  0  0
  -23.3764  -35.9568   23.3301 H   0  0  0  0  0  0
  -24.3582  -36.8882   22.2064 H   0  0  0  0  0  0
  -23.7259  -37.6435   23.6690 H   0  0  0  0  0  0
  -26.1698  -31.4530   20.6094 H   0  0  0  0  0  0
  -26.8727  -30.7520   22.0325 H   0  0  0  0  0  0
  -28.1225  -28.7730   21.2777 H   0  0  0  0  0  0
  -25.9735  -25.7979   19.0197 H   0  0  0  0  0  0
  -24.0176  -27.2528   18.9774 H   0  0  0  0  0  0
  -23.8176  -30.5332   19.3848 H   0  0  0  0  0  0
  -22.7982  -29.2026   19.8413 H   0  0  0  0  0  0
  -25.1330  -36.1834   25.0806 H   0  0  0  0  0  0
  -21.0012  -28.3341   24.1336 H   0  0  0  0  0  0
  -20.5682  -26.2355   23.3635 H   0  0  0  0  0  0
  -21.6660  -26.7435   22.1211 H   0  0  0  0  0  0
  -19.6941  -25.6282   21.1259 H   0  0  0  0  0  0
  -19.6696  -27.3173   20.6730 H   0  0  0  0  0  0
  -17.4217  -26.6661   21.4022 H   0  0  0  0  0  0
  -18.0348  -26.0070   22.9024 H   0  0  0  0  0  0
  -19.7969  -30.7291   24.2205 H   0  0  0  0  0  0
  -17.5046  -31.6267   24.5171 H   0  0  0  0  0  0
  -15.5375  -30.2983   23.7672 H   0  0  0  0  0  0
  -15.8692  -28.0817   22.7080 H   0  0  0  0  0  0
  -24.5865  -30.7108   25.7619 H   0  0  0  0  0  0
  -24.8908  -32.2922   26.4704 H   0  0  0  0  0  0
  -25.7957  -30.8903   27.0133 H   0  0  0  0  0  0
  -26.3039  -29.6589   24.1299 H   0  0  0  0  0  0
  -27.4060  -29.7258   25.4844 H   0  0  0  0  0  0
  -27.8929  -30.4134   23.9558 H   0  0  0  0  0  0
  -27.2628  -33.3620   26.1954 H   0  0  0  0  0  0
  -28.3878  -32.6843   25.0273 H   0  0  0  0  0  0
  -28.0690  -31.8465   26.5393 H   0  0  0  0  0  0
  -28.2595  -38.0072   24.7513 H   0  0  0  0  0  0
  -28.1080  -36.2604   24.6302 H   0  0  0  0  0  0
  -27.2295  -37.1432   25.8872 H   0  0  0  0  0  0
  -20.9483  -29.8713   21.6713 H   0  0  0  0  0  0
  -26.0159  -38.2799   24.1383 H   0  0  0  0  0  0
  -27.9791  -20.4596   19.8620 H   0  0  0  0  0  0
  -31.7419  -18.8314   21.2685 H   0  0  0  0  0  0
  -30.9691  -23.0568   21.5508 H   0  0  0  0  0  0
  -30.5086  -16.4286   17.2415 H   0  0  0  0  0  0
  -28.9128  -17.0327   16.7815 H   0  0  0  0  0  0
  -29.3292  -18.9932   17.9178 H   0  0  0  0  0  0
  -30.9609  -18.4129   18.2375 H   0  0  0  0  0  0
  -29.0308  -15.0117   18.3086 H   0  0  0  0  0  0
  -27.8989  -16.2257   18.7898 H   0  0  0  0  0  0
  -28.4433  -18.0007   19.8586 H   0  0  0  0  0  0
  -28.6431  -23.8615   21.7030 H   0  0  0  0  0  0
  -27.3553  -23.0772   20.8824 H   0  0  0  0  0  0
  -27.3893  -24.5667   19.2925 H   0  0  0  0  0  0
  1 25  1  0  0  0
  1 30  2  0  0  0
  1 82  1  0  0  0
  2  3  1  0  0  0
  2 25  1  0  0  0
  2 85  1  0  0  0
  2 86  1  0  0  0
  3  4  1  0  0  0
  3 87  1  0  0  0
  3 88  1  0  0  0
  4  5  1  0  0  0
  4 89  1  0  0  0
  4 90  1  0  0  0
  5  6  1  0  0  0
  5 26  1  0  0  0
  5 91  1  0  0  0
  6 25  1  0  0  0
  6 92  1  0  0  0
  6 93  1  0  0  0
  7  8  2  0  0  0
  7 26  1  0  0  0
  7 29  1  0  0  0
  8  9  1  0  0  0
  8 22  1  0  0  0
  9 10  1  0  0  0
  9 27  2  0  0  0
 10 11  2  0  0  0
 10 15  1  0  0  0
 11 12  1  0  0  0
 11 94  1  0  0  0
 12 13  2  0  0  0
 12 95  1  0  0  0
 13 14  1  0  0  0
 13 31  1  0  0  0
 14 15  2  0  0  0
 14 96  1  0  0  0
 15 97  1  0  0  0
 16 17  2  0  0  0
 16 21  1  0  0  0
 16 31  1  0  0  0
 17 18  1  0  0  0
 17 98  1  0  0  0
 18 19  2  0  0  0
 18 99  1  0  0  0
 19 20  1  0  0  0
 19 24  1  0  0  0
 20 21  2  0  0  0
 20100  1  0  0  0
 21 23  1  0  0  0
 22 28  1  0  0  0
 22 32  2  0  0  0
 26 27  1  0  0  0
 28101  1  0  0  0
 28102  1  0  0  0
 29103  1  0  0  0
 29104  1  0  0  0
 33 34  1  0  0  0
 33 66  1  0  0  0
 33 70  2  0  0  0
 34 36  1  0  0  0
 34 59  1  0  0  0
 34105  1  0  0  0
 35 44  2  0  0  0
 35 45  1  0  0  0
 35 68  1  0  0  0
 36 56  1  0  0  0
 36106  1  0  0  0
 37 39  1  0  0  0
 37 47  1  0  0  0
 37 66  1  0  0  0
 37107  1  0  0  0
 38 43  2  0  0  0
 38 46  1  0  0  0
 38 47  1  0  0  0
 39 64  1  0  0  0
 39 67  2  0  0  0
 40 52  1  0  0  0
 40 53  2  0  0  0
 40 58  1  0  0  0
 41108  1  0  0  0
 41109  1  0  0  0
 41110  1  0  0  0
 41 48  1  0  0  0
 42 43  1  0  0  0
 42 66  1  0  0  0
 42111  1  0  0  0
 42112  1  0  0  0
 43 44  1  0  0  0
 44113  1  0  0  0
 45 46  2  0  0  0
 45114  1  0  0  0
 46115  1  0  0  0
 47116  1  0  0  0
 47117  1  0  0  0
 48 56  1  0  0  0
 48 65  1  0  0  0
 48118  1  0  0  0
 49 50  1  0  0  0
 49 53  1  0  0  0
 49 64  1  0  0  0
 49119  1  0  0  0
 50 51  1  0  0  0
 50120  1  0  0  0
 50121  1  0  0  0
 51 52  1  0  0  0
 51122  1  0  0  0
 51123  1  0  0  0
 52124  1  0  0  0
 52125  1  0  0  0
 53 54  1  0  0  0
 54 55  2  0  0  0
 54126  1  0  0  0
 55 57  1  0  0  0
 55127  1  0  0  0
 56 69  2  0  0  0
 57 58  2  0  0  0
 57128  1  0  0  0
 58129  1  0  0  0
 59 60  1  0  0  0
 59 61  1  0  0  0
 59 62  1  0  0  0
 60130  1  0  0  0
 60131  1  0  0  0
 60132  1  0  0  0
 61133  1  0  0  0
 61134  1  0  0  0
 61135  1  0  0  0
 62136  1  0  0  0
 62137  1  0  0  0
 62138  1  0  0  0
 63 65  1  0  0  0
 63139  1  0  0  0
 63140  1  0  0  0
 63141  1  0  0  0
 64142  1  0  0  0
 65143  1  0  0  0
 68 83  1  0  0  0
 71 74  2  0  0  0
 71 75  1  0  0  0
 71144  1  0  0  0
 72 74  1  0  0  0
 72 76  2  0  0  0
 72145  1  0  0  0
 73 75  2  0  0  0
 73 76  1  0  0  0
 73146  1  0  0  0
 74 80  1  0  0  0
 75 81  1  0  0  0
 76 84  1  0  0  0
 77 78  1  0  0  0
 77 79  1  0  0  0
 77147  1  0  0  0
 77148  1  0  0  0
 78 80  1  0  0  0
 78149  1  0  0  0
 78150  1  0  0  0
 79 82  1  0  0  0
 79151  1  0  0  0
 79152  1  0  0  0
 80 82  1  0  0  0
 80153  1  0  0  0
 81 83  1  0  0  0
 81154  1  0  0  0
 81155  1  0  0  0
 83156  1  0  0  0
M  ISO  4   1 100  68 101  82 100  83 101
M  END
> <chiral flag>
0

> <version>
0

> <s_m_source_file>
/data/baiqing/PycharmProjects/Reinvent-master-3.2/result/LINK_invent/BTK/process_docking_weight1_custom_product_contain_oxygen_bond_distance_aromatic_linkinvent_7_9_3/rearranged_h_0008.sdf

> <i_m_source_file_index>
10

> <r_mmod_Potential_Energy-OPLS-2005>
1132.39099121094

> <r_mmod_Stretch_Energy-OPLS-2005>
339.803405761719

> <r_mmod_Bend_Energy-OPLS-2005>
488.695373535156

> <r_mmod_Torsional_Energy-OPLS-2005>
349.105438232422

> <r_mmod_Improper_Torsional_Energy-OPLS-2005>
17.5322742462158

> <r_mmod_Van_der_Waal_Energy-OPLS-2005>
145.912475585938

> <r_mmod_Electrostatic_Energy-OPLS-2005>
-281.857116699219

> <r_mmod_Solvation_Energy-OPLS-2005>
-214.825225830078

> <b_mmod_Minimization_Converged-OPLS-2005>
0

> <r_mmod_RMS_Derivative-OPLS-2005>
2.52236342430115

$$$$
10
                    3D
 Structure written by MMmdl.
160169  0  0  1  0            999 V2000
  -30.6477  -14.5119   20.5564 C   0  0  0  0  0  0
  -30.4430  -12.3217   19.4506 C   0  0  0  0  0  0
  -29.5197  -12.4985   18.2250 C   0  0  0  0  0  0
  -28.0341  -12.3579   18.6199 C   0  0  0  0  0  0
  -27.6659  -13.1984   19.8717 C   0  0  2  0  0  0
  -28.6982  -12.9771   21.0015 C   0  0  0  0  0  0
  -25.2632  -13.8147   20.5629 C   0  0  0  0  0  0
  -24.1866  -13.0459   20.9128 C   0  0  0  0  0  0
  -24.6402  -11.6908   20.8692 C   0  0  0  0  0  0
  -23.9061  -10.4308   21.0387 C   0  0  0  0  0  0
  -24.3620   -9.4228   21.9170 C   0  0  0  0  0  0
  -23.6301   -8.2256   22.0740 C   0  0  0  0  0  0
  -22.4281   -8.0290   21.3546 C   0  0  0  0  0  0
  -21.9913   -9.0260   20.4638 C   0  0  0  0  0  0
  -22.7231  -10.2148   20.3042 C   0  0  0  0  0  0
  -21.6868   -6.0748   22.5287 C   0  0  0  0  0  0
  -21.4019   -6.5650   23.8218 C   0  0  0  0  0  0
  -21.3647   -5.6794   24.9169 C   0  0  0  0  0  0
  -21.6037   -4.3059   24.7220 C   0  0  0  0  0  0
  -21.8824   -3.8162   23.4340 C   0  0  0  0  0  0
  -21.9191   -4.6972   22.3398 C   0  0  0  0  0  0
  -22.7890  -13.5250   21.1820 C   0  0  0  0  0  0
  -22.1661   -4.2163   21.0977 F   0  0  0  0  0  0
  -21.5616   -3.4544   25.7732 F   0  0  0  0  0  0
  -30.0311  -13.3010   20.4694 N   0  0  0  0  0  0
  -26.3041  -12.9289   20.3276 N   0  0  0  0  0  0
  -25.9319  -11.6453   20.5663 N   0  0  0  0  0  0
  -22.0534  -12.8256   22.0380 N   0  0  0  0  0  0
  -25.4450  -15.1874   20.4068 N   0  0  0  0  0  0
  -31.7746  -14.7207   20.0974 O   0  0  0  0  0  0
  -21.6661   -6.8887   21.4247 O   0  0  0  0  0  0
  -22.3569  -14.5560   20.6676 O   0  0  0  0  0  0
  -24.6159  -31.8670   23.2063 C   0  0  0  0  0  0
  -25.9055  -32.4815   23.8366 C   0  0  1  0  0  0
  -27.2431  -27.4172   20.1180 C   0  0  0  0  0  0
  -25.5878  -33.8603   24.2285 N   0  0  0  0  0  0
  -23.4078  -30.4922   21.5413 C   0  0  2  0  0  0
  -24.8588  -28.9448   20.1217 C   0  0  0  0  0  0
  -22.7420  -29.4674   22.4887 C   0  0  0  0  0  0
  -18.0311  -28.1351   22.8443 C   0  0  0  0  0  0
  -24.1490  -36.7328   23.2645 C   0  0  0  0  0  0
  -25.9377  -30.8277   21.3640 C   0  0  0  0  0  0
  -26.0167  -29.4550   20.7207 C   0  0  0  0  0  0
  -27.2142  -28.6996   20.7150 C   0  0  0  0  0  0
  -26.0702  -26.9192   19.5155 C   0  0  0  0  0  0
  -24.8789  -27.6752   19.5165 C   0  0  0  0  0  0
  -23.6280  -29.8253   20.1556 C   0  0  0  0  0  0
  -25.4109  -36.3096   24.0339 C   0  0  1  0  0  0
  -20.5895  -28.3692   23.1282 C   0  0  2  0  0  0
  -20.6831  -26.9413   22.5442 C   0  0  0  0  0  0
  -19.5869  -26.6396   21.5187 C   0  0  0  0  0  0
  -18.2042  -26.7879   22.1606 C   0  0  0  0  0  0
  -19.1536  -28.8815   23.2911 C   0  0  0  0  0  0
  -18.9415  -30.1385   23.8978 C   0  0  0  0  0  0
  -17.6419  -30.6524   24.0560 C   0  0  0  0  0  0
  -25.9036  -34.9476   23.5123 C   0  0  0  0  0  0
  -16.5339  -29.9066   23.6167 C   0  0  0  0  0  0
  -16.7289  -28.6472   23.0205 C   0  0  0  0  0  0
  -26.4492  -31.6569   25.0678 C   0  0  0  0  0  0
  -25.3744  -31.3671   26.1408 C   0  0  0  0  0  0
  -27.0317  -30.3005   24.6041 C   0  0  0  0  0  0
  -27.6060  -32.4292   25.7439 C   0  0  0  0  0  0
  -27.5569  -37.1815   24.8467 C   0  0  0  0  0  0
  -21.4142  -29.3033   22.3614 N   0  0  0  0  0  0
  -26.4274  -37.3788   23.9422 N   0  0  0  0  0  0
  -24.6716  -31.0775   22.0956 N   0  0  0  0  0  0
  -23.4167  -28.8237   23.2972 O   0  0  0  0  0  0
  -28.4138  -26.6916   20.0372 O   0  0  0  0  0  0
  -26.5617  -34.8948   22.4695 O   0  0  0  0  0  0
  -23.5345  -32.1408   23.7437 O   0  0  0  0  0  0
  -29.2671  -16.7463   19.0138 C   0  0  0  0  0  0
  -29.0051  -17.9481   18.3334 C   0  0  0  0  0  0
  -29.7046  -18.0122   21.0518 C   0  0  0  0  0  0
  -29.4350  -19.2386   20.3729 C   0  0  0  0  0  0
  -29.6526  -16.7606   20.3722 C   0  0  0  0  0  0
  -29.1119  -19.1855   18.9962 C   0  0  0  0  0  0
  -27.1518  -23.4461   20.5799 C   0  0  0  0  0  0
  -27.4699  -21.9306   20.5606 C   0  0  0  0  0  0
  -29.5035  -23.1180   20.8227 C   0  0  0  0  0  0
  -28.4827  -24.1697   20.3211 C   0  0  2  0  0  0
  -29.5552  -20.5909   21.1181 C   0  0  0  0  0  0
  -28.5937  -25.5945   20.9558 C   0  0  0  0  0  0
  -29.8885  -15.5177   21.0481 N   0  0  0  0  0  0
  -28.9423  -21.7917   20.4544 N   0  3  1  0  0  0
  -28.9032  -20.3243   18.2910 F   0  0  0  0  0  0
  -31.4864  -12.4506   19.1525 H   0  0  0  0  0  0
  -30.3737  -11.3103   19.8552 H   0  0  0  0  0  0
  -29.7766  -11.7674   17.4562 H   0  0  0  0  0  0
  -29.6912  -13.4802   17.7794 H   0  0  0  0  0  0
  -27.8449  -11.3021   18.8166 H   0  0  0  0  0  0
  -27.3965  -12.6321   17.7795 H   0  0  0  0  0  0
  -27.7094  -14.2445   19.5732 H   0  0  0  0  0  0
  -28.6785  -11.9359   21.3267 H   0  0  0  0  0  0
  -28.4472  -13.5632   21.8855 H   0  0  0  0  0  0
  -25.2769   -9.5727   22.4738 H   0  0  0  0  0  0
  -24.0020   -7.4664   22.7472 H   0  0  0  0  0  0
  -21.0837   -8.8784   19.8961 H   0  0  0  0  0  0
  -22.3678  -10.9691   19.6146 H   0  0  0  0  0  0
  -21.2033   -7.6168   23.9730 H   0  0  0  0  0  0
  -21.1450   -6.0521   25.9071 H   0  0  0  0  0  0
  -22.0617   -2.7633   23.2836 H   0  0  0  0  0  0
  -22.4112  -11.9870   22.4710 H   0  0  0  0  0  0
  -21.1160  -13.1296   22.2606 H   0  0  0  0  0  0
  -24.6936  -15.8562   20.5382 H   0  0  0  0  0  0
  -26.3037  -15.6173   20.0864 H   0  0  0  0  0  0
  -26.7124  -32.5561   23.1120 H   0  0  0  0  0  0
  -24.9949  -33.9732   25.0380 H   0  0  0  0  0  0
  -22.7003  -31.3130   21.3968 H   0  0  0  0  0  0
  -23.3716  -35.9690   23.3326 H   0  0  0  0  0  0
  -24.3583  -36.8924   22.2050 H   0  0  0  0  0  0
  -23.7276  -37.6557   23.6658 H   0  0  0  0  0  0
  -26.0547  -31.5923   20.5925 H   0  0  0  0  0  0
  -26.8234  -30.8826   21.9866 H   0  0  0  0  0  0
  -28.1146  -29.1034   21.1552 H   0  0  0  0  0  0
  -26.0907  -25.9584   19.0261 H   0  0  0  0  0  0
  -23.9920  -27.2779   19.0431 H   0  0  0  0  0  0
  -23.7656  -30.6059   19.4046 H   0  0  0  0  0  0
  -22.7462  -29.2645   19.8401 H   0  0  0  0  0  0
  -25.1283  -36.1951   25.0823 H   0  0  0  0  0  0
  -21.0011  -28.3306   24.1392 H   0  0  0  0  0  0
  -20.5722  -26.2296   23.3618 H   0  0  0  0  0  0
  -21.6718  -26.7468   22.1252 H   0  0  0  0  0  0
  -19.7050  -25.6338   21.1129 H   0  0  0  0  0  0
  -19.6829  -27.3291   20.6790 H   0  0  0  0  0  0
  -17.4265  -26.6544   21.4065 H   0  0  0  0  0  0
  -18.0522  -26.0031   22.9016 H   0  0  0  0  0  0
  -19.7855  -30.7188   24.2460 H   0  0  0  0  0  0
  -17.4954  -31.6199   24.5181 H   0  0  0  0  0  0
  -15.5343  -30.2994   23.7370 H   0  0  0  0  0  0
  -15.8721  -28.0805   22.6803 H   0  0  0  0  0  0
  -24.5927  -30.7011   25.7722 H   0  0  0  0  0  0
  -24.8923  -32.2820   26.4867 H   0  0  0  0  0  0
  -25.8089  -30.8819   27.0151 H   0  0  0  0  0  0
  -26.2834  -29.6744   24.1143 H   0  0  0  0  0  0
  -27.4134  -29.7268   25.4498 H   0  0  0  0  0  0
  -27.8675  -30.4313   23.9153 H   0  0  0  0  0  0
  -27.2665  -33.3583   26.2042 H   0  0  0  0  0  0
  -28.3856  -32.6847   25.0242 H   0  0  0  0  0  0
  -28.0736  -31.8374   26.5317 H   0  0  0  0  0  0
  -28.2588  -38.0104   24.7472 H   0  0  0  0  0  0
  -28.1046  -36.2624   24.6328 H   0  0  0  0  0  0
  -27.2288  -37.1529   25.8867 H   0  0  0  0  0  0
  -20.9300  -29.8641   21.6750 H   0  0  0  0  0  0
  -26.0164  -38.2861   24.1418 H   0  0  0  0  0  0
  -29.1679  -15.8118   18.4781 H   0  0  0  0  0  0
  -28.7244  -17.9212   17.2908 H   0  0  0  0  0  0
  -29.9781  -18.0313   22.0983 H   0  0  0  0  0  0
  -26.7577  -23.7181   21.5604 H   0  0  0  0  0  0
  -26.3931  -23.7138   19.8443 H   0  0  0  0  0  0
  -26.9912  -21.4316   19.7165 H   0  0  0  0  0  0
  -27.0949  -21.4640   21.4714 H   0  0  0  0  0  0
  -29.6098  -23.1786   21.9083 H   0  0  0  0  0  0
  -30.4923  -23.2714   20.3861 H   0  0  0  0  0  0
  -28.6304  -24.2634   19.2428 H   0  0  0  0  0  0
  -30.6242  -20.7729   21.2414 H   0  0  0  0  0  0
  -29.1490  -20.4872   22.1249 H   0  0  0  0  0  0
  -29.6082  -25.7110   21.3415 H   0  0  0  0  0  0
  -27.9458  -25.6969   21.8277 H   0  0  0  0  0  0
  -29.1061  -15.1932   21.5952 H   0  0  0  0  0  0
  -29.1357  -21.6672   19.4679 H   0  0  0  0  0  0
  1 25  1  0  0  0
  1 30  2  0  0  0
  1 83  1  0  0  0
  2  3  1  0  0  0
  2 25  1  0  0  0
  2 86  1  0  0  0
  2 87  1  0  0  0
  3  4  1  0  0  0
  3 88  1  0  0  0
  3 89  1  0  0  0
  4  5  1  0  0  0
  4 90  1  0  0  0
  4 91  1  0  0  0
  5  6  1  0  0  0
  5 26  1  0  0  0
  5 92  1  0  0  0
  6 25  1  0  0  0
  6 93  1  0  0  0
  6 94  1  0  0  0
  7  8  2  0  0  0
  7 26  1  0  0  0
  7 29  1  0  0  0
  8  9  1  0  0  0
  8 22  1  0  0  0
  9 10  1  0  0  0
  9 27  2  0  0  0
 10 11  2  0  0  0
 10 15  1  0  0  0
 11 12  1  0  0  0
 11 95  1  0  0  0
 12 13  2  0  0  0
 12 96  1  0  0  0
 13 14  1  0  0  0
 13 31  1  0  0  0
 14 15  2  0  0  0
 14 97  1  0  0  0
 15 98  1  0  0  0
 16 17  2  0  0  0
 16 21  1  0  0  0
 16 31  1  0  0  0
 17 18  1  0  0  0
 17 99  1  0  0  0
 18 19  2  0  0  0
 18100  1  0  0  0
 19 20  1  0  0  0
 19 24  1  0  0  0
 20 21  2  0  0  0
 20101  1  0  0  0
 21 23  1  0  0  0
 22 28  1  0  0  0
 22 32  2  0  0  0
 26 27  1  0  0  0
 28102  1  0  0  0
 28103  1  0  0  0
 29104  1  0  0  0
 29105  1  0  0  0
 33 34  1  0  0  0
 33 66  1  0  0  0
 33 70  2  0  0  0
 34 36  1  0  0  0
 34 59  1  0  0  0
 34106  1  0  0  0
 35 44  2  0  0  0
 35 45  1  0  0  0
 35 68  1  0  0  0
 36 56  1  0  0  0
 36107  1  0  0  0
 37 39  1  0  0  0
 37 47  1  0  0  0
 37 66  1  0  0  0
 37108  1  0  0  0
 38 43  2  0  0  0
 38 46  1  0  0  0
 38 47  1  0  0  0
 39 64  1  0  0  0
 39 67  2  0  0  0
 40 52  1  0  0  0
 40 53  2  0  0  0
 40 58  1  0  0  0
 41109  1  0  0  0
 41110  1  0  0  0
 41111  1  0  0  0
 41 48  1  0  0  0
 42 43  1  0  0  0
 42 66  1  0  0  0
 42112  1  0  0  0
 42113  1  0  0  0
 43 44  1  0  0  0
 44114  1  0  0  0
 45 46  2  0  0  0
 45115  1  0  0  0
 46116  1  0  0  0
 47117  1  0  0  0
 47118  1  0  0  0
 48 56  1  0  0  0
 48 65  1  0  0  0
 48119  1  0  0  0
 49 50  1  0  0  0
 49 53  1  0  0  0
 49 64  1  0  0  0
 49120  1  0  0  0
 50 51  1  0  0  0
 50121  1  0  0  0
 50122  1  0  0  0
 51 52  1  0  0  0
 51123  1  0  0  0
 51124  1  0  0  0
 52125  1  0  0  0
 52126  1  0  0  0
 53 54  1  0  0  0
 54 55  2  0  0  0
 54127  1  0  0  0
 55 57  1  0  0  0
 55128  1  0  0  0
 56 69  2  0  0  0
 57 58  2  0  0  0
 57129  1  0  0  0
 58130  1  0  0  0
 59 60  1  0  0  0
 59 61  1  0  0  0
 59 62  1  0  0  0
 60131  1  0  0  0
 60132  1  0  0  0
 60133  1  0  0  0
 61134  1  0  0  0
 61135  1  0  0  0
 61136  1  0  0  0
 62137  1  0  0  0
 62138  1  0  0  0
 62139  1  0  0  0
 63 65  1  0  0  0
 63140  1  0  0  0
 63141  1  0  0  0
 63142  1  0  0  0
 64143  1  0  0  0
 65144  1  0  0  0
 68 82  1  0  0  0
 71 72  2  0  0  0
 71 75  1  0  0  0
 71145  1  0  0  0
 72 76  1  0  0  0
 72146  1  0  0  0
 73 74  1  0  0  0
 73 75  2  0  0  0
 73147  1  0  0  0
 74 76  2  0  0  0
 74 81  1  0  0  0
 75 83  1  0  0  0
 76 85  1  0  0  0
 77 78  1  0  0  0
 77 80  1  0  0  0
 77148  1  0  0  0
 77149  1  0  0  0
 78 84  1  0  0  0
 78150  1  0  0  0
 78151  1  0  0  0
 79 80  1  0  0  0
 79 84  1  0  0  0
 79152  1  0  0  0
 79153  1  0  0  0
 80 82  1  0  0  0
 80154  1  0  0  0
 81155  1  0  0  0
 81156  1  0  0  0
 81 84  1  0  0  0
 82157  1  0  0  0
 82158  1  0  0  0
 83159  1  0  0  0
 84160  1  0  0  0
M  CHG  1  84   1
M  ISO  4   1 100  68 101  82 101  83 100
M  END
> <chiral flag>
0

> <version>
0

> <s_m_source_file>
/data/baiqing/PycharmProjects/Reinvent-master-3.2/result/LINK_invent/BTK/process_docking_weight1_custom_product_contain_oxygen_bond_distance_aromatic_linkinvent_7_9_3/rearranged_h_0008.sdf

> <i_m_source_file_index>
11

> <r_mmod_Potential_Energy-OPLS-2005>
-92.7140426635742

> <r_mmod_Stretch_Energy-OPLS-2005>
43.8234176635742

> <r_mmod_Bend_Energy-OPLS-2005>
123.952407836914

> <r_mmod_Torsional_Energy-OPLS-2005>
339.3330078125

> <r_mmod_Improper_Torsional_Energy-OPLS-2005>
6.54269552230835

> <r_mmod_Van_der_Waal_Energy-OPLS-2005>
140.75959777832

> <r_mmod_Electrostatic_Energy-OPLS-2005>
-322.464996337891

> <r_mmod_Solvation_Energy-OPLS-2005>
-440.799224853516

> <b_mmod_Minimization_Converged-OPLS-2005>
0

> <r_mmod_RMS_Derivative-OPLS-2005>
3.77935647964478

$$$$
11
                    3D
 Structure written by MMmdl.
148156  0  0  1  0            999 V2000
  -30.5089  -14.9122   20.4351 C   0  0  0  0  0  0
  -30.4555  -12.5616   19.4901 C   0  0  0  0  0  0
  -29.5264  -12.5317   18.2520 C   0  0  0  0  0  0
  -28.0565  -12.3206   18.6662 C   0  0  0  0  0  0
  -27.6389  -13.2354   19.8464 C   0  0  2  0  0  0
  -28.6835  -13.2119   20.9840 C   0  0  0  0  0  0
  -25.2500  -13.8182   20.5681 C   0  0  0  0  0  0
  -24.1806  -13.0431   20.9230 C   0  0  0  0  0  0
  -24.6402  -11.6911   20.8760 C   0  0  0  0  0  0
  -23.9076  -10.4289   21.0416 C   0  0  0  0  0  0
  -24.3624   -9.4201   21.9190 C   0  0  0  0  0  0
  -23.6294   -8.2240   22.0758 C   0  0  0  0  0  0
  -22.4276   -8.0282   21.3547 C   0  0  0  0  0  0
  -21.9915   -9.0259   20.4652 C   0  0  0  0  0  0
  -22.7249  -10.2135   20.3063 C   0  0  0  0  0  0
  -21.6853   -6.0736   22.5279 C   0  0  0  0  0  0
  -21.4015   -6.5640   23.8212 C   0  0  0  0  0  0
  -21.3659   -5.6793   24.9175 C   0  0  0  0  0  0
  -21.6044   -4.3056   24.7225 C   0  0  0  0  0  0
  -21.8818   -3.8147   23.4347 C   0  0  0  0  0  0
  -21.9192   -4.6963   22.3402 C   0  0  0  0  0  0
  -22.7826  -13.5218   21.1880 C   0  0  0  0  0  0
  -22.1661   -4.2149   21.0979 F   0  0  0  0  0  0
  -21.5626   -3.4539   25.7738 F   0  0  0  0  0  0
  -29.9682  -13.6307   20.4025 N   0  0  0  0  0  0
  -26.2925  -12.9392   20.3247 N   0  0  0  0  0  0
  -25.9332  -11.6537   20.5742 N   0  0  0  0  0  0
  -22.0465  -12.8213   22.0434 N   0  0  0  0  0  0
  -25.4162  -15.1901   20.4026 N   0  0  0  0  0  0
  -31.6970  -15.0562   20.1234 O   0  0  0  0  0  0
  -21.6639   -6.8881   21.4242 O   0  0  0  0  0  0
  -22.3518  -14.5520   20.6717 O   0  0  0  0  0  0
  -24.6422  -31.8456   23.1895 C   0  0  0  0  0  0
  -25.9199  -32.4704   23.8282 C   0  0  1  0  0  0
  -27.2214  -27.1519   20.1469 C   0  0  0  0  0  0
  -25.5952  -33.8509   24.2201 N   0  0  0  0  0  0
  -23.4453  -30.4654   21.5351 C   0  0  2  0  0  0
  -24.8953  -28.8959   20.1105 C   0  0  0  0  0  0
  -22.7562  -29.4552   22.4864 C   0  0  0  0  0  0
  -18.0305  -28.1392   22.8480 C   0  0  0  0  0  0
  -24.1492  -36.7261   23.2642 C   0  0  0  0  0  0
  -26.0006  -30.7245   21.3860 C   0  0  0  0  0  0
  -26.0728  -29.3373   20.7273 C   0  0  0  0  0  0
  -27.2369  -28.4820   20.7280 C   0  0  0  0  0  0
  -26.0152  -26.8096   19.4937 C   0  0  0  0  0  0
  -24.8787  -27.6448   19.4786 C   0  0  0  0  0  0
  -23.6712  -29.7962   20.1539 C   0  0  0  0  0  0
  -25.4122  -36.3038   24.0318 C   0  0  1  0  0  0
  -20.5917  -28.3717   23.1239 C   0  0  2  0  0  0
  -20.6789  -26.9422   22.5403 C   0  0  0  0  0  0
  -19.5760  -26.6380   21.5213 C   0  0  0  0  0  0
  -18.1944  -26.7931   22.1628 C   0  0  0  0  0  0
  -19.1562  -28.8873   23.2853 C   0  0  0  0  0  0
  -18.9477  -30.1469   23.8878 C   0  0  0  0  0  0
  -17.6473  -30.6589   24.0558 C   0  0  0  0  0  0
  -25.9071  -34.9412   23.5068 C   0  0  0  0  0  0
  -16.5365  -29.9082   23.6333 C   0  0  0  0  0  0
  -16.7289  -28.6500   23.0357 C   0  0  0  0  0  0
  -26.4522  -31.6564   25.0716 C   0  0  0  0  0  0
  -25.3712  -31.3749   26.1414 C   0  0  0  0  0  0
  -27.0385  -30.2963   24.6283 C   0  0  0  0  0  0
  -27.6053  -32.4328   25.7502 C   0  0  0  0  0  0
  -27.5575  -37.1788   24.8465 C   0  0  0  0  0  0
  -21.4255  -29.3048   22.3615 N   0  0  0  0  0  0
  -26.4286  -37.3749   23.9408 N   0  0  0  0  0  0
  -24.7158  -31.0325   22.0923 N   0  0  0  0  0  0
  -23.4210  -28.8096   23.3008 O   0  0  0  0  0  0
  -28.2796  -26.1752   20.2158 O   0  0  0  0  0  0
  -26.5655  -34.8906   22.4645 O   0  0  0  0  0  0
  -23.5543  -32.1325   23.7122 O   0  0  0  0  0  0
  -30.4979  -18.5502   20.3681 C   0  0  0  0  0  0
  -30.1918  -19.9876   20.3030 C   0  0  0  0  0  0
  -28.2013  -18.0915   20.6159 C   0  0  0  0  0  0
  -29.5058  -17.5125   20.5303 C   0  0  0  0  0  0
  -28.8604  -20.5427   20.3787 C   0  0  0  0  0  0
  -27.8953  -19.4982   20.5370 C   0  0  0  0  0  0
  -27.9814  -24.6559   20.0800 C   0  0  0  0  0  0
  -28.9666  -23.3090   20.3181 C   0  0  0  0  0  0
  -29.6181  -15.9877   20.6567 N   0  0  0  0  0  0
  -28.3436  -21.9122   20.2867 O   0  0  0  0  0  0
  -26.5907  -19.8568   20.6201 F   0  0  0  0  0  0
  -31.4867  -12.7370   19.1791 H   0  0  0  0  0  0
  -30.4561  -11.5962   19.9987 H   0  0  0  0  0  0
  -29.8377  -11.7454   17.5632 H   0  0  0  0  0  0
  -29.6191  -13.4710   17.7045 H   0  0  0  0  0  0
  -27.9424  -11.2750   18.9545 H   0  0  0  0  0  0
  -27.3955  -12.4747   17.8124 H   0  0  0  0  0  0
  -27.6160  -14.2467   19.4405 H   0  0  0  0  0  0
  -28.7608  -12.2155   21.4218 H   0  0  0  0  0  0
  -28.3869  -13.8773   21.7964 H   0  0  0  0  0  0
  -25.2769   -9.5672   22.4767 H   0  0  0  0  0  0
  -24.0000   -7.4629   22.7477 H   0  0  0  0  0  0
  -21.0844   -8.8784   19.8957 H   0  0  0  0  0  0
  -22.3712  -10.9678   19.6174 H   0  0  0  0  0  0
  -21.2010   -7.6149   23.9716 H   0  0  0  0  0  0
  -21.1480   -6.0523   25.9077 H   0  0  0  0  0  0
  -22.0597   -2.7608   23.2848 H   0  0  0  0  0  0
  -22.4083  -11.9878   22.4830 H   0  0  0  0  0  0
  -21.1084  -13.1242   22.2641 H   0  0  0  0  0  0
  -24.6295  -15.8261   20.4770 H   0  0  0  0  0  0
  -26.2182  -15.6066   19.9499 H   0  0  0  0  0  0
  -26.7265  -32.5316   23.1014 H   0  0  0  0  0  0
  -25.0077  -33.9626   25.0333 H   0  0  0  0  0  0
  -22.7472  -31.2910   21.3818 H   0  0  0  0  0  0
  -23.3757  -35.9590   23.3292 H   0  0  0  0  0  0
  -24.3578  -36.8903   22.2059 H   0  0  0  0  0  0
  -23.7245  -37.6454   23.6684 H   0  0  0  0  0  0
  -26.1536  -31.4794   20.6136 H   0  0  0  0  0  0
  -26.8721  -30.7754   22.0269 H   0  0  0  0  0  0
  -28.1335  -28.8156   21.2313 H   0  0  0  0  0  0
  -25.9102  -25.8553   19.0018 H   0  0  0  0  0  0
  -23.9801  -27.3016   18.9846 H   0  0  0  0  0  0
  -23.8070  -30.5716   19.3992 H   0  0  0  0  0  0
  -22.7864  -29.2380   19.8427 H   0  0  0  0  0  0
  -25.1309  -36.1869   25.0810 H   0  0  0  0  0  0
  -21.0010  -28.3306   24.1360 H   0  0  0  0  0  0
  -20.5685  -26.2330   23.3621 H   0  0  0  0  0  0
  -21.6654  -26.7429   22.1199 H   0  0  0  0  0  0
  -19.6921  -25.6286   21.1255 H   0  0  0  0  0  0
  -19.6694  -27.3179   20.6734 H   0  0  0  0  0  0
  -17.4210  -26.6673   21.4035 H   0  0  0  0  0  0
  -18.0346  -26.0078   22.9030 H   0  0  0  0  0  0
  -19.7952  -30.7291   24.2241 H   0  0  0  0  0  0
  -17.5025  -31.6268   24.5163 H   0  0  0  0  0  0
  -15.5364  -30.2977   23.7663 H   0  0  0  0  0  0
  -15.8691  -28.0808   22.7085 H   0  0  0  0  0  0
  -24.5894  -30.7094   25.7734 H   0  0  0  0  0  0
  -24.8898  -32.2930   26.4792 H   0  0  0  0  0  0
  -25.7998  -30.8952   27.0222 H   0  0  0  0  0  0
  -26.2998  -29.6690   24.1281 H   0  0  0  0  0  0
  -27.3997  -29.7256   25.4848 H   0  0  0  0  0  0
  -27.8906  -30.4204   23.9597 H   0  0  0  0  0  0
  -27.2645  -33.3646   26.2028 H   0  0  0  0  0  0
  -28.3892  -32.6860   25.0352 H   0  0  0  0  0  0
  -28.0689  -31.8488   26.5463 H   0  0  0  0  0  0
  -28.2585  -38.0091   24.7510 H   0  0  0  0  0  0
  -28.1079  -36.2622   24.6295 H   0  0  0  0  0  0
  -27.2293  -37.1437   25.8868 H   0  0  0  0  0  0
  -20.9461  -29.8768   21.6802 H   0  0  0  0  0  0
  -26.0155  -38.2818   24.1409 H   0  0  0  0  0  0
  -31.5349  -18.2525   20.2974 H   0  0  0  0  0  0
  -31.0171  -20.6732   20.1773 H   0  0  0  0  0  0
  -27.3590  -17.4297   20.7477 H   0  0  0  0  0  0
  -27.1214  -24.4889   20.7294 H   0  0  0  0  0  0
  -27.6025  -24.5258   19.0670 H   0  0  0  0  0  0
  -29.4518  -23.4117   21.2888 H   0  0  0  0  0  0
  -29.7707  -23.3307   19.5826 H   0  0  0  0  0  0
  -28.7268  -15.5824   20.8973 H   0  0  0  0  0  0
  1 25  1  0  0  0
  1 30  2  0  0  0
  1 79  1  0  0  0
  2  3  1  0  0  0
  2 25  1  0  0  0
  2 82  1  0  0  0
  2 83  1  0  0  0
  3  4  1  0  0  0
  3 84  1  0  0  0
  3 85  1  0  0  0
  4  5  1  0  0  0
  4 86  1  0  0  0
  4 87  1  0  0  0
  5  6  1  0  0  0
  5 26  1  0  0  0
  5 88  1  0  0  0
  6 25  1  0  0  0
  6 89  1  0  0  0
  6 90  1  0  0  0
  7  8  2  0  0  0
  7 26  1  0  0  0
  7 29  1  0  0  0
  8  9  1  0  0  0
  8 22  1  0  0  0
  9 10  1  0  0  0
  9 27  2  0  0  0
 10 11  2  0  0  0
 10 15  1  0  0  0
 11 12  1  0  0  0
 11 91  1  0  0  0
 12 13  2  0  0  0
 12 92  1  0  0  0
 13 14  1  0  0  0
 13 31  1  0  0  0
 14 15  2  0  0  0
 14 93  1  0  0  0
 15 94  1  0  0  0
 16 17  2  0  0  0
 16 21  1  0  0  0
 16 31  1  0  0  0
 17 18  1  0  0  0
 17 95  1  0  0  0
 18 19  2  0  0  0
 18 96  1  0  0  0
 19 20  1  0  0  0
 19 24  1  0  0  0
 20 21  2  0  0  0
 20 97  1  0  0  0
 21 23  1  0  0  0
 22 28  1  0  0  0
 22 32  2  0  0  0
 26 27  1  0  0  0
 28 98  1  0  0  0
 28 99  1  0  0  0
 29100  1  0  0  0
 29101  1  0  0  0
 33 34  1  0  0  0
 33 66  1  0  0  0
 33 70  2  0  0  0
 34 36  1  0  0  0
 34 59  1  0  0  0
 34102  1  0  0  0
 35 44  2  0  0  0
 35 45  1  0  0  0
 35 68  1  0  0  0
 36 56  1  0  0  0
 36103  1  0  0  0
 37 39  1  0  0  0
 37 47  1  0  0  0
 37 66  1  0  0  0
 37104  1  0  0  0
 38 43  2  0  0  0
 38 46  1  0  0  0
 38 47  1  0  0  0
 39 64  1  0  0  0
 39 67  2  0  0  0
 40 52  1  0  0  0
 40 53  2  0  0  0
 40 58  1  0  0  0
 41105  1  0  0  0
 41106  1  0  0  0
 41107  1  0  0  0
 41 48  1  0  0  0
 42 43  1  0  0  0
 42 66  1  0  0  0
 42108  1  0  0  0
 42109  1  0  0  0
 43 44  1  0  0  0
 44110  1  0  0  0
 45 46  2  0  0  0
 45111  1  0  0  0
 46112  1  0  0  0
 47113  1  0  0  0
 47114  1  0  0  0
 48 56  1  0  0  0
 48 65  1  0  0  0
 48115  1  0  0  0
 49 50  1  0  0  0
 49 53  1  0  0  0
 49 64  1  0  0  0
 49116  1  0  0  0
 50 51  1  0  0  0
 50117  1  0  0  0
 50118  1  0  0  0
 51 52  1  0  0  0
 51119  1  0  0  0
 51120  1  0  0  0
 52121  1  0  0  0
 52122  1  0  0  0
 53 54  1  0  0  0
 54 55  2  0  0  0
 54123  1  0  0  0
 55 57  1  0  0  0
 55124  1  0  0  0
 56 69  2  0  0  0
 57 58  2  0  0  0
 57125  1  0  0  0
 58126  1  0  0  0
 59 60  1  0  0  0
 59 61  1  0  0  0
 59 62  1  0  0  0
 60127  1  0  0  0
 60128  1  0  0  0
 60129  1  0  0  0
 61130  1  0  0  0
 61131  1  0  0  0
 61132  1  0  0  0
 62133  1  0  0  0
 62134  1  0  0  0
 62135  1  0  0  0
 63 65  1  0  0  0
 63136  1  0  0  0
 63137  1  0  0  0
 63138  1  0  0  0
 64139  1  0  0  0
 65140  1  0  0  0
 68 77  1  0  0  0
 71 72  2  0  0  0
 71 74  1  0  0  0
 71141  1  0  0  0
 72 75  1  0  0  0
 72142  1  0  0  0
 73 74  2  0  0  0
 73 76  1  0  0  0
 73143  1  0  0  0
 74 79  1  0  0  0
 75 76  2  0  0  0
 75 80  1  0  0  0
 76 81  1  0  0  0
 77 78  1  0  0  0
 77144  1  0  0  0
 77145  1  0  0  0
 78 80  1  0  0  0
 78146  1  0  0  0
 78147  1  0  0  0
 79148  1  0  0  0
M  ISO  4   1 100  68 101  77 101  79 100
M  END
> <chiral flag>
0

> <version>
0

> <s_m_source_file>
/data/baiqing/PycharmProjects/Reinvent-master-3.2/result/LINK_invent/BTK/process_docking_weight1_custom_product_contain_oxygen_bond_distance_aromatic_linkinvent_7_9_3/rearranged_h_0008.sdf

> <i_m_source_file_index>
12

> <r_mmod_Potential_Energy-OPLS-2005>
491.091247558594

> <r_mmod_Stretch_Energy-OPLS-2005>
216.953765869141

> <r_mmod_Bend_Energy-OPLS-2005>
302.484619140625

> <r_mmod_Torsional_Energy-OPLS-2005>
212.021713256836

> <r_mmod_Improper_Torsional_Energy-OPLS-2005>
4.76716709136963

> <r_mmod_Van_der_Waal_Energy-OPLS-2005>
130.573699951172

> <r_mmod_Electrostatic_Energy-OPLS-2005>
-337.487060546875

> <r_mmod_Solvation_Energy-OPLS-2005>
-212.451721191406

> <b_mmod_Minimization_Converged-OPLS-2005>
0

> <r_mmod_RMS_Derivative-OPLS-2005>
0.366873770952225

$$$$
12
                    3D
 Structure written by MMmdl.
146154  0  0  1  0            999 V2000
  -30.4139  -15.2386   20.3768 C   0  0  0  0  0  0
  -30.4477  -12.7867   19.5247 C   0  0  0  0  0  0
  -29.5384  -12.5769   18.2863 C   0  0  0  0  0  0
  -28.0835  -12.3056   18.7101 C   0  0  0  0  0  0
  -27.6167  -13.2701   19.8288 C   0  0  2  0  0  0
  -28.6519  -13.4110   20.9650 C   0  0  0  0  0  0
  -25.2404  -13.8236   20.5736 C   0  0  0  0  0  0
  -24.1750  -13.0430   20.9242 C   0  0  0  0  0  0
  -24.6401  -11.6926   20.8754 C   0  0  0  0  0  0
  -23.9092  -10.4289   21.0404 C   0  0  0  0  0  0
  -24.3636   -9.4204   21.9184 C   0  0  0  0  0  0
  -23.6303   -8.2243   22.0754 C   0  0  0  0  0  0
  -22.4285   -8.0283   21.3544 C   0  0  0  0  0  0
  -21.9926   -9.0257   20.4645 C   0  0  0  0  0  0
  -22.7262  -10.2132   20.3053 C   0  0  0  0  0  0
  -21.6856   -6.0738   22.5279 C   0  0  0  0  0  0
  -21.4016   -6.5640   23.8212 C   0  0  0  0  0  0
  -21.3660   -5.6793   24.9174 C   0  0  0  0  0  0
  -21.6044   -4.3056   24.7224 C   0  0  0  0  0  0
  -21.8819   -3.8148   23.4345 C   0  0  0  0  0  0
  -21.9193   -4.6965   22.3402 C   0  0  0  0  0  0
  -22.7768  -13.5186   21.1898 C   0  0  0  0  0  0
  -22.1662   -4.2151   21.0980 F   0  0  0  0  0  0
  -21.5628   -3.4539   25.7737 F   0  0  0  0  0  0
  -29.8899  -13.9172   20.3498 N   0  0  0  0  0  0
  -26.2836  -12.9505   20.3225 N   0  0  0  0  0  0
  -25.9339  -11.6613   20.5720 N   0  0  0  0  0  0
  -22.0429  -12.8168   22.0455 N   0  0  0  0  0  0
  -25.4015  -15.1972   20.4188 N   0  0  0  0  0  0
  -31.6289  -15.2919   20.1342 O   0  0  0  0  0  0
  -21.6644   -6.8883   21.4242 O   0  0  0  0  0  0
  -22.3443  -14.5489   20.6744 O   0  0  0  0  0  0
  -24.6602  -31.8249   23.1715 C   0  0  0  0  0  0
  -25.9294  -32.4593   23.8172 C   0  0  1  0  0  0
  -27.2229  -26.9432   20.1893 C   0  0  0  0  0  0
  -25.5970  -33.8408   24.2078 N   0  0  0  0  0  0
  -23.4746  -30.4353   21.5197 C   0  0  2  0  0  0
  -24.9289  -28.8200   20.1158 C   0  0  0  0  0  0
  -22.7654  -29.4444   22.4790 C   0  0  0  0  0  0
  -18.0321  -28.1408   22.8467 C   0  0  0  0  0  0
  -24.1495  -36.7210   23.2650 C   0  0  0  0  0  0
  -26.0414  -30.6341   21.4019 C   0  0  0  0  0  0
  -26.1088  -29.2224   20.7539 C   0  0  0  0  0  0
  -27.2479  -28.3019   20.7716 C   0  0  0  0  0  0
  -26.0181  -26.6892   19.4981 C   0  0  0  0  0  0
  -24.9063  -27.5720   19.4704 C   0  0  0  0  0  0
  -23.7148  -29.7475   20.1469 C   0  0  0  0  0  0
  -25.4137  -36.2972   24.0301 C   0  0  1  0  0  0
  -20.5943  -28.3749   23.1195 C   0  0  2  0  0  0
  -20.6796  -26.9433   22.5405 C   0  0  0  0  0  0
  -19.5771  -26.6378   21.5215 C   0  0  0  0  0  0
  -18.1953  -26.7942   22.1624 C   0  0  0  0  0  0
  -19.1581  -28.8900   23.2817 C   0  0  0  0  0  0
  -18.9494  -30.1490   23.8853 C   0  0  0  0  0  0
  -17.6488  -30.6598   24.0556 C   0  0  0  0  0  0
  -25.9096  -34.9353   23.5011 C   0  0  0  0  0  0
  -16.5377  -29.9086   23.6344 C   0  0  0  0  0  0
  -16.7304  -28.6507   23.0362 C   0  0  0  0  0  0
  -26.4554  -31.6536   25.0697 C   0  0  0  0  0  0
  -25.3685  -31.3785   26.1356 C   0  0  0  0  0  0
  -27.0453  -30.2906   24.6424 C   0  0  0  0  0  0
  -27.6046  -32.4347   25.7498 C   0  0  0  0  0  0
  -27.5563  -37.1773   24.8475 C   0  0  0  0  0  0
  -21.4326  -29.3040   22.3542 N   0  0  0  0  0  0
  -26.4288  -37.3699   23.9395 N   0  0  0  0  0  0
  -24.7464  -30.9923   22.0846 N   0  0  0  0  0  0
  -23.4208  -28.8022   23.3032 O   0  0  0  0  0  0
  -28.2587  -25.8748   20.2122 O   0  0  0  0  0  0
  -26.5706  -34.8885   22.4607 O   0  0  0  0  0  0
  -23.5677  -32.1218   23.6815 O   0  0  0  0  0  0
  -28.0790  -20.2995   20.5659 C   0  0  0  0  0  0
  -30.5118  -19.0711   20.1596 C   0  0  0  0  0  0
  -29.0860  -21.3203   20.3105 C   0  0  0  0  0  0
  -29.5038  -18.0543   20.4173 C   0  0  0  0  0  0
  -28.2700  -18.8203   20.6115 C   0  0  0  0  0  0
  -30.3199  -20.5499   20.1138 C   0  0  0  0  0  0
  -29.0284  -23.0770   20.2852 C   0  0  0  0  0  0
  -29.5593  -16.4360   20.4994 N   0  0  0  0  0  0
  -27.8758  -24.2242   20.2727 N   0  0  0  0  0  0
  -27.1637  -18.0825   20.8670 F   0  0  0  0  0  0
  -31.4341  -21.2782   19.8656 F   0  0  0  0  0  0
  -31.4654  -13.0005   19.1953 H   0  0  0  0  0  0
  -30.5166  -11.8720   20.1157 H   0  0  0  0  0  0
  -29.9117  -11.7547   17.6744 H   0  0  0  0  0  0
  -29.5734  -13.4678   17.6573 H   0  0  0  0  0  0
  -28.0312  -11.2773   19.0695 H   0  0  0  0  0  0
  -27.4163  -12.3635   17.8493 H   0  0  0  0  0  0
  -27.5409  -14.2452   19.3465 H   0  0  0  0  0  0
  -28.8112  -12.4625   21.4799 H   0  0  0  0  0  0
  -28.2970  -14.1158   21.7186 H   0  0  0  0  0  0
  -25.2777   -9.5680   22.4763 H   0  0  0  0  0  0
  -24.0007   -7.4636   22.7477 H   0  0  0  0  0  0
  -21.0855   -8.8780   19.8951 H   0  0  0  0  0  0
  -22.3720  -10.9672   19.6164 H   0  0  0  0  0  0
  -21.2010   -7.6148   23.9716 H   0  0  0  0  0  0
  -21.1482   -6.0523   25.9077 H   0  0  0  0  0  0
  -22.0597   -2.7609   23.2845 H   0  0  0  0  0  0
  -22.4061  -11.9833   22.4839 H   0  0  0  0  0  0
  -21.1044  -13.1178   22.2670 H   0  0  0  0  0  0
  -24.6314  -15.8433   20.5526 H   0  0  0  0  0  0
  -26.2425  -15.6563   20.0963 H   0  0  0  0  0  0
  -26.7361  -32.5139   23.0885 H   0  0  0  0  0  0
  -25.0068  -33.9489   25.0196 H   0  0  0  0  0  0
  -22.7869  -31.2659   21.3478 H   0  0  0  0  0  0
  -23.3755  -35.9545   23.3321 H   0  0  0  0  0  0
  -24.3560  -36.8847   22.2062 H   0  0  0  0  0  0
  -23.7265  -37.6409   23.6699 H   0  0  0  0  0  0
  -26.2188  -31.3724   20.6188 H   0  0  0  0  0  0
  -26.9027  -30.6941   22.0552 H   0  0  0  0  0  0
  -28.1455  -28.6097   21.2891 H   0  0  0  0  0  0
  -25.9132  -25.7371   18.9973 H   0  0  0  0  0  0
  -24.0111  -27.2590   18.9509 H   0  0  0  0  0  0
  -23.8700  -30.5140   19.3867 H   0  0  0  0  0  0
  -22.8251  -29.2003   19.8306 H   0  0  0  0  0  0
  -25.1339  -36.1775   25.0794 H   0  0  0  0  0  0
  -21.0029  -28.3357   24.1319 H   0  0  0  0  0  0
  -20.5680  -26.2368   23.3643 H   0  0  0  0  0  0
  -21.6660  -26.7413   22.1209 H   0  0  0  0  0  0
  -19.6931  -25.6278   21.1274 H   0  0  0  0  0  0
  -19.6711  -27.3165   20.6725 H   0  0  0  0  0  0
  -17.4221  -26.6687   21.4027 H   0  0  0  0  0  0
  -18.0346  -26.0094   22.9030 H   0  0  0  0  0  0
  -19.7970  -30.7317   24.2202 H   0  0  0  0  0  0
  -17.5041  -31.6275   24.5165 H   0  0  0  0  0  0
  -15.5375  -30.2974   23.7694 H   0  0  0  0  0  0
  -15.8705  -28.0811   22.7102 H   0  0  0  0  0  0
  -24.5882  -30.7118   25.7667 H   0  0  0  0  0  0
  -24.8856  -32.2986   26.4657 H   0  0  0  0  0  0
  -25.7918  -30.9036   27.0216 H   0  0  0  0  0  0
  -26.3119  -29.6579   24.1412 H   0  0  0  0  0  0
  -27.3972  -29.7271   25.5076 H   0  0  0  0  0  0
  -27.9064  -30.4093   23.9844 H   0  0  0  0  0  0
  -27.2613  -33.3692   26.1949 H   0  0  0  0  0  0
  -28.3920  -32.6838   25.0373 H   0  0  0  0  0  0
  -28.0642  -31.8561   26.5521 H   0  0  0  0  0  0
  -28.2598  -38.0048   24.7461 H   0  0  0  0  0  0
  -28.1040  -36.2571   24.6385 H   0  0  0  0  0  0
  -27.2266  -37.1514   25.8876 H   0  0  0  0  0  0
  -20.9580  -29.8722   21.6665 H   0  0  0  0  0  0
  -26.0141  -38.2768   24.1365 H   0  0  0  0  0  0
  -27.0763  -20.6546   20.7512 H   0  0  0  0  0  0
  -31.5164  -18.7164   19.9846 H   0  0  0  0  0  0
  -29.6395  -23.3260   19.4174 H   0  0  0  0  0  0
  -29.6540  -23.3527   21.1347 H   0  0  0  0  0  0
  -28.6270  -16.0990   20.6870 H   0  0  0  0  0  0
  -27.3230  -24.1164   21.1188 H   0  0  0  0  0  0
  1 25  1  0  0  0
  1 30  2  0  0  0
  1 78  1  0  0  0
  2  3  1  0  0  0
  2 25  1  0  0  0
  2 82  1  0  0  0
  2 83  1  0  0  0
  3  4  1  0  0  0
  3 84  1  0  0  0
  3 85  1  0  0  0
  4  5  1  0  0  0
  4 86  1  0  0  0
  4 87  1  0  0  0
  5  6  1  0  0  0
  5 26  1  0  0  0
  5 88  1  0  0  0
  6 25  1  0  0  0
  6 89  1  0  0  0
  6 90  1  0  0  0
  7  8  2  0  0  0
  7 26  1  0  0  0
  7 29  1  0  0  0
  8  9  1  0  0  0
  8 22  1  0  0  0
  9 10  1  0  0  0
  9 27  2  0  0  0
 10 11  2  0  0  0
 10 15  1  0  0  0
 11 12  1  0  0  0
 11 91  1  0  0  0
 12 13  2  0  0  0
 12 92  1  0  0  0
 13 14  1  0  0  0
 13 31  1  0  0  0
 14 15  2  0  0  0
 14 93  1  0  0  0
 15 94  1  0  0  0
 16 17  2  0  0  0
 16 21  1  0  0  0
 16 31  1  0  0  0
 17 18  1  0  0  0
 17 95  1  0  0  0
 18 19  2  0  0  0
 18 96  1  0  0  0
 19 20  1  0  0  0
 19 24  1  0  0  0
 20 21  2  0  0  0
 20 97  1  0  0  0
 21 23  1  0  0  0
 22 28  1  0  0  0
 22 32  2  0  0  0
 26 27  1  0  0  0
 28 98  1  0  0  0
 28 99  1  0  0  0
 29100  1  0  0  0
 29101  1  0  0  0
 33 34  1  0  0  0
 33 66  1  0  0  0
 33 70  2  0  0  0
 34 36  1  0  0  0
 34 59  1  0  0  0
 34102  1  0  0  0
 35 44  2  0  0  0
 35 45  1  0  0  0
 35 68  1  0  0  0
 36 56  1  0  0  0
 36103  1  0  0  0
 37 39  1  0  0  0
 37 47  1  0  0  0
 37 66  1  0  0  0
 37104  1  0  0  0
 38 43  2  0  0  0
 38 46  1  0  0  0
 38 47  1  0  0  0
 39 64  1  0  0  0
 39 67  2  0  0  0
 40 52  1  0  0  0
 40 53  2  0  0  0
 40 58  1  0  0  0
 41105  1  0  0  0
 41106  1  0  0  0
 41107  1  0  0  0
 41 48  1  0  0  0
 42 43  1  0  0  0
 42 66  1  0  0  0
 42108  1  0  0  0
 42109  1  0  0  0
 43 44  1  0  0  0
 44110  1  0  0  0
 45 46  2  0  0  0
 45111  1  0  0  0
 46112  1  0  0  0
 47113  1  0  0  0
 47114  1  0  0  0
 48 56  1  0  0  0
 48 65  1  0  0  0
 48115  1  0  0  0
 49 50  1  0  0  0
 49 53  1  0  0  0
 49 64  1  0  0  0
 49116  1  0  0  0
 50 51  1  0  0  0
 50117  1  0  0  0
 50118  1  0  0  0
 51 52  1  0  0  0
 51119  1  0  0  0
 51120  1  0  0  0
 52121  1  0  0  0
 52122  1  0  0  0
 53 54  1  0  0  0
 54 55  2  0  0  0
 54123  1  0  0  0
 55 57  1  0  0  0
 55124  1  0  0  0
 56 69  2  0  0  0
 57 58  2  0  0  0
 57125  1  0  0  0
 58126  1  0  0  0
 59 60  1  0  0  0
 59 61  1  0  0  0
 59 62  1  0  0  0
 60127  1  0  0  0
 60128  1  0  0  0
 60129  1  0  0  0
 61130  1  0  0  0
 61131  1  0  0  0
 61132  1  0  0  0
 62133  1  0  0  0
 62134  1  0  0  0
 62135  1  0  0  0
 63 65  1  0  0  0
 63136  1  0  0  0
 63137  1  0  0  0
 63138  1  0  0  0
 64139  1  0  0  0
 65140  1  0  0  0
 68 79  1  0  0  0
 71 73  2  0  0  0
 71 75  1  0  0  0
 71141  1  0  0  0
 72 74  1  0  0  0
 72 76  2  0  0  0
 72142  1  0  0  0
 73 76  1  0  0  0
 73 77  1  0  0  0
 74 75  2  0  0  0
 74 78  1  0  0  0
 75 80  1  0  0  0
 76 81  1  0  0  0
 77 79  1  0  0  0
 77143  1  0  0  0
 77144  1  0  0  0
 78145  1  0  0  0
 79146  1  0  0  0
M  ISO  4   1 100  68 101  78 100  79 101
M  END
> <chiral flag>
0

> <version>
0

> <s_m_source_file>
/data/baiqing/PycharmProjects/Reinvent-master-3.2/result/LINK_invent/BTK/process_docking_weight1_custom_product_contain_oxygen_bond_distance_aromatic_linkinvent_7_9_3/rearranged_h_0008.sdf

> <i_m_source_file_index>
13

> <r_mmod_Potential_Energy-OPLS-2005>
1081.92883300781

> <r_mmod_Stretch_Energy-OPLS-2005>
493.428497314453

> <r_mmod_Bend_Energy-OPLS-2005>
433.617462158203

> <r_mmod_Torsional_Energy-OPLS-2005>
212.941299438477

> <r_mmod_Improper_Torsional_Energy-OPLS-2005>
3.46594762802124

> <r_mmod_Van_der_Waal_Energy-OPLS-2005>
126.009963989258

> <r_mmod_Electrostatic_Energy-OPLS-2005>
-404.160125732422

> <r_mmod_Solvation_Energy-OPLS-2005>
-211.619354248047

> <b_mmod_Minimization_Converged-OPLS-2005>
0

> <r_mmod_RMS_Derivative-OPLS-2005>
0.239310681819916

$$$$
13
                    3D
 Structure written by MMmdl.
153162  0  0  1  0            999 V2000
  -30.5284  -14.9222   20.4508 C   0  0  0  0  0  0
  -30.4602  -12.5776   19.4899 C   0  0  0  0  0  0
  -29.5256  -12.5328   18.2553 C   0  0  0  0  0  0
  -28.0612  -12.3113   18.6766 C   0  0  0  0  0  0
  -27.6414  -13.2384   19.8468 C   0  0  2  0  0  0
  -28.6864  -13.2320   20.9876 C   0  0  0  0  0  0
  -25.2521  -13.8218   20.5723 C   0  0  0  0  0  0
  -24.1802  -13.0440   20.9219 C   0  0  0  0  0  0
  -24.6417  -11.6935   20.8746 C   0  0  0  0  0  0
  -23.9088  -10.4303   21.0396 C   0  0  0  0  0  0
  -24.3628   -9.4212   21.9175 C   0  0  0  0  0  0
  -23.6302   -8.2242   22.0749 C   0  0  0  0  0  0
  -22.4279   -8.0290   21.3540 C   0  0  0  0  0  0
  -21.9918   -9.0262   20.4631 C   0  0  0  0  0  0
  -22.7258  -10.2136   20.3044 C   0  0  0  0  0  0
  -21.6850   -6.0741   22.5285 C   0  0  0  0  0  0
  -21.4016   -6.5642   23.8222 C   0  0  0  0  0  0
  -21.3652   -5.6790   24.9179 C   0  0  0  0  0  0
  -21.6049   -4.3061   24.7227 C   0  0  0  0  0  0
  -21.8814   -3.8149   23.4349 C   0  0  0  0  0  0
  -21.9196   -4.6967   22.3404 C   0  0  0  0  0  0
  -22.7820  -13.5223   21.1891 C   0  0  0  0  0  0
  -22.1658   -4.2153   21.0978 F   0  0  0  0  0  0
  -21.5630   -3.4541   25.7732 F   0  0  0  0  0  0
  -29.9727  -13.6470   20.4049 N   0  0  0  0  0  0
  -26.2942  -12.9427   20.3275 N   0  0  0  0  0  0
  -25.9355  -11.6563   20.5750 N   0  0  0  0  0  0
  -22.0447  -12.8172   22.0410 N   0  0  0  0  0  0
  -25.4203  -15.1941   20.4171 N   0  0  0  0  0  0
  -31.7072  -15.0592   20.1033 O   0  0  0  0  0  0
  -21.6644   -6.8884   21.4243 O   0  0  0  0  0  0
  -22.3491  -14.5520   20.6750 O   0  0  0  0  0  0
  -24.6384  -31.8489   23.1873 C   0  0  0  0  0  0
  -25.9166  -32.4718   23.8277 C   0  0  1  0  0  0
  -27.2168  -27.1581   20.1621 C   0  0  0  0  0  0
  -25.5887  -33.8518   24.2212 N   0  0  0  0  0  0
  -23.4398  -30.4742   21.5286 C   0  0  2  0  0  0
  -24.8918  -28.9011   20.1122 C   0  0  0  0  0  0
  -22.7545  -29.4583   22.4781 C   0  0  0  0  0  0
  -18.0284  -28.1415   22.8455 C   0  0  0  0  0  0
  -24.1463  -36.7282   23.2654 C   0  0  0  0  0  0
  -25.9918  -30.7366   21.3743 C   0  0  0  0  0  0
  -26.0665  -29.3410   20.7364 C   0  0  0  0  0  0
  -27.2298  -28.4875   20.7450 C   0  0  0  0  0  0
  -26.0167  -26.8181   19.4963 C   0  0  0  0  0  0
  -24.8818  -27.6556   19.4747 C   0  0  0  0  0  0
  -23.6690  -29.8035   20.1468 C   0  0  0  0  0  0
  -25.4072  -36.3048   24.0354 C   0  0  1  0  0  0
  -20.5900  -28.3724   23.1205 C   0  0  2  0  0  0
  -20.6742  -26.9426   22.5390 C   0  0  0  0  0  0
  -19.5715  -26.6375   21.5188 C   0  0  0  0  0  0
  -18.1908  -26.7937   22.1614 C   0  0  0  0  0  0
  -19.1550  -28.8870   23.2830 C   0  0  0  0  0  0
  -18.9516  -30.1454   23.8878 C   0  0  0  0  0  0
  -17.6539  -30.6617   24.0555 C   0  0  0  0  0  0
  -25.9028  -34.9437   23.5109 C   0  0  0  0  0  0
  -16.5408  -29.9149   23.6326 C   0  0  0  0  0  0
  -16.7276  -28.6563   23.0326 C   0  0  0  0  0  0
  -26.4500  -31.6557   25.0694 C   0  0  0  0  0  0
  -25.3685  -31.3760   26.1395 C   0  0  0  0  0  0
  -27.0352  -30.2984   24.6175 C   0  0  0  0  0  0
  -27.6015  -32.4284   25.7497 C   0  0  0  0  0  0
  -27.5554  -37.1806   24.8481 C   0  0  0  0  0  0
  -21.4226  -29.3110   22.3606 N   0  0  0  0  0  0
  -26.4237  -37.3770   23.9454 N   0  0  0  0  0  0
  -24.7108  -31.0390   22.0874 N   0  0  0  0  0  0
  -23.4234  -28.8098   23.2865 O   0  0  0  0  0  0
  -28.2776  -26.1867   20.2123 O   0  0  0  0  0  0
  -26.5657  -34.8940   22.4718 O   0  0  0  0  0  0
  -23.5524  -32.1343   23.7123 O   0  0  0  0  0  0
  -28.5947  -18.2167   21.4080 C   0  0  0  0  0  0
  -30.4275  -18.4803   19.9250 C   0  0  0  0  0  0
  -28.3577  -19.6361   21.3391 C   0  0  0  0  0  0
  -29.0879  -20.5612   20.5667 C   0  0  0  0  0  0
  -29.6325  -17.5403   20.6868 C   0  0  0  0  0  0
  -30.1760  -19.9275   19.8638 C   0  0  0  0  0  0
  -27.2780  -20.3607   22.0818 C   0  0  0  0  0  0
  -27.4823  -21.8384   21.6743 C   0  0  0  0  0  0
  -29.0455  -23.3695   20.3320 C   0  0  0  0  0  0
  -27.9719  -24.6683   20.3200 C   0  0  0  0  0  0
  -28.5408  -21.9397   20.6558 N   0  0  0  0  0  0
  -29.6871  -16.0109   20.7694 N   0  0  0  0  0  0
  -30.9942  -20.6977   19.1029 F   0  0  0  0  0  0
  -31.4879  -12.7628   19.1679 H   0  0  0  0  0  0
  -30.4803  -11.6142   20.0013 H   0  0  0  0  0  0
  -29.8400  -11.7438   17.5714 H   0  0  0  0  0  0
  -29.6088  -13.4698   17.7007 H   0  0  0  0  0  0
  -27.9614  -11.2695   18.9809 H   0  0  0  0  0  0
  -27.3933  -12.4423   17.8243 H   0  0  0  0  0  0
  -27.6151  -14.2474   19.4312 H   0  0  0  0  0  0
  -28.7675  -12.2418   21.4362 H   0  0  0  0  0  0
  -28.3861  -13.9062   21.7917 H   0  0  0  0  0  0
  -25.2770   -9.5683   22.4764 H   0  0  0  0  0  0
  -24.0010   -7.4625   22.7466 H   0  0  0  0  0  0
  -21.0858   -8.8780   19.8932 H   0  0  0  0  0  0
  -22.3719  -10.9676   19.6156 H   0  0  0  0  0  0
  -21.2001   -7.6147   23.9723 H   0  0  0  0  0  0
  -21.1478   -6.0518   25.9077 H   0  0  0  0  0  0
  -22.0599   -2.7616   23.2844 H   0  0  0  0  0  0
  -22.4036  -11.9817   22.4777 H   0  0  0  0  0  0
  -21.1057  -13.1172   22.2603 H   0  0  0  0  0  0
  -24.6521  -15.8464   20.5342 H   0  0  0  0  0  0
  -26.2641  -15.6376   20.0771 H   0  0  0  0  0  0
  -26.7201  -32.5374   23.0985 H   0  0  0  0  0  0
  -24.9881  -33.9605   25.0261 H   0  0  0  0  0  0
  -22.7412  -31.2994   21.3720 H   0  0  0  0  0  0
  -23.3733  -35.9617   23.3283 H   0  0  0  0  0  0
  -24.3542  -36.8943   22.2068 H   0  0  0  0  0  0
  -23.7222  -37.6487   23.6687 H   0  0  0  0  0  0
  -26.1145  -31.4742   20.5780 H   0  0  0  0  0  0
  -26.8780  -30.8145   21.9921 H   0  0  0  0  0  0
  -28.1203  -28.8246   21.2561 H   0  0  0  0  0  0
  -25.9170  -25.8738   18.9844 H   0  0  0  0  0  0
  -23.9948  -27.3230   18.9540 H   0  0  0  0  0  0
  -23.8138  -30.5812   19.3945 H   0  0  0  0  0  0
  -22.7879  -29.2491   19.8172 H   0  0  0  0  0  0
  -25.1265  -36.1862   25.0849 H   0  0  0  0  0  0
  -20.9991  -28.3287   24.1328 H   0  0  0  0  0  0
  -20.5506  -26.2397   23.3638 H   0  0  0  0  0  0
  -21.6618  -26.7334   22.1280 H   0  0  0  0  0  0
  -19.6889  -25.6277   21.1227 H   0  0  0  0  0  0
  -19.6620  -27.3178   20.6698 H   0  0  0  0  0  0
  -17.4159  -26.6632   21.4036 H   0  0  0  0  0  0
  -18.0330  -26.0100   22.9028 H   0  0  0  0  0  0
  -19.8023  -30.7228   24.2251 H   0  0  0  0  0  0
  -17.5141  -31.6284   24.5206 H   0  0  0  0  0  0
  -15.5428  -30.3108   23.7635 H   0  0  0  0  0  0
  -15.8650  -28.0903   22.7066 H   0  0  0  0  0  0
  -24.5884  -30.7055   25.7771 H   0  0  0  0  0  0
  -24.8838  -32.2954   26.4685 H   0  0  0  0  0  0
  -25.7972  -30.9065   27.0255 H   0  0  0  0  0  0
  -26.2952  -29.6675   24.1221 H   0  0  0  0  0  0
  -27.4126  -29.7265   25.4664 H   0  0  0  0  0  0
  -27.8767  -30.4305   23.9358 H   0  0  0  0  0  0
  -27.2643  -33.3666   26.1902 H   0  0  0  0  0  0
  -28.3931  -32.6671   25.0380 H   0  0  0  0  0  0
  -28.0518  -31.8478   26.5550 H   0  0  0  0  0  0
  -28.2582  -38.0088   24.7502 H   0  0  0  0  0  0
  -28.1029  -36.2635   24.6297 H   0  0  0  0  0  0
  -27.2301  -37.1459   25.8892 H   0  0  0  0  0  0
  -20.9407  -29.9030   21.6978 H   0  0  0  0  0  0
  -26.0108  -38.2857   24.1444 H   0  0  0  0  0  0
  -27.9427  -17.6289   22.0389 H   0  0  0  0  0  0
  -31.2501  -18.0924   19.3425 H   0  0  0  0  0  0
  -27.3825  -20.2162   23.1589 H   0  0  0  0  0  0
  -26.3022  -19.9879   21.7682 H   0  0  0  0  0  0
  -27.7694  -22.4371   22.5426 H   0  0  0  0  0  0
  -26.5407  -22.2490   21.3026 H   0  0  0  0  0  0
  -29.8488  -23.5746   21.0425 H   0  0  0  0  0  0
  -29.5401  -23.3232   19.3585 H   0  0  0  0  0  0
  -27.3826  -24.6080   21.2382 H   0  0  0  0  0  0
  -27.2744  -24.4040   19.5258 H   0  0  0  0  0  0
  -28.8269  -15.6358   21.1422 H   0  0  0  0  0  0
  1 25  1  0  0  0
  1 30  2  0  0  0
  1 82  1  0  0  0
  2  3  1  0  0  0
  2 25  1  0  0  0
  2 84  1  0  0  0
  2 85  1  0  0  0
  3  4  1  0  0  0
  3 86  1  0  0  0
  3 87  1  0  0  0
  4  5  1  0  0  0
  4 88  1  0  0  0
  4 89  1  0  0  0
  5  6  1  0  0  0
  5 26  1  0  0  0
  5 90  1  0  0  0
  6 25  1  0  0  0
  6 91  1  0  0  0
  6 92  1  0  0  0
  7  8  2  0  0  0
  7 26  1  0  0  0
  7 29  1  0  0  0
  8  9  1  0  0  0
  8 22  1  0  0  0
  9 10  1  0  0  0
  9 27  2  0  0  0
 10 11  2  0  0  0
 10 15  1  0  0  0
 11 12  1  0  0  0
 11 93  1  0  0  0
 12 13  2  0  0  0
 12 94  1  0  0  0
 13 14  1  0  0  0
 13 31  1  0  0  0
 14 15  2  0  0  0
 14 95  1  0  0  0
 15 96  1  0  0  0
 16 17  2  0  0  0
 16 21  1  0  0  0
 16 31  1  0  0  0
 17 18  1  0  0  0
 17 97  1  0  0  0
 18 19  2  0  0  0
 18 98  1  0  0  0
 19 20  1  0  0  0
 19 24  1  0  0  0
 20 21  2  0  0  0
 20 99  1  0  0  0
 21 23  1  0  0  0
 22 28  1  0  0  0
 22 32  2  0  0  0
 26 27  1  0  0  0
 28100  1  0  0  0
 28101  1  0  0  0
 29102  1  0  0  0
 29103  1  0  0  0
 33 34  1  0  0  0
 33 66  1  0  0  0
 33 70  2  0  0  0
 34 36  1  0  0  0
 34 59  1  0  0  0
 34104  1  0  0  0
 35 44  2  0  0  0
 35 45  1  0  0  0
 35 68  1  0  0  0
 36 56  1  0  0  0
 36105  1  0  0  0
 37 39  1  0  0  0
 37 47  1  0  0  0
 37 66  1  0  0  0
 37106  1  0  0  0
 38 43  2  0  0  0
 38 46  1  0  0  0
 38 47  1  0  0  0
 39 64  1  0  0  0
 39 67  2  0  0  0
 40 52  1  0  0  0
 40 53  2  0  0  0
 40 58  1  0  0  0
 41107  1  0  0  0
 41108  1  0  0  0
 41109  1  0  0  0
 41 48  1  0  0  0
 42 43  1  0  0  0
 42 66  1  0  0  0
 42110  1  0  0  0
 42111  1  0  0  0
 43 44  1  0  0  0
 44112  1  0  0  0
 45 46  2  0  0  0
 45113  1  0  0  0
 46114  1  0  0  0
 47115  1  0  0  0
 47116  1  0  0  0
 48 56  1  0  0  0
 48 65  1  0  0  0
 48117  1  0  0  0
 49 50  1  0  0  0
 49 53  1  0  0  0
 49 64  1  0  0  0
 49118  1  0  0  0
 50 51  1  0  0  0
 50119  1  0  0  0
 50120  1  0  0  0
 51 52  1  0  0  0
 51121  1  0  0  0
 51122  1  0  0  0
 52123  1  0  0  0
 52124  1  0  0  0
 53 54  1  0  0  0
 54 55  2  0  0  0
 54125  1  0  0  0
 55 57  1  0  0  0
 55126  1  0  0  0
 56 69  2  0  0  0
 57 58  2  0  0  0
 57127  1  0  0  0
 58128  1  0  0  0
 59 60  1  0  0  0
 59 61  1  0  0  0
 59 62  1  0  0  0
 60129  1  0  0  0
 60130  1  0  0  0
 60131  1  0  0  0
 61132  1  0  0  0
 61133  1  0  0  0
 61134  1  0  0  0
 62135  1  0  0  0
 62136  1  0  0  0
 62137  1  0  0  0
 63 65  1  0  0  0
 63138  1  0  0  0
 63139  1  0  0  0
 63140  1  0  0  0
 64141  1  0  0  0
 65142  1  0  0  0
 68 80  1  0  0  0
 71 73  2  0  0  0
 71 75  1  0  0  0
 71143  1  0  0  0
 72 75  2  0  0  0
 72 76  1  0  0  0
 72144  1  0  0  0
 73 74  1  0  0  0
 73 77  1  0  0  0
 74 76  2  0  0  0
 74 81  1  0  0  0
 75 82  1  0  0  0
 76 83  1  0  0  0
 77 78  1  0  0  0
 77145  1  0  0  0
 77146  1  0  0  0
 78 81  1  0  0  0
 78147  1  0  0  0
 78148  1  0  0  0
 79 80  1  0  0  0
 79 81  1  0  0  0
 79149  1  0  0  0
 79150  1  0  0  0
 80151  1  0  0  0
 80152  1  0  0  0
 82153  1  0  0  0
M  ISO  4   1 100  68 101  80 101  82 100
M  END
> <chiral flag>
0

> <version>
0

> <s_m_source_file>
/data/baiqing/PycharmProjects/Reinvent-master-3.2/result/LINK_invent/BTK/process_docking_weight1_custom_product_contain_oxygen_bond_distance_aromatic_linkinvent_7_9_3/rearranged_h_0008.sdf

> <i_m_source_file_index>
14

> <r_mmod_Potential_Energy-OPLS-2005>
512.116149902344

> <r_mmod_Stretch_Energy-OPLS-2005>
209.749389648438

> <r_mmod_Bend_Energy-OPLS-2005>
310.130950927734

> <r_mmod_Torsional_Energy-OPLS-2005>
225.339218139648

> <r_mmod_Improper_Torsional_Energy-OPLS-2005>
4.20494794845581

> <r_mmod_Van_der_Waal_Energy-OPLS-2005>
126.911033630371

> <r_mmod_Electrostatic_Energy-OPLS-2005>
-304.880249023438

> <r_mmod_Solvation_Energy-OPLS-2005>
-233.073532104492

> <b_mmod_Minimization_Converged-OPLS-2005>
0

> <r_mmod_RMS_Derivative-OPLS-2005>
4.91715288162231

$$$$
14
                    3D
 Structure written by MMmdl.
149157  0  0  1  0            999 V2000
  -30.4120  -15.2393   20.3819 C   0  0  0  0  0  0
  -30.4473  -12.7862   19.5302 C   0  0  0  0  0  0
  -29.5402  -12.5812   18.2892 C   0  0  0  0  0  0
  -28.0853  -12.3068   18.7108 C   0  0  0  0  0  0
  -27.6175  -13.2691   19.8306 C   0  0  2  0  0  0
  -28.6505  -13.4093   20.9692 C   0  0  0  0  0  0
  -25.2391  -13.8205   20.5693 C   0  0  0  0  0  0
  -24.1751  -13.0414   20.9258 C   0  0  0  0  0  0
  -24.6403  -11.6914   20.8773 C   0  0  0  0  0  0
  -23.9092  -10.4281   21.0415 C   0  0  0  0  0  0
  -24.3635   -9.4194   21.9192 C   0  0  0  0  0  0
  -23.6299   -8.2236   22.0759 C   0  0  0  0  0  0
  -22.4281   -8.0280   21.3547 C   0  0  0  0  0  0
  -21.9923   -9.0256   20.4648 C   0  0  0  0  0  0
  -22.7262  -10.2130   20.3060 C   0  0  0  0  0  0
  -21.6852   -6.0735   22.5277 C   0  0  0  0  0  0
  -21.4015   -6.5638   23.8211 C   0  0  0  0  0  0
  -21.3661   -5.6792   24.9174 C   0  0  0  0  0  0
  -21.6043   -4.3055   24.7223 C   0  0  0  0  0  0
  -21.8820   -3.8145   23.4344 C   0  0  0  0  0  0
  -21.9192   -4.6963   22.3401 C   0  0  0  0  0  0
  -22.7771  -13.5182   21.1899 C   0  0  0  0  0  0
  -22.1661   -4.2149   21.0980 F   0  0  0  0  0  0
  -21.5628   -3.4539   25.7736 F   0  0  0  0  0  0
  -29.8905  -13.9162   20.3582 N   0  0  0  0  0  0
  -26.2835  -12.9484   20.3217 N   0  0  0  0  0  0
  -25.9342  -11.6597   20.5733 N   0  0  0  0  0  0
  -22.0422  -12.8173   22.0457 N   0  0  0  0  0  0
  -25.3981  -15.1915   20.4004 N   0  0  0  0  0  0
  -31.6230  -15.2950   20.1205 O   0  0  0  0  0  0
  -21.6640   -6.8879   21.4240 O   0  0  0  0  0  0
  -22.3457  -14.5489   20.6739 O   0  0  0  0  0  0
  -24.6600  -31.8254   23.1711 C   0  0  0  0  0  0
  -25.9294  -32.4595   23.8167 C   0  0  1  0  0  0
  -27.2237  -26.9457   20.1901 C   0  0  0  0  0  0
  -25.5967  -33.8408   24.2073 N   0  0  0  0  0  0
  -23.4750  -30.4356   21.5192 C   0  0  2  0  0  0
  -24.9296  -28.8208   20.1156 C   0  0  0  0  0  0
  -22.7655  -29.4445   22.4782 C   0  0  0  0  0  0
  -18.0324  -28.1412   22.8468 C   0  0  0  0  0  0
  -24.1495  -36.7211   23.2650 C   0  0  0  0  0  0
  -26.0413  -30.6355   21.4013 C   0  0  0  0  0  0
  -26.1092  -29.2238   20.7540 C   0  0  0  0  0  0
  -27.2483  -28.3040   20.7722 C   0  0  0  0  0  0
  -26.0191  -26.6903   19.4988 C   0  0  0  0  0  0
  -24.9069  -27.5722   19.4712 C   0  0  0  0  0  0
  -23.7156  -29.7483   20.1462 C   0  0  0  0  0  0
  -25.4135  -36.2970   24.0301 C   0  0  1  0  0  0
  -20.5945  -28.3752   23.1196 C   0  0  2  0  0  0
  -20.6800  -26.9436   22.5407 C   0  0  0  0  0  0
  -19.5774  -26.6380   21.5220 C   0  0  0  0  0  0
  -18.1954  -26.7945   22.1625 C   0  0  0  0  0  0
  -19.1585  -28.8902   23.2817 C   0  0  0  0  0  0
  -18.9498  -30.1492   23.8853 C   0  0  0  0  0  0
  -17.6491  -30.6601   24.0558 C   0  0  0  0  0  0
  -25.9095  -34.9354   23.5008 C   0  0  0  0  0  0
  -16.5380  -29.9091   23.6344 C   0  0  0  0  0  0
  -16.7307  -28.6514   23.0361 C   0  0  0  0  0  0
  -26.4554  -31.6537   25.0693 C   0  0  0  0  0  0
  -25.3682  -31.3794   26.1349 C   0  0  0  0  0  0
  -27.0447  -30.2903   24.6420 C   0  0  0  0  0  0
  -27.6044  -32.4349   25.7495 C   0  0  0  0  0  0
  -27.5561  -37.1771   24.8474 C   0  0  0  0  0  0
  -21.4328  -29.3038   22.3536 N   0  0  0  0  0  0
  -26.4287  -37.3697   23.9395 N   0  0  0  0  0  0
  -24.7463  -30.9931   22.0841 N   0  0  0  0  0  0
  -23.4212  -28.8021   23.3023 O   0  0  0  0  0  0
  -28.2606  -25.8793   20.2147 O   0  0  0  0  0  0
  -26.5708  -34.8886   22.4606 O   0  0  0  0  0  0
  -23.5675  -32.1217   23.6814 O   0  0  0  0  0  0
  -30.2150  -20.5225   19.8653 C   0  0  0  0  0  0
  -30.4124  -19.0456   19.9251 C   0  0  0  0  0  0
  -28.1607  -20.3364   20.8549 C   0  0  0  0  0  0
  -29.0756  -21.3291   20.3143 C   0  0  0  0  0  0
  -28.3446  -18.8545   20.9226 C   0  0  0  0  0  0
  -29.4913  -18.0549   20.4622 C   0  0  0  0  0  0
  -27.1970  -18.0879   21.5537 C   0  0  0  0  0  0
  -29.0316  -23.0855   20.2964 C   0  0  0  0  0  0
  -29.5588  -16.4358   20.5440 N   0  0  0  0  0  0
  -27.8795  -24.2295   20.2719 N   0  0  0  0  0  0
  -31.4660  -12.9984   19.2033 H   0  0  0  0  0  0
  -30.5135  -11.8694   20.1183 H   0  0  0  0  0  0
  -29.9147  -11.7625   17.6735 H   0  0  0  0  0  0
  -29.5753  -13.4751   17.6643 H   0  0  0  0  0  0
  -28.0332  -11.2781   19.0689 H   0  0  0  0  0  0
  -27.4188  -12.3661   17.8494 H   0  0  0  0  0  0
  -27.5436  -14.2454   19.3506 H   0  0  0  0  0  0
  -28.8078  -12.4604   21.4840 H   0  0  0  0  0  0
  -28.2938  -14.1133   21.7222 H   0  0  0  0  0  0
  -25.2775   -9.5668   22.4775 H   0  0  0  0  0  0
  -23.9999   -7.4626   22.7481 H   0  0  0  0  0  0
  -21.0853   -8.8783   19.8953 H   0  0  0  0  0  0
  -22.3723  -10.9675   19.6174 H   0  0  0  0  0  0
  -21.2011   -7.6146   23.9714 H   0  0  0  0  0  0
  -21.1482   -6.0522   25.9076 H   0  0  0  0  0  0
  -22.0598   -2.7605   23.2845 H   0  0  0  0  0  0
  -22.4041  -11.9836   22.4845 H   0  0  0  0  0  0
  -21.1043  -13.1200   22.2671 H   0  0  0  0  0  0
  -24.6037  -15.8191   20.4588 H   0  0  0  0  0  0
  -26.2008  -15.6094   19.9504 H   0  0  0  0  0  0
  -26.7362  -32.5143   23.0882 H   0  0  0  0  0  0
  -25.0062  -33.9487   25.0188 H   0  0  0  0  0  0
  -22.7869  -31.2657   21.3471 H   0  0  0  0  0  0
  -23.3753  -35.9550   23.3327 H   0  0  0  0  0  0
  -24.3560  -36.8842   22.2061 H   0  0  0  0  0  0
  -23.7273  -37.6414   23.6698 H   0  0  0  0  0  0
  -26.2184  -31.3740   20.6182 H   0  0  0  0  0  0
  -26.9027  -30.6951   22.0544 H   0  0  0  0  0  0
  -28.1459  -28.6122   21.2900 H   0  0  0  0  0  0
  -25.9148  -25.7383   18.9980 H   0  0  0  0  0  0
  -24.0117  -27.2583   18.9520 H   0  0  0  0  0  0
  -23.8710  -30.5151   19.3864 H   0  0  0  0  0  0
  -22.8261  -29.2017   19.8292 H   0  0  0  0  0  0
  -25.1338  -36.1773   25.0795 H   0  0  0  0  0  0
  -21.0033  -28.3366   24.1320 H   0  0  0  0  0  0
  -20.5694  -26.2367   23.3644 H   0  0  0  0  0  0
  -21.6663  -26.7418   22.1204 H   0  0  0  0  0  0
  -19.6934  -25.6282   21.1276 H   0  0  0  0  0  0
  -19.6721  -27.3166   20.6732 H   0  0  0  0  0  0
  -17.4223  -26.6696   21.4026 H   0  0  0  0  0  0
  -18.0344  -26.0099   22.9033 H   0  0  0  0  0  0
  -19.7974  -30.7318   24.2202 H   0  0  0  0  0  0
  -17.5047  -31.6279   24.5167 H   0  0  0  0  0  0
  -15.5380  -30.2980   23.7697 H   0  0  0  0  0  0
  -15.8707  -28.0821   22.7095 H   0  0  0  0  0  0
  -24.5875  -30.7133   25.7660 H   0  0  0  0  0  0
  -24.8856  -32.2998   26.4646 H   0  0  0  0  0  0
  -25.7904  -30.9047   27.0214 H   0  0  0  0  0  0
  -26.3107  -29.6581   24.1410 H   0  0  0  0  0  0
  -27.3965  -29.7270   25.5074 H   0  0  0  0  0  0
  -27.9057  -30.4089   23.9837 H   0  0  0  0  0  0
  -27.2612  -33.3701   26.1934 H   0  0  0  0  0  0
  -28.3922  -32.6831   25.0369 H   0  0  0  0  0  0
  -28.0635  -31.8570   26.5526 H   0  0  0  0  0  0
  -28.2591  -38.0047   24.7452 H   0  0  0  0  0  0
  -28.1040  -36.2569   24.6392 H   0  0  0  0  0  0
  -27.2263  -37.1519   25.8874 H   0  0  0  0  0  0
  -20.9578  -29.8725   21.6662 H   0  0  0  0  0  0
  -26.0141  -38.2766   24.1367 H   0  0  0  0  0  0
  -31.0381  -21.0796   19.4394 H   0  0  0  0  0  0
  -31.3423  -18.6688   19.5229 H   0  0  0  0  0  0
  -27.2448  -20.7357   21.2680 H   0  0  0  0  0  0
  -26.5778  -18.7345   22.1762 H   0  0  0  0  0  0
  -27.5577  -17.2793   22.1897 H   0  0  0  0  0  0
  -26.5629  -17.6655   20.7760 H   0  0  0  0  0  0
  -29.6566  -23.3390   19.4400 H   0  0  0  0  0  0
  -29.6423  -23.3564   21.1585 H   0  0  0  0  0  0
  -28.6475  -16.0818   20.7909 H   0  0  0  0  0  0
  -27.3204  -24.1203   21.1138 H   0  0  0  0  0  0
  1 25  1  0  0  0
  1 30  2  0  0  0
  1 79  1  0  0  0
  2  3  1  0  0  0
  2 25  1  0  0  0
  2 81  1  0  0  0
  2 82  1  0  0  0
  3  4  1  0  0  0
  3 83  1  0  0  0
  3 84  1  0  0  0
  4  5  1  0  0  0
  4 85  1  0  0  0
  4 86  1  0  0  0
  5  6  1  0  0  0
  5 26  1  0  0  0
  5 87  1  0  0  0
  6 25  1  0  0  0
  6 88  1  0  0  0
  6 89  1  0  0  0
  7  8  2  0  0  0
  7 26  1  0  0  0
  7 29  1  0  0  0
  8  9  1  0  0  0
  8 22  1  0  0  0
  9 10  1  0  0  0
  9 27  2  0  0  0
 10 11  2  0  0  0
 10 15  1  0  0  0
 11 12  1  0  0  0
 11 90  1  0  0  0
 12 13  2  0  0  0
 12 91  1  0  0  0
 13 14  1  0  0  0
 13 31  1  0  0  0
 14 15  2  0  0  0
 14 92  1  0  0  0
 15 93  1  0  0  0
 16 17  2  0  0  0
 16 21  1  0  0  0
 16 31  1  0  0  0
 17 18  1  0  0  0
 17 94  1  0  0  0
 18 19  2  0  0  0
 18 95  1  0  0  0
 19 20  1  0  0  0
 19 24  1  0  0  0
 20 21  2  0  0  0
 20 96  1  0  0  0
 21 23  1  0  0  0
 22 28  1  0  0  0
 22 32  2  0  0  0
 26 27  1  0  0  0
 28 97  1  0  0  0
 28 98  1  0  0  0
 29 99  1  0  0  0
 29100  1  0  0  0
 33 34  1  0  0  0
 33 66  1  0  0  0
 33 70  2  0  0  0
 34 36  1  0  0  0
 34 59  1  0  0  0
 34101  1  0  0  0
 35 44  2  0  0  0
 35 45  1  0  0  0
 35 68  1  0  0  0
 36 56  1  0  0  0
 36102  1  0  0  0
 37 39  1  0  0  0
 37 47  1  0  0  0
 37 66  1  0  0  0
 37103  1  0  0  0
 38 43  2  0  0  0
 38 46  1  0  0  0
 38 47  1  0  0  0
 39 64  1  0  0  0
 39 67  2  0  0  0
 40 52  1  0  0  0
 40 53  2  0  0  0
 40 58  1  0  0  0
 41104  1  0  0  0
 41105  1  0  0  0
 41106  1  0  0  0
 41 48  1  0  0  0
 42 43  1  0  0  0
 42 66  1  0  0  0
 42107  1  0  0  0
 42108  1  0  0  0
 43 44  1  0  0  0
 44109  1  0  0  0
 45 46  2  0  0  0
 45110  1  0  0  0
 46111  1  0  0  0
 47112  1  0  0  0
 47113  1  0  0  0
 48 56  1  0  0  0
 48 65  1  0  0  0
 48114  1  0  0  0
 49 50  1  0  0  0
 49 53  1  0  0  0
 49 64  1  0  0  0
 49115  1  0  0  0
 50 51  1  0  0  0
 50116  1  0  0  0
 50117  1  0  0  0
 51 52  1  0  0  0
 51118  1  0  0  0
 51119  1  0  0  0
 52120  1  0  0  0
 52121  1  0  0  0
 53 54  1  0  0  0
 54 55  2  0  0  0
 54122  1  0  0  0
 55 57  1  0  0  0
 55123  1  0  0  0
 56 69  2  0  0  0
 57 58  2  0  0  0
 57124  1  0  0  0
 58125  1  0  0  0
 59 60  1  0  0  0
 59 61  1  0  0  0
 59 62  1  0  0  0
 60126  1  0  0  0
 60127  1  0  0  0
 60128  1  0  0  0
 61129  1  0  0  0
 61130  1  0  0  0
 61131  1  0  0  0
 62132  1  0  0  0
 62133  1  0  0  0
 62134  1  0  0  0
 63 65  1  0  0  0
 63135  1  0  0  0
 63136  1  0  0  0
 63137  1  0  0  0
 64138  1  0  0  0
 65139  1  0  0  0
 68 80  1  0  0  0
 71 72  2  0  0  0
 71 74  1  0  0  0
 71140  1  0  0  0
 72 76  1  0  0  0
 72141  1  0  0  0
 73 74  2  0  0  0
 73 75  1  0  0  0
 73142  1  0  0  0
 74 78  1  0  0  0
 75 76  2  0  0  0
 75 77  1  0  0  0
 76 79  1  0  0  0
 77143  1  0  0  0
 77144  1  0  0  0
 77145  1  0  0  0
 78 80  1  0  0  0
 78146  1  0  0  0
 78147  1  0  0  0
 79148  1  0  0  0
 80149  1  0  0  0
M  ISO  4   1 100  68 101  79 100  80 101
M  END
> <chiral flag>
0

> <version>
0

> <s_m_source_file>
/data/baiqing/PycharmProjects/Reinvent-master-3.2/result/LINK_invent/BTK/process_docking_weight1_custom_product_contain_oxygen_bond_distance_aromatic_linkinvent_7_9_3/rearranged_h_0008.sdf

> <i_m_source_file_index>
15

> <r_mmod_Potential_Energy-OPLS-2005>
1094.83227539062

> <r_mmod_Stretch_Energy-OPLS-2005>
494.412231445312

> <r_mmod_Bend_Energy-OPLS-2005>
429.095062255859

> <r_mmod_Torsional_Energy-OPLS-2005>
216.0126953125

> <r_mmod_Improper_Torsional_Energy-OPLS-2005>
4.39895725250244

> <r_mmod_Van_der_Waal_Energy-OPLS-2005>
127.056663513184

> <r_mmod_Electrostatic_Energy-OPLS-2005>
-384.467376708984

> <r_mmod_Solvation_Energy-OPLS-2005>
-218.544906616211

> <b_mmod_Minimization_Converged-OPLS-2005>
0

> <r_mmod_RMS_Derivative-OPLS-2005>
0.661571383476257

$$$$
15
                    3D
 Structure written by MMmdl.
149157  0  0  1  0            999 V2000
  -30.6089  -14.9952   20.3728 C   0  0  0  0  0  0
  -30.4430  -12.6087   19.5023 C   0  0  0  0  0  0
  -29.5334  -12.5490   18.2522 C   0  0  0  0  0  0
  -28.0542  -12.3786   18.6533 C   0  0  0  0  0  0
  -27.6377  -13.2818   19.8467 C   0  0  2  0  0  0
  -28.6938  -13.3385   20.9703 C   0  0  0  0  0  0
  -25.2506  -13.8321   20.5850 C   0  0  0  0  0  0
  -24.1793  -13.0449   20.9235 C   0  0  0  0  0  0
  -24.6458  -11.6988   20.8689 C   0  0  0  0  0  0
  -23.9119  -10.4309   21.0356 C   0  0  0  0  0  0
  -24.3690   -9.4221   21.9119 C   0  0  0  0  0  0
  -23.6335   -8.2271   22.0723 C   0  0  0  0  0  0
  -22.4286   -8.0304   21.3555 C   0  0  0  0  0  0
  -21.9960   -9.0261   20.4618 C   0  0  0  0  0  0
  -22.7317  -10.2132   20.2983 C   0  0  0  0  0  0
  -21.6873   -6.0735   22.5269 C   0  0  0  0  0  0
  -21.4032   -6.5634   23.8197 C   0  0  0  0  0  0
  -21.3661   -5.6798   24.9173 C   0  0  0  0  0  0
  -21.6052   -4.3049   24.7241 C   0  0  0  0  0  0
  -21.8812   -3.8136   23.4351 C   0  0  0  0  0  0
  -21.9198   -4.6958   22.3406 C   0  0  0  0  0  0
  -22.7813  -13.5175   21.1876 C   0  0  0  0  0  0
  -22.1654   -4.2137   21.0985 F   0  0  0  0  0  0
  -21.5629   -3.4525   25.7746 F   0  0  0  0  0  0
  -29.9672  -13.7450   20.3488 N   0  0  0  0  0  0
  -26.2963  -12.9613   20.3373 N   0  0  0  0  0  0
  -25.9422  -11.6679   20.5713 N   0  0  0  0  0  0
  -22.0506  -12.8100   22.0460 N   0  0  0  0  0  0
  -25.4151  -15.2062   20.4509 N   0  0  0  0  0  0
  -31.8224  -14.9920   20.1547 O   0  0  0  0  0  0
  -21.6652   -6.8906   21.4238 O   0  0  0  0  0  0
  -22.3461  -14.5481   20.6766 O   0  0  0  0  0  0
  -24.6471  -31.8390   23.1821 C   0  0  0  0  0  0
  -25.9229  -32.4667   23.8190 C   0  0  1  0  0  0
  -27.2710  -27.1008   20.1737 C   0  0  0  0  0  0
  -25.5892  -33.8472   24.2062 N   0  0  0  0  0  0
  -23.4562  -30.4508   21.5251 C   0  0  2  0  0  0
  -24.9216  -28.8482   20.1269 C   0  0  0  0  0  0
  -22.7604  -29.4602   22.4920 C   0  0  0  0  0  0
  -18.0285  -28.1658   22.8513 C   0  0  0  0  0  0
  -24.1481  -36.7252   23.2651 C   0  0  0  0  0  0
  -26.0109  -30.6914   21.3934 C   0  0  0  0  0  0
  -26.0909  -29.2900   20.7588 C   0  0  0  0  0  0
  -27.2601  -28.4299   20.7705 C   0  0  0  0  0  0
  -26.0804  -26.7726   19.4820 C   0  0  0  0  0  0
  -24.9311  -27.6031   19.4728 C   0  0  0  0  0  0
  -23.6924  -29.7506   20.1540 C   0  0  0  0  0  0
  -25.4109  -36.3019   24.0305 C   0  0  1  0  0  0
  -20.5937  -28.3821   23.1258 C   0  0  2  0  0  0
  -20.6807  -26.9613   22.5218 C   0  0  0  0  0  0
  -19.5669  -26.6449   21.5221 C   0  0  0  0  0  0
  -18.1770  -26.8277   22.1435 C   0  0  0  0  0  0
  -19.1630  -28.9051   23.2829 C   0  0  0  0  0  0
  -18.9644  -30.1651   23.8939 C   0  0  0  0  0  0
  -17.6673  -30.6853   24.0599 C   0  0  0  0  0  0
  -25.9048  -34.9381   23.5016 C   0  0  0  0  0  0
  -16.5474  -29.9367   23.6512 C   0  0  0  0  0  0
  -16.7278  -28.6755   23.0513 C   0  0  0  0  0  0
  -26.4525  -31.6562   25.0682 C   0  0  0  0  0  0
  -25.3681  -31.3761   26.1358 C   0  0  0  0  0  0
  -27.0389  -30.2947   24.6294 C   0  0  0  0  0  0
  -27.6004  -32.4339   25.7547 C   0  0  0  0  0  0
  -27.5567  -37.1776   24.8447 C   0  0  0  0  0  0
  -21.4280  -29.3279   22.3762 N   0  0  0  0  0  0
  -26.4260  -37.3734   23.9423 N   0  0  0  0  0  0
  -24.7263  -31.0166   22.0903 N   0  0  0  0  0  0
  -23.4207  -28.8034   23.3011 O   0  0  0  0  0  0
  -28.3821  -26.1576   20.1428 O   0  0  0  0  0  0
  -26.5698  -34.8929   22.4644 O   0  0  0  0  0  0
  -23.5547  -32.1288   23.6968 O   0  0  0  0  0  0
  -28.0572  -21.5375   21.4391 C   0  0  0  0  0  0
  -27.7675  -20.2097   21.8453 C   0  0  0  0  0  0
  -29.7914  -20.6199   20.0334 C   0  0  0  0  0  0
  -29.0375  -21.8545   20.4761 C   0  0  0  0  0  0
  -29.5373  -19.1922   20.4733 C   0  0  0  0  0  0
  -28.4568  -19.0711   21.3701 C   0  0  0  0  0  0
  -29.1752  -23.5044   20.1023 C   0  0  0  0  0  0
  -30.3136  -17.7583   20.0653 C   0  0  0  0  0  0
  -29.9024  -16.2428   20.4048 N   0  0  0  0  0  0
  -28.1496  -24.6170   20.5726 N   0  0  0  0  0  0
  -28.0505  -17.8444   21.7777 F   0  0  0  0  0  0
  -31.4785  -12.7501   19.1870 H   0  0  0  0  0  0
  -30.4241  -11.6647   20.0494 H   0  0  0  0  0  0
  -29.8444  -11.7372   17.5909 H   0  0  0  0  0  0
  -29.6621  -13.4703   17.6801 H   0  0  0  0  0  0
  -27.9005  -11.3313   18.9058 H   0  0  0  0  0  0
  -27.4166  -12.5921   17.7949 H   0  0  0  0  0  0
  -27.5845  -14.2900   19.4367 H   0  0  0  0  0  0
  -28.7803  -12.3842   21.4873 H   0  0  0  0  0  0
  -28.4122  -14.0696   21.7280 H   0  0  0  0  0  0
  -25.2834   -9.5681   22.4723 H   0  0  0  0  0  0
  -24.0013   -7.4665   22.7465 H   0  0  0  0  0  0
  -21.0883   -8.8808   19.8941 H   0  0  0  0  0  0
  -22.3764  -10.9685   19.6090 H   0  0  0  0  0  0
  -21.2026   -7.6137   23.9722 H   0  0  0  0  0  0
  -21.1487   -6.0508   25.9088 H   0  0  0  0  0  0
  -22.0597   -2.7591   23.2855 H   0  0  0  0  0  0
  -22.4178  -11.9775   22.4807 H   0  0  0  0  0  0
  -21.1112  -13.1102   22.2684 H   0  0  0  0  0  0
  -24.6641  -15.8684   20.6148 H   0  0  0  0  0  0
  -26.3001  -15.6647   20.2725 H   0  0  0  0  0  0
  -26.7324  -32.5304   23.0917 H   0  0  0  0  0  0
  -24.9948  -33.9495   25.0141 H   0  0  0  0  0  0
  -22.7609  -31.2747   21.3502 H   0  0  0  0  0  0
  -23.3765  -35.9559   23.3264 H   0  0  0  0  0  0
  -24.3570  -36.8978   22.2080 H   0  0  0  0  0  0
  -23.7187  -37.6396   23.6754 H   0  0  0  0  0  0
  -26.1504  -31.4233   20.5965 H   0  0  0  0  0  0
  -26.8860  -30.7649   22.0298 H   0  0  0  0  0  0
  -28.1574  -28.7535   21.2792 H   0  0  0  0  0  0
  -26.0169  -25.8274   18.9633 H   0  0  0  0  0  0
  -24.0435  -27.2642   18.9527 H   0  0  0  0  0  0
  -23.8286  -30.4992   19.3732 H   0  0  0  0  0  0
  -22.8067  -29.1823   19.8525 H   0  0  0  0  0  0
  -25.1315  -36.1838   25.0791 H   0  0  0  0  0  0
  -21.0034  -28.3127   24.1431 H   0  0  0  0  0  0
  -21.6632  -26.7628   22.0894 H   0  0  0  0  0  0
  -20.5845  -26.2511   23.3440 H   0  0  0  0  0  0
  -19.6648  -25.6236   21.1470 H   0  0  0  0  0  0
  -19.6616  -27.3058   20.6582 H   0  0  0  0  0  0
  -17.4216  -26.7553   21.3645 H   0  0  0  0  0  0
  -17.9622  -26.0378   22.8705 H   0  0  0  0  0  0
  -19.8144  -30.7469   24.2319 H   0  0  0  0  0  0
  -17.5343  -31.6572   24.5254 H   0  0  0  0  0  0
  -15.5518  -30.3289   23.8110 H   0  0  0  0  0  0
  -15.8610  -28.1166   22.7181 H   0  0  0  0  0  0
  -24.5881  -30.7079   25.7695 H   0  0  0  0  0  0
  -24.8835  -32.2941   26.4691 H   0  0  0  0  0  0
  -25.7952  -30.9019   27.0199 H   0  0  0  0  0  0
  -26.2987  -29.6693   24.1283 H   0  0  0  0  0  0
  -27.3962  -29.7263   25.4896 H   0  0  0  0  0  0
  -27.8926  -30.4206   23.9621 H   0  0  0  0  0  0
  -27.2536  -33.3655   26.2029 H   0  0  0  0  0  0
  -28.3907  -32.6870   25.0474 H   0  0  0  0  0  0
  -28.0554  -31.8520   26.5573 H   0  0  0  0  0  0
  -28.2566  -38.0091   24.7551 H   0  0  0  0  0  0
  -28.1084  -36.2645   24.6207 H   0  0  0  0  0  0
  -27.2304  -37.1330   25.8843 H   0  0  0  0  0  0
  -20.9430  -29.9362   21.7224 H   0  0  0  0  0  0
  -26.0144  -38.2815   24.1422 H   0  0  0  0  0  0
  -27.4961  -22.3504   21.8669 H   0  0  0  0  0  0
  -26.9775  -20.0463   22.5655 H   0  0  0  0  0  0
  -30.6061  -20.7660   19.3339 H   0  0  0  0  0  0
  -30.1720  -23.8222   20.4291 H   0  0  0  0  0  0
  -29.2292  -23.6163   19.0204 H   0  0  0  0  0  0
  -31.3444  -17.8556   20.4097 H   0  0  0  0  0  0
  -30.3678  -17.7614   18.9726 H   0  0  0  0  0  0
  -28.9136  -16.1423   20.5474 H   0  0  0  0  0  0
  -27.2220  -24.3744   20.2503 H   0  0  0  0  0  0
  1 25  1  0  0  0
  1 30  2  0  0  0
  1 79  1  0  0  0
  2  3  1  0  0  0
  2 25  1  0  0  0
  2 82  1  0  0  0
  2 83  1  0  0  0
  3  4  1  0  0  0
  3 84  1  0  0  0
  3 85  1  0  0  0
  4  5  1  0  0  0
  4 86  1  0  0  0
  4 87  1  0  0  0
  5  6  1  0  0  0
  5 26  1  0  0  0
  5 88  1  0  0  0
  6 25  1  0  0  0
  6 89  1  0  0  0
  6 90  1  0  0  0
  7  8  2  0  0  0
  7 26  1  0  0  0
  7 29  1  0  0  0
  8  9  1  0  0  0
  8 22  1  0  0  0
  9 10  1  0  0  0
  9 27  2  0  0  0
 10 11  2  0  0  0
 10 15  1  0  0  0
 11 12  1  0  0  0
 11 91  1  0  0  0
 12 13  2  0  0  0
 12 92  1  0  0  0
 13 14  1  0  0  0
 13 31  1  0  0  0
 14 15  2  0  0  0
 14 93  1  0  0  0
 15 94  1  0  0  0
 16 17  2  0  0  0
 16 21  1  0  0  0
 16 31  1  0  0  0
 17 18  1  0  0  0
 17 95  1  0  0  0
 18 19  2  0  0  0
 18 96  1  0  0  0
 19 20  1  0  0  0
 19 24  1  0  0  0
 20 21  2  0  0  0
 20 97  1  0  0  0
 21 23  1  0  0  0
 22 28  1  0  0  0
 22 32  2  0  0  0
 26 27  1  0  0  0
 28 98  1  0  0  0
 28 99  1  0  0  0
 29100  1  0  0  0
 29101  1  0  0  0
 33 34  1  0  0  0
 33 66  1  0  0  0
 33 70  2  0  0  0
 34 36  1  0  0  0
 34 59  1  0  0  0
 34102  1  0  0  0
 35 44  2  0  0  0
 35 45  1  0  0  0
 35 68  1  0  0  0
 36 56  1  0  0  0
 36103  1  0  0  0
 37 39  1  0  0  0
 37 47  1  0  0  0
 37 66  1  0  0  0
 37104  1  0  0  0
 38 43  2  0  0  0
 38 46  1  0  0  0
 38 47  1  0  0  0
 39 64  1  0  0  0
 39 67  2  0  0  0
 40 52  1  0  0  0
 40 53  2  0  0  0
 40 58  1  0  0  0
 41105  1  0  0  0
 41106  1  0  0  0
 41107  1  0  0  0
 41 48  1  0  0  0
 42 43  1  0  0  0
 42 66  1  0  0  0
 42108  1  0  0  0
 42109  1  0  0  0
 43 44  1  0  0  0
 44110  1  0  0  0
 45 46  2  0  0  0
 45111  1  0  0  0
 46112  1  0  0  0
 47113  1  0  0  0
 47114  1  0  0  0
 48 56  1  0  0  0
 48 65  1  0  0  0
 48115  1  0  0  0
 49 50  1  0  0  0
 49 53  1  0  0  0
 49 64  1  0  0  0
 49116  1  0  0  0
 50 51  1  0  0  0
 50117  1  0  0  0
 50118  1  0  0  0
 51 52  1  0  0  0
 51119  1  0  0  0
 51120  1  0  0  0
 52121  1  0  0  0
 52122  1  0  0  0
 53 54  1  0  0  0
 54 55  2  0  0  0
 54123  1  0  0  0
 55 57  1  0  0  0
 55124  1  0  0  0
 56 69  2  0  0  0
 57 58  2  0  0  0
 57125  1  0  0  0
 58126  1  0  0  0
 59 60  1  0  0  0
 59 61  1  0  0  0
 59 62  1  0  0  0
 60127  1  0  0  0
 60128  1  0  0  0
 60129  1  0  0  0
 61130  1  0  0  0
 61131  1  0  0  0
 61132  1  0  0  0
 62133  1  0  0  0
 62134  1  0  0  0
 62135  1  0  0  0
 63 65  1  0  0  0
 63136  1  0  0  0
 63137  1  0  0  0
 63138  1  0  0  0
 64139  1  0  0  0
 65140  1  0  0  0
 68 80  1  0  0  0
 71 72  2  0  0  0
 71 74  1  0  0  0
 71141  1  0  0  0
 72 76  1  0  0  0
 72142  1  0  0  0
 73 74  2  0  0  0
 73 75  1  0  0  0
 73143  1  0  0  0
 74 77  1  0  0  0
 75 76  2  0  0  0
 75 78  1  0  0  0
 76 81  1  0  0  0
 77 80  1  0  0  0
 77144  1  0  0  0
 77145  1  0  0  0
 78 79  1  0  0  0
 78146  1  0  0  0
 78147  1  0  0  0
 79148  1  0  0  0
 80149  1  0  0  0
M  ISO  4   1 100  68 101  79 100  80 101
M  END
> <chiral flag>
0

> <version>
0

> <s_m_source_file>
/data/baiqing/PycharmProjects/Reinvent-master-3.2/result/LINK_invent/BTK/process_docking_weight1_custom_product_contain_oxygen_bond_distance_aromatic_linkinvent_7_9_3/rearranged_h_0008.sdf

> <i_m_source_file_index>
16

> <r_mmod_Potential_Energy-OPLS-2005>
573.476928710938

> <r_mmod_Stretch_Energy-OPLS-2005>
337.877532958984

> <r_mmod_Bend_Energy-OPLS-2005>
278.831451416016

> <r_mmod_Torsional_Energy-OPLS-2005>
208.876434326172

> <r_mmod_Improper_Torsional_Energy-OPLS-2005>
5.45071792602539

> <r_mmod_Van_der_Waal_Energy-OPLS-2005>
124.887283325195

> <r_mmod_Electrostatic_Energy-OPLS-2005>
-386.426330566406

> <r_mmod_Solvation_Energy-OPLS-2005>
-213.195465087891

> <b_mmod_Minimization_Converged-OPLS-2005>
0

> <r_mmod_RMS_Derivative-OPLS-2005>
13.6453695297241

$$$$
16
                    3D
 Structure written by MMmdl.
154163  0  0  1  0            999 V2000
  -30.2929  -15.6523   20.3882 C   0  0  0  0  0  0
  -30.4257  -13.0983   19.5495 C   0  0  0  0  0  0
  -29.5484  -12.6852   18.3277 C   0  0  0  0  0  0
  -28.1200  -12.3201   18.7595 C   0  0  0  0  0  0
  -27.6010  -13.3074   19.8279 C   0  0  2  0  0  0
  -28.6276  -13.5785   20.9541 C   0  0  0  0  0  0
  -25.2245  -13.8241   20.5667 C   0  0  0  0  0  0
  -24.1672  -13.0400   20.9261 C   0  0  0  0  0  0
  -24.6407  -11.6926   20.8771 C   0  0  0  0  0  0
  -23.9107  -10.4275   21.0400 C   0  0  0  0  0  0
  -24.3642   -9.4191   21.9185 C   0  0  0  0  0  0
  -23.6308   -8.2230   22.0755 C   0  0  0  0  0  0
  -22.4293   -8.0269   21.3542 C   0  0  0  0  0  0
  -21.9932   -9.0245   20.4644 C   0  0  0  0  0  0
  -22.7273  -10.2117   20.3052 C   0  0  0  0  0  0
  -21.6853   -6.0731   22.5280 C   0  0  0  0  0  0
  -21.4019   -6.5637   23.8215 C   0  0  0  0  0  0
  -21.3665   -5.6786   24.9176 C   0  0  0  0  0  0
  -21.6044   -4.3049   24.7224 C   0  0  0  0  0  0
  -21.8820   -3.8143   23.4345 C   0  0  0  0  0  0
  -21.9193   -4.6959   22.3401 C   0  0  0  0  0  0
  -22.7689  -13.5136   21.1909 C   0  0  0  0  0  0
  -22.1662   -4.2147   21.0977 F   0  0  0  0  0  0
  -21.5627   -3.4532   25.7738 F   0  0  0  0  0  0
  -29.7898  -14.2655   20.3306 N   0  0  0  0  0  0
  -26.2769  -12.9609   20.3269 N   0  0  0  0  0  0
  -25.9371  -11.6682   20.5758 N   0  0  0  0  0  0
  -22.0368  -12.8130   22.0479 N   0  0  0  0  0  0
  -25.3665  -15.1954   20.3881 N   0  0  0  0  0  0
  -31.4950  -15.6032   20.0575 O   0  0  0  0  0  0
  -21.6645   -6.8875   21.4242 O   0  0  0  0  0  0
  -22.3359  -14.5434   20.6751 O   0  0  0  0  0  0
  -24.6853  -31.7981   23.1503 C   0  0  0  0  0  0
  -25.9417  -32.4463   23.8063 C   0  0  1  0  0  0
  -27.2332  -26.6905   20.2171 C   0  0  0  0  0  0
  -25.5984  -33.8290   24.1944 N   0  0  0  0  0  0
  -23.5136  -30.3978   21.5047 C   0  0  2  0  0  0
  -24.9712  -28.7340   20.1224 C   0  0  0  0  0  0
  -22.7782  -29.4301   22.4718 C   0  0  0  0  0  0
  -18.0337  -28.1424   22.8459 C   0  0  0  0  0  0
  -24.1486  -36.7151   23.2654 C   0  0  0  0  0  0
  -26.0945  -30.5284   21.4153 C   0  0  0  0  0  0
  -26.1610  -29.0911   20.7671 C   0  0  0  0  0  0
  -27.2775  -28.0987   20.7774 C   0  0  0  0  0  0
  -26.0066  -26.5446   19.5195 C   0  0  0  0  0  0
  -24.9326  -27.4869   19.4747 C   0  0  0  0  0  0
  -23.7683  -29.6914   20.1421 C   0  0  0  0  0  0
  -25.4139  -36.2897   24.0282 C   0  0  1  0  0  0
  -20.5975  -28.3779   23.1145 C   0  0  2  0  0  0
  -20.6800  -26.9437   22.5408 C   0  0  0  0  0  0
  -19.5772  -26.6371   21.5224 C   0  0  0  0  0  0
  -18.1956  -26.7953   22.1625 C   0  0  0  0  0  0
  -19.1605  -28.8928   23.2779 C   0  0  0  0  0  0
  -18.9506  -30.1515   23.8821 C   0  0  0  0  0  0
  -17.6495  -30.6605   24.0552 C   0  0  0  0  0  0
  -25.9121  -34.9286   23.4957 C   0  0  0  0  0  0
  -16.5384  -29.9087   23.6353 C   0  0  0  0  0  0
  -16.7316  -28.6512   23.0369 C   0  0  0  0  0  0
  -26.4590  -31.6503   25.0687 C   0  0  0  0  0  0
  -25.3653  -31.3836   26.1304 C   0  0  0  0  0  0
  -27.0517  -30.2837   24.6590 C   0  0  0  0  0  0
  -27.6043  -32.4361   25.7505 C   0  0  0  0  0  0
  -27.5561  -37.1733   24.8465 C   0  0  0  0  0  0
  -21.4427  -29.3027   22.3472 N   0  0  0  0  0  0
  -26.4268  -37.3655   23.9409 N   0  0  0  0  0  0
  -24.7880  -30.9417   22.0759 N   0  0  0  0  0  0
  -23.4219  -28.7905   23.3064 O   0  0  0  0  0  0
  -28.2128  -25.4794   20.2735 O   0  0  0  0  0  0
  -26.5770  -34.8870   22.4579 O   0  0  0  0  0  0
  -23.5865  -32.1052   23.6448 O   0  0  0  0  0  0
  -27.1455  -18.7904   21.6190 C   0  0  0  0  0  0
  -27.8998  -16.5096   22.5726 C   0  0  0  0  0  0
  -27.6845  -20.2051   21.4001 C   0  0  0  0  0  0
  -29.6912  -18.7912   20.2809 C   0  0  0  0  0  0
  -28.0521  -17.9928   22.5277 C   0  0  1  0  0  0
  -29.1880  -17.1060   22.0367 C   0  0  2  0  0  0
  -29.0679  -22.0472   20.2494 C   0  0  0  0  0  0
  -28.0426  -23.7127   20.2372 C   0  0  0  0  0  0
  -29.5620  -17.0291   20.6435 N   0  0  0  0  0  0
  -28.7361  -20.3048   20.3666 N   0  3  2  0  0  0
  -31.4144  -13.3682   19.1786 H   0  0  0  0  0  0
  -30.6084  -12.2388   20.1970 H   0  0  0  0  0  0
  -30.0043  -11.8525   17.7908 H   0  0  0  0  0  0
  -29.5080  -13.5177   17.6233 H   0  0  0  0  0  0
  -28.1391  -11.3121   19.1749 H   0  0  0  0  0  0
  -27.4517  -12.2871   17.8979 H   0  0  0  0  0  0
  -27.4777  -14.2488   19.2912 H   0  0  0  0  0  0
  -28.9037  -12.6552   21.4670 H   0  0  0  0  0  0
  -28.1918  -14.1944   21.7283 H   0  0  0  0  0  0
  -25.2778   -9.5667   22.4776 H   0  0  0  0  0  0
  -24.0006   -7.4619   22.7483 H   0  0  0  0  0  0
  -21.0861   -8.8769   19.8954 H   0  0  0  0  0  0
  -22.3728  -10.9655   19.6164 H   0  0  0  0  0  0
  -21.2018   -7.6147   23.9722 H   0  0  0  0  0  0
  -21.1486   -6.0515   25.9079 H   0  0  0  0  0  0
  -22.0598   -2.7606   23.2847 H   0  0  0  0  0  0
  -22.4018  -11.9798   22.4850 H   0  0  0  0  0  0
  -21.0985  -13.1134   22.2714 H   0  0  0  0  0  0
  -24.5943  -15.8391   20.5202 H   0  0  0  0  0  0
  -26.2180  -15.6482   20.0845 H   0  0  0  0  0  0
  -26.7507  -32.4930   23.0785 H   0  0  0  0  0  0
  -25.0035  -33.9322   25.0035 H   0  0  0  0  0  0
  -22.8391  -31.2348   21.3130 H   0  0  0  0  0  0
  -23.3771  -35.9455   23.3262 H   0  0  0  0  0  0
  -24.3563  -36.8866   22.2080 H   0  0  0  0  0  0
  -23.7217  -37.6304   23.6766 H   0  0  0  0  0  0
  -26.2961  -31.2516   20.6237 H   0  0  0  0  0  0
  -26.9465  -30.6002   22.0793 H   0  0  0  0  0  0
  -28.1777  -28.3833   21.3038 H   0  0  0  0  0  0
  -25.8382  -25.6019   19.0186 H   0  0  0  0  0  0
  -24.0343  -27.2054   18.9427 H   0  0  0  0  0  0
  -23.9438  -30.4493   19.3776 H   0  0  0  0  0  0
  -22.8732  -29.1572   19.8200 H   0  0  0  0  0  0
  -25.1349  -36.1664   25.0771 H   0  0  0  0  0  0
  -21.0050  -28.3397   24.1272 H   0  0  0  0  0  0
  -20.5655  -26.2404   23.3671 H   0  0  0  0  0  0
  -21.6660  -26.7370   22.1228 H   0  0  0  0  0  0
  -19.6922  -25.6263   21.1299 H   0  0  0  0  0  0
  -19.6714  -27.3144   20.6728 H   0  0  0  0  0  0
  -17.4225  -26.6698   21.4029 H   0  0  0  0  0  0
  -18.0337  -26.0115   22.9039 H   0  0  0  0  0  0
  -19.7981  -30.7361   24.2144 H   0  0  0  0  0  0
  -17.5042  -31.6274   24.5176 H   0  0  0  0  0  0
  -15.5382  -30.2962   23.7725 H   0  0  0  0  0  0
  -15.8718  -28.0812   22.7113 H   0  0  0  0  0  0
  -24.5839  -30.7186   25.7607 H   0  0  0  0  0  0
  -24.8837  -32.3067   26.4540 H   0  0  0  0  0  0
  -25.7818  -30.9115   27.0210 H   0  0  0  0  0  0
  -26.3234  -29.6452   24.1577 H   0  0  0  0  0  0
  -27.3938  -29.7284   25.5335 H   0  0  0  0  0  0
  -27.9218  -30.3962   24.0121 H   0  0  0  0  0  0
  -27.2586  -33.3732   26.1883 H   0  0  0  0  0  0
  -28.3956  -32.6809   25.0407 H   0  0  0  0  0  0
  -28.0599  -31.8616   26.5581 H   0  0  0  0  0  0
  -28.2548  -38.0056   24.7522 H   0  0  0  0  0  0
  -28.1084  -36.2582   24.6278 H   0  0  0  0  0  0
  -27.2283  -37.1356   25.8867 H   0  0  0  0  0  0
  -20.9733  -29.8682   21.6539 H   0  0  0  0  0  0
  -26.0092  -38.2700   24.1429 H   0  0  0  0  0  0
  -26.9759  -18.2694   20.6752 H   0  0  0  0  0  0
  -26.1723  -18.8561   22.1064 H   0  0  0  0  0  0
  -27.1743  -16.0991   21.8844 H   0  0  0  0  0  0
  -27.9264  -16.0359   23.5528 H   0  0  0  0  0  0
  -28.0535  -20.6205   22.3387 H   0  0  0  0  0  0
  -26.8593  -20.8478   21.0903 H   0  0  0  0  0  0
  -30.0552  -18.7966   19.2541 H   0  0  0  0  0  0
  -30.5755  -19.0663   20.8563 H   0  0  0  0  0  0
  -28.2177  -18.4692   23.4934 H   0  0  0  0  0  0
  -30.0342  -17.0533   22.7219 H   0  0  0  0  0  0
  -29.7756  -22.1970   21.0645 H   0  0  0  0  0  0
  -29.6864  -22.1133   19.3545 H   0  0  0  0  0  0
  -27.3698  -23.5691   21.0821 H   0  0  0  0  0  0
  -27.3947  -23.5845   19.3706 H   0  0  0  0  0  0
  -28.2008  -20.1808   19.5193 H   0  0  0  0  0  0
  1 25  1  0  0  0
  1 30  2  0  0  0
  1 79  1  0  0  0
  2  3  1  0  0  0
  2 25  1  0  0  0
  2 81  1  0  0  0
  2 82  1  0  0  0
  3  4  1  0  0  0
  3 83  1  0  0  0
  3 84  1  0  0  0
  4  5  1  0  0  0
  4 85  1  0  0  0
  4 86  1  0  0  0
  5  6  1  0  0  0
  5 26  1  0  0  0
  5 87  1  0  0  0
  6 25  1  0  0  0
  6 88  1  0  0  0
  6 89  1  0  0  0
  7  8  2  0  0  0
  7 26  1  0  0  0
  7 29  1  0  0  0
  8  9  1  0  0  0
  8 22  1  0  0  0
  9 10  1  0  0  0
  9 27  2  0  0  0
 10 11  2  0  0  0
 10 15  1  0  0  0
 11 12  1  0  0  0
 11 90  1  0  0  0
 12 13  2  0  0  0
 12 91  1  0  0  0
 13 14  1  0  0  0
 13 31  1  0  0  0
 14 15  2  0  0  0
 14 92  1  0  0  0
 15 93  1  0  0  0
 16 17  2  0  0  0
 16 21  1  0  0  0
 16 31  1  0  0  0
 17 18  1  0  0  0
 17 94  1  0  0  0
 18 19  2  0  0  0
 18 95  1  0  0  0
 19 20  1  0  0  0
 19 24  1  0  0  0
 20 21  2  0  0  0
 20 96  1  0  0  0
 21 23  1  0  0  0
 22 28  1  0  0  0
 22 32  2  0  0  0
 26 27  1  0  0  0
 28 97  1  0  0  0
 28 98  1  0  0  0
 29 99  1  0  0  0
 29100  1  0  0  0
 33 34  1  0  0  0
 33 66  1  0  0  0
 33 70  2  0  0  0
 34 36  1  0  0  0
 34 59  1  0  0  0
 34101  1  0  0  0
 35 44  2  0  0  0
 35 45  1  0  0  0
 35 68  1  0  0  0
 36 56  1  0  0  0
 36102  1  0  0  0
 37 39  1  0  0  0
 37 47  1  0  0  0
 37 66  1  0  0  0
 37103  1  0  0  0
 38 43  2  0  0  0
 38 46  1  0  0  0
 38 47  1  0  0  0
 39 64  1  0  0  0
 39 67  2  0  0  0
 40 52  1  0  0  0
 40 53  2  0  0  0
 40 58  1  0  0  0
 41104  1  0  0  0
 41105  1  0  0  0
 41106  1  0  0  0
 41 48  1  0  0  0
 42 43  1  0  0  0
 42 66  1  0  0  0
 42107  1  0  0  0
 42108  1  0  0  0
 43 44  1  0  0  0
 44109  1  0  0  0
 45 46  2  0  0  0
 45110  1  0  0  0
 46111  1  0  0  0
 47112  1  0  0  0
 47113  1  0  0  0
 48 56  1  0  0  0
 48 65  1  0  0  0
 48114  1  0  0  0
 49 50  1  0  0  0
 49 53  1  0  0  0
 49 64  1  0  0  0
 49115  1  0  0  0
 50 51  1  0  0  0
 50116  1  0  0  0
 50117  1  0  0  0
 51 52  1  0  0  0
 51118  1  0  0  0
 51119  1  0  0  0
 52120  1  0  0  0
 52121  1  0  0  0
 53 54  1  0  0  0
 54 55  2  0  0  0
 54122  1  0  0  0
 55 57  1  0  0  0
 55123  1  0  0  0
 56 69  2  0  0  0
 57 58  2  0  0  0
 57124  1  0  0  0
 58125  1  0  0  0
 59 60  1  0  0  0
 59 61  1  0  0  0
 59 62  1  0  0  0
 60126  1  0  0  0
 60127  1  0  0  0
 60128  1  0  0  0
 61129  1  0  0  0
 61130  1  0  0  0
 61131  1  0  0  0
 62132  1  0  0  0
 62133  1  0  0  0
 62134  1  0  0  0
 63 65  1  0  0  0
 63135  1  0  0  0
 63136  1  0  0  0
 63137  1  0  0  0
 64138  1  0  0  0
 65139  1  0  0  0
 68 78  1  0  0  0
 71 73  1  0  0  0
 71140  1  0  0  0
 71141  1  0  0  0
 71 75  1  0  0  0
 72 75  1  0  0  0
 72142  1  0  0  0
 72143  1  0  0  0
 72 76  1  0  0  0
 73 80  1  0  0  0
 73144  1  0  0  0
 73145  1  0  0  0
 74 79  1  0  0  0
 74 80  1  0  0  0
 74146  1  0  0  0
 74147  1  0  0  0
 75 76  1  0  0  0
 75148  1  0  0  0
 76 79  1  0  0  0
 76149  1  0  0  0
 77 78  1  0  0  0
 77150  1  0  0  0
 77151  1  0  0  0
 77 80  1  0  0  0
 78152  1  0  0  0
 78153  1  0  0  0
 80154  1  0  0  0
M  CHG  1  80   1
M  ISO  4   1 100  68 101  78 101  79 100
M  END
> <chiral flag>
0

> <version>
0

> <s_m_source_file>
/data/baiqing/PycharmProjects/Reinvent-master-3.2/result/LINK_invent/BTK/process_docking_weight1_custom_product_contain_oxygen_bond_distance_aromatic_linkinvent_7_9_3/rearranged_h_0008.sdf

> <i_m_source_file_index>
17

> <r_mmod_Potential_Energy-OPLS-2005>
2644.06811523438

> <r_mmod_Stretch_Energy-OPLS-2005>
1203.31420898438

> <r_mmod_Bend_Energy-OPLS-2005>
674.017822265625

> <r_mmod_Torsional_Energy-OPLS-2005>
385.836029052734

> <r_mmod_Improper_Torsional_Energy-OPLS-2005>
6.81790208816528

> <r_mmod_Van_der_Waal_Energy-OPLS-2005>
116.282890319824

> <r_mmod_Electrostatic_Energy-OPLS-2005>
-209.094253540039

> <r_mmod_Solvation_Energy-OPLS-2005>
-441.53369140625

> <b_mmod_Minimization_Converged-OPLS-2005>
0

> <r_mmod_RMS_Derivative-OPLS-2005>
1.25225949287415

$$$$
17
                    3D
 Structure written by MMmdl.
153162  0  0  1  0            999 V2000
  -30.5124  -14.9454   20.4268 C   0  0  0  0  0  0
  -30.4539  -12.5881   19.4866 C   0  0  0  0  0  0
  -29.5243  -12.5303   18.2507 C   0  0  0  0  0  0
  -28.0576  -12.3138   18.6724 C   0  0  0  0  0  0
  -27.6349  -13.2403   19.8414 C   0  0  2  0  0  0
  -28.6810  -13.2483   20.9769 C   0  0  0  0  0  0
  -25.2483  -13.8193   20.5694 C   0  0  0  0  0  0
  -24.1794  -13.0428   20.9226 C   0  0  0  0  0  0
  -24.6407  -11.6915   20.8770 C   0  0  0  0  0  0
  -23.9079  -10.4290   21.0423 C   0  0  0  0  0  0
  -24.3632   -9.4206   21.9193 C   0  0  0  0  0  0
  -23.6306   -8.2238   22.0758 C   0  0  0  0  0  0
  -22.4282   -8.0286   21.3551 C   0  0  0  0  0  0
  -21.9922   -9.0257   20.4645 C   0  0  0  0  0  0
  -22.7255  -10.2134   20.3061 C   0  0  0  0  0  0
  -21.6847   -6.0745   22.5281 C   0  0  0  0  0  0
  -21.4007   -6.5649   23.8215 C   0  0  0  0  0  0
  -21.3661   -5.6797   24.9176 C   0  0  0  0  0  0
  -21.6042   -4.3057   24.7221 C   0  0  0  0  0  0
  -21.8821   -3.8153   23.4341 C   0  0  0  0  0  0
  -21.9191   -4.6974   22.3401 C   0  0  0  0  0  0
  -22.7817  -13.5207   21.1887 C   0  0  0  0  0  0
  -22.1661   -4.2164   21.0978 F   0  0  0  0  0  0
  -21.5632   -3.4537   25.7730 F   0  0  0  0  0  0
  -29.9566  -13.6690   20.3806 N   0  0  0  0  0  0
  -26.2915  -12.9414   20.3261 N   0  0  0  0  0  0
  -25.9339  -11.6553   20.5756 N   0  0  0  0  0  0
  -22.0460  -12.8197   22.0440 N   0  0  0  0  0  0
  -25.4122  -15.1925   20.4096 N   0  0  0  0  0  0
  -31.7195  -15.0584   20.1825 O   0  0  0  0  0  0
  -21.6643   -6.8888   21.4245 O   0  0  0  0  0  0
  -22.3510  -14.5521   20.6742 O   0  0  0  0  0  0
  -24.6434  -31.8431   23.1850 C   0  0  0  0  0  0
  -25.9196  -32.4701   23.8256 C   0  0  1  0  0  0
  -27.2326  -27.1409   20.1683 C   0  0  0  0  0  0
  -25.5950  -33.8504   24.2190 N   0  0  0  0  0  0
  -23.4492  -30.4591   21.5291 C   0  0  2  0  0  0
  -24.9021  -28.8758   20.1177 C   0  0  0  0  0  0
  -22.7566  -29.4548   22.4844 C   0  0  0  0  0  0
  -18.0300  -28.1413   22.8495 C   0  0  0  0  0  0
  -24.1474  -36.7244   23.2641 C   0  0  0  0  0  0
  -26.0030  -30.7202   21.3797 C   0  0  0  0  0  0
  -26.0780  -29.3278   20.7307 C   0  0  0  0  0  0
  -27.2469  -28.4787   20.7313 C   0  0  0  0  0  0
  -26.0302  -26.7785   19.5273 C   0  0  0  0  0  0
  -24.8896  -27.6139   19.5006 C   0  0  0  0  0  0
  -23.6786  -29.7790   20.1524 C   0  0  0  0  0  0
  -25.4108  -36.3033   24.0324 C   0  0  1  0  0  0
  -20.5921  -28.3735   23.1235 C   0  0  2  0  0  0
  -20.6786  -26.9434   22.5411 C   0  0  0  0  0  0
  -19.5758  -26.6388   21.5224 C   0  0  0  0  0  0
  -18.1935  -26.7954   22.1628 C   0  0  0  0  0  0
  -19.1566  -28.8888   23.2863 C   0  0  0  0  0  0
  -18.9484  -30.1487   23.8885 C   0  0  0  0  0  0
  -17.6484  -30.6613   24.0569 C   0  0  0  0  0  0
  -25.9064  -34.9412   23.5068 C   0  0  0  0  0  0
  -16.5371  -29.9113   23.6341 C   0  0  0  0  0  0
  -16.7286  -28.6526   23.0367 C   0  0  0  0  0  0
  -26.4521  -31.6570   25.0696 C   0  0  0  0  0  0
  -25.3715  -31.3787   26.1408 C   0  0  0  0  0  0
  -27.0366  -30.2966   24.6255 C   0  0  0  0  0  0
  -27.6058  -32.4325   25.7483 C   0  0  0  0  0  0
  -27.5577  -37.1756   24.8457 C   0  0  0  0  0  0
  -21.4256  -29.3063   22.3603 N   0  0  0  0  0  0
  -26.4260  -37.3759   23.9445 N   0  0  0  0  0  0
  -24.7185  -31.0293   22.0871 N   0  0  0  0  0  0
  -23.4199  -28.8088   23.2997 O   0  0  0  0  0  0
  -28.3151  -26.1911   20.1746 O   0  0  0  0  0  0
  -26.5646  -34.8915   22.4637 O   0  0  0  0  0  0
  -23.5551  -32.1289   23.7081 O   0  0  0  0  0  0
  -28.5106  -19.7951   19.7197 C   0  0  0  0  0  0
  -28.6779  -18.3466   19.6993 C   0  0  0  0  0  0
  -30.4501  -18.4981   21.2309 C   0  0  0  0  0  0
  -29.2680  -20.6976   20.5387 C   0  0  0  0  0  0
  -29.6550  -17.5964   20.4478 C   0  0  0  0  0  0
  -30.2619  -19.9460   21.2854 C   0  0  0  0  0  0
  -28.9879  -24.3619   21.8192 C   0  0  0  0  0  0
  -29.0254  -22.8086   21.9973 C   0  0  0  0  0  0
  -28.5814  -23.3177   19.7462 C   0  0  0  0  0  0
  -28.1522  -24.6911   20.5664 C   0  0  2  0  0  0
  -29.0343  -22.1768   20.6731 N   0  0  0  0  0  0
  -29.6315  -16.0573   20.5080 N   0  0  0  0  0  0
  -31.0940  -20.6281   22.1093 F   0  0  0  0  0  0
  -31.4829  -12.7700   19.1704 H   0  0  0  0  0  0
  -30.4665  -11.6314   20.0106 H   0  0  0  0  0  0
  -29.8423  -11.7344   17.5755 H   0  0  0  0  0  0
  -29.6075  -13.4611   17.6859 H   0  0  0  0  0  0
  -27.9546  -11.2712   18.9768 H   0  0  0  0  0  0
  -27.3911  -12.4470   17.8197 H   0  0  0  0  0  0
  -27.6014  -14.2450   19.4196 H   0  0  0  0  0  0
  -28.7706  -12.2644   21.4403 H   0  0  0  0  0  0
  -28.3823  -13.9356   21.7704 H   0  0  0  0  0  0
  -25.2775   -9.5678   22.4772 H   0  0  0  0  0  0
  -24.0012   -7.4625   22.7471 H   0  0  0  0  0  0
  -21.0855   -8.8778   19.8943 H   0  0  0  0  0  0
  -22.3721  -10.9679   19.6173 H   0  0  0  0  0  0
  -21.1994   -7.6157   23.9724 H   0  0  0  0  0  0
  -21.1480   -6.0524   25.9080 H   0  0  0  0  0  0
  -22.0597   -2.7613   23.2830 H   0  0  0  0  0  0
  -22.4073  -11.9850   22.4814 H   0  0  0  0  0  0
  -21.1081  -13.1233   22.2647 H   0  0  0  0  0  0
  -24.6319  -15.8331   20.5085 H   0  0  0  0  0  0
  -26.2414  -15.6380   20.0421 H   0  0  0  0  0  0
  -26.7265  -32.5314   23.0991 H   0  0  0  0  0  0
  -25.0110  -33.9617   25.0350 H   0  0  0  0  0  0
  -22.7542  -31.2858   21.3686 H   0  0  0  0  0  0
  -23.3763  -35.9545   23.3262 H   0  0  0  0  0  0
  -24.3576  -36.8899   22.2065 H   0  0  0  0  0  0
  -23.7175  -37.6411   23.6686 H   0  0  0  0  0  0
  -26.1505  -31.4682   20.6002 H   0  0  0  0  0  0
  -26.8767  -30.7819   22.0167 H   0  0  0  0  0  0
  -28.1493  -28.8286   21.2127 H   0  0  0  0  0  0
  -25.9643  -25.8093   19.0531 H   0  0  0  0  0  0
  -23.9902  -27.2617   19.0141 H   0  0  0  0  0  0
  -23.8201  -30.5481   19.3926 H   0  0  0  0  0  0
  -22.7949  -29.2195   19.8403 H   0  0  0  0  0  0
  -25.1281  -36.1845   25.0809 H   0  0  0  0  0  0
  -21.0026  -28.3317   24.1354 H   0  0  0  0  0  0
  -20.5683  -26.2346   23.3632 H   0  0  0  0  0  0
  -21.6646  -26.7432   22.1195 H   0  0  0  0  0  0
  -19.6909  -25.6293   21.1265 H   0  0  0  0  0  0
  -19.6694  -27.3196   20.6753 H   0  0  0  0  0  0
  -17.4206  -26.6715   21.4030 H   0  0  0  0  0  0
  -18.0323  -26.0112   22.9034 H   0  0  0  0  0  0
  -19.7963  -30.7314   24.2232 H   0  0  0  0  0  0
  -17.5044  -31.6293   24.5176 H   0  0  0  0  0  0
  -15.5372  -30.3022   23.7688 H   0  0  0  0  0  0
  -15.8679  -28.0850   22.7093 H   0  0  0  0  0  0
  -24.5884  -30.7140   25.7749 H   0  0  0  0  0  0
  -24.8930  -32.2992   26.4763 H   0  0  0  0  0  0
  -25.8012  -30.9008   27.0225 H   0  0  0  0  0  0
  -26.2968  -29.6712   24.1252 H   0  0  0  0  0  0
  -27.3990  -29.7238   25.4800 H   0  0  0  0  0  0
  -27.8871  -30.4214   23.9552 H   0  0  0  0  0  0
  -27.2670  -33.3680   26.1950 H   0  0  0  0  0  0
  -28.3942  -32.6784   25.0357 H   0  0  0  0  0  0
  -28.0639  -31.8508   26.5492 H   0  0  0  0  0  0
  -28.2523  -38.0123   24.7605 H   0  0  0  0  0  0
  -28.1134  -36.2659   24.6136 H   0  0  0  0  0  0
  -27.2325  -37.1222   25.8861 H   0  0  0  0  0  0
  -20.9456  -29.8794   21.6807 H   0  0  0  0  0  0
  -26.0115  -38.2801   24.1538 H   0  0  0  0  0  0
  -27.7218  -20.2134   19.1123 H   0  0  0  0  0  0
  -27.9881  -17.7896   19.0812 H   0  0  0  0  0  0
  -31.2131  -18.0768   21.8688 H   0  0  0  0  0  0
  -30.0074  -24.7186   21.6665 H   0  0  0  0  0  0
  -28.6096  -24.8656   22.7098 H   0  0  0  0  0  0
  -28.1298  -22.4798   22.5275 H   0  0  0  0  0  0
  -29.8805  -22.5229   22.6087 H   0  0  0  0  0  0
  -29.4176  -23.5506   19.0851 H   0  0  0  0  0  0
  -27.7661  -22.9887   19.1010 H   0  0  0  0  0  0
  -27.1078  -24.5597   20.8502 H   0  0  0  0  0  0
  -28.6880  -15.7050   20.5335 H   0  0  0  0  0  0
  1 25  1  0  0  0
  1 30  2  0  0  0
  1 82  1  0  0  0
  2  3  1  0  0  0
  2 25  1  0  0  0
  2 84  1  0  0  0
  2 85  1  0  0  0
  3  4  1  0  0  0
  3 86  1  0  0  0
  3 87  1  0  0  0
  4  5  1  0  0  0
  4 88  1  0  0  0
  4 89  1  0  0  0
  5  6  1  0  0  0
  5 26  1  0  0  0
  5 90  1  0  0  0
  6 25  1  0  0  0
  6 91  1  0  0  0
  6 92  1  0  0  0
  7  8  2  0  0  0
  7 26  1  0  0  0
  7 29  1  0  0  0
  8  9  1  0  0  0
  8 22  1  0  0  0
  9 10  1  0  0  0
  9 27  2  0  0  0
 10 11  2  0  0  0
 10 15  1  0  0  0
 11 12  1  0  0  0
 11 93  1  0  0  0
 12 13  2  0  0  0
 12 94  1  0  0  0
 13 14  1  0  0  0
 13 31  1  0  0  0
 14 15  2  0  0  0
 14 95  1  0  0  0
 15 96  1  0  0  0
 16 17  2  0  0  0
 16 21  1  0  0  0
 16 31  1  0  0  0
 17 18  1  0  0  0
 17 97  1  0  0  0
 18 19  2  0  0  0
 18 98  1  0  0  0
 19 20  1  0  0  0
 19 24  1  0  0  0
 20 21  2  0  0  0
 20 99  1  0  0  0
 21 23  1  0  0  0
 22 28  1  0  0  0
 22 32  2  0  0  0
 26 27  1  0  0  0
 28100  1  0  0  0
 28101  1  0  0  0
 29102  1  0  0  0
 29103  1  0  0  0
 33 34  1  0  0  0
 33 66  1  0  0  0
 33 70  2  0  0  0
 34 36  1  0  0  0
 34 59  1  0  0  0
 34104  1  0  0  0
 35 44  2  0  0  0
 35 45  1  0  0  0
 35 68  1  0  0  0
 36 56  1  0  0  0
 36105  1  0  0  0
 37 39  1  0  0  0
 37 47  1  0  0  0
 37 66  1  0  0  0
 37106  1  0  0  0
 38 43  2  0  0  0
 38 46  1  0  0  0
 38 47  1  0  0  0
 39 64  1  0  0  0
 39 67  2  0  0  0
 40 52  1  0  0  0
 40 53  2  0  0  0
 40 58  1  0  0  0
 41107  1  0  0  0
 41108  1  0  0  0
 41109  1  0  0  0
 41 48  1  0  0  0
 42 43  1  0  0  0
 42 66  1  0  0  0
 42110  1  0  0  0
 42111  1  0  0  0
 43 44  1  0  0  0
 44112  1  0  0  0
 45 46  2  0  0  0
 45113  1  0  0  0
 46114  1  0  0  0
 47115  1  0  0  0
 47116  1  0  0  0
 48 56  1  0  0  0
 48 65  1  0  0  0
 48117  1  0  0  0
 49 50  1  0  0  0
 49 53  1  0  0  0
 49 64  1  0  0  0
 49118  1  0  0  0
 50 51  1  0  0  0
 50119  1  0  0  0
 50120  1  0  0  0
 51 52  1  0  0  0
 51121  1  0  0  0
 51122  1  0  0  0
 52123  1  0  0  0
 52124  1  0  0  0
 53 54  1  0  0  0
 54 55  2  0  0  0
 54125  1  0  0  0
 55 57  1  0  0  0
 55126  1  0  0  0
 56 69  2  0  0  0
 57 58  2  0  0  0
 57127  1  0  0  0
 58128  1  0  0  0
 59 60  1  0  0  0
 59 61  1  0  0  0
 59 62  1  0  0  0
 60129  1  0  0  0
 60130  1  0  0  0
 60131  1  0  0  0
 61132  1  0  0  0
 61133  1  0  0  0
 61134  1  0  0  0
 62135  1  0  0  0
 62136  1  0  0  0
 62137  1  0  0  0
 63 65  1  0  0  0
 63138  1  0  0  0
 63139  1  0  0  0
 63140  1  0  0  0
 64141  1  0  0  0
 65142  1  0  0  0
 68 80  1  0  0  0
 71 72  2  0  0  0
 71 74  1  0  0  0
 71143  1  0  0  0
 72 75  1  0  0  0
 72144  1  0  0  0
 73 75  2  0  0  0
 73 76  1  0  0  0
 73145  1  0  0  0
 74 76  2  0  0  0
 74 81  1  0  0  0
 75 82  1  0  0  0
 76 83  1  0  0  0
 77 78  1  0  0  0
 77 80  1  0  0  0
 77146  1  0  0  0
 77147  1  0  0  0
 78 81  1  0  0  0
 78148  1  0  0  0
 78149  1  0  0  0
 79 80  1  0  0  0
 79 81  1  0  0  0
 79150  1  0  0  0
 79151  1  0  0  0
 80152  1  0  0  0
 82153  1  0  0  0
M  ISO  4   1 100  68 101  80 101  82 100
M  END
> <chiral flag>
0

> <version>
0

> <s_m_source_file>
/data/baiqing/PycharmProjects/Reinvent-master-3.2/result/LINK_invent/BTK/process_docking_weight1_custom_product_contain_oxygen_bond_distance_aromatic_linkinvent_7_9_3/rearranged_h_0008.sdf

> <i_m_source_file_index>
18

> <r_mmod_Potential_Energy-OPLS-2005>
592.114562988281

> <r_mmod_Stretch_Energy-OPLS-2005>
218.330841064453

> <r_mmod_Bend_Energy-OPLS-2005>
308.939666748047

> <r_mmod_Torsional_Energy-OPLS-2005>
300.988464355469

> <r_mmod_Improper_Torsional_Energy-OPLS-2005>
7.21998405456543

> <r_mmod_Van_der_Waal_Energy-OPLS-2005>
124.425346374512

> <r_mmod_Electrostatic_Energy-OPLS-2005>
-326.940246582031

> <r_mmod_Solvation_Energy-OPLS-2005>
-227.665924072266

> <b_mmod_Minimization_Converged-OPLS-2005>
0

> <r_mmod_RMS_Derivative-OPLS-2005>
1.55988013744354

$$$$
18
                    3D
 Structure written by MMmdl.
171181  0  0  1  0            999 V2000
  -30.7599  -14.3505   20.7132 C   0  0  0  0  0  0
  -30.4157  -12.2887   19.3889 C   0  0  0  0  0  0
  -29.4819  -12.5458   18.1908 C   0  0  0  0  0  0
  -28.0062  -12.3947   18.6053 C   0  0  0  0  0  0
  -27.6674  -13.2017   19.8846 C   0  0  2  0  0  0
  -28.7025  -12.9228   20.9960 C   0  0  0  0  0  0
  -25.2602  -13.8156   20.5660 C   0  0  0  0  0  0
  -24.1843  -13.0439   20.9166 C   0  0  0  0  0  0
  -24.6399  -11.6901   20.8730 C   0  0  0  0  0  0
  -23.9072  -10.4283   21.0394 C   0  0  0  0  0  0
  -24.3621   -9.4198   21.9173 C   0  0  0  0  0  0
  -23.6285   -8.2242   22.0757 C   0  0  0  0  0  0
  -22.4269   -8.0282   21.3542 C   0  0  0  0  0  0
  -21.9904   -9.0255   20.4649 C   0  0  0  0  0  0
  -22.7244  -10.2126   20.3050 C   0  0  0  0  0  0
  -21.6842   -6.0748   22.5283 C   0  0  0  0  0  0
  -21.4016   -6.5654   23.8217 C   0  0  0  0  0  0
  -21.3656   -5.6805   24.9182 C   0  0  0  0  0  0
  -21.6041   -4.3067   24.7232 C   0  0  0  0  0  0
  -21.8807   -3.8167   23.4348 C   0  0  0  0  0  0
  -21.9185   -4.6981   22.3410 C   0  0  0  0  0  0
  -22.7863  -13.5239   21.1830 C   0  0  0  0  0  0
  -22.1644   -4.2172   21.0980 F   0  0  0  0  0  0
  -21.5631   -3.4549   25.7740 F   0  0  0  0  0  0
  -30.0523  -13.2161   20.4712 N   0  0  0  0  0  0
  -26.3043  -12.9320   20.3389 N   0  0  0  0  0  0
  -25.9323  -11.6483   20.5764 N   0  0  0  0  0  0
  -22.0516  -12.8227   22.0397 N   0  0  0  0  0  0
  -25.4325  -15.1869   20.4061 N   0  0  0  0  0  0
  -31.7543  -14.6897   20.0629 O   0  0  0  0  0  0
  -21.6625   -6.8883   21.4239 O   0  0  0  0  0  0
  -22.3534  -14.5545   20.6690 O   0  0  0  0  0  0
  -24.6108  -31.8695   23.2144 C   0  0  0  0  0  0
  -25.9018  -32.4826   23.8437 C   0  0  1  0  0  0
  -27.2600  -27.4804   20.0828 C   0  0  0  0  0  0
  -25.5853  -33.8625   24.2355 N   0  0  0  0  0  0
  -23.3983  -30.4905   21.5513 C   0  0  2  0  0  0
  -24.8509  -28.9566   20.1179 C   0  0  0  0  0  0
  -22.7388  -29.4660   22.5015 C   0  0  0  0  0  0
  -18.0247  -28.1393   22.8526 C   0  0  0  0  0  0
  -24.1469  -36.7309   23.2642 C   0  0  0  0  0  0
  -25.9220  -30.8443   21.3664 C   0  0  0  0  0  0
  -26.0031  -29.4802   20.7164 C   0  0  0  0  0  0
  -27.2033  -28.7426   20.7110 C   0  0  0  0  0  0
  -26.0888  -26.9514   19.4944 C   0  0  0  0  0  0
  -24.8848  -27.6865   19.5108 C   0  0  0  0  0  0
  -23.6090  -29.8181   20.1677 C   0  0  0  0  0  0
  -25.4093  -36.3124   24.0355 C   0  0  1  0  0  0
  -20.5839  -28.3671   23.1337 C   0  0  2  0  0  0
  -20.6733  -26.9402   22.5452 C   0  0  0  0  0  0
  -19.5717  -26.6407   21.5234 C   0  0  0  0  0  0
  -18.1889  -26.7942   22.1640 C   0  0  0  0  0  0
  -19.1504  -28.8847   23.2931 C   0  0  0  0  0  0
  -18.9430  -30.1442   23.8960 C   0  0  0  0  0  0
  -17.6440  -30.6598   24.0579 C   0  0  0  0  0  0
  -25.9022  -34.9477   23.5166 C   0  0  0  0  0  0
  -16.5329  -29.9115   23.6311 C   0  0  0  0  0  0
  -16.7241  -28.6523   23.0370 C   0  0  0  0  0  0
  -26.4470  -31.6609   25.0761 C   0  0  0  0  0  0
  -25.3753  -31.3690   26.1524 C   0  0  0  0  0  0
  -27.0281  -30.3041   24.6134 C   0  0  0  0  0  0
  -27.6050  -32.4345   25.7506 C   0  0  0  0  0  0
  -27.5576  -37.1806   24.8467 C   0  0  0  0  0  0
  -21.4123  -29.3032   22.3753 N   0  0  0  0  0  0
  -26.4280  -37.3811   23.9427 N   0  0  0  0  0  0
  -24.6602  -31.0823   22.1026 N   0  0  0  0  0  0
  -23.4150  -28.8203   23.3065 O   0  0  0  0  0  0
  -28.4465  -26.7875   20.1201 O   0  0  0  0  0  0
  -26.5617  -34.8935   22.4743 O   0  0  0  0  0  0
  -23.5316  -32.1436   23.7559 O   0  0  0  0  0  0
  -31.3406  -18.4288   22.9746 C   0  0  0  0  0  0
  -29.3426  -18.6047   21.5865 C   0  0  0  0  0  0
  -31.3770  -17.0367   22.7502 C   0  0  0  0  0  0
  -29.3780  -17.2158   21.3617 C   0  0  0  0  0  0
  -30.3210  -19.2245   22.3966 C   0  0  0  0  0  0
  -30.3939  -16.4287   21.9412 C   0  0  0  0  0  0
  -31.2841  -21.4480   22.3131 C   0  0  0  0  0  0
  -28.9589  -22.5838   23.6628 C   0  0  0  0  0  0
  -31.9976  -23.8566   21.6589 C   0  0  0  0  0  0
  -28.9563  -21.1259   23.1678 C   0  0  0  0  0  0
  -31.3102  -23.9770   20.2819 C   0  0  0  0  0  0
  -29.1063  -23.6434   21.3314 C   0  0  0  0  0  0
  -31.2029  -22.9614   22.6378 C   0  0  1  0  0  0
  -29.7602  -23.4930   22.7282 C   0  0  2  0  0  0
  -29.2354  -24.7335   19.1163 C   0  0  0  0  0  0
  -28.9483  -26.2298   18.9062 C   0  0  0  0  0  0
  -30.2509  -20.6286   22.6560 N   0  0  0  0  0  0
  -30.3497  -15.0259   21.7954 N   0  0  0  0  0  0
  -29.9196  -24.4883   20.4173 N   0  3  2  0  0  0
  -32.3061  -21.0296   21.7585 O   0  0  0  0  0  0
  -31.4596  -12.3939   19.0877 H   0  0  0  0  0  0
  -30.3117  -11.2597   19.7378 H   0  0  0  0  0  0
  -29.7126  -11.8600   17.3748 H   0  0  0  0  0  0
  -29.6500  -13.5509   17.8005 H   0  0  0  0  0  0
  -27.8132  -11.3350   18.7730 H   0  0  0  0  0  0
  -27.3507  -12.6969   17.7871 H   0  0  0  0  0  0
  -27.7282  -14.2594   19.6270 H   0  0  0  0  0  0
  -28.6611  -11.8742   21.2961 H   0  0  0  0  0  0
  -28.4354  -13.4821   21.8923 H   0  0  0  0  0  0
  -25.2760   -9.5684   22.4754 H   0  0  0  0  0  0
  -24.0014   -7.4637   22.7473 H   0  0  0  0  0  0
  -21.0842   -8.8761   19.8950 H   0  0  0  0  0  0
  -22.3696  -10.9668   19.6166 H   0  0  0  0  0  0
  -21.2013   -7.6158   23.9737 H   0  0  0  0  0  0
  -21.1483   -6.0533   25.9081 H   0  0  0  0  0  0
  -22.0597   -2.7634   23.2846 H   0  0  0  0  0  0
  -22.4132  -11.9867   22.4742 H   0  0  0  0  0  0
  -21.1142  -13.1246   22.2649 H   0  0  0  0  0  0
  -24.6693  -15.8450   20.5207 H   0  0  0  0  0  0
  -26.2926  -15.6249   20.0997 H   0  0  0  0  0  0
  -26.7096  -32.5559   23.1220 H   0  0  0  0  0  0
  -24.9942  -33.9806   25.0455 H   0  0  0  0  0  0
  -22.6883  -31.3073   21.4102 H   0  0  0  0  0  0
  -23.3738  -35.9628   23.3318 H   0  0  0  0  0  0
  -24.3539  -36.8905   22.2050 H   0  0  0  0  0  0
  -23.7204  -37.6513   23.6653 H   0  0  0  0  0  0
  -26.0350  -31.6123   20.6002 H   0  0  0  0  0  0
  -26.8095  -30.8961   21.9860 H   0  0  0  0  0  0
  -28.0935  -29.1477   21.1723 H   0  0  0  0  0  0
  -26.0998  -25.9730   19.0379 H   0  0  0  0  0  0
  -23.9956  -27.2706   19.0564 H   0  0  0  0  0  0
  -23.7165  -30.5913   19.4064 H   0  0  0  0  0  0
  -22.7355  -29.2358   19.8705 H   0  0  0  0  0  0
  -25.1272  -36.2009   25.0850 H   0  0  0  0  0  0
  -20.9918  -28.3233   24.1463 H   0  0  0  0  0  0
  -20.5597  -26.2289   23.3649 H   0  0  0  0  0  0
  -21.6602  -26.7446   22.1251 H   0  0  0  0  0  0
  -19.6858  -25.6321   21.1251 H   0  0  0  0  0  0
  -19.6639  -27.3233   20.6774 H   0  0  0  0  0  0
  -17.4151  -26.6696   21.4053 H   0  0  0  0  0  0
  -18.0287  -26.0084   22.9045 H   0  0  0  0  0  0
  -19.7911  -30.7247   24.2375 H   0  0  0  0  0  0
  -17.4991  -31.6285   24.5172 H   0  0  0  0  0  0
  -15.5335  -30.3046   23.7607 H   0  0  0  0  0  0
  -15.8634  -28.0850   22.7091 H   0  0  0  0  0  0
  -24.5894  -30.7064   25.7863 H   0  0  0  0  0  0
  -24.8981  -32.2842   26.5068 H   0  0  0  0  0  0
  -25.8121  -30.8792   27.0236 H   0  0  0  0  0  0
  -26.2810  -29.6812   24.1189 H   0  0  0  0  0  0
  -27.4023  -29.7287   25.4612 H   0  0  0  0  0  0
  -27.8683  -30.4350   23.9297 H   0  0  0  0  0  0
  -27.2650  -33.3617   26.2146 H   0  0  0  0  0  0
  -28.3816  -32.6946   25.0300 H   0  0  0  0  0  0
  -28.0774  -31.8433   26.5370 H   0  0  0  0  0  0
  -28.2617  -38.0091   24.7532 H   0  0  0  0  0  0
  -28.1059  -36.2626   24.6284 H   0  0  0  0  0  0
  -27.2297  -37.1449   25.8872 H   0  0  0  0  0  0
  -20.9280  -29.8763   21.6981 H   0  0  0  0  0  0
  -26.0173  -38.2885   24.1456 H   0  0  0  0  0  0
  -32.0915  -18.8797   23.6080 H   0  0  0  0  0  0
  -28.5538  -19.1833   21.1277 H   0  0  0  0  0  0
  -32.1486  -16.4416   23.2170 H   0  0  0  0  0  0
  -28.6113  -16.7595   20.7534 H   0  0  0  0  0  0
  -29.3963  -22.6215   24.6619 H   0  0  0  0  0  0
  -27.9365  -22.9501   23.7734 H   0  0  0  0  0  0
  -32.1163  -24.8501   22.0938 H   0  0  0  0  0  0
  -33.0122  -23.4774   21.5339 H   0  0  0  0  0  0
  -28.2047  -21.0249   22.3860 H   0  0  0  0  0  0
  -28.6256  -20.4792   23.9806 H   0  0  0  0  0  0
  -31.2961  -23.0079   19.7813 H   0  0  0  0  0  0
  -31.8934  -24.6463   19.6473 H   0  0  0  0  0  0
  -28.1135  -24.0835   21.4375 H   0  0  0  0  0  0
  -28.9672  -22.6702   20.8596 H   0  0  0  0  0  0
  -31.6634  -23.0634   23.6221 H   0  0  0  0  0  0
  -29.7949  -24.4832   23.1864 H   0  0  0  0  0  0
  -29.8317  -24.3604   18.2820 H   0  0  0  0  0  0
  -28.2913  -24.1903   19.0688 H   0  0  0  0  0  0
  -28.2828  -26.3794   18.0541 H   0  0  0  0  0  0
  -29.8742  -26.7499   18.6614 H   0  0  0  0  0  0
  -29.6105  -14.5602   22.2991 H   0  0  0  0  0  0
  -29.9803  -25.3977   20.8575 H   0  0  0  0  0  0
  1 25  1  0  0  0
  1 30  2  0  0  0
  1 88  1  0  0  0
  2  3  1  0  0  0
  2 25  1  0  0  0
  2 91  1  0  0  0
  2 92  1  0  0  0
  3  4  1  0  0  0
  3 93  1  0  0  0
  3 94  1  0  0  0
  4  5  1  0  0  0
  4 95  1  0  0  0
  4 96  1  0  0  0
  5  6  1  0  0  0
  5 26  1  0  0  0
  5 97  1  0  0  0
  6 25  1  0  0  0
  6 98  1  0  0  0
  6 99  1  0  0  0
  7  8  2  0  0  0
  7 26  1  0  0  0
  7 29  1  0  0  0
  8  9  1  0  0  0
  8 22  1  0  0  0
  9 10  1  0  0  0
  9 27  2  0  0  0
 10 11  2  0  0  0
 10 15  1  0  0  0
 11 12  1  0  0  0
 11100  1  0  0  0
 12 13  2  0  0  0
 12101  1  0  0  0
 13 14  1  0  0  0
 13 31  1  0  0  0
 14 15  2  0  0  0
 14102  1  0  0  0
 15103  1  0  0  0
 16 17  2  0  0  0
 16 21  1  0  0  0
 16 31  1  0  0  0
 17 18  1  0  0  0
 17104  1  0  0  0
 18 19  2  0  0  0
 18105  1  0  0  0
 19 20  1  0  0  0
 19 24  1  0  0  0
 20 21  2  0  0  0
 20106  1  0  0  0
 21 23  1  0  0  0
 22 28  1  0  0  0
 22 32  2  0  0  0
 26 27  1  0  0  0
 28107  1  0  0  0
 28108  1  0  0  0
 29109  1  0  0  0
 29110  1  0  0  0
 33 34  1  0  0  0
 33 66  1  0  0  0
 33 70  2  0  0  0
 34 36  1  0  0  0
 34 59  1  0  0  0
 34111  1  0  0  0
 35 44  2  0  0  0
 35 45  1  0  0  0
 35 68  1  0  0  0
 36 56  1  0  0  0
 36112  1  0  0  0
 37 39  1  0  0  0
 37 47  1  0  0  0
 37 66  1  0  0  0
 37113  1  0  0  0
 38 43  2  0  0  0
 38 46  1  0  0  0
 38 47  1  0  0  0
 39 64  1  0  0  0
 39 67  2  0  0  0
 40 52  1  0  0  0
 40 53  2  0  0  0
 40 58  1  0  0  0
 41114  1  0  0  0
 41115  1  0  0  0
 41116  1  0  0  0
 41 48  1  0  0  0
 42 43  1  0  0  0
 42 66  1  0  0  0
 42117  1  0  0  0
 42118  1  0  0  0
 43 44  1  0  0  0
 44119  1  0  0  0
 45 46  2  0  0  0
 45120  1  0  0  0
 46121  1  0  0  0
 47122  1  0  0  0
 47123  1  0  0  0
 48 56  1  0  0  0
 48 65  1  0  0  0
 48124  1  0  0  0
 49 50  1  0  0  0
 49 53  1  0  0  0
 49 64  1  0  0  0
 49125  1  0  0  0
 50 51  1  0  0  0
 50126  1  0  0  0
 50127  1  0  0  0
 51 52  1  0  0  0
 51128  1  0  0  0
 51129  1  0  0  0
 52130  1  0  0  0
 52131  1  0  0  0
 53 54  1  0  0  0
 54 55  2  0  0  0
 54132  1  0  0  0
 55 57  1  0  0  0
 55133  1  0  0  0
 56 69  2  0  0  0
 57 58  2  0  0  0
 57134  1  0  0  0
 58135  1  0  0  0
 59 60  1  0  0  0
 59 61  1  0  0  0
 59 62  1  0  0  0
 60136  1  0  0  0
 60137  1  0  0  0
 60138  1  0  0  0
 61139  1  0  0  0
 61140  1  0  0  0
 61141  1  0  0  0
 62142  1  0  0  0
 62143  1  0  0  0
 62144  1  0  0  0
 63 65  1  0  0  0
 63145  1  0  0  0
 63146  1  0  0  0
 63147  1  0  0  0
 64148  1  0  0  0
 65149  1  0  0  0
 68 86  1  0  0  0
 71 73  2  0  0  0
 71 75  1  0  0  0
 71150  1  0  0  0
 72 74  1  0  0  0
 72 75  2  0  0  0
 72151  1  0  0  0
 73 76  1  0  0  0
 73152  1  0  0  0
 74 76  2  0  0  0
 74153  1  0  0  0
 75 87  1  0  0  0
 76 88  1  0  0  0
 77 83  1  0  0  0
 77 87  1  0  0  0
 77 90  2  0  0  0
 78 80  1  0  0  0
 78154  1  0  0  0
 78155  1  0  0  0
 78 84  1  0  0  0
 79 81  1  0  0  0
 79156  1  0  0  0
 79157  1  0  0  0
 79 83  1  0  0  0
 80 87  1  0  0  0
 80158  1  0  0  0
 80159  1  0  0  0
 81 89  1  0  0  0
 81160  1  0  0  0
 81161  1  0  0  0
 82 84  1  0  0  0
 82 89  1  0  0  0
 82162  1  0  0  0
 82163  1  0  0  0
 83 84  1  0  0  0
 83164  1  0  0  0
 84165  1  0  0  0
 85 86  1  0  0  0
 85166  1  0  0  0
 85167  1  0  0  0
 85 89  1  0  0  0
 86168  1  0  0  0
 86169  1  0  0  0
 88170  1  0  0  0
 89171  1  0  0  0
M  CHG  1  89   1
M  ISO  4   1 100  68 101  86 101  88 100
M  END
> <chiral flag>
0

> <version>
0

> <s_m_source_file>
/data/baiqing/PycharmProjects/Reinvent-master-3.2/result/LINK_invent/BTK/process_docking_weight1_custom_product_contain_oxygen_bond_distance_aromatic_linkinvent_7_9_3/rearranged_h_0008.sdf

> <i_m_source_file_index>
19

> <r_mmod_Potential_Energy-OPLS-2005>
-3.19026637077332

> <r_mmod_Stretch_Energy-OPLS-2005>
38.8052368164062

> <r_mmod_Bend_Energy-OPLS-2005>
103.655014038086

> <r_mmod_Torsional_Energy-OPLS-2005>
354.617736816406

> <r_mmod_Improper_Torsional_Energy-OPLS-2005>
4.91844129562378

> <r_mmod_Van_der_Waal_Energy-OPLS-2005>
168.684661865234

> <r_mmod_Electrostatic_Energy-OPLS-2005>
-248.392425537109

> <r_mmod_Solvation_Energy-OPLS-2005>
-433.459228515625

> <b_mmod_Minimization_Converged-OPLS-2005>
0

> <r_mmod_RMS_Derivative-OPLS-2005>
2.87114024162292

$$$$
19
                    3D
 Structure written by MMmdl.
153161  0  0  1  0            999 V2000
  -30.6452  -14.6255   20.5091 C   0  0  0  0  0  0
  -30.4277  -12.3883   19.4505 C   0  0  0  0  0  0
  -29.5014  -12.5219   18.2227 C   0  0  0  0  0  0
  -28.0247  -12.3578   18.6311 C   0  0  0  0  0  0
  -27.6509  -13.2211   19.8651 C   0  0  2  0  0  0
  -28.6938  -13.0768   20.9958 C   0  0  0  0  0  0
  -25.2520  -13.8179   20.5680 C   0  0  0  0  0  0
  -24.1779  -13.0435   20.9146 C   0  0  0  0  0  0
  -24.6360  -11.6910   20.8686 C   0  0  0  0  0  0
  -23.9037  -10.4291   21.0381 C   0  0  0  0  0  0
  -24.3607   -9.4214   21.9162 C   0  0  0  0  0  0
  -23.6285   -8.2248   22.0747 C   0  0  0  0  0  0
  -22.4265   -8.0267   21.3538 C   0  0  0  0  0  0
  -21.9884   -9.0244   20.4649 C   0  0  0  0  0  0
  -22.7208  -10.2127   20.3042 C   0  0  0  0  0  0
  -21.6866   -6.0716   22.5268 C   0  0  0  0  0  0
  -21.4022   -6.5631   23.8194 C   0  0  0  0  0  0
  -21.3657   -5.6790   24.9157 C   0  0  0  0  0  0
  -21.6042   -4.3050   24.7219 C   0  0  0  0  0  0
  -21.8818   -3.8136   23.4341 C   0  0  0  0  0  0
  -21.9205   -4.6942   22.3400 C   0  0  0  0  0  0
  -22.7809  -13.5234   21.1856 C   0  0  0  0  0  0
  -22.1675   -4.2143   21.0973 F   0  0  0  0  0  0
  -21.5631   -3.4530   25.7726 F   0  0  0  0  0  0
  -30.0135  -13.4105   20.4337 N   0  0  0  0  0  0
  -26.2964  -12.9379   20.3321 N   0  0  0  0  0  0
  -25.9293  -11.6522   20.5711 N   0  0  0  0  0  0
  -22.0498  -12.8196   22.0425 N   0  0  0  0  0  0
  -25.4207  -15.1913   20.4196 N   0  0  0  0  0  0
  -31.8016  -14.7532   20.1030 O   0  0  0  0  0  0
  -21.6638   -6.8854   21.4232 O   0  0  0  0  0  0
  -22.3457  -14.5548   20.6739 O   0  0  0  0  0  0
  -24.6222  -31.8622   23.2055 C   0  0  0  0  0  0
  -25.9087  -32.4794   23.8370 C   0  0  1  0  0  0
  -27.2244  -27.3412   20.1070 C   0  0  0  0  0  0
  -25.5917  -33.8590   24.2294 N   0  0  0  0  0  0
  -23.4159  -30.4876   21.5480 C   0  0  2  0  0  0
  -24.8636  -28.9501   20.1110 C   0  0  0  0  0  0
  -22.7468  -29.4630   22.4943 C   0  0  0  0  0  0
  -18.0286  -28.1378   22.8496 C   0  0  0  0  0  0
  -24.1491  -36.7301   23.2634 C   0  0  0  0  0  0
  -25.9562  -30.7993   21.3771 C   0  0  0  0  0  0
  -26.0315  -29.4290   20.7176 C   0  0  0  0  0  0
  -27.2147  -28.6350   20.7109 C   0  0  0  0  0  0
  -26.0347  -26.9192   19.4674 C   0  0  0  0  0  0
  -24.8664  -27.6996   19.4776 C   0  0  0  0  0  0
  -23.6308  -29.8259   20.1622 C   0  0  0  0  0  0
  -25.4112  -36.3094   24.0333 C   0  0  1  0  0  0
  -20.5893  -28.3684   23.1305 C   0  0  2  0  0  0
  -20.6779  -26.9408   22.5415 C   0  0  0  0  0  0
  -19.5754  -26.6382   21.5220 C   0  0  0  0  0  0
  -18.1934  -26.7921   22.1621 C   0  0  0  0  0  0
  -19.1541  -28.8841   23.2898 C   0  0  0  0  0  0
  -18.9448  -30.1455   23.8901 C   0  0  0  0  0  0
  -17.6448  -30.6579   24.0573 C   0  0  0  0  0  0
  -25.9047  -34.9460   23.5111 C   0  0  0  0  0  0
  -16.5342  -29.9075   23.6334 C   0  0  0  0  0  0
  -16.7277  -28.6493   23.0348 C   0  0  0  0  0  0
  -26.4469  -31.6601   25.0731 C   0  0  0  0  0  0
  -25.3700  -31.3768   26.1466 C   0  0  0  0  0  0
  -27.0300  -30.3014   24.6194 C   0  0  0  0  0  0
  -27.6049  -32.4325   25.7488 C   0  0  0  0  0  0
  -27.5606  -37.1798   24.8450 C   0  0  0  0  0  0
  -21.4179  -29.3038   22.3688 N   0  0  0  0  0  0
  -26.4287  -37.3792   23.9433 N   0  0  0  0  0  0
  -24.6831  -31.0660   22.1001 N   0  0  0  0  0  0
  -23.4214  -28.8165   23.3001 O   0  0  0  0  0  0
  -28.3478  -26.5031   20.1621 O   0  0  0  0  0  0
  -26.5607  -34.8913   22.4674 O   0  0  0  0  0  0
  -23.5391  -32.1400   23.7397 O   0  0  0  0  0  0
  -28.8016  -19.3317   20.9782 C   0  0  0  0  0  0
  -31.1110  -19.2982   20.3184 C   0  0  0  0  0  0
  -29.9550  -20.0717   20.6096 C   0  0  0  0  0  0
  -29.9821  -17.1342   20.7660 C   0  0  0  0  0  0
  -28.8206  -17.9053   21.0466 C   0  0  0  0  0  0
  -31.1427  -17.8779   20.4035 C   0  0  0  0  0  0
  -30.0792  -21.6382   20.6871 C   0  0  0  0  0  0
  -29.2624  -24.0494   20.4266 C   0  0  0  0  0  0
  -28.1378  -25.0562   19.9547 C   0  0  0  0  0  0
  -29.8726  -15.6797   20.9094 N   0  0  0  0  0  0
  -29.0043  -22.5657   20.1789 N   0  3  0  0  0  0
  -27.6894  -17.2553   21.4160 F   0  0  0  0  0  0
  -32.3275  -17.2693   20.1727 F   0  0  0  0  0  0
  -31.4691  -12.5001   19.1431 H   0  0  0  0  0  0
  -30.3477  -11.3911   19.8872 H   0  0  0  0  0  0
  -29.7643  -11.7836   17.4653 H   0  0  0  0  0  0
  -29.6461  -13.4988   17.7576 H   0  0  0  0  0  0
  -27.8539  -11.3031   18.8495 H   0  0  0  0  0  0
  -27.3710  -12.6027   17.7935 H   0  0  0  0  0  0
  -27.6676  -14.2582   19.5294 H   0  0  0  0  0  0
  -28.6960  -12.0584   21.3889 H   0  0  0  0  0  0
  -28.4366  -13.7187   21.8392 H   0  0  0  0  0  0
  -25.2768   -9.5705   22.4698 H   0  0  0  0  0  0
  -24.0016   -7.4644   22.7454 H   0  0  0  0  0  0
  -21.0818   -8.8745   19.8958 H   0  0  0  0  0  0
  -22.3656  -10.9648   19.6130 H   0  0  0  0  0  0
  -21.2005   -7.6143   23.9688 H   0  0  0  0  0  0
  -21.1483   -6.0522   25.9060 H   0  0  0  0  0  0
  -22.0602   -2.7602   23.2838 H   0  0  0  0  0  0
  -22.4163  -11.9859   22.4774 H   0  0  0  0  0  0
  -21.1112  -13.1174   22.2687 H   0  0  0  0  0  0
  -24.6635  -15.8462   20.5783 H   0  0  0  0  0  0
  -26.2996  -15.6554   20.2290 H   0  0  0  0  0  0
  -26.7166  -32.5479   23.1138 H   0  0  0  0  0  0
  -25.0100  -33.9739   25.0462 H   0  0  0  0  0  0
  -22.7094  -31.3080   21.4081 H   0  0  0  0  0  0
  -23.3758  -35.9631   23.3254 H   0  0  0  0  0  0
  -24.3598  -36.8935   22.2059 H   0  0  0  0  0  0
  -23.7216  -37.6484   23.6663 H   0  0  0  0  0  0
  -26.0910  -31.5665   20.6127 H   0  0  0  0  0  0
  -26.8353  -30.8448   22.0095 H   0  0  0  0  0  0
  -28.1099  -28.9976   21.1963 H   0  0  0  0  0  0
  -25.9719  -25.9727   18.9514 H   0  0  0  0  0  0
  -23.9737  -27.3296   18.9910 H   0  0  0  0  0  0
  -23.7489  -30.6017   19.4046 H   0  0  0  0  0  0
  -22.7519  -29.2534   19.8611 H   0  0  0  0  0  0
  -25.1282  -36.1958   25.0822 H   0  0  0  0  0  0
  -21.0007  -28.3240   24.1424 H   0  0  0  0  0  0
  -20.5681  -26.2278   23.3598 H   0  0  0  0  0  0
  -21.6649  -26.7430   22.1223 H   0  0  0  0  0  0
  -19.6899  -25.6293   21.1248 H   0  0  0  0  0  0
  -19.6699  -27.3192   20.6757 H   0  0  0  0  0  0
  -17.4213  -26.6705   21.4008 H   0  0  0  0  0  0
  -18.0307  -26.0052   22.9003 H   0  0  0  0  0  0
  -19.7919  -30.7293   24.2258 H   0  0  0  0  0  0
  -17.4987  -31.6260   24.5176 H   0  0  0  0  0  0
  -15.5335  -30.2973   23.7648 H   0  0  0  0  0  0
  -15.8683  -28.0822   22.7050 H   0  0  0  0  0  0
  -24.5883  -30.7093   25.7815 H   0  0  0  0  0  0
  -24.8876  -32.2944   26.4849 H   0  0  0  0  0  0
  -25.8010  -30.8992   27.0276 H   0  0  0  0  0  0
  -26.2875  -29.6787   24.1186 H   0  0  0  0  0  0
  -27.3941  -29.7256   25.4717 H   0  0  0  0  0  0
  -27.8774  -30.4274   23.9448 H   0  0  0  0  0  0
  -27.2678  -33.3623   26.2088 H   0  0  0  0  0  0
  -28.3841  -32.6885   25.0295 H   0  0  0  0  0  0
  -28.0745  -31.8434   26.5379 H   0  0  0  0  0  0
  -28.2580  -38.0144   24.7575 H   0  0  0  0  0  0
  -28.1137  -36.2680   24.6157 H   0  0  0  0  0  0
  -27.2344  -37.1305   25.8851 H   0  0  0  0  0  0
  -20.9326  -29.8777   21.6935 H   0  0  0  0  0  0
  -26.0164  -38.2857   24.1468 H   0  0  0  0  0  0
  -27.8915  -19.8481   21.2476 H   0  0  0  0  0  0
  -32.0338  -19.8067   20.0749 H   0  0  0  0  0  0
  -30.9890  -21.9140   20.1512 H   0  0  0  0  0  0
  -30.2762  -21.8846   21.7309 H   0  0  0  0  0  0
  -29.4203  -24.1967   21.4961 H   0  0  0  0  0  0
  -30.1990  -24.3259   19.9398 H   0  0  0  0  0  0
  -27.2220  -24.7625   20.4705 H   0  0  0  0  0  0
  -27.9663  -24.8990   18.8894 H   0  0  0  0  0  0
  -28.9652  -15.3921   21.2444 H   0  0  0  0  0  0
  -28.1355  -22.3031   20.6135 H   0  0  0  0  0  0
  -28.8978  -22.4089   19.1889 H   0  0  0  0  0  0
  1 25  1  0  0  0
  1 30  2  0  0  0
  1 80  1  0  0  0
  2  3  1  0  0  0
  2 25  1  0  0  0
  2 84  1  0  0  0
  2 85  1  0  0  0
  3  4  1  0  0  0
  3 86  1  0  0  0
  3 87  1  0  0  0
  4  5  1  0  0  0
  4 88  1  0  0  0
  4 89  1  0  0  0
  5  6  1  0  0  0
  5 26  1  0  0  0
  5 90  1  0  0  0
  6 25  1  0  0  0
  6 91  1  0  0  0
  6 92  1  0  0  0
  7  8  2  0  0  0
  7 26  1  0  0  0
  7 29  1  0  0  0
  8  9  1  0  0  0
  8 22  1  0  0  0
  9 10  1  0  0  0
  9 27  2  0  0  0
 10 11  2  0  0  0
 10 15  1  0  0  0
 11 12  1  0  0  0
 11 93  1  0  0  0
 12 13  2  0  0  0
 12 94  1  0  0  0
 13 14  1  0  0  0
 13 31  1  0  0  0
 14 15  2  0  0  0
 14 95  1  0  0  0
 15 96  1  0  0  0
 16 17  2  0  0  0
 16 21  1  0  0  0
 16 31  1  0  0  0
 17 18  1  0  0  0
 17 97  1  0  0  0
 18 19  2  0  0  0
 18 98  1  0  0  0
 19 20  1  0  0  0
 19 24  1  0  0  0
 20 21  2  0  0  0
 20 99  1  0  0  0
 21 23  1  0  0  0
 22 28  1  0  0  0
 22 32  2  0  0  0
 26 27  1  0  0  0
 28100  1  0  0  0
 28101  1  0  0  0
 29102  1  0  0  0
 29103  1  0  0  0
 33 34  1  0  0  0
 33 66  1  0  0  0
 33 70  2  0  0  0
 34 36  1  0  0  0
 34 59  1  0  0  0
 34104  1  0  0  0
 35 44  2  0  0  0
 35 45  1  0  0  0
 35 68  1  0  0  0
 36 56  1  0  0  0
 36105  1  0  0  0
 37 39  1  0  0  0
 37 47  1  0  0  0
 37 66  1  0  0  0
 37106  1  0  0  0
 38 43  2  0  0  0
 38 46  1  0  0  0
 38 47  1  0  0  0
 39 64  1  0  0  0
 39 67  2  0  0  0
 40 52  1  0  0  0
 40 53  2  0  0  0
 40 58  1  0  0  0
 41107  1  0  0  0
 41108  1  0  0  0
 41109  1  0  0  0
 41 48  1  0  0  0
 42 43  1  0  0  0
 42 66  1  0  0  0
 42110  1  0  0  0
 42111  1  0  0  0
 43 44  1  0  0  0
 44112  1  0  0  0
 45 46  2  0  0  0
 45113  1  0  0  0
 46114  1  0  0  0
 47115  1  0  0  0
 47116  1  0  0  0
 48 56  1  0  0  0
 48 65  1  0  0  0
 48117  1  0  0  0
 49 50  1  0  0  0
 49 53  1  0  0  0
 49 64  1  0  0  0
 49118  1  0  0  0
 50 51  1  0  0  0
 50119  1  0  0  0
 50120  1  0  0  0
 51 52  1  0  0  0
 51121  1  0  0  0
 51122  1  0  0  0
 52123  1  0  0  0
 52124  1  0  0  0
 53 54  1  0  0  0
 54 55  2  0  0  0
 54125  1  0  0  0
 55 57  1  0  0  0
 55126  1  0  0  0
 56 69  2  0  0  0
 57 58  2  0  0  0
 57127  1  0  0  0
 58128  1  0  0  0
 59 60  1  0  0  0
 59 61  1  0  0  0
 59 62  1  0  0  0
 60129  1  0  0  0
 60130  1  0  0  0
 60131  1  0  0  0
 61132  1  0  0  0
 61133  1  0  0  0
 61134  1  0  0  0
 62135  1  0  0  0
 62136  1  0  0  0
 62137  1  0  0  0
 63 65  1  0  0  0
 63138  1  0  0  0
 63139  1  0  0  0
 63140  1  0  0  0
 64141  1  0  0  0
 65142  1  0  0  0
 68 79  1  0  0  0
 71 73  2  0  0  0
 71 75  1  0  0  0
 71143  1  0  0  0
 72 73  1  0  0  0
 72 76  2  0  0  0
 72144  1  0  0  0
 73 77  1  0  0  0
 74 75  2  0  0  0
 74 76  1  0  0  0
 74 80  1  0  0  0
 75 82  1  0  0  0
 76 83  1  0  0  0
 77 81  1  0  0  0
 77145  1  0  0  0
 77146  1  0  0  0
 78 79  1  0  0  0
 78 81  1  0  0  0
 78147  1  0  0  0
 78148  1  0  0  0
 79149  1  0  0  0
 79150  1  0  0  0
 80151  1  0  0  0
 81152  1  0  0  0
 81153  1  0  0  0
M  CHG  1  81   1
M  ISO  4   1 100  68 101  79 101  80 100
M  END
> <chiral flag>
0

> <version>
0

> <s_m_source_file>
/data/baiqing/PycharmProjects/Reinvent-master-3.2/result/LINK_invent/BTK/process_docking_weight1_custom_product_contain_oxygen_bond_distance_aromatic_linkinvent_7_9_3/rearranged_h_0008.sdf

> <i_m_source_file_index>
20

> <r_mmod_Potential_Energy-OPLS-2005>
-206.139617919922

> <r_mmod_Stretch_Energy-OPLS-2005>
71.9949951171875

> <r_mmod_Bend_Energy-OPLS-2005>
141.993301391602

> <r_mmod_Torsional_Energy-OPLS-2005>
203.92936706543

> <r_mmod_Improper_Torsional_Energy-OPLS-2005>
4.47716426849365

> <r_mmod_Van_der_Waal_Energy-OPLS-2005>
149.506378173828

> <r_mmod_Electrostatic_Energy-OPLS-2005>
-328.474212646484

> <r_mmod_Solvation_Energy-OPLS-2005>
-491.419525146484

> <b_mmod_Minimization_Converged-OPLS-2005>
0

> <r_mmod_RMS_Derivative-OPLS-2005>
3.01431345939636

$$$$
20
                    3D
 Structure written by MMmdl.
162171  0  0  1  0            999 V2000
  -30.7126  -14.6190   20.2980 C   0  0  0  0  0  0
  -30.4122  -12.3424   19.4114 C   0  0  0  0  0  0
  -29.4450  -12.3426   18.2072 C   0  0  0  0  0  0
  -27.9879  -12.2518   18.6690 C   0  0  0  0  0  0
  -27.6393  -13.2133   19.8360 C   0  0  2  0  0  0
  -28.7185  -13.1744   20.9394 C   0  0  0  0  0  0
  -25.2525  -13.8222   20.5790 C   0  0  0  0  0  0
  -24.1790  -13.0515   20.9349 C   0  0  0  0  0  0
  -24.6367  -11.6973   20.8918 C   0  0  0  0  0  0
  -23.9032  -10.4350   21.0485 C   0  0  0  0  0  0
  -24.3622   -9.4224   21.9213 C   0  0  0  0  0  0
  -23.6298   -8.2257   22.0773 C   0  0  0  0  0  0
  -22.4276   -8.0294   21.3552 C   0  0  0  0  0  0
  -21.9921   -9.0276   20.4673 C   0  0  0  0  0  0
  -22.7235  -10.2173   20.3101 C   0  0  0  0  0  0
  -21.6873   -6.0703   22.5256 C   0  0  0  0  0  0
  -21.4008   -6.5594   23.8203 C   0  0  0  0  0  0
  -21.3663   -5.6756   24.9159 C   0  0  0  0  0  0
  -21.6067   -4.3017   24.7200 C   0  0  0  0  0  0
  -21.8839   -3.8112   23.4326 C   0  0  0  0  0  0
  -21.9204   -4.6938   22.3366 C   0  0  0  0  0  0
  -22.7816  -13.5334   21.1920 C   0  0  0  0  0  0
  -22.1655   -4.2134   21.0946 F   0  0  0  0  0  0
  -21.5668   -3.4487   25.7706 F   0  0  0  0  0  0
  -30.0132  -13.4425   20.2986 N   0  0  0  0  0  0
  -26.2970  -12.9410   20.3458 N   0  0  0  0  0  0
  -25.9305  -11.6594   20.6042 N   0  0  0  0  0  0
  -22.0424  -12.8301   22.0399 N   0  0  0  0  0  0
  -25.4243  -15.1889   20.4007 N   0  0  0  0  0  0
  -31.9378  -14.6329   20.4018 O   0  0  0  0  0  0
  -21.6657   -6.8856   21.4231 O   0  0  0  0  0  0
  -22.3544  -14.5663   20.6760 O   0  0  0  0  0  0
  -24.6225  -31.8652   23.2109 C   0  0  0  0  0  0
  -25.9129  -32.4785   23.8414 C   0  0  1  0  0  0
  -27.2415  -27.3884   20.1165 C   0  0  0  0  0  0
  -25.6042  -33.8603   24.2382 N   0  0  0  0  0  0
  -23.4101  -30.4863   21.5498 C   0  0  2  0  0  0
  -24.8616  -28.9382   20.1219 C   0  0  0  0  0  0
  -22.7454  -29.4640   22.4986 C   0  0  0  0  0  0
  -18.0277  -28.1363   22.8497 C   0  0  0  0  0  0
  -24.1462  -36.7166   23.2618 C   0  0  0  0  0  0
  -25.9414  -30.8071   21.3790 C   0  0  0  0  0  0
  -26.0236  -29.4377   20.7297 C   0  0  0  0  0  0
  -27.2174  -28.6708   20.7278 C   0  0  0  0  0  0
  -26.0743  -26.9223   19.4830 C   0  0  0  0  0  0
  -24.8855  -27.6798   19.4952 C   0  0  0  0  0  0
  -23.6250  -29.8150   20.1676 C   0  0  0  0  0  0
  -25.4119  -36.3072   24.0329 C   0  0  1  0  0  0
  -20.5884  -28.3685   23.1255 C   0  0  2  0  0  0
  -20.6773  -26.9411   22.5404 C   0  0  0  0  0  0
  -19.5741  -26.6390   21.5193 C   0  0  0  0  0  0
  -18.1925  -26.7923   22.1611 C   0  0  0  0  0  0
  -19.1540  -28.8833   23.2866 C   0  0  0  0  0  0
  -18.9476  -30.1439   23.8874 C   0  0  0  0  0  0
  -17.6477  -30.6587   24.0563 C   0  0  0  0  0  0
  -25.9077  -34.9455   23.5138 C   0  0  0  0  0  0
  -16.5367  -29.9085   23.6324 C   0  0  0  0  0  0
  -16.7269  -28.6493   23.0362 C   0  0  0  0  0  0
  -26.4569  -31.6550   25.0750 C   0  0  0  0  0  0
  -25.3796  -31.3665   26.1473 C   0  0  0  0  0  0
  -27.0364  -30.2964   24.6143 C   0  0  0  0  0  0
  -27.6158  -32.4221   25.7555 C   0  0  0  0  0  0
  -27.5562  -37.1756   24.8518 C   0  0  0  0  0  0
  -21.4188  -29.3006   22.3644 N   0  0  0  0  0  0
  -26.4293  -37.3780   23.9443 N   0  0  0  0  0  0
  -24.6736  -31.0679   22.1041 N   0  0  0  0  0  0
  -23.4158  -28.8221   23.3120 O   0  0  0  0  0  0
  -28.3822  -26.6135   20.0231 O   0  0  0  0  0  0
  -26.5604  -34.8921   22.4678 O   0  0  0  0  0  0
  -23.5415  -32.1525   23.7445 O   0  0  0  0  0  0
  -29.0008  -23.2294   20.9213 C   0  0  0  0  0  0
  -26.4743  -22.8228   22.0521 C   0  0  0  0  0  0
  -28.2095  -24.3701   21.2666 C   0  0  0  0  0  0
  -27.2666  -21.7079   21.7269 C   0  0  0  0  0  0
  -28.5552  -21.8975   21.1789 C   0  0  0  0  0  0
  -26.9432  -24.1395   21.8608 C   0  0  0  0  0  0
  -29.9454  -16.6862   17.3715 C   0  0  0  0  0  0
  -29.5207  -17.6730   18.4367 C   0  0  0  0  0  0
  -30.7577  -15.6803   18.1689 C   0  0  0  0  0  0
  -30.0322  -17.0883   19.7746 C   0  0  1  0  0  0
  -28.7812  -25.8096   21.1563 C   0  0  0  0  0  0
  -29.1817  -17.5890   20.9810 C   0  0  0  0  0  0
  -30.1547  -15.6068   19.5231 N   0  0  0  0  0  0
  -28.6891  -19.0075   20.8733 N   0  0  0  0  0  0
  -30.2803  -20.6006   19.5670 O   0  0  0  0  0  0
  -30.5714  -20.3317   22.0581 O   0  0  0  0  0  0
  -26.7852  -20.4700   22.0039 F   0  0  0  0  0  0
  -29.6725  -20.4593   20.9004 S   0  0  0  0  0  0
  -25.9586  -25.4299   22.4516 Cl  0  0  0  0  0  0
  -31.4466  -12.4363   19.0753 H   0  0  0  0  0  0
  -30.3505  -11.3928   19.9451 H   0  0  0  0  0  0
  -29.6726  -11.5015   17.5509 H   0  0  0  0  0  0
  -29.5317  -13.2237   17.5849 H   0  0  0  0  0  0
  -27.8308  -11.2199   18.9849 H   0  0  0  0  0  0
  -27.3079  -12.4146   17.8297 H   0  0  0  0  0  0
  -27.6304  -14.2195   19.4194 H   0  0  0  0  0  0
  -28.7491  -12.1967   21.4222 H   0  0  0  0  0  0
  -28.5015  -13.9074   21.7178 H   0  0  0  0  0  0
  -25.2773   -9.5703   22.4787 H   0  0  0  0  0  0
  -24.0016   -7.4633   22.7461 H   0  0  0  0  0  0
  -21.0875   -8.8765   19.8947 H   0  0  0  0  0  0
  -22.3672  -10.9705   19.6220 H   0  0  0  0  0  0
  -21.1966   -7.6104   23.9663 H   0  0  0  0  0  0
  -21.1504   -6.0499   25.9063 H   0  0  0  0  0  0
  -22.0641   -2.7576   23.2824 H   0  0  0  0  0  0
  -22.4091  -12.0003   22.4818 H   0  0  0  0  0  0
  -21.1028  -13.1292   22.2579 H   0  0  0  0  0  0
  -24.6736  -15.8542   20.5520 H   0  0  0  0  0  0
  -26.2522  -15.6005   19.9928 H   0  0  0  0  0  0
  -26.7163  -32.5507   23.1123 H   0  0  0  0  0  0
  -25.0486  -33.9782   25.0732 H   0  0  0  0  0  0
  -22.6977  -31.3020   21.4098 H   0  0  0  0  0  0
  -23.3806  -35.9414   23.3376 H   0  0  0  0  0  0
  -24.3543  -36.8691   22.2014 H   0  0  0  0  0  0
  -23.7091  -37.6335   23.6574 H   0  0  0  0  0  0
  -26.0701  -31.5668   20.6065 H   0  0  0  0  0  0
  -26.8231  -30.8572   22.0066 H   0  0  0  0  0  0
  -28.1180  -29.0586   21.1808 H   0  0  0  0  0  0
  -26.0887  -25.9610   18.9908 H   0  0  0  0  0  0
  -23.9970  -27.2814   19.0227 H   0  0  0  0  0  0
  -23.7413  -30.5898   19.4101 H   0  0  0  0  0  0
  -22.7448  -29.2430   19.8643 H   0  0  0  0  0  0
  -25.1236  -36.1958   25.0802 H   0  0  0  0  0  0
  -20.9985  -28.3300   24.1368 H   0  0  0  0  0  0
  -20.5654  -26.2313   23.3634 H   0  0  0  0  0  0
  -21.6644  -26.7439   22.1191 H   0  0  0  0  0  0
  -19.6920  -25.6301   21.1203 H   0  0  0  0  0  0
  -19.6642  -27.3234   20.6753 H   0  0  0  0  0  0
  -17.4197  -26.6702   21.4010 H   0  0  0  0  0  0
  -18.0305  -26.0019   22.8956 H   0  0  0  0  0  0
  -19.7967  -30.7253   24.2245 H   0  0  0  0  0  0
  -17.5045  -31.6268   24.5175 H   0  0  0  0  0  0
  -15.5375  -30.2992   23.7638 H   0  0  0  0  0  0
  -15.8679  -28.0803   22.7095 H   0  0  0  0  0  0
  -24.6035  -30.6930   25.7830 H   0  0  0  0  0  0
  -24.8938  -32.2806   26.4902 H   0  0  0  0  0  0
  -25.8182  -30.8895   27.0261 H   0  0  0  0  0  0
  -26.2903  -29.6707   24.1228 H   0  0  0  0  0  0
  -27.4128  -29.7216   25.4624 H   0  0  0  0  0  0
  -27.8752  -30.4211   23.9283 H   0  0  0  0  0  0
  -27.2843  -33.3551   26.2150 H   0  0  0  0  0  0
  -28.4040  -32.6738   25.0429 H   0  0  0  0  0  0
  -28.0739  -31.8291   26.5487 H   0  0  0  0  0  0
  -28.2649  -37.9981   24.7568 H   0  0  0  0  0  0
  -28.0966  -36.2545   24.6372 H   0  0  0  0  0  0
  -27.2278  -37.1416   25.8910 H   0  0  0  0  0  0
  -20.9446  -29.8611   21.6704 H   0  0  0  0  0  0
  -26.0170  -38.2814   24.1598 H   0  0  0  0  0  0
  -29.9910  -23.3622   20.5157 H   0  0  0  0  0  0
  -25.5110  -22.6619   22.5093 H   0  0  0  0  0  0
  -30.5292  -17.1518   16.5758 H   0  0  0  0  0  0
  -29.0699  -16.2189   16.9236 H   0  0  0  0  0  0
  -28.4354  -17.7881   18.4312 H   0  0  0  0  0  0
  -29.9606  -18.6436   18.2184 H   0  0  0  0  0  0
  -31.7894  -16.0407   18.2433 H   0  0  0  0  0  0
  -30.8449  -14.7407   17.6391 H   0  0  0  0  0  0
  -31.0446  -17.4692   19.9358 H   0  0  0  0  0  0
  -29.8672  -25.7280   21.0892 H   0  0  0  0  0  0
  -28.6005  -26.3462   22.0872 H   0  0  0  0  0  0
  -29.7288  -17.4572   21.9162 H   0  0  0  0  0  0
  -28.2989  -16.9513   21.0589 H   0  0  0  0  0  0
  -27.9438  -19.1596   21.5620 H   0  0  0  0  0  0
  1 25  1  0  0  0
  1 30  2  0  0  0
  1 83  1  0  0  0
  2  3  1  0  0  0
  2 25  1  0  0  0
  2 90  1  0  0  0
  2 91  1  0  0  0
  3  4  1  0  0  0
  3 92  1  0  0  0
  3 93  1  0  0  0
  4  5  1  0  0  0
  4 94  1  0  0  0
  4 95  1  0  0  0
  5  6  1  0  0  0
  5 26  1  0  0  0
  5 96  1  0  0  0
  6 25  1  0  0  0
  6 97  1  0  0  0
  6 98  1  0  0  0
  7  8  2  0  0  0
  7 26  1  0  0  0
  7 29  1  0  0  0
  8  9  1  0  0  0
  8 22  1  0  0  0
  9 10  1  0  0  0
  9 27  2  0  0  0
 10 11  2  0  0  0
 10 15  1  0  0  0
 11 12  1  0  0  0
 11 99  1  0  0  0
 12 13  2  0  0  0
 12100  1  0  0  0
 13 14  1  0  0  0
 13 31  1  0  0  0
 14 15  2  0  0  0
 14101  1  0  0  0
 15102  1  0  0  0
 16 17  2  0  0  0
 16 21  1  0  0  0
 16 31  1  0  0  0
 17 18  1  0  0  0
 17103  1  0  0  0
 18 19  2  0  0  0
 18104  1  0  0  0
 19 20  1  0  0  0
 19 24  1  0  0  0
 20 21  2  0  0  0
 20105  1  0  0  0
 21 23  1  0  0  0
 22 28  1  0  0  0
 22 32  2  0  0  0
 26 27  1  0  0  0
 28106  1  0  0  0
 28107  1  0  0  0
 29108  1  0  0  0
 29109  1  0  0  0
 33 34  1  0  0  0
 33 66  1  0  0  0
 33 70  2  0  0  0
 34 36  1  0  0  0
 34 59  1  0  0  0
 34110  1  0  0  0
 35 44  2  0  0  0
 35 45  1  0  0  0
 35 68  1  0  0  0
 36 56  1  0  0  0
 36111  1  0  0  0
 37 39  1  0  0  0
 37 47  1  0  0  0
 37 66  1  0  0  0
 37112  1  0  0  0
 38 43  2  0  0  0
 38 46  1  0  0  0
 38 47  1  0  0  0
 39 64  1  0  0  0
 39 67  2  0  0  0
 40 52  1  0  0  0
 40 53  2  0  0  0
 40 58  1  0  0  0
 41113  1  0  0  0
 41114  1  0  0  0
 41115  1  0  0  0
 41 48  1  0  0  0
 42 43  1  0  0  0
 42 66  1  0  0  0
 42116  1  0  0  0
 42117  1  0  0  0
 43 44  1  0  0  0
 44118  1  0  0  0
 45 46  2  0  0  0
 45119  1  0  0  0
 46120  1  0  0  0
 47121  1  0  0  0
 47122  1  0  0  0
 48 56  1  0  0  0
 48 65  1  0  0  0
 48123  1  0  0  0
 49 50  1  0  0  0
 49 53  1  0  0  0
 49 64  1  0  0  0
 49124  1  0  0  0
 50 51  1  0  0  0
 50125  1  0  0  0
 50126  1  0  0  0
 51 52  1  0  0  0
 51127  1  0  0  0
 51128  1  0  0  0
 52129  1  0  0  0
 52130  1  0  0  0
 53 54  1  0  0  0
 54 55  2  0  0  0
 54131  1  0  0  0
 55 57  1  0  0  0
 55132  1  0  0  0
 56 69  2  0  0  0
 57 58  2  0  0  0
 57133  1  0  0  0
 58134  1  0  0  0
 59 60  1  0  0  0
 59 61  1  0  0  0
 59 62  1  0  0  0
 60135  1  0  0  0
 60136  1  0  0  0
 60137  1  0  0  0
 61138  1  0  0  0
 61139  1  0  0  0
 61140  1  0  0  0
 62141  1  0  0  0
 62142  1  0  0  0
 62143  1  0  0  0
 63 65  1  0  0  0
 63144  1  0  0  0
 63145  1  0  0  0
 63146  1  0  0  0
 64147  1  0  0  0
 65148  1  0  0  0
 68 81  1  0  0  0
 71 73  2  0  0  0
 71 75  1  0  0  0
 71149  1  0  0  0
 72 74  1  0  0  0
 72 76  2  0  0  0
 72150  1  0  0  0
 73 76  1  0  0  0
 73 81  1  0  0  0
 74 75  2  0  0  0
 74 87  1  0  0  0
 75 88  1  0  0  0
 76 89  1  0  0  0
 77 78  1  0  0  0
 77 79  1  0  0  0
 77151  1  0  0  0
 77152  1  0  0  0
 78 80  1  0  0  0
 78153  1  0  0  0
 78154  1  0  0  0
 79 83  1  0  0  0
 79155  1  0  0  0
 79156  1  0  0  0
 80 82  1  0  0  0
 80 83  1  0  0  0
 80157  1  0  0  0
 81158  1  0  0  0
 81159  1  0  0  0
 82 84  1  0  0  0
 82160  1  0  0  0
 82161  1  0  0  0
 84162  1  0  0  0
 84 88  1  0  0  0
 85 88  2  0  0  0
 86 88  2  0  0  0
M  ISO  4   1 100  68 101  81 101  83 100
M  END
> <chiral flag>
0

> <version>
0

> <s_m_source_file>
/data/baiqing/PycharmProjects/Reinvent-master-3.2/result/LINK_invent/BTK/process_docking_weight1_custom_product_contain_oxygen_bond_distance_aromatic_linkinvent_7_9_3/rearranged_h_0008.sdf

> <i_m_source_file_index>
21

> <r_mmod_Potential_Energy-OPLS-2005>
308.980346679688

> <r_mmod_Stretch_Energy-OPLS-2005>
59.6658363342285

> <r_mmod_Bend_Energy-OPLS-2005>
182.963729858398

> <r_mmod_Torsional_Energy-OPLS-2005>
422.064666748047

> <r_mmod_Improper_Torsional_Energy-OPLS-2005>
36.9126663208008

> <r_mmod_Van_der_Waal_Energy-OPLS-2005>
129.551406860352

> <r_mmod_Electrostatic_Energy-OPLS-2005>
-355.439880371094

> <r_mmod_Solvation_Energy-OPLS-2005>
-234.275588989258

> <b_mmod_Minimization_Converged-OPLS-2005>
0

> <r_mmod_RMS_Derivative-OPLS-2005>
5.7666277885437

$$$$
21
                    3D
 Structure written by MMmdl.
146154  0  0  1  0            999 V2000
  -30.3849  -15.3819   20.3428 C   0  0  0  0  0  0
  -30.4345  -12.8843   19.5512 C   0  0  0  0  0  0
  -29.5447  -12.6075   18.3100 C   0  0  0  0  0  0
  -28.0982  -12.3064   18.7337 C   0  0  0  0  0  0
  -27.6084  -13.2881   19.8258 C   0  0  2  0  0  0
  -28.6320  -13.5047   20.9633 C   0  0  0  0  0  0
  -25.2366  -13.8268   20.5760 C   0  0  0  0  0  0
  -24.1730  -13.0440   20.9259 C   0  0  0  0  0  0
  -24.6403  -11.6942   20.8755 C   0  0  0  0  0  0
  -23.9102  -10.4295   21.0398 C   0  0  0  0  0  0
  -24.3643   -9.4209   21.9179 C   0  0  0  0  0  0
  -23.6309   -8.2248   22.0752 C   0  0  0  0  0  0
  -22.4289   -8.0286   21.3544 C   0  0  0  0  0  0
  -21.9931   -9.0260   20.4644 C   0  0  0  0  0  0
  -22.7269  -10.2135   20.3050 C   0  0  0  0  0  0
  -21.6858   -6.0739   22.5279 C   0  0  0  0  0  0
  -21.4019   -6.5642   23.8213 C   0  0  0  0  0  0
  -21.3660   -5.6794   24.9174 C   0  0  0  0  0  0
  -21.6044   -4.3056   24.7224 C   0  0  0  0  0  0
  -21.8818   -3.8149   23.4345 C   0  0  0  0  0  0
  -21.9194   -4.6966   22.3402 C   0  0  0  0  0  0
  -22.7746  -13.5183   21.1906 C   0  0  0  0  0  0
  -22.1662   -4.2151   21.0979 F   0  0  0  0  0  0
  -21.5628   -3.4539   25.7736 F   0  0  0  0  0  0
  -29.8563  -14.0442   20.3440 N   0  0  0  0  0  0
  -26.2802  -12.9564   20.3227 N   0  0  0  0  0  0
  -25.9344  -11.6655   20.5712 N   0  0  0  0  0  0
  -22.0410  -12.8161   22.0461 N   0  0  0  0  0  0
  -25.3996  -15.2007   20.4210 N   0  0  0  0  0  0
  -31.5983  -15.3701   20.0772 O   0  0  0  0  0  0
  -21.6648   -6.8885   21.4242 O   0  0  0  0  0  0
  -22.3422  -14.5483   20.6747 O   0  0  0  0  0  0
  -24.6685  -31.8148   23.1633 C   0  0  0  0  0  0
  -25.9337  -32.4540   23.8125 C   0  0  1  0  0  0
  -27.2240  -26.8507   20.1956 C   0  0  0  0  0  0
  -25.5977  -33.8360   24.2023 N   0  0  0  0  0  0
  -23.4877  -30.4214   21.5129 C   0  0  2  0  0  0
  -24.9439  -28.7908   20.1100 C   0  0  0  0  0  0
  -22.7695  -29.4388   22.4752 C   0  0  0  0  0  0
  -18.0326  -28.1412   22.8462 C   0  0  0  0  0  0
  -24.1494  -36.7187   23.2649 C   0  0  0  0  0  0
  -26.0591  -30.5937   21.4078 C   0  0  0  0  0  0
  -26.1245  -29.1743   20.7563 C   0  0  0  0  0  0
  -27.2503  -28.2234   20.7787 C   0  0  0  0  0  0
  -26.0198  -26.6412   19.4840 C   0  0  0  0  0  0
  -24.9210  -27.5471   19.4536 C   0  0  0  0  0  0
  -23.7326  -29.7279   20.1420 C   0  0  0  0  0  0
  -25.4139  -36.2940   24.0292 C   0  0  1  0  0  0
  -20.5953  -28.3760   23.1174 C   0  0  2  0  0  0
  -20.6797  -26.9434   22.5405 C   0  0  0  0  0  0
  -19.5774  -26.6373   21.5215 C   0  0  0  0  0  0
  -18.1956  -26.7944   22.1620 C   0  0  0  0  0  0
  -19.1589  -28.8909   23.2803 C   0  0  0  0  0  0
  -18.9498  -30.1496   23.8842 C   0  0  0  0  0  0
  -17.6490  -30.6599   24.0553 C   0  0  0  0  0  0
  -25.9109  -34.9325   23.4987 C   0  0  0  0  0  0
  -16.5380  -29.9085   23.6345 C   0  0  0  0  0  0
  -16.7307  -28.6506   23.0363 C   0  0  0  0  0  0
  -26.4568  -31.6522   25.0690 C   0  0  0  0  0  0
  -25.3674  -31.3797   26.1333 C   0  0  0  0  0  0
  -27.0483  -30.2878   24.6491 C   0  0  0  0  0  0
  -27.6042  -32.4356   25.7498 C   0  0  0  0  0  0
  -27.5569  -37.1748   24.8465 C   0  0  0  0  0  0
  -21.4357  -29.3033   22.3508 N   0  0  0  0  0  0
  -26.4276  -37.3686   23.9409 N   0  0  0  0  0  0
  -24.7601  -30.9733   22.0810 N   0  0  0  0  0  0
  -23.4208  -28.7976   23.3034 O   0  0  0  0  0  0
  -28.2301  -25.7261   20.3091 O   0  0  0  0  0  0
  -26.5734  -34.8876   22.4593 O   0  0  0  0  0  0
  -23.5740  -32.1159   23.6678 O   0  0  0  0  0  0
  -29.6662  -20.9992   18.7818 C   0  0  0  0  0  0
  -30.1902  -19.8032   18.2123 C   0  0  0  0  0  0
  -29.0823  -19.6158   20.6652 C   0  0  0  0  0  0
  -29.0687  -21.0647   20.0586 C   0  0  0  0  0  0
  -29.6371  -18.2593   20.0977 C   0  0  0  0  0  0
  -30.1874  -18.5142   18.8181 C   0  0  0  0  0  0
  -28.6547  -22.7189   20.6133 C   0  0  0  0  0  0
  -29.6218  -16.6684   20.5541 N   0  0  0  0  0  0
  -27.9708  -24.0550   19.8864 N   0  0  0  0  0  0
  -30.6974  -17.4827   18.1035 F   0  0  0  0  0  0
  -31.4515  -13.0948   19.2185 H   0  0  0  0  0  0
  -30.5174  -11.9913   20.1731 H   0  0  0  0  0  0
  -29.9476  -11.7779   17.7275 H   0  0  0  0  0  0
  -29.5589  -13.4797   17.6547 H   0  0  0  0  0  0
  -28.0722  -11.2870   19.1206 H   0  0  0  0  0  0
  -27.4323  -12.3248   17.8700 H   0  0  0  0  0  0
  -27.5113  -14.2448   19.3110 H   0  0  0  0  0  0
  -28.8202  -12.5829   21.5157 H   0  0  0  0  0  0
  -28.2457  -14.2247   21.6861 H   0  0  0  0  0  0
  -25.2783   -9.5686   22.4761 H   0  0  0  0  0  0
  -24.0013   -7.4641   22.7476 H   0  0  0  0  0  0
  -21.0861   -8.8785   19.8951 H   0  0  0  0  0  0
  -22.3725  -10.9675   19.6162 H   0  0  0  0  0  0
  -21.2013   -7.6150   23.9717 H   0  0  0  0  0  0
  -21.1483   -6.0523   25.9077 H   0  0  0  0  0  0
  -22.0596   -2.7610   23.2845 H   0  0  0  0  0  0
  -22.4048  -11.9834   22.4853 H   0  0  0  0  0  0
  -21.1019  -13.1161   22.2663 H   0  0  0  0  0  0
  -24.6281  -15.8496   20.5332 H   0  0  0  0  0  0
  -26.2402  -15.6429   20.0725 H   0  0  0  0  0  0
  -26.7407  -32.5053   23.0835 H   0  0  0  0  0  0
  -25.0055  -33.9425   25.0128 H   0  0  0  0  0  0
  -22.8049  -31.2547   21.3346 H   0  0  0  0  0  0
  -23.3773  -35.9500   23.3267 H   0  0  0  0  0  0
  -24.3569  -36.8885   22.2072 H   0  0  0  0  0  0
  -23.7235  -37.6352   23.6743 H   0  0  0  0  0  0
  -26.2487  -31.3280   20.6238 H   0  0  0  0  0  0
  -26.9156  -30.6545   22.0671 H   0  0  0  0  0  0
  -28.1391  -28.5127   21.3214 H   0  0  0  0  0  0
  -25.8909  -25.6957   18.9778 H   0  0  0  0  0  0
  -24.0271  -27.2494   18.9229 H   0  0  0  0  0  0
  -23.8931  -30.4926   19.3813 H   0  0  0  0  0  0
  -22.8410  -29.1849   19.8238 H   0  0  0  0  0  0
  -25.1341  -36.1722   25.0782 H   0  0  0  0  0  0
  -21.0040  -28.3376   24.1298 H   0  0  0  0  0  0
  -20.5668  -26.2381   23.3654 H   0  0  0  0  0  0
  -21.6660  -26.7396   22.1218 H   0  0  0  0  0  0
  -19.6931  -25.6269   21.1282 H   0  0  0  0  0  0
  -19.6716  -27.3152   20.6721 H   0  0  0  0  0  0
  -17.4225  -26.6687   21.4023 H   0  0  0  0  0  0
  -18.0347  -26.0099   22.9029 H   0  0  0  0  0  0
  -19.7974  -30.7327   24.2187 H   0  0  0  0  0  0
  -17.5041  -31.6274   24.5166 H   0  0  0  0  0  0
  -15.5378  -30.2969   23.7701 H   0  0  0  0  0  0
  -15.8708  -28.0805   22.7111 H   0  0  0  0  0  0
  -24.5877  -30.7125   25.7640 H   0  0  0  0  0  0
  -24.8842  -32.3006   26.4606 H   0  0  0  0  0  0
  -25.7887  -30.9064   27.0210 H   0  0  0  0  0  0
  -26.3170  -29.6525   24.1484 H   0  0  0  0  0  0
  -27.3964  -29.7281   25.5182 H   0  0  0  0  0  0
  -27.9130  -30.4037   23.9955 H   0  0  0  0  0  0
  -27.2596  -33.3710   26.1919 H   0  0  0  0  0  0
  -28.3932  -32.6833   25.0385 H   0  0  0  0  0  0
  -28.0623  -31.8591   26.5545 H   0  0  0  0  0  0
  -28.2557  -38.0072   24.7520 H   0  0  0  0  0  0
  -28.1095  -36.2597   24.6282 H   0  0  0  0  0  0
  -27.2285  -37.1374   25.8866 H   0  0  0  0  0  0
  -20.9629  -29.8705   21.6610 H   0  0  0  0  0  0
  -26.0116  -38.2738   24.1424 H   0  0  0  0  0  0
  -29.7574  -21.9148   18.2133 H   0  0  0  0  0  0
  -30.6294  -19.8772   17.2281 H   0  0  0  0  0  0
  -28.6439  -19.5422   21.6500 H   0  0  0  0  0  0
  -29.6158  -23.0941   20.9656 H   0  0  0  0  0  0
  -28.0810  -22.5717   21.5289 H   0  0  0  0  0  0
  -28.7578  -16.4478   21.0260 H   0  0  0  0  0  0
  -26.9670  -23.9336   19.9873 H   0  0  0  0  0  0
  1 25  1  0  0  0
  1 30  2  0  0  0
  1 78  1  0  0  0
  2  3  1  0  0  0
  2 25  1  0  0  0
  2 81  1  0  0  0
  2 82  1  0  0  0
  3  4  1  0  0  0
  3 83  1  0  0  0
  3 84  1  0  0  0
  4  5  1  0  0  0
  4 85  1  0  0  0
  4 86  1  0  0  0
  5  6  1  0  0  0
  5 26  1  0  0  0
  5 87  1  0  0  0
  6 25  1  0  0  0
  6 88  1  0  0  0
  6 89  1  0  0  0
  7  8  2  0  0  0
  7 26  1  0  0  0
  7 29  1  0  0  0
  8  9  1  0  0  0
  8 22  1  0  0  0
  9 10  1  0  0  0
  9 27  2  0  0  0
 10 11  2  0  0  0
 10 15  1  0  0  0
 11 12  1  0  0  0
 11 90  1  0  0  0
 12 13  2  0  0  0
 12 91  1  0  0  0
 13 14  1  0  0  0
 13 31  1  0  0  0
 14 15  2  0  0  0
 14 92  1  0  0  0
 15 93  1  0  0  0
 16 17  2  0  0  0
 16 21  1  0  0  0
 16 31  1  0  0  0
 17 18  1  0  0  0
 17 94  1  0  0  0
 18 19  2  0  0  0
 18 95  1  0  0  0
 19 20  1  0  0  0
 19 24  1  0  0  0
 20 21  2  0  0  0
 20 96  1  0  0  0
 21 23  1  0  0  0
 22 28  1  0  0  0
 22 32  2  0  0  0
 26 27  1  0  0  0
 28 97  1  0  0  0
 28 98  1  0  0  0
 29 99  1  0  0  0
 29100  1  0  0  0
 33 34  1  0  0  0
 33 66  1  0  0  0
 33 70  2  0  0  0
 34 36  1  0  0  0
 34 59  1  0  0  0
 34101  1  0  0  0
 35 44  2  0  0  0
 35 45  1  0  0  0
 35 68  1  0  0  0
 36 56  1  0  0  0
 36102  1  0  0  0
 37 39  1  0  0  0
 37 47  1  0  0  0
 37 66  1  0  0  0
 37103  1  0  0  0
 38 43  2  0  0  0
 38 46  1  0  0  0
 38 47  1  0  0  0
 39 64  1  0  0  0
 39 67  2  0  0  0
 40 52  1  0  0  0
 40 53  2  0  0  0
 40 58  1  0  0  0
 41104  1  0  0  0
 41105  1  0  0  0
 41106  1  0  0  0
 41 48  1  0  0  0
 42 43  1  0  0  0
 42 66  1  0  0  0
 42107  1  0  0  0
 42108  1  0  0  0
 43 44  1  0  0  0
 44109  1  0  0  0
 45 46  2  0  0  0
 45110  1  0  0  0
 46111  1  0  0  0
 47112  1  0  0  0
 47113  1  0  0  0
 48 56  1  0  0  0
 48 65  1  0  0  0
 48114  1  0  0  0
 49 50  1  0  0  0
 49 53  1  0  0  0
 49 64  1  0  0  0
 49115  1  0  0  0
 50 51  1  0  0  0
 50116  1  0  0  0
 50117  1  0  0  0
 51 52  1  0  0  0
 51118  1  0  0  0
 51119  1  0  0  0
 52120  1  0  0  0
 52121  1  0  0  0
 53 54  1  0  0  0
 54 55  2  0  0  0
 54122  1  0  0  0
 55 57  1  0  0  0
 55123  1  0  0  0
 56 69  2  0  0  0
 57 58  2  0  0  0
 57124  1  0  0  0
 58125  1  0  0  0
 59 60  1  0  0  0
 59 61  1  0  0  0
 59 62  1  0  0  0
 60126  1  0  0  0
 60127  1  0  0  0
 60128  1  0  0  0
 61129  1  0  0  0
 61130  1  0  0  0
 61131  1  0  0  0
 62132  1  0  0  0
 62133  1  0  0  0
 62134  1  0  0  0
 63 65  1  0  0  0
 63135  1  0  0  0
 63136  1  0  0  0
 63137  1  0  0  0
 64138  1  0  0  0
 65139  1  0  0  0
 68 79  1  0  0  0
 71 72  2  0  0  0
 71 74  1  0  0  0
 71140  1  0  0  0
 72 76  1  0  0  0
 72141  1  0  0  0
 73 74  2  0  0  0
 73 75  1  0  0  0
 73142  1  0  0  0
 74 77  1  0  0  0
 75 76  2  0  0  0
 75 78  1  0  0  0
 76 80  1  0  0  0
 77 79  1  0  0  0
 77143  1  0  0  0
 77144  1  0  0  0
 78145  1  0  0  0
 79146  1  0  0  0
M  ISO  4   1 100  68 101  78 100  79 101
M  END
> <chiral flag>
0

> <version>
0

> <s_m_source_file>
/data/baiqing/PycharmProjects/Reinvent-master-3.2/result/LINK_invent/BTK/process_docking_weight1_custom_product_contain_oxygen_bond_distance_aromatic_linkinvent_7_9_3/rearranged_h_0008.sdf

> <i_m_source_file_index>
22

> <r_mmod_Potential_Energy-OPLS-2005>
1509.22265625

> <r_mmod_Stretch_Energy-OPLS-2005>
710.141967773438

> <r_mmod_Bend_Energy-OPLS-2005>
470.207916259766

> <r_mmod_Torsional_Energy-OPLS-2005>
233.172622680664

> <r_mmod_Improper_Torsional_Energy-OPLS-2005>
3.22739553451538

> <r_mmod_Van_der_Waal_Energy-OPLS-2005>
125.398849487305

> <r_mmod_Electrostatic_Energy-OPLS-2005>
-386.516906738281

> <r_mmod_Solvation_Energy-OPLS-2005>
-228.939392089844

> <b_mmod_Minimization_Converged-OPLS-2005>
0

> <r_mmod_RMS_Derivative-OPLS-2005>
0.0809405073523521

$$$$
22
                    3D
 Structure written by MMmdl.
147154  0  0  1  0            999 V2000
  -30.4235  -15.2881   20.3595 C   0  0  0  0  0  0
  -30.4377  -12.8185   19.5415 C   0  0  0  0  0  0
  -29.5402  -12.5834   18.2991 C   0  0  0  0  0  0
  -28.0883  -12.3038   18.7220 C   0  0  0  0  0  0
  -27.6123  -13.2784   19.8276 C   0  0  2  0  0  0
  -28.6416  -13.4588   20.9653 C   0  0  0  0  0  0
  -25.2380  -13.8253   20.5748 C   0  0  0  0  0  0
  -24.1736  -13.0436   20.9257 C   0  0  0  0  0  0
  -24.6397  -11.6935   20.8761 C   0  0  0  0  0  0
  -23.9094  -10.4293   21.0405 C   0  0  0  0  0  0
  -24.3637   -9.4205   21.9183 C   0  0  0  0  0  0
  -23.6304   -8.2244   22.0754 C   0  0  0  0  0  0
  -22.4285   -8.0284   21.3545 C   0  0  0  0  0  0
  -21.9926   -9.0259   20.4647 C   0  0  0  0  0  0
  -22.7263  -10.2135   20.3055 C   0  0  0  0  0  0
  -21.6856   -6.0738   22.5278 C   0  0  0  0  0  0
  -21.4017   -6.5641   23.8212 C   0  0  0  0  0  0
  -21.3660   -5.6793   24.9173 C   0  0  0  0  0  0
  -21.6044   -4.3056   24.7224 C   0  0  0  0  0  0
  -21.8818   -3.8148   23.4345 C   0  0  0  0  0  0
  -21.9193   -4.6965   22.3402 C   0  0  0  0  0  0
  -22.7754  -13.5185   21.1905 C   0  0  0  0  0  0
  -22.1662   -4.2150   21.0980 F   0  0  0  0  0  0
  -21.5628   -3.4539   25.7737 F   0  0  0  0  0  0
  -29.8763  -13.9693   20.3467 N   0  0  0  0  0  0
  -26.2815  -12.9535   20.3230 N   0  0  0  0  0  0
  -25.9336  -11.6635   20.5725 N   0  0  0  0  0  0
  -22.0416  -12.8166   22.0462 N   0  0  0  0  0  0
  -25.4002  -15.1989   20.4179 N   0  0  0  0  0  0
  -31.6342  -15.2968   20.0924 O   0  0  0  0  0  0
  -21.6644   -6.8883   21.4242 O   0  0  0  0  0  0
  -22.3432  -14.5487   20.6747 O   0  0  0  0  0  0
  -24.6637  -31.8213   23.1684 C   0  0  0  0  0  0
  -25.9313  -32.4574   23.8157 C   0  0  1  0  0  0
  -27.2217  -26.9110   20.1860 C   0  0  0  0  0  0
  -25.5974  -33.8391   24.2059 N   0  0  0  0  0  0
  -23.4796  -30.4310   21.5173 C   0  0  2  0  0  0
  -24.9347  -28.8142   20.1087 C   0  0  0  0  0  0
  -22.7671  -29.4425   22.4772 C   0  0  0  0  0  0
  -18.0322  -28.1410   22.8468 C   0  0  0  0  0  0
  -24.1494  -36.7202   23.2649 C   0  0  0  0  0  0
  -26.0488  -30.6212   21.4025 C   0  0  0  0  0  0
  -26.1161  -29.2093   20.7473 C   0  0  0  0  0  0
  -27.2504  -28.2775   20.7638 C   0  0  0  0  0  0
  -26.0152  -26.6754   19.4880 C   0  0  0  0  0  0
  -24.9107  -27.5688   19.4586 C   0  0  0  0  0  0
  -23.7205  -29.7436   20.1439 C   0  0  0  0  0  0
  -25.4137  -36.2960   24.0297 C   0  0  1  0  0  0
  -20.5948  -28.3755   23.1186 C   0  0  2  0  0  0
  -20.6798  -26.9434   22.5404 C   0  0  0  0  0  0
  -19.5771  -26.6377   21.5217 C   0  0  0  0  0  0
  -18.1954  -26.7942   22.1624 C   0  0  0  0  0  0
  -19.1584  -28.8903   23.2813 C   0  0  0  0  0  0
  -18.9495  -30.1492   23.8850 C   0  0  0  0  0  0
  -17.6488  -30.6599   24.0555 C   0  0  0  0  0  0
  -25.9102  -34.9344   23.5002 C   0  0  0  0  0  0
  -16.5378  -29.9087   23.6345 C   0  0  0  0  0  0
  -16.7305  -28.6507   23.0365 C   0  0  0  0  0  0
  -26.4562  -31.6531   25.0696 C   0  0  0  0  0  0
  -25.3683  -31.3790   26.1348 C   0  0  0  0  0  0
  -27.0466  -30.2896   24.6449 C   0  0  0  0  0  0
  -27.6045  -32.4351   25.7502 C   0  0  0  0  0  0
  -27.5567  -37.1762   24.8470 C   0  0  0  0  0  0
  -21.4338  -29.3038   22.3527 N   0  0  0  0  0  0
  -26.4282  -37.3696   23.9403 N   0  0  0  0  0  0
  -24.7519  -30.9858   22.0828 N   0  0  0  0  0  0
  -23.4210  -28.8005   23.3027 O   0  0  0  0  0  0
  -28.2235  -25.8038   20.3058 O   0  0  0  0  0  0
  -26.5719  -34.8884   22.4602 O   0  0  0  0  0  0
  -23.5704  -32.1195   23.6766 O   0  0  0  0  0  0
  -29.1753  -19.7119   20.6702 C   0  0  0  0  0  0
  -29.3930  -21.1128   18.6425 C   0  0  0  0  0  0
  -29.7892  -18.1801   20.0464 C   0  0  0  0  0  0
  -28.7737  -22.6359   20.6401 C   0  0  0  0  0  0
  -28.1171  -24.1842   19.9424 C   0  0  0  0  0  0
  -29.6484  -16.5550   20.4650 N   0  0  0  0  0  0
  -29.0540  -21.0745   20.0611 N   0  0  0  0  0  0
  -28.8258  -19.6300   21.8493 O   0  0  0  0  0  0
  -31.4590  -13.0173   19.2141 H   0  0  0  0  0  0
  -30.5010  -11.9142   20.1493 H   0  0  0  0  0  0
  -29.9239  -11.7552   17.7016 H   0  0  0  0  0  0
  -29.5708  -13.4655   17.6578 H   0  0  0  0  0  0
  -28.0454  -11.2798   19.0948 H   0  0  0  0  0  0
  -27.4223  -12.3444   17.8593 H   0  0  0  0  0  0
  -27.5265  -14.2441   19.3282 H   0  0  0  0  0  0
  -28.8093  -12.5264   21.5064 H   0  0  0  0  0  0
  -28.2750  -14.1806   21.6969 H   0  0  0  0  0  0
  -25.2779   -9.5678   22.4763 H   0  0  0  0  0  0
  -24.0008   -7.4634   22.7475 H   0  0  0  0  0  0
  -21.0857   -8.8783   19.8954 H   0  0  0  0  0  0
  -22.3720  -10.9675   19.6167 H   0  0  0  0  0  0
  -21.2011   -7.6149   23.9715 H   0  0  0  0  0  0
  -21.1483   -6.0524   25.9076 H   0  0  0  0  0  0
  -22.0597   -2.7609   23.2846 H   0  0  0  0  0  0
  -22.4053  -11.9835   22.4848 H   0  0  0  0  0  0
  -21.1029  -13.1172   22.2673 H   0  0  0  0  0  0
  -24.6261  -15.8456   20.5254 H   0  0  0  0  0  0
  -26.2362  -15.6406   20.0587 H   0  0  0  0  0  0
  -26.7381  -32.5107   23.0870 H   0  0  0  0  0  0
  -25.0061  -33.9467   25.0168 H   0  0  0  0  0  0
  -22.7937  -31.2630   21.3444 H   0  0  0  0  0  0
  -23.3764  -35.9525   23.3291 H   0  0  0  0  0  0
  -24.3564  -36.8870   22.2066 H   0  0  0  0  0  0
  -23.7247  -37.6382   23.6721 H   0  0  0  0  0  0
  -26.2317  -31.3610   20.6221 H   0  0  0  0  0  0
  -26.9077  -30.6787   22.0591 H   0  0  0  0  0  0
  -28.1405  -28.5749   21.3002 H   0  0  0  0  0  0
  -25.8867  -25.7264   18.9890 H   0  0  0  0  0  0
  -24.0144  -27.2616   18.9374 H   0  0  0  0  0  0
  -23.8761  -30.5112   19.3850 H   0  0  0  0  0  0
  -22.8301  -29.1978   19.8269 H   0  0  0  0  0  0
  -25.1338  -36.1756   25.0789 H   0  0  0  0  0  0
  -21.0036  -28.3368   24.1310 H   0  0  0  0  0  0
  -20.5677  -26.2376   23.3648 H   0  0  0  0  0  0
  -21.6662  -26.7408   22.1212 H   0  0  0  0  0  0
  -19.6930  -25.6274   21.1279 H   0  0  0  0  0  0
  -19.6711  -27.3160   20.6726 H   0  0  0  0  0  0
  -17.4223  -26.6686   21.4028 H   0  0  0  0  0  0
  -18.0346  -26.0096   22.9031 H   0  0  0  0  0  0
  -19.7970  -30.7320   24.2200 H   0  0  0  0  0  0
  -17.5040  -31.6275   24.5165 H   0  0  0  0  0  0
  -15.5376  -30.2974   23.7694 H   0  0  0  0  0  0
  -15.8706  -28.0807   22.7111 H   0  0  0  0  0  0
  -24.5879  -30.7124   25.7659 H   0  0  0  0  0  0
  -24.8859  -32.2994   26.4646 H   0  0  0  0  0  0
  -25.7910  -30.9041   27.0211 H   0  0  0  0  0  0
  -26.3140  -29.6560   24.1436 H   0  0  0  0  0  0
  -27.3968  -29.7273   25.5115 H   0  0  0  0  0  0
  -27.9092  -30.4072   23.9888 H   0  0  0  0  0  0
  -27.2602  -33.3696   26.1947 H   0  0  0  0  0  0
  -28.3925  -32.6843   25.0383 H   0  0  0  0  0  0
  -28.0637  -31.8569   26.5529 H   0  0  0  0  0  0
  -28.2579  -38.0061   24.7493 H   0  0  0  0  0  0
  -28.1067  -36.2585   24.6329 H   0  0  0  0  0  0
  -27.2277  -37.1441   25.8871 H   0  0  0  0  0  0
  -20.9597  -29.8718   21.6644 H   0  0  0  0  0  0
  -26.0129  -38.2757   24.1397 H   0  0  0  0  0  0
  -28.6945  -20.5061   18.0644 H   0  0  0  0  0  0
  -30.4000  -20.7280   18.4733 H   0  0  0  0  0  0
  -29.3616  -22.1237   18.2384 H   0  0  0  0  0  0
  -30.8663  -18.3435   20.0077 H   0  0  0  0  0  0
  -29.4884  -18.1962   18.9991 H   0  0  0  0  0  0
  -28.2142  -22.4791   21.5626 H   0  0  0  0  0  0
  -29.7660  -22.9176   20.9920 H   0  0  0  0  0  0
  -27.0469  -23.9974   19.8651 H   0  0  0  0  0  0
  -28.4525  -24.1728   18.9059 H   0  0  0  0  0  0
  -28.7023  -16.3537   20.7538 H   0  0  0  0  0  0
  1 25  1  0  0  0
  1 30  2  0  0  0
  1 76  1  0  0  0
  2  3  1  0  0  0
  2 25  1  0  0  0
  2 79  1  0  0  0
  2 80  1  0  0  0
  3  4  1  0  0  0
  3 81  1  0  0  0
  3 82  1  0  0  0
  4  5  1  0  0  0
  4 83  1  0  0  0
  4 84  1  0  0  0
  5  6  1  0  0  0
  5 26  1  0  0  0
  5 85  1  0  0  0
  6 25  1  0  0  0
  6 86  1  0  0  0
  6 87  1  0  0  0
  7  8  2  0  0  0
  7 26  1  0  0  0
  7 29  1  0  0  0
  8  9  1  0  0  0
  8 22  1  0  0  0
  9 10  1  0  0  0
  9 27  2  0  0  0
 10 11  2  0  0  0
 10 15  1  0  0  0
 11 12  1  0  0  0
 11 88  1  0  0  0
 12 13  2  0  0  0
 12 89  1  0  0  0
 13 14  1  0  0  0
 13 31  1  0  0  0
 14 15  2  0  0  0
 14 90  1  0  0  0
 15 91  1  0  0  0
 16 17  2  0  0  0
 16 21  1  0  0  0
 16 31  1  0  0  0
 17 18  1  0  0  0
 17 92  1  0  0  0
 18 19  2  0  0  0
 18 93  1  0  0  0
 19 20  1  0  0  0
 19 24  1  0  0  0
 20 21  2  0  0  0
 20 94  1  0  0  0
 21 23  1  0  0  0
 22 28  1  0  0  0
 22 32  2  0  0  0
 26 27  1  0  0  0
 28 95  1  0  0  0
 28 96  1  0  0  0
 29 97  1  0  0  0
 29 98  1  0  0  0
 33 34  1  0  0  0
 33 66  1  0  0  0
 33 70  2  0  0  0
 34 36  1  0  0  0
 34 59  1  0  0  0
 34 99  1  0  0  0
 35 44  2  0  0  0
 35 45  1  0  0  0
 35 68  1  0  0  0
 36 56  1  0  0  0
 36100  1  0  0  0
 37 39  1  0  0  0
 37 47  1  0  0  0
 37 66  1  0  0  0
 37101  1  0  0  0
 38 43  2  0  0  0
 38 46  1  0  0  0
 38 47  1  0  0  0
 39 64  1  0  0  0
 39 67  2  0  0  0
 40 52  1  0  0  0
 40 53  2  0  0  0
 40 58  1  0  0  0
 41102  1  0  0  0
 41103  1  0  0  0
 41104  1  0  0  0
 41 48  1  0  0  0
 42 43  1  0  0  0
 42 66  1  0  0  0
 42105  1  0  0  0
 42106  1  0  0  0
 43 44  1  0  0  0
 44107  1  0  0  0
 45 46  2  0  0  0
 45108  1  0  0  0
 46109  1  0  0  0
 47110  1  0  0  0
 47111  1  0  0  0
 48 56  1  0  0  0
 48 65  1  0  0  0
 48112  1  0  0  0
 49 50  1  0  0  0
 49 53  1  0  0  0
 49 64  1  0  0  0
 49113  1  0  0  0
 50 51  1  0  0  0
 50114  1  0  0  0
 50115  1  0  0  0
 51 52  1  0  0  0
 51116  1  0  0  0
 51117  1  0  0  0
 52118  1  0  0  0
 52119  1  0  0  0
 53 54  1  0  0  0
 54 55  2  0  0  0
 54120  1  0  0  0
 55 57  1  0  0  0
 55121  1  0  0  0
 56 69  2  0  0  0
 57 58  2  0  0  0
 57122  1  0  0  0
 58123  1  0  0  0
 59 60  1  0  0  0
 59 61  1  0  0  0
 59 62  1  0  0  0
 60124  1  0  0  0
 60125  1  0  0  0
 60126  1  0  0  0
 61127  1  0  0  0
 61128  1  0  0  0
 61129  1  0  0  0
 62130  1  0  0  0
 62131  1  0  0  0
 62132  1  0  0  0
 63 65  1  0  0  0
 63133  1  0  0  0
 63134  1  0  0  0
 63135  1  0  0  0
 64136  1  0  0  0
 65137  1  0  0  0
 68 75  1  0  0  0
 71 73  1  0  0  0
 71 77  1  0  0  0
 71 78  2  0  0  0
 72 77  1  0  0  0
 72138  1  0  0  0
 72139  1  0  0  0
 72140  1  0  0  0
 73 76  1  0  0  0
 73141  1  0  0  0
 73142  1  0  0  0
 74 75  1  0  0  0
 74 77  1  0  0  0
 74143  1  0  0  0
 74144  1  0  0  0
 75145  1  0  0  0
 75146  1  0  0  0
 76147  1  0  0  0
M  ISO  4   1 100  68 101  75 101  76 100
M  END
> <chiral flag>
0

> <version>
0

> <s_m_source_file>
/data/baiqing/PycharmProjects/Reinvent-master-3.2/result/LINK_invent/BTK/process_docking_weight1_custom_product_contain_oxygen_bond_distance_aromatic_linkinvent_7_9_3/rearranged_h_0008.sdf

> <i_m_source_file_index>
23

> <r_mmod_Potential_Energy-OPLS-2005>
1240.76599121094

> <r_mmod_Stretch_Energy-OPLS-2005>
638.052062988281

> <r_mmod_Bend_Energy-OPLS-2005>
449.331359863281

> <r_mmod_Torsional_Energy-OPLS-2005>
235.568359375

> <r_mmod_Improper_Torsional_Energy-OPLS-2005>
4.90387010574341

> <r_mmod_Van_der_Waal_Energy-OPLS-2005>
109.25804901123

> <r_mmod_Electrostatic_Energy-OPLS-2005>
-426.660583496094

> <r_mmod_Solvation_Energy-OPLS-2005>
-253.599349975586

> <b_mmod_Minimization_Converged-OPLS-2005>
0

> <r_mmod_RMS_Derivative-OPLS-2005>
0.252951502799988

$$$$
23
                    3D
 Structure written by MMmdl.
156165  0  0  1  0            999 V2000
  -30.5082  -14.9473   20.4155 C   0  0  0  0  0  0
  -30.4555  -12.5838   19.4957 C   0  0  0  0  0  0
  -29.5290  -12.5332   18.2570 C   0  0  0  0  0  0
  -28.0600  -12.3184   18.6718 C   0  0  0  0  0  0
  -27.6361  -13.2441   19.8413 C   0  0  2  0  0  0
  -28.6797  -13.2459   20.9802 C   0  0  0  0  0  0
  -25.2481  -13.8223   20.5714 C   0  0  0  0  0  0
  -24.1788  -13.0452   20.9252 C   0  0  0  0  0  0
  -24.6389  -11.6931   20.8752 C   0  0  0  0  0  0
  -23.9064  -10.4301   21.0404 C   0  0  0  0  0  0
  -24.3617   -9.4218   21.9181 C   0  0  0  0  0  0
  -23.6298   -8.2248   22.0748 C   0  0  0  0  0  0
  -22.4278   -8.0283   21.3541 C   0  0  0  0  0  0
  -21.9907   -9.0262   20.4646 C   0  0  0  0  0  0
  -22.7234  -10.2144   20.3054 C   0  0  0  0  0  0
  -21.6854   -6.0726   22.5276 C   0  0  0  0  0  0
  -21.4009   -6.5631   23.8207 C   0  0  0  0  0  0
  -21.3663   -5.6786   24.9173 C   0  0  0  0  0  0
  -21.6054   -4.3049   24.7226 C   0  0  0  0  0  0
  -21.8818   -3.8134   23.4342 C   0  0  0  0  0  0
  -21.9194   -4.6951   22.3399 C   0  0  0  0  0  0
  -22.7801  -13.5222   21.1913 C   0  0  0  0  0  0
  -22.1662   -4.2136   21.0976 F   0  0  0  0  0  0
  -21.5639   -3.4531   25.7735 F   0  0  0  0  0  0
  -29.9619  -13.6646   20.3955 N   0  0  0  0  0  0
  -26.2902  -12.9445   20.3224 N   0  0  0  0  0  0
  -25.9319  -11.6576   20.5714 N   0  0  0  0  0  0
  -22.0431  -12.8213   22.0457 N   0  0  0  0  0  0
  -25.4157  -15.1953   20.4133 N   0  0  0  0  0  0
  -31.6932  -15.0716   20.0874 O   0  0  0  0  0  0
  -21.6644   -6.8872   21.4239 O   0  0  0  0  0  0
  -22.3484  -14.5528   20.6753 O   0  0  0  0  0  0
  -24.6414  -31.8448   23.1879 C   0  0  0  0  0  0
  -25.9193  -32.4694   23.8266 C   0  0  1  0  0  0
  -27.2195  -27.1465   20.1436 C   0  0  0  0  0  0
  -25.5946  -33.8502   24.2183 N   0  0  0  0  0  0
  -23.4435  -30.4627   21.5338 C   0  0  2  0  0  0
  -24.8922  -28.8875   20.1061 C   0  0  0  0  0  0
  -22.7557  -29.4541   22.4869 C   0  0  0  0  0  0
  -18.0304  -28.1382   22.8476 C   0  0  0  0  0  0
  -24.1492  -36.7255   23.2642 C   0  0  0  0  0  0
  -25.9973  -30.7216   21.3829 C   0  0  0  0  0  0
  -26.0671  -29.3332   20.7230 C   0  0  0  0  0  0
  -27.2278  -28.4768   20.7250 C   0  0  0  0  0  0
  -26.0161  -26.7907   19.4977 C   0  0  0  0  0  0
  -24.8784  -27.6301   19.4800 C   0  0  0  0  0  0
  -23.6672  -29.7887   20.1528 C   0  0  0  0  0  0
  -25.4125  -36.3033   24.0316 C   0  0  1  0  0  0
  -20.5916  -28.3702   23.1245 C   0  0  2  0  0  0
  -20.6782  -26.9403   22.5416 C   0  0  0  0  0  0
  -19.5758  -26.6360   21.5224 C   0  0  0  0  0  0
  -18.1939  -26.7917   22.1626 C   0  0  0  0  0  0
  -19.1560  -28.8863   23.2848 C   0  0  0  0  0  0
  -18.9476  -30.1466   23.8856 C   0  0  0  0  0  0
  -17.6473  -30.6576   24.0558 C   0  0  0  0  0  0
  -25.9078  -34.9408   23.5059 C   0  0  0  0  0  0
  -16.5364  -29.9067   23.6335 C   0  0  0  0  0  0
  -16.7291  -28.6492   23.0346 C   0  0  0  0  0  0
  -26.4511  -31.6560   25.0711 C   0  0  0  0  0  0
  -25.3699  -31.3775   26.1416 C   0  0  0  0  0  0
  -27.0374  -30.2950   24.6299 C   0  0  0  0  0  0
  -27.6042  -32.4322   25.7496 C   0  0  0  0  0  0
  -27.5582  -37.1776   24.8455 C   0  0  0  0  0  0
  -21.4254  -29.3027   22.3615 N   0  0  0  0  0  0
  -26.4281  -37.3750   23.9417 N   0  0  0  0  0  0
  -24.7140  -31.0314   22.0900 N   0  0  0  0  0  0
  -23.4214  -28.8098   23.3013 O   0  0  0  0  0  0
  -28.3055  -26.2076   20.2428 O   0  0  0  0  0  0
  -26.5664  -34.8907   22.4639 O   0  0  0  0  0  0
  -23.5539  -32.1322   23.7112 O   0  0  0  0  0  0
  -30.2414  -19.8977   19.6511 C   0  0  0  0  0  0
  -30.4527  -18.4591   19.7744 C   0  0  0  0  0  0
  -28.5697  -18.3598   21.1612 C   0  0  0  0  0  0
  -28.3673  -19.8085   21.0813 C   0  0  0  0  0  0
  -29.1959  -20.6857   20.2757 C   0  0  0  0  0  0
  -29.6081  -17.5860   20.5324 C   0  0  0  0  0  0
  -29.7735  -24.4103   19.2747 C   0  0  0  0  0  0
  -29.9239  -22.8649   19.0893 C   0  0  0  0  0  0
  -28.1982  -23.3209   20.6151 C   0  0  0  0  0  0
  -28.3487  -24.7272   19.7630 C   0  0  1  0  0  0
  -27.2104  -20.3913   21.8973 C   0  0  0  0  0  0
  -29.0662  -22.1742   20.0568 N   0  0  0  0  0  0
  -29.6495  -16.0517   20.6700 N   0  0  0  0  0  0
  -26.6234  -19.4783   22.6730 F   0  0  0  0  0  0
  -27.6424  -21.3594   22.7065 F   0  0  0  0  0  0
  -26.2729  -20.8812   21.0858 F   0  0  0  0  0  0
  -31.4851  -12.7602   19.1796 H   0  0  0  0  0  0
  -30.4655  -11.6265   20.0186 H   0  0  0  0  0  0
  -29.8494  -11.7418   17.5780 H   0  0  0  0  0  0
  -29.6154  -13.4677   17.7004 H   0  0  0  0  0  0
  -27.9514  -11.2755   18.9709 H   0  0  0  0  0  0
  -27.3990  -12.4604   17.8162 H   0  0  0  0  0  0
  -27.6064  -14.2505   19.4222 H   0  0  0  0  0  0
  -28.7633  -12.2588   21.4360 H   0  0  0  0  0  0
  -28.3770  -13.9260   21.7777 H   0  0  0  0  0  0
  -25.2761   -9.5705   22.4746 H   0  0  0  0  0  0
  -24.0016   -7.4636   22.7459 H   0  0  0  0  0  0
  -21.0832   -8.8778   19.8955 H   0  0  0  0  0  0
  -22.3688  -10.9677   19.6156 H   0  0  0  0  0  0
  -21.1990   -7.6138   23.9709 H   0  0  0  0  0  0
  -21.1495   -6.0512   25.9078 H   0  0  0  0  0  0
  -22.0593   -2.7595   23.2843 H   0  0  0  0  0  0
  -22.4032  -11.9892   22.4880 H   0  0  0  0  0  0
  -21.1039  -13.1234   22.2632 H   0  0  0  0  0  0
  -24.6466  -15.8451   20.5314 H   0  0  0  0  0  0
  -26.2406  -15.6292   20.0206 H   0  0  0  0  0  0
  -26.7255  -32.5296   23.0993 H   0  0  0  0  0  0
  -25.0079  -33.9608   25.0321 H   0  0  0  0  0  0
  -22.7449  -31.2877   21.3806 H   0  0  0  0  0  0
  -23.3763  -35.9576   23.3281 H   0  0  0  0  0  0
  -24.3584  -36.8916   22.2062 H   0  0  0  0  0  0
  -23.7229  -37.6436   23.6695 H   0  0  0  0  0  0
  -26.1508  -31.4787   20.6123 H   0  0  0  0  0  0
  -26.8676  -30.7704   22.0260 H   0  0  0  0  0  0
  -28.1245  -28.8117   21.2279 H   0  0  0  0  0  0
  -25.9151  -25.8223   19.0332 H   0  0  0  0  0  0
  -23.9772  -27.2822   18.9942 H   0  0  0  0  0  0
  -23.7958  -30.5622   19.3947 H   0  0  0  0  0  0
  -22.7815  -29.2283   19.8477 H   0  0  0  0  0  0
  -25.1309  -36.1858   25.0805 H   0  0  0  0  0  0
  -21.0015  -28.3290   24.1366 H   0  0  0  0  0  0
  -20.5683  -26.2310   23.3635 H   0  0  0  0  0  0
  -21.6645  -26.7403   22.1214 H   0  0  0  0  0  0
  -19.6916  -25.6267   21.1259 H   0  0  0  0  0  0
  -19.6696  -27.3167   20.6755 H   0  0  0  0  0  0
  -17.4217  -26.6675   21.4022 H   0  0  0  0  0  0
  -18.0322  -26.0061   22.9021 H   0  0  0  0  0  0
  -19.7958  -30.7291   24.2192 H   0  0  0  0  0  0
  -17.5029  -31.6253   24.5170 H   0  0  0  0  0  0
  -15.5361  -30.2951   23.7682 H   0  0  0  0  0  0
  -15.8698  -28.0808   22.7050 H   0  0  0  0  0  0
  -24.5825  -30.7187   25.7737 H   0  0  0  0  0  0
  -24.8955  -32.2980   26.4828 H   0  0  0  0  0  0
  -25.7969  -30.8929   27.0205 H   0  0  0  0  0  0
  -26.2994  -29.6660   24.1307 H   0  0  0  0  0  0
  -27.3978  -29.7263   25.4883 H   0  0  0  0  0  0
  -27.8905  -30.4177   23.9623 H   0  0  0  0  0  0
  -27.2622  -33.3619   26.2056 H   0  0  0  0  0  0
  -28.3862  -32.6886   25.0338 H   0  0  0  0  0  0
  -28.0699  -31.8463   26.5430 H   0  0  0  0  0  0
  -28.2567  -38.0104   24.7535 H   0  0  0  0  0  0
  -28.1098  -36.2628   24.6223 H   0  0  0  0  0  0
  -27.2304  -37.1368   25.8858 H   0  0  0  0  0  0
  -20.9461  -29.8724   21.6782 H   0  0  0  0  0  0
  -26.0142  -38.2812   24.1438 H   0  0  0  0  0  0
  -30.9530  -20.4072   19.0208 H   0  0  0  0  0  0
  -31.2855  -18.0252   19.2384 H   0  0  0  0  0  0
  -27.8665  -17.7991   21.7575 H   0  0  0  0  0  0
  -30.0263  -24.9551   18.3647 H   0  0  0  0  0  0
  -30.4787  -24.7372   20.0401 H   0  0  0  0  0  0
  -30.9700  -22.5835   19.2159 H   0  0  0  0  0  0
  -29.6264  -22.5757   18.0797 H   0  0  0  0  0  0
  -27.1481  -23.0337   20.6507 H   0  0  0  0  0  0
  -28.5024  -23.5028   21.6460 H   0  0  0  0  0  0
  -27.7026  -24.6412   18.8895 H   0  0  0  0  0  0
  -28.7738  -15.6898   21.0138 H   0  0  0  0  0  0
  1 25  1  0  0  0
  1 30  2  0  0  0
  1 83  1  0  0  0
  2  3  1  0  0  0
  2 25  1  0  0  0
  2 87  1  0  0  0
  2 88  1  0  0  0
  3  4  1  0  0  0
  3 89  1  0  0  0
  3 90  1  0  0  0
  4  5  1  0  0  0
  4 91  1  0  0  0
  4 92  1  0  0  0
  5  6  1  0  0  0
  5 26  1  0  0  0
  5 93  1  0  0  0
  6 25  1  0  0  0
  6 94  1  0  0  0
  6 95  1  0  0  0
  7  8  2  0  0  0
  7 26  1  0  0  0
  7 29  1  0  0  0
  8  9  1  0  0  0
  8 22  1  0  0  0
  9 10  1  0  0  0
  9 27  2  0  0  0
 10 11  2  0  0  0
 10 15  1  0  0  0
 11 12  1  0  0  0
 11 96  1  0  0  0
 12 13  2  0  0  0
 12 97  1  0  0  0
 13 14  1  0  0  0
 13 31  1  0  0  0
 14 15  2  0  0  0
 14 98  1  0  0  0
 15 99  1  0  0  0
 16 17  2  0  0  0
 16 21  1  0  0  0
 16 31  1  0  0  0
 17 18  1  0  0  0
 17100  1  0  0  0
 18 19  2  0  0  0
 18101  1  0  0  0
 19 20  1  0  0  0
 19 24  1  0  0  0
 20 21  2  0  0  0
 20102  1  0  0  0
 21 23  1  0  0  0
 22 28  1  0  0  0
 22 32  2  0  0  0
 26 27  1  0  0  0
 28103  1  0  0  0
 28104  1  0  0  0
 29105  1  0  0  0
 29106  1  0  0  0
 33 34  1  0  0  0
 33 66  1  0  0  0
 33 70  2  0  0  0
 34 36  1  0  0  0
 34 59  1  0  0  0
 34107  1  0  0  0
 35 44  2  0  0  0
 35 45  1  0  0  0
 35 68  1  0  0  0
 36 56  1  0  0  0
 36108  1  0  0  0
 37 39  1  0  0  0
 37 47  1  0  0  0
 37 66  1  0  0  0
 37109  1  0  0  0
 38 43  2  0  0  0
 38 46  1  0  0  0
 38 47  1  0  0  0
 39 64  1  0  0  0
 39 67  2  0  0  0
 40 52  1  0  0  0
 40 53  2  0  0  0
 40 58  1  0  0  0
 41110  1  0  0  0
 41111  1  0  0  0
 41112  1  0  0  0
 41 48  1  0  0  0
 42 43  1  0  0  0
 42 66  1  0  0  0
 42113  1  0  0  0
 42114  1  0  0  0
 43 44  1  0  0  0
 44115  1  0  0  0
 45 46  2  0  0  0
 45116  1  0  0  0
 46117  1  0  0  0
 47118  1  0  0  0
 47119  1  0  0  0
 48 56  1  0  0  0
 48 65  1  0  0  0
 48120  1  0  0  0
 49 50  1  0  0  0
 49 53  1  0  0  0
 49 64  1  0  0  0
 49121  1  0  0  0
 50 51  1  0  0  0
 50122  1  0  0  0
 50123  1  0  0  0
 51 52  1  0  0  0
 51124  1  0  0  0
 51125  1  0  0  0
 52126  1  0  0  0
 52127  1  0  0  0
 53 54  1  0  0  0
 54 55  2  0  0  0
 54128  1  0  0  0
 55 57  1  0  0  0
 55129  1  0  0  0
 56 69  2  0  0  0
 57 58  2  0  0  0
 57130  1  0  0  0
 58131  1  0  0  0
 59 60  1  0  0  0
 59 61  1  0  0  0
 59 62  1  0  0  0
 60132  1  0  0  0
 60133  1  0  0  0
 60134  1  0  0  0
 61135  1  0  0  0
 61136  1  0  0  0
 61137  1  0  0  0
 62138  1  0  0  0
 62139  1  0  0  0
 62140  1  0  0  0
 63 65  1  0  0  0
 63141  1  0  0  0
 63142  1  0  0  0
 63143  1  0  0  0
 64144  1  0  0  0
 65145  1  0  0  0
 68 80  1  0  0  0
 71 72  2  0  0  0
 71 75  1  0  0  0
 71146  1  0  0  0
 72 76  1  0  0  0
 72147  1  0  0  0
 73 74  1  0  0  0
 73 76  2  0  0  0
 73148  1  0  0  0
 74 75  2  0  0  0
 74 81  1  0  0  0
 75 82  1  0  0  0
 76 83  1  0  0  0
 77 78  1  0  0  0
 77 80  1  0  0  0
 77149  1  0  0  0
 77150  1  0  0  0
 78 82  1  0  0  0
 78151  1  0  0  0
 78152  1  0  0  0
 79 80  1  0  0  0
 79 82  1  0  0  0
 79153  1  0  0  0
 79154  1  0  0  0
 80155  1  0  0  0
 81 84  1  0  0  0
 81 85  1  0  0  0
 81 86  1  0  0  0
 83156  1  0  0  0
M  ISO  4   1 100  68 101  80 101  83 100
M  END
> <chiral flag>
0

> <version>
0

> <s_m_source_file>
/data/baiqing/PycharmProjects/Reinvent-master-3.2/result/LINK_invent/BTK/process_docking_weight1_custom_product_contain_oxygen_bond_distance_aromatic_linkinvent_7_9_3/rearranged_h_0008.sdf

> <i_m_source_file_index>
24

> <r_mmod_Potential_Energy-OPLS-2005>
615.0234375

> <r_mmod_Stretch_Energy-OPLS-2005>
224.136016845703

> <r_mmod_Bend_Energy-OPLS-2005>
334.533874511719

> <r_mmod_Torsional_Energy-OPLS-2005>
250.492797851562

> <r_mmod_Improper_Torsional_Energy-OPLS-2005>
3.5887279510498

> <r_mmod_Van_der_Waal_Energy-OPLS-2005>
134.448043823242

> <r_mmod_Electrostatic_Energy-OPLS-2005>
-297.319122314453

> <r_mmod_Solvation_Energy-OPLS-2005>
-220.857055664062

> <b_mmod_Minimization_Converged-OPLS-2005>
0

> <r_mmod_RMS_Derivative-OPLS-2005>
1.79841411113739

$$$$
24
                    3D
 Structure written by MMmdl.
150158  0  0  1  0            999 V2000
  -30.3858  -15.3182   20.4176 C   0  0  0  0  0  0
  -30.4304  -12.8474   19.5580 C   0  0  0  0  0  0
  -29.5414  -12.5983   18.3106 C   0  0  0  0  0  0
  -28.0902  -12.3107   18.7306 C   0  0  0  0  0  0
  -27.6118  -13.2760   19.8460 C   0  0  2  0  0  0
  -28.6354  -13.4386   20.9897 C   0  0  0  0  0  0
  -25.2368  -13.8226   20.5761 C   0  0  0  0  0  0
  -24.1732  -13.0420   20.9262 C   0  0  0  0  0  0
  -24.6403  -11.6921   20.8781 C   0  0  0  0  0  0
  -23.9116  -10.4286   21.0426 C   0  0  0  0  0  0
  -24.3660   -9.4201   21.9208 C   0  0  0  0  0  0
  -23.6322   -8.2248   22.0773 C   0  0  0  0  0  0
  -22.4295   -8.0290   21.3548 C   0  0  0  0  0  0
  -21.9942   -9.0288   20.4678 C   0  0  0  0  0  0
  -22.7272  -10.2150   20.3085 C   0  0  0  0  0  0
  -21.6868   -6.0773   22.5301 C   0  0  0  0  0  0
  -21.4043   -6.5669   23.8239 C   0  0  0  0  0  0
  -21.3649   -5.6816   24.9181 C   0  0  0  0  0  0
  -21.6021   -4.3074   24.7204 C   0  0  0  0  0  0
  -21.8808   -3.8176   23.4325 C   0  0  0  0  0  0
  -21.9198   -4.6995   22.3394 C   0  0  0  0  0  0
  -22.7755  -13.5191   21.1848 C   0  0  0  0  0  0
  -22.1653   -4.2197   21.0960 F   0  0  0  0  0  0
  -21.5598   -3.4566   25.7721 F   0  0  0  0  0  0
  -29.8510  -13.9921   20.3724 N   0  0  0  0  0  0
  -26.2816  -12.9519   20.3315 N   0  0  0  0  0  0
  -25.9343  -11.6616   20.5759 N   0  0  0  0  0  0
  -22.0386  -12.8197   22.0391 N   0  0  0  0  0  0
  -25.3891  -15.1937   20.4082 N   0  0  0  0  0  0
  -31.5876  -15.3197   20.0946 O   0  0  0  0  0  0
  -21.6641   -6.8912   21.4264 O   0  0  0  0  0  0
  -22.3474  -14.5524   20.6705 O   0  0  0  0  0  0
  -24.6599  -31.8198   23.1743 C   0  0  0  0  0  0
  -25.9285  -32.4565   23.8183 C   0  0  1  0  0  0
  -27.1983  -26.8906   20.2253 C   0  0  0  0  0  0
  -25.5973  -33.8387   24.2060 N   0  0  0  0  0  0
  -23.4766  -30.4330   21.5164 C   0  0  2  0  0  0
  -24.9338  -28.8204   20.1105 C   0  0  0  0  0  0
  -22.7637  -29.4403   22.4719 C   0  0  0  0  0  0
  -18.0322  -28.1397   22.8452 C   0  0  0  0  0  0
  -24.1509  -36.7227   23.2641 C   0  0  0  0  0  0
  -26.0450  -30.6219   21.4112 C   0  0  0  0  0  0
  -26.1125  -29.2058   20.7609 C   0  0  0  0  0  0
  -27.2393  -28.2620   20.7930 C   0  0  0  0  0  0
  -25.9989  -26.6680   19.5135 C   0  0  0  0  0  0
  -24.9066  -27.5746   19.4630 C   0  0  0  0  0  0
  -23.7228  -29.7559   20.1393 C   0  0  0  0  0  0
  -25.4150  -36.2941   24.0269 C   0  0  1  0  0  0
  -20.5940  -28.3749   23.1175 C   0  0  2  0  0  0
  -20.6798  -26.9432   22.5384 C   0  0  0  0  0  0
  -19.5771  -26.6366   21.5195 C   0  0  0  0  0  0
  -18.1964  -26.7926   22.1614 C   0  0  0  0  0  0
  -19.1584  -28.8903   23.2806 C   0  0  0  0  0  0
  -18.9486  -30.1489   23.8855 C   0  0  0  0  0  0
  -17.6475  -30.6582   24.0562 C   0  0  0  0  0  0
  -25.9097  -34.9322   23.4979 C   0  0  0  0  0  0
  -16.5371  -29.9067   23.6341 C   0  0  0  0  0  0
  -16.7306  -28.6490   23.0362 C   0  0  0  0  0  0
  -26.4565  -31.6541   25.0722 C   0  0  0  0  0  0
  -25.3701  -31.3831   26.1393 C   0  0  0  0  0  0
  -27.0445  -30.2879   24.6503 C   0  0  0  0  0  0
  -27.6020  -32.4391   25.7566 C   0  0  0  0  0  0
  -27.5559  -37.1782   24.8453 C   0  0  0  0  0  0
  -21.4306  -29.3025   22.3495 N   0  0  0  0  0  0
  -26.4288  -37.3672   23.9368 N   0  0  0  0  0  0
  -24.7468  -30.9870   22.0877 N   0  0  0  0  0  0
  -23.4202  -28.7939   23.2932 O   0  0  0  0  0  0
  -28.1754  -25.7597   20.3517 O   0  0  0  0  0  0
  -26.5694  -34.8842   22.4563 O   0  0  0  0  0  0
  -23.5674  -32.1163   23.6850 O   0  0  0  0  0  0
  -28.0709  -18.5253   21.4004 C   0  0  0  0  0  0
  -28.6298  -17.0180   21.5568 C   0  0  0  0  0  0
  -29.7888  -18.1270   19.9324 C   0  0  0  0  0  0
  -29.1242  -19.4895   20.7656 C   0  0  1  0  0  0
  -28.7698  -22.5721   20.6840 C   0  0  0  0  0  0
  -27.9382  -24.1151   20.1619 C   0  0  0  0  0  0
  -29.6331  -16.6237   20.5231 N   0  0  0  0  0  0
  -28.5838  -20.9773   20.1739 N   0  3  0  0  0  0
  -31.4511  -13.0548   19.2335 H   0  0  0  0  0  0
  -30.5158  -11.9460   20.1665 H   0  0  0  0  0  0
  -29.9354  -11.7710   17.7177 H   0  0  0  0  0  0
  -29.5748  -13.4757   17.6640 H   0  0  0  0  0  0
  -28.0527  -11.2839   19.0963 H   0  0  0  0  0  0
  -27.4267  -12.3507   17.8650 H   0  0  0  0  0  0
  -27.5263  -14.2489   19.3637 H   0  0  0  0  0  0
  -28.8202  -12.4916   21.5007 H   0  0  0  0  0  0
  -28.2647  -14.1284   21.7478 H   0  0  0  0  0  0
  -25.2803   -9.5687   22.4815 H   0  0  0  0  0  0
  -24.0026   -7.4635   22.7495 H   0  0  0  0  0  0
  -21.0858   -8.8855   19.8976 H   0  0  0  0  0  0
  -22.3754  -10.9734   19.6236 H   0  0  0  0  0  0
  -21.2082   -7.6192   23.9757 H   0  0  0  0  0  0
  -21.1464   -6.0530   25.9083 H   0  0  0  0  0  0
  -22.0592   -2.7630   23.2804 H   0  0  0  0  0  0
  -22.4028  -11.9930   22.4898 H   0  0  0  0  0  0
  -21.1031  -13.1291   22.2606 H   0  0  0  0  0  0
  -24.5929  -15.8144   20.4878 H   0  0  0  0  0  0
  -26.1964  -15.6382   19.9892 H   0  0  0  0  0  0
  -26.7336  -32.5109   23.0881 H   0  0  0  0  0  0
  -25.0088  -33.9476   25.0186 H   0  0  0  0  0  0
  -22.7902  -31.2666   21.3490 H   0  0  0  0  0  0
  -23.3728  -35.9604   23.3310 H   0  0  0  0  0  0
  -24.3568  -36.8879   22.2054 H   0  0  0  0  0  0
  -23.7353  -37.6442   23.6725 H   0  0  0  0  0  0
  -26.2224  -31.3664   20.6337 H   0  0  0  0  0  0
  -26.9054  -30.6840   22.0665 H   0  0  0  0  0  0
  -28.1210  -28.5506   21.3474 H   0  0  0  0  0  0
  -25.8662  -25.7167   19.0215 H   0  0  0  0  0  0
  -24.0154  -27.2774   18.9283 H   0  0  0  0  0  0
  -23.8865  -30.5303   19.3883 H   0  0  0  0  0  0
  -22.8336  -29.2140   19.8128 H   0  0  0  0  0  0
  -25.1364  -36.1714   25.0761 H   0  0  0  0  0  0
  -21.0054  -28.3369   24.1288 H   0  0  0  0  0  0
  -20.5691  -26.2346   23.3612 H   0  0  0  0  0  0
  -21.6663  -26.7395   22.1191 H   0  0  0  0  0  0
  -19.6928  -25.6261   21.1272 H   0  0  0  0  0  0
  -19.6726  -27.3133   20.6698 H   0  0  0  0  0  0
  -17.4218  -26.6647   21.4046 H   0  0  0  0  0  0
  -18.0391  -26.0088   22.9038 H   0  0  0  0  0  0
  -19.7977  -30.7321   24.2197 H   0  0  0  0  0  0
  -17.5038  -31.6265   24.5148 H   0  0  0  0  0  0
  -15.5384  -30.2960   23.7699 H   0  0  0  0  0  0
  -15.8698  -28.0801   22.7102 H   0  0  0  0  0  0
  -24.5796  -30.7286   25.7720 H   0  0  0  0  0  0
  -24.9013  -32.3065   26.4806 H   0  0  0  0  0  0
  -25.7917  -30.8975   27.0199 H   0  0  0  0  0  0
  -26.3076  -29.6562   24.1518 H   0  0  0  0  0  0
  -27.3914  -29.7273   25.5206 H   0  0  0  0  0  0
  -27.9085  -30.4021   23.9945 H   0  0  0  0  0  0
  -27.2485  -33.3667   26.2105 H   0  0  0  0  0  0
  -28.3882  -32.7013   25.0467 H   0  0  0  0  0  0
  -28.0643  -31.8567   26.5552 H   0  0  0  0  0  0
  -28.2570  -38.0072   24.7403 H   0  0  0  0  0  0
  -28.1048  -36.2577   24.6402 H   0  0  0  0  0  0
  -27.2236  -37.1574   25.8844 H   0  0  0  0  0  0
  -20.9517  -29.8759   21.6680 H   0  0  0  0  0  0
  -26.0113  -38.2721   24.1347 H   0  0  0  0  0  0
  -27.7122  -18.9116   22.3552 H   0  0  0  0  0  0
  -27.1950  -18.4918   20.7528 H   0  0  0  0  0  0
  -27.7981  -16.3142   21.5633 H   0  0  0  0  0  0
  -29.1147  -16.9246   22.5301 H   0  0  0  0  0  0
  -30.8401  -18.3149   19.7189 H   0  0  0  0  0  0
  -29.2974  -18.0840   18.9584 H   0  0  0  0  0  0
  -29.8372  -19.7368   21.5511 H   0  0  0  0  0  0
  -28.6163  -22.5282   21.7627 H   0  0  0  0  0  0
  -29.8366  -22.7582   20.5773 H   0  0  0  0  0  0
  -26.9206  -23.9794   20.5248 H   0  0  0  0  0  0
  -27.8371  -24.0097   19.0826 H   0  0  0  0  0  0
  -27.5814  -20.8646   20.1591 H   0  0  0  0  0  0
  -28.8487  -20.9855   19.2017 H   0  0  0  0  0  0
  1 25  1  0  0  0
  1 30  2  0  0  0
  1 77  1  0  0  0
  2  3  1  0  0  0
  2 25  1  0  0  0
  2 79  1  0  0  0
  2 80  1  0  0  0
  3  4  1  0  0  0
  3 81  1  0  0  0
  3 82  1  0  0  0
  4  5  1  0  0  0
  4 83  1  0  0  0
  4 84  1  0  0  0
  5  6  1  0  0  0
  5 26  1  0  0  0
  5 85  1  0  0  0
  6 25  1  0  0  0
  6 86  1  0  0  0
  6 87  1  0  0  0
  7  8  2  0  0  0
  7 26  1  0  0  0
  7 29  1  0  0  0
  8  9  1  0  0  0
  8 22  1  0  0  0
  9 10  1  0  0  0
  9 27  2  0  0  0
 10 11  2  0  0  0
 10 15  1  0  0  0
 11 12  1  0  0  0
 11 88  1  0  0  0
 12 13  2  0  0  0
 12 89  1  0  0  0
 13 14  1  0  0  0
 13 31  1  0  0  0
 14 15  2  0  0  0
 14 90  1  0  0  0
 15 91  1  0  0  0
 16 17  2  0  0  0
 16 21  1  0  0  0
 16 31  1  0  0  0
 17 18  1  0  0  0
 17 92  1  0  0  0
 18 19  2  0  0  0
 18 93  1  0  0  0
 19 20  1  0  0  0
 19 24  1  0  0  0
 20 21  2  0  0  0
 20 94  1  0  0  0
 21 23  1  0  0  0
 22 28  1  0  0  0
 22 32  2  0  0  0
 26 27  1  0  0  0
 28 95  1  0  0  0
 28 96  1  0  0  0
 29 97  1  0  0  0
 29 98  1  0  0  0
 33 34  1  0  0  0
 33 66  1  0  0  0
 33 70  2  0  0  0
 34 36  1  0  0  0
 34 59  1  0  0  0
 34 99  1  0  0  0
 35 44  2  0  0  0
 35 45  1  0  0  0
 35 68  1  0  0  0
 36 56  1  0  0  0
 36100  1  0  0  0
 37 39  1  0  0  0
 37 47  1  0  0  0
 37 66  1  0  0  0
 37101  1  0  0  0
 38 43  2  0  0  0
 38 46  1  0  0  0
 38 47  1  0  0  0
 39 64  1  0  0  0
 39 67  2  0  0  0
 40 52  1  0  0  0
 40 53  2  0  0  0
 40 58  1  0  0  0
 41102  1  0  0  0
 41103  1  0  0  0
 41104  1  0  0  0
 41 48  1  0  0  0
 42 43  1  0  0  0
 42 66  1  0  0  0
 42105  1  0  0  0
 42106  1  0  0  0
 43 44  1  0  0  0
 44107  1  0  0  0
 45 46  2  0  0  0
 45108  1  0  0  0
 46109  1  0  0  0
 47110  1  0  0  0
 47111  1  0  0  0
 48 56  1  0  0  0
 48 65  1  0  0  0
 48112  1  0  0  0
 49 50  1  0  0  0
 49 53  1  0  0  0
 49 64  1  0  0  0
 49113  1  0  0  0
 50 51  1  0  0  0
 50114  1  0  0  0
 50115  1  0  0  0
 51 52  1  0  0  0
 51116  1  0  0  0
 51117  1  0  0  0
 52118  1  0  0  0
 52119  1  0  0  0
 53 54  1  0  0  0
 54 55  2  0  0  0
 54120  1  0  0  0
 55 57  1  0  0  0
 55121  1  0  0  0
 56 69  2  0  0  0
 57 58  2  0  0  0
 57122  1  0  0  0
 58123  1  0  0  0
 59 60  1  0  0  0
 59 61  1  0  0  0
 59 62  1  0  0  0
 60124  1  0  0  0
 60125  1  0  0  0
 60126  1  0  0  0
 61127  1  0  0  0
 61128  1  0  0  0
 61129  1  0  0  0
 62130  1  0  0  0
 62131  1  0  0  0
 62132  1  0  0  0
 63 65  1  0  0  0
 63133  1  0  0  0
 63134  1  0  0  0
 63135  1  0  0  0
 64136  1  0  0  0
 65137  1  0  0  0
 68 76  1  0  0  0
 71 72  1  0  0  0
 71 74  1  0  0  0
 71138  1  0  0  0
 71139  1  0  0  0
 72 77  1  0  0  0
 72140  1  0  0  0
 72141  1  0  0  0
 73 74  1  0  0  0
 73 77  1  0  0  0
 73142  1  0  0  0
 73143  1  0  0  0
 74 78  1  0  0  0
 74144  1  0  0  0
 75 76  1  0  0  0
 75 78  1  0  0  0
 75145  1  0  0  0
 75146  1  0  0  0
 76147  1  0  0  0
 76148  1  0  0  0
 78149  1  0  0  0
 78150  1  0  0  0
M  CHG  1  78   1
M  ISO  4   1 100  68 101  76 101  77 100
M  END
> <chiral flag>
0

> <version>
0

> <s_m_source_file>
/data/baiqing/PycharmProjects/Reinvent-master-3.2/result/LINK_invent/BTK/process_docking_weight1_custom_product_contain_oxygen_bond_distance_aromatic_linkinvent_7_9_3/rearranged_h_0008.sdf

> <i_m_source_file_index>
25

> <r_mmod_Potential_Energy-OPLS-2005>
1430.38159179688

> <r_mmod_Stretch_Energy-OPLS-2005>
621.534057617188

> <r_mmod_Bend_Energy-OPLS-2005>
506.723510742188

> <r_mmod_Torsional_Energy-OPLS-2005>
330.140411376953

> <r_mmod_Improper_Torsional_Energy-OPLS-2005>
8.20745849609375

> <r_mmod_Van_der_Waal_Energy-OPLS-2005>
104.631088256836

> <r_mmod_Electrostatic_Energy-OPLS-2005>
-195.851898193359

> <r_mmod_Solvation_Energy-OPLS-2005>
-462.917297363281

> <b_mmod_Minimization_Converged-OPLS-2005>
0

> <r_mmod_RMS_Derivative-OPLS-2005>
5.36358022689819

$$$$
25
                    3D
 Structure written by MMmdl.
152160  0  0  1  0            999 V2000
  -30.5781  -14.9257   20.3636 C   0  0  0  0  0  0
  -30.4429  -12.5652   19.4729 C   0  0  0  0  0  0
  -29.5138  -12.4678   18.2424 C   0  0  0  0  0  0
  -28.0486  -12.2601   18.6767 C   0  0  0  0  0  0
  -27.6198  -13.2062   19.8270 C   0  0  2  0  0  0
  -28.6790  -13.2956   20.9469 C   0  0  0  0  0  0
  -25.2497  -13.8085   20.5774 C   0  0  0  0  0  0
  -24.1766  -13.0372   20.9260 C   0  0  0  0  0  0
  -24.6336  -11.6844   20.8801 C   0  0  0  0  0  0
  -23.9014  -10.4248   21.0439 C   0  0  0  0  0  0
  -24.3580   -9.4165   21.9205 C   0  0  0  0  0  0
  -23.6264   -8.2199   22.0756 C   0  0  0  0  0  0
  -22.4250   -8.0251   21.3541 C   0  0  0  0  0  0
  -21.9881   -9.0225   20.4646 C   0  0  0  0  0  0
  -22.7201  -10.2106   20.3070 C   0  0  0  0  0  0
  -21.6835   -6.0719   22.5281 C   0  0  0  0  0  0
  -21.4001   -6.5629   23.8214 C   0  0  0  0  0  0
  -21.3658   -5.6786   24.9178 C   0  0  0  0  0  0
  -21.6047   -4.3051   24.7230 C   0  0  0  0  0  0
  -21.8818   -3.8136   23.4353 C   0  0  0  0  0  0
  -21.9185   -4.6949   22.3405 C   0  0  0  0  0  0
  -22.7801  -13.5195   21.1894 C   0  0  0  0  0  0
  -22.1659   -4.2135   21.0983 F   0  0  0  0  0  0
  -21.5630   -3.4536   25.7744 F   0  0  0  0  0  0
  -29.9488  -13.6842   20.3160 N   0  0  0  0  0  0
  -26.2859  -12.9216   20.3306 N   0  0  0  0  0  0
  -25.9254  -11.6399   20.5811 N   0  0  0  0  0  0
  -22.0429  -12.8205   22.0447 N   0  0  0  0  0  0
  -25.4235  -15.1811   20.4239 N   0  0  0  0  0  0
  -31.8102  -14.9414   20.2844 O   0  0  0  0  0  0
  -21.6614   -6.8854   21.4240 O   0  0  0  0  0  0
  -22.3514  -14.5507   20.6727 O   0  0  0  0  0  0
  -24.6374  -31.8482   23.1917 C   0  0  0  0  0  0
  -25.9171  -32.4719   23.8291 C   0  0  1  0  0  0
  -27.2281  -27.1889   20.1493 C   0  0  0  0  0  0
  -25.5938  -33.8525   24.2211 N   0  0  0  0  0  0
  -23.4395  -30.4662   21.5355 C   0  0  2  0  0  0
  -24.8912  -28.8955   20.1143 C   0  0  0  0  0  0
  -22.7538  -29.4562   22.4882 C   0  0  0  0  0  0
  -18.0298  -28.1393   22.8481 C   0  0  0  0  0  0
  -24.1491  -36.7268   23.2644 C   0  0  0  0  0  0
  -25.9903  -30.7356   21.3856 C   0  0  0  0  0  0
  -26.0627  -29.3480   20.7351 C   0  0  0  0  0  0
  -27.2304  -28.5061   20.7438 C   0  0  0  0  0  0
  -26.0360  -26.8219   19.4903 C   0  0  0  0  0  0
  -24.8860  -27.6419   19.4803 C   0  0  0  0  0  0
  -23.6650  -29.7925   20.1552 C   0  0  0  0  0  0
  -25.4123  -36.3049   24.0318 C   0  0  1  0  0  0
  -20.5906  -28.3711   23.1251 C   0  0  2  0  0  0
  -20.6783  -26.9421   22.5408 C   0  0  0  0  0  0
  -19.5759  -26.6382   21.5213 C   0  0  0  0  0  0
  -18.1939  -26.7932   22.1625 C   0  0  0  0  0  0
  -19.1553  -28.8869   23.2860 C   0  0  0  0  0  0
  -18.9473  -30.1467   23.8882 C   0  0  0  0  0  0
  -17.6471  -30.6591   24.0560 C   0  0  0  0  0  0
  -25.9064  -34.9421   23.5072 C   0  0  0  0  0  0
  -16.5361  -29.9086   23.6335 C   0  0  0  0  0  0
  -16.7283  -28.6505   23.0355 C   0  0  0  0  0  0
  -26.4515  -31.6576   25.0716 C   0  0  0  0  0  0
  -25.3714  -31.3751   26.1419 C   0  0  0  0  0  0
  -27.0384  -30.2982   24.6267 C   0  0  0  0  0  0
  -27.6047  -32.4344   25.7499 C   0  0  0  0  0  0
  -27.5571  -37.1800   24.8472 C   0  0  0  0  0  0
  -21.4235  -29.3042   22.3626 N   0  0  0  0  0  0
  -26.4296  -37.3750   23.9397 N   0  0  0  0  0  0
  -24.7081  -31.0375   22.0932 N   0  0  0  0  0  0
  -23.4201  -28.8115   23.3021 O   0  0  0  0  0  0
  -28.3195  -26.2653   20.1518 O   0  0  0  0  0  0
  -26.5647  -34.8909   22.4646 O   0  0  0  0  0  0
  -23.5507  -32.1339   23.7167 O   0  0  0  0  0  0
  -29.0837  -21.4277   21.5133 C   0  0  0  0  0  0
  -29.3540  -20.0070   21.6247 C   0  0  0  0  0  0
  -29.1541  -22.1633   20.2883 C   0  0  0  0  0  0
  -29.7218  -19.1415   20.5368 C   0  0  0  0  0  0
  -29.4846  -21.3018   19.1869 C   0  0  0  0  0  0
  -29.7542  -19.8778   19.2988 C   0  0  0  0  0  0
  -28.9217  -16.2465   19.1004 C   0  0  0  0  0  0
  -29.1487  -23.8005   20.1688 C   0  0  0  0  0  0
  -30.1988  -17.5757   20.7996 C   0  0  0  0  0  0
  -27.9638  -24.7515   20.3839 N   0  0  0  0  0  0
  -29.8375  -16.1432   20.2535 N   0  0  0  0  0  0
  -29.6160  -21.8668   17.9625 F   0  0  0  0  0  0
  -30.1223  -19.2320   18.1667 F   0  0  0  0  0  0
  -31.4726  -12.7253   19.1476 H   0  0  0  0  0  0
  -30.4464  -11.6308   20.0366 H   0  0  0  0  0  0
  -29.8298  -11.6428   17.6026 H   0  0  0  0  0  0
  -29.6016  -13.3672   17.6333 H   0  0  0  0  0  0
  -27.9525  -11.2246   19.0052 H   0  0  0  0  0  0
  -27.3792  -12.3696   17.8226 H   0  0  0  0  0  0
  -27.5298  -14.1714   19.3539 H   0  0  0  0  0  0
  -28.7774  -12.3464   21.4749 H   0  0  0  0  0  0
  -28.3845  -14.0394   21.6894 H   0  0  0  0  0  0
  -25.2721   -9.5637   22.4784 H   0  0  0  0  0  0
  -23.9973   -7.4581   22.7466 H   0  0  0  0  0  0
  -21.0816   -8.8742   19.8949 H   0  0  0  0  0  0
  -22.3667  -10.9651   19.6185 H   0  0  0  0  0  0
  -21.1991   -7.6137   23.9713 H   0  0  0  0  0  0
  -21.1487   -6.0518   25.9081 H   0  0  0  0  0  0
  -22.0602   -2.7600   23.2855 H   0  0  0  0  0  0
  -22.4030  -11.9863   22.4842 H   0  0  0  0  0  0
  -21.1051  -13.1252   22.2645 H   0  0  0  0  0  0
  -24.6656  -15.8421   20.5541 H   0  0  0  0  0  0
  -26.2909  -15.6207   20.1474 H   0  0  0  0  0  0
  -26.7234  -32.5346   23.1025 H   0  0  0  0  0  0
  -25.0075  -33.9650   25.0350 H   0  0  0  0  0  0
  -22.7398  -31.2903   21.3817 H   0  0  0  0  0  0
  -23.3743  -35.9614   23.3337 H   0  0  0  0  0  0
  -24.3564  -36.8863   22.2051 H   0  0  0  0  0  0
  -23.7266  -37.6485   23.6655 H   0  0  0  0  0  0
  -26.1396  -31.4890   20.6108 H   0  0  0  0  0  0
  -26.8635  -30.7883   22.0243 H   0  0  0  0  0  0
  -28.1287  -28.8505   21.2363 H   0  0  0  0  0  0
  -25.9831  -25.8629   18.9946 H   0  0  0  0  0  0
  -23.9922  -27.2906   18.9834 H   0  0  0  0  0  0
  -23.7980  -30.5655   19.3975 H   0  0  0  0  0  0
  -22.7816  -29.2304   19.8472 H   0  0  0  0  0  0
  -25.1315  -36.1888   25.0812 H   0  0  0  0  0  0
  -20.9998  -28.3297   24.1372 H   0  0  0  0  0  0
  -20.5680  -26.2322   23.3621 H   0  0  0  0  0  0
  -21.6650  -26.7433   22.1203 H   0  0  0  0  0  0
  -19.6919  -25.6288   21.1254 H   0  0  0  0  0  0
  -19.6696  -27.3182   20.6736 H   0  0  0  0  0  0
  -17.4207  -26.6676   21.4029 H   0  0  0  0  0  0
  -18.0339  -26.0079   22.9027 H   0  0  0  0  0  0
  -19.7947  -30.7286   24.2246 H   0  0  0  0  0  0
  -17.5024  -31.6270   24.5166 H   0  0  0  0  0  0
  -15.5361  -30.2984   23.7668 H   0  0  0  0  0  0
  -15.8683  -28.0818   22.7081 H   0  0  0  0  0  0
  -24.5903  -30.7084   25.7744 H   0  0  0  0  0  0
  -24.8889  -32.2928   26.4791 H   0  0  0  0  0  0
  -25.8010  -30.8967   27.0228 H   0  0  0  0  0  0
  -26.2994  -29.6704   24.1274 H   0  0  0  0  0  0
  -27.4018  -29.7277   25.4825 H   0  0  0  0  0  0
  -27.8890  -30.4236   23.9564 H   0  0  0  0  0  0
  -27.2635  -33.3661   26.2025 H   0  0  0  0  0  0
  -28.3883  -32.6880   25.0348 H   0  0  0  0  0  0
  -28.0685  -31.8507   26.5460 H   0  0  0  0  0  0
  -28.2617  -38.0068   24.7470 H   0  0  0  0  0  0
  -28.1039  -36.2594   24.6368 H   0  0  0  0  0  0
  -27.2278  -37.1532   25.8875 H   0  0  0  0  0  0
  -20.9439  -29.8750   21.6806 H   0  0  0  0  0  0
  -26.0169  -38.2829   24.1365 H   0  0  0  0  0  0
  -28.8784  -21.9762   22.4221 H   0  0  0  0  0  0
  -29.3214  -19.5755   22.6159 H   0  0  0  0  0  0
  -27.8886  -16.3132   19.4368 H   0  0  0  0  0  0
  -29.0211  -15.4212   18.3965 H   0  0  0  0  0  0
  -29.1080  -17.1349   18.5033 H   0  0  0  0  0  0
  -29.5288  -24.0278   19.1725 H   0  0  0  0  0  0
  -29.9323  -24.1421   20.8460 H   0  0  0  0  0  0
  -29.1334  -17.5470   21.0300 H   0  0  0  0  0  0
  -30.7621  -17.6874   19.8743 H   0  0  0  0  0  0
  -27.6918  -24.6964   21.3614 H   0  0  0  0  0  0
  1 25  1  0  0  0
  1 30  2  0  0  0
  1 81  1  0  0  0
  2  3  1  0  0  0
  2 25  1  0  0  0
  2 84  1  0  0  0
  2 85  1  0  0  0
  3  4  1  0  0  0
  3 86  1  0  0  0
  3 87  1  0  0  0
  4  5  1  0  0  0
  4 88  1  0  0  0
  4 89  1  0  0  0
  5  6  1  0  0  0
  5 26  1  0  0  0
  5 90  1  0  0  0
  6 25  1  0  0  0
  6 91  1  0  0  0
  6 92  1  0  0  0
  7  8  2  0  0  0
  7 26  1  0  0  0
  7 29  1  0  0  0
  8  9  1  0  0  0
  8 22  1  0  0  0
  9 10  1  0  0  0
  9 27  2  0  0  0
 10 11  2  0  0  0
 10 15  1  0  0  0
 11 12  1  0  0  0
 11 93  1  0  0  0
 12 13  2  0  0  0
 12 94  1  0  0  0
 13 14  1  0  0  0
 13 31  1  0  0  0
 14 15  2  0  0  0
 14 95  1  0  0  0
 15 96  1  0  0  0
 16 17  2  0  0  0
 16 21  1  0  0  0
 16 31  1  0  0  0
 17 18  1  0  0  0
 17 97  1  0  0  0
 18 19  2  0  0  0
 18 98  1  0  0  0
 19 20  1  0  0  0
 19 24  1  0  0  0
 20 21  2  0  0  0
 20 99  1  0  0  0
 21 23  1  0  0  0
 22 28  1  0  0  0
 22 32  2  0  0  0
 26 27  1  0  0  0
 28100  1  0  0  0
 28101  1  0  0  0
 29102  1  0  0  0
 29103  1  0  0  0
 33 34  1  0  0  0
 33 66  1  0  0  0
 33 70  2  0  0  0
 34 36  1  0  0  0
 34 59  1  0  0  0
 34104  1  0  0  0
 35 44  2  0  0  0
 35 45  1  0  0  0
 35 68  1  0  0  0
 36 56  1  0  0  0
 36105  1  0  0  0
 37 39  1  0  0  0
 37 47  1  0  0  0
 37 66  1  0  0  0
 37106  1  0  0  0
 38 43  2  0  0  0
 38 46  1  0  0  0
 38 47  1  0  0  0
 39 64  1  0  0  0
 39 67  2  0  0  0
 40 52  1  0  0  0
 40 53  2  0  0  0
 40 58  1  0  0  0
 41107  1  0  0  0
 41108  1  0  0  0
 41109  1  0  0  0
 41 48  1  0  0  0
 42 43  1  0  0  0
 42 66  1  0  0  0
 42110  1  0  0  0
 42111  1  0  0  0
 43 44  1  0  0  0
 44112  1  0  0  0
 45 46  2  0  0  0
 45113  1  0  0  0
 46114  1  0  0  0
 47115  1  0  0  0
 47116  1  0  0  0
 48 56  1  0  0  0
 48 65  1  0  0  0
 48117  1  0  0  0
 49 50  1  0  0  0
 49 53  1  0  0  0
 49 64  1  0  0  0
 49118  1  0  0  0
 50 51  1  0  0  0
 50119  1  0  0  0
 50120  1  0  0  0
 51 52  1  0  0  0
 51121  1  0  0  0
 51122  1  0  0  0
 52123  1  0  0  0
 52124  1  0  0  0
 53 54  1  0  0  0
 54 55  2  0  0  0
 54125  1  0  0  0
 55 57  1  0  0  0
 55126  1  0  0  0
 56 69  2  0  0  0
 57 58  2  0  0  0
 57127  1  0  0  0
 58128  1  0  0  0
 59 60  1  0  0  0
 59 61  1  0  0  0
 59 62  1  0  0  0
 60129  1  0  0  0
 60130  1  0  0  0
 60131  1  0  0  0
 61132  1  0  0  0
 61133  1  0  0  0
 61134  1  0  0  0
 62135  1  0  0  0
 62136  1  0  0  0
 62137  1  0  0  0
 63 65  1  0  0  0
 63138  1  0  0  0
 63139  1  0  0  0
 63140  1  0  0  0
 64141  1  0  0  0
 65142  1  0  0  0
 68 80  1  0  0  0
 71 72  2  0  0  0
 71 73  1  0  0  0
 71143  1  0  0  0
 72 74  1  0  0  0
 72144  1  0  0  0
 73 75  2  0  0  0
 73 78  1  0  0  0
 74 76  2  0  0  0
 74 79  1  0  0  0
 75 76  1  0  0  0
 75 82  1  0  0  0
 76 83  1  0  0  0
 77 81  1  0  0  0
 77145  1  0  0  0
 77146  1  0  0  0
 77147  1  0  0  0
 78 80  1  0  0  0
 78148  1  0  0  0
 78149  1  0  0  0
 79 81  1  0  0  0
 79150  1  0  0  0
 79151  1  0  0  0
 80152  1  0  0  0
M  ISO  4   1 100  68 101  80 101  81 100
M  END
> <chiral flag>
0

> <version>
0

> <s_m_source_file>
/data/baiqing/PycharmProjects/Reinvent-master-3.2/result/LINK_invent/BTK/process_docking_weight1_custom_product_contain_oxygen_bond_distance_aromatic_linkinvent_7_9_3/rearranged_h_0008.sdf

> <i_m_source_file_index>
26

> <r_mmod_Potential_Energy-OPLS-2005>
751.602966308594

> <r_mmod_Stretch_Energy-OPLS-2005>
203.241577148438

> <r_mmod_Bend_Energy-OPLS-2005>
419.837799072266

> <r_mmod_Torsional_Energy-OPLS-2005>
288.127899169922

> <r_mmod_Improper_Torsional_Energy-OPLS-2005>
8.9148588180542

> <r_mmod_Van_der_Waal_Energy-OPLS-2005>
149.696304321289

> <r_mmod_Electrostatic_Energy-OPLS-2005>
-283.439910888672

> <r_mmod_Solvation_Energy-OPLS-2005>
-203.498001098633

> <b_mmod_Minimization_Converged-OPLS-2005>
0

> <r_mmod_RMS_Derivative-OPLS-2005>
0.654808402061462

$$$$
26
                    3D
 Structure written by MMmdl.
149157  0  0  1  0            999 V2000
  -30.5753  -14.8929   20.4311 C   0  0  0  0  0  0
  -30.4316  -12.5527   19.4956 C   0  0  0  0  0  0
  -29.5160  -12.5197   18.2514 C   0  0  0  0  0  0
  -28.0476  -12.3167   18.6689 C   0  0  0  0  0  0
  -27.6294  -13.2463   19.8390 C   0  0  2  0  0  0
  -28.6713  -13.2629   20.9773 C   0  0  0  0  0  0
  -25.2454  -13.8216   20.5713 C   0  0  0  0  0  0
  -24.1770  -13.0438   20.9227 C   0  0  0  0  0  0
  -24.6387  -11.6924   20.8758 C   0  0  0  0  0  0
  -23.9074  -10.4291   21.0411 C   0  0  0  0  0  0
  -24.3623   -9.4205   21.9187 C   0  0  0  0  0  0
  -23.6297   -8.2242   22.0756 C   0  0  0  0  0  0
  -22.4278   -8.0282   21.3546 C   0  0  0  0  0  0
  -21.9916   -9.0257   20.4647 C   0  0  0  0  0  0
  -22.7247  -10.2135   20.3057 C   0  0  0  0  0  0
  -21.6855   -6.0736   22.5280 C   0  0  0  0  0  0
  -21.4018   -6.5640   23.8213 C   0  0  0  0  0  0
  -21.3659   -5.6792   24.9175 C   0  0  0  0  0  0
  -21.6044   -4.3055   24.7225 C   0  0  0  0  0  0
  -21.8817   -3.8147   23.4346 C   0  0  0  0  0  0
  -21.9193   -4.6964   22.3403 C   0  0  0  0  0  0
  -22.7791  -13.5212   21.1879 C   0  0  0  0  0  0
  -22.1658   -4.2150   21.0979 F   0  0  0  0  0  0
  -21.5627   -3.4537   25.7737 F   0  0  0  0  0  0
  -29.9525  -13.6523   20.3786 N   0  0  0  0  0  0
  -26.2878  -12.9449   20.3247 N   0  0  0  0  0  0
  -25.9316  -11.6578   20.5741 N   0  0  0  0  0  0
  -22.0441  -12.8203   22.0437 N   0  0  0  0  0  0
  -25.4110  -15.1947   20.4140 N   0  0  0  0  0  0
  -31.7799  -14.9357   20.1618 O   0  0  0  0  0  0
  -21.6641   -6.8881   21.4242 O   0  0  0  0  0  0
  -22.3477  -14.5513   20.6718 O   0  0  0  0  0  0
  -24.6394  -31.8466   23.1910 C   0  0  0  0  0  0
  -25.9185  -32.4708   23.8285 C   0  0  1  0  0  0
  -27.2164  -27.1620   20.1562 C   0  0  0  0  0  0
  -25.5946  -33.8515   24.2203 N   0  0  0  0  0  0
  -23.4417  -30.4655   21.5349 C   0  0  2  0  0  0
  -24.8916  -28.8910   20.1143 C   0  0  0  0  0  0
  -22.7542  -29.4558   22.4872 C   0  0  0  0  0  0
  -18.0300  -28.1394   22.8474 C   0  0  0  0  0  0
  -24.1492  -36.7263   23.2641 C   0  0  0  0  0  0
  -25.9946  -30.7254   21.3890 C   0  0  0  0  0  0
  -26.0645  -29.3359   20.7387 C   0  0  0  0  0  0
  -27.2268  -28.4826   20.7508 C   0  0  0  0  0  0
  -26.0255  -26.8124   19.4861 C   0  0  0  0  0  0
  -24.8818  -27.6405   19.4763 C   0  0  0  0  0  0
  -23.6683  -29.7925   20.1543 C   0  0  0  0  0  0
  -25.4123  -36.3042   24.0316 C   0  0  1  0  0  0
  -20.5908  -28.3716   23.1242 C   0  0  2  0  0  0
  -20.6786  -26.9422   22.5403 C   0  0  0  0  0  0
  -19.5760  -26.6380   21.5210 C   0  0  0  0  0  0
  -18.1941  -26.7931   22.1619 C   0  0  0  0  0  0
  -19.1555  -28.8871   23.2850 C   0  0  0  0  0  0
  -18.9474  -30.1467   23.8876 C   0  0  0  0  0  0
  -17.6472  -30.6589   24.0559 C   0  0  0  0  0  0
  -25.9068  -34.9415   23.5066 C   0  0  0  0  0  0
  -16.5362  -29.9083   23.6337 C   0  0  0  0  0  0
  -16.7285  -28.6502   23.0355 C   0  0  0  0  0  0
  -26.4522  -31.6571   25.0716 C   0  0  0  0  0  0
  -25.3715  -31.3753   26.1415 C   0  0  0  0  0  0
  -27.0391  -30.2970   24.6286 C   0  0  0  0  0  0
  -27.6050  -32.4339   25.7502 C   0  0  0  0  0  0
  -27.5577  -37.1788   24.8466 C   0  0  0  0  0  0
  -21.4240  -29.3045   22.3618 N   0  0  0  0  0  0
  -26.4291  -37.3750   23.9406 N   0  0  0  0  0  0
  -24.7111  -31.0338   22.0936 N   0  0  0  0  0  0
  -23.4198  -28.8108   23.3018 O   0  0  0  0  0  0
  -28.2923  -26.2148   20.1576 O   0  0  0  0  0  0
  -26.5650  -34.8908   22.4643 O   0  0  0  0  0  0
  -23.5522  -32.1339   23.7144 O   0  0  0  0  0  0
  -28.9557  -19.6429   19.4118 C   0  0  0  0  0  0
  -28.6446  -21.0623   19.3178 C   0  0  0  0  0  0
  -29.6674  -19.0405   20.5024 C   0  0  0  0  0  0
  -29.0066  -22.0526   20.2965 C   0  0  0  0  0  0
  -29.9613  -20.0197   21.5158 C   0  0  0  0  0  0
  -29.6523  -21.4378   21.4200 C   0  0  0  0  0  0
  -30.3959  -17.5592   20.4754 C   0  0  0  0  0  0
  -28.9746  -23.6800   20.0226 C   0  0  0  0  0  0
  -29.8435  -16.0976   20.5703 N   0  0  0  0  0  0
  -27.9250  -24.7105   20.4848 N   0  0  0  0  0  0
  -30.6505  -19.6084   22.6072 F   0  0  0  0  0  0
  -30.0767  -22.2433   22.4232 F   0  0  0  0  0  0
  -31.4690  -12.6930   19.1881 H   0  0  0  0  0  0
  -30.4058  -11.5980   20.0232 H   0  0  0  0  0  0
  -29.8271  -11.7250   17.5726 H   0  0  0  0  0  0
  -29.6146  -13.4541   17.6964 H   0  0  0  0  0  0
  -27.9359  -11.2747   18.9702 H   0  0  0  0  0  0
  -27.3860  -12.4586   17.8135 H   0  0  0  0  0  0
  -27.5976  -14.2513   19.4173 H   0  0  0  0  0  0
  -28.7442  -12.2867   21.4593 H   0  0  0  0  0  0
  -28.3812  -13.9723   21.7539 H   0  0  0  0  0  0
  -25.2765   -9.5682   22.4764 H   0  0  0  0  0  0
  -24.0003   -7.4634   22.7479 H   0  0  0  0  0  0
  -21.0845   -8.8778   19.8957 H   0  0  0  0  0  0
  -22.3703  -10.9676   19.6168 H   0  0  0  0  0  0
  -21.2013   -7.6148   23.9718 H   0  0  0  0  0  0
  -21.1483   -6.0522   25.9079 H   0  0  0  0  0  0
  -22.0596   -2.7610   23.2843 H   0  0  0  0  0  0
  -22.4061  -11.9872   22.4839 H   0  0  0  0  0  0
  -21.1056  -13.1226   22.2641 H   0  0  0  0  0  0
  -24.6394  -15.8434   20.5262 H   0  0  0  0  0  0
  -26.2520  -15.6386   20.0684 H   0  0  0  0  0  0
  -26.7247  -32.5328   23.1011 H   0  0  0  0  0  0
  -25.0081  -33.9637   25.0342 H   0  0  0  0  0  0
  -22.7431  -31.2906   21.3807 H   0  0  0  0  0  0
  -23.3758  -35.9591   23.3296 H   0  0  0  0  0  0
  -24.3575  -36.8903   22.2058 H   0  0  0  0  0  0
  -23.7245  -37.6456   23.6683 H   0  0  0  0  0  0
  -26.1464  -31.4776   20.6136 H   0  0  0  0  0  0
  -26.8667  -30.7787   22.0289 H   0  0  0  0  0  0
  -28.1249  -28.8175   21.2504 H   0  0  0  0  0  0
  -25.9630  -25.8615   18.9777 H   0  0  0  0  0  0
  -23.9883  -27.2980   18.9727 H   0  0  0  0  0  0
  -23.8056  -30.5663   19.3983 H   0  0  0  0  0  0
  -22.7839  -29.2336   19.8434 H   0  0  0  0  0  0
  -25.1312  -36.1873   25.0808 H   0  0  0  0  0  0
  -20.9999  -28.3306   24.1364 H   0  0  0  0  0  0
  -20.5679  -26.2326   23.3620 H   0  0  0  0  0  0
  -21.6651  -26.7431   22.1203 H   0  0  0  0  0  0
  -19.6922  -25.6285   21.1254 H   0  0  0  0  0  0
  -19.6702  -27.3178   20.6730 H   0  0  0  0  0  0
  -17.4210  -26.6673   21.4024 H   0  0  0  0  0  0
  -18.0343  -26.0078   22.9022 H   0  0  0  0  0  0
  -19.7951  -30.7288   24.2234 H   0  0  0  0  0  0
  -17.5027  -31.6268   24.5164 H   0  0  0  0  0  0
  -15.5362  -30.2979   23.7672 H   0  0  0  0  0  0
  -15.8685  -28.0815   22.7082 H   0  0  0  0  0  0
  -24.5896  -30.7099   25.7740 H   0  0  0  0  0  0
  -24.8900  -32.2932   26.4796 H   0  0  0  0  0  0
  -25.8003  -30.8958   27.0222 H   0  0  0  0  0  0
  -26.3005  -29.6688   24.1292 H   0  0  0  0  0  0
  -27.4011  -29.7274   25.4858 H   0  0  0  0  0  0
  -27.8910  -30.4215   23.9596 H   0  0  0  0  0  0
  -27.2637  -33.3653   26.2031 H   0  0  0  0  0  0
  -28.3886  -32.6878   25.0352 H   0  0  0  0  0  0
  -28.0689  -31.8498   26.5461 H   0  0  0  0  0  0
  -28.2588  -38.0091   24.7507 H   0  0  0  0  0  0
  -28.1077  -36.2618   24.6298 H   0  0  0  0  0  0
  -27.2289  -37.1443   25.8867 H   0  0  0  0  0  0
  -20.9447  -29.8755   21.6799 H   0  0  0  0  0  0
  -26.0159  -38.2819   24.1409 H   0  0  0  0  0  0
  -28.7119  -19.0185   18.5636 H   0  0  0  0  0  0
  -28.1786  -21.4081   18.4054 H   0  0  0  0  0  0
  -31.1626  -17.6022   21.2496 H   0  0  0  0  0  0
  -30.9720  -17.5711   19.5492 H   0  0  0  0  0  0
  -29.0527  -23.7973   18.9414 H   0  0  0  0  0  0
  -29.9268  -24.0459   20.4074 H   0  0  0  0  0  0
  -28.8529  -16.0019   20.7333 H   0  0  0  0  0  0
  -27.0696  -24.5334   19.9682 H   0  0  0  0  0  0
  1 25  1  0  0  0
  1 30  2  0  0  0
  1 79  1  0  0  0
  2  3  1  0  0  0
  2 25  1  0  0  0
  2 83  1  0  0  0
  2 84  1  0  0  0
  3  4  1  0  0  0
  3 85  1  0  0  0
  3 86  1  0  0  0
  4  5  1  0  0  0
  4 87  1  0  0  0
  4 88  1  0  0  0
  5  6  1  0  0  0
  5 26  1  0  0  0
  5 89  1  0  0  0
  6 25  1  0  0  0
  6 90  1  0  0  0
  6 91  1  0  0  0
  7  8  2  0  0  0
  7 26  1  0  0  0
  7 29  1  0  0  0
  8  9  1  0  0  0
  8 22  1  0  0  0
  9 10  1  0  0  0
  9 27  2  0  0  0
 10 11  2  0  0  0
 10 15  1  0  0  0
 11 12  1  0  0  0
 11 92  1  0  0  0
 12 13  2  0  0  0
 12 93  1  0  0  0
 13 14  1  0  0  0
 13 31  1  0  0  0
 14 15  2  0  0  0
 14 94  1  0  0  0
 15 95  1  0  0  0
 16 17  2  0  0  0
 16 21  1  0  0  0
 16 31  1  0  0  0
 17 18  1  0  0  0
 17 96  1  0  0  0
 18 19  2  0  0  0
 18 97  1  0  0  0
 19 20  1  0  0  0
 19 24  1  0  0  0
 20 21  2  0  0  0
 20 98  1  0  0  0
 21 23  1  0  0  0
 22 28  1  0  0  0
 22 32  2  0  0  0
 26 27  1  0  0  0
 28 99  1  0  0  0
 28100  1  0  0  0
 29101  1  0  0  0
 29102  1  0  0  0
 33 34  1  0  0  0
 33 66  1  0  0  0
 33 70  2  0  0  0
 34 36  1  0  0  0
 34 59  1  0  0  0
 34103  1  0  0  0
 35 44  2  0  0  0
 35 45  1  0  0  0
 35 68  1  0  0  0
 36 56  1  0  0  0
 36104  1  0  0  0
 37 39  1  0  0  0
 37 47  1  0  0  0
 37 66  1  0  0  0
 37105  1  0  0  0
 38 43  2  0  0  0
 38 46  1  0  0  0
 38 47  1  0  0  0
 39 64  1  0  0  0
 39 67  2  0  0  0
 40 52  1  0  0  0
 40 53  2  0  0  0
 40 58  1  0  0  0
 41106  1  0  0  0
 41107  1  0  0  0
 41108  1  0  0  0
 41 48  1  0  0  0
 42 43  1  0  0  0
 42 66  1  0  0  0
 42109  1  0  0  0
 42110  1  0  0  0
 43 44  1  0  0  0
 44111  1  0  0  0
 45 46  2  0  0  0
 45112  1  0  0  0
 46113  1  0  0  0
 47114  1  0  0  0
 47115  1  0  0  0
 48 56  1  0  0  0
 48 65  1  0  0  0
 48116  1  0  0  0
 49 50  1  0  0  0
 49 53  1  0  0  0
 49 64  1  0  0  0
 49117  1  0  0  0
 50 51  1  0  0  0
 50118  1  0  0  0
 50119  1  0  0  0
 51 52  1  0  0  0
 51120  1  0  0  0
 51121  1  0  0  0
 52122  1  0  0  0
 52123  1  0  0  0
 53 54  1  0  0  0
 54 55  2  0  0  0
 54124  1  0  0  0
 55 57  1  0  0  0
 55125  1  0  0  0
 56 69  2  0  0  0
 57 58  2  0  0  0
 57126  1  0  0  0
 58127  1  0  0  0
 59 60  1  0  0  0
 59 61  1  0  0  0
 59 62  1  0  0  0
 60128  1  0  0  0
 60129  1  0  0  0
 60130  1  0  0  0
 61131  1  0  0  0
 61132  1  0  0  0
 61133  1  0  0  0
 62134  1  0  0  0
 62135  1  0  0  0
 62136  1  0  0  0
 63 65  1  0  0  0
 63137  1  0  0  0
 63138  1  0  0  0
 63139  1  0  0  0
 64140  1  0  0  0
 65141  1  0  0  0
 68 80  1  0  0  0
 71 72  2  0  0  0
 71 73  1  0  0  0
 71142  1  0  0  0
 72 74  1  0  0  0
 72143  1  0  0  0
 73 75  2  0  0  0
 73 77  1  0  0  0
 74 76  2  0  0  0
 74 78  1  0  0  0
 75 76  1  0  0  0
 75 81  1  0  0  0
 76 82  1  0  0  0
 77 79  1  0  0  0
 77144  1  0  0  0
 77145  1  0  0  0
 78 80  1  0  0  0
 78146  1  0  0  0
 78147  1  0  0  0
 79148  1  0  0  0
 80149  1  0  0  0
M  ISO  4   1 100  68 101  79 100  80 101
M  END
> <chiral flag>
0

> <version>
0

> <s_m_source_file>
/data/baiqing/PycharmProjects/Reinvent-master-3.2/result/LINK_invent/BTK/process_docking_weight1_custom_product_contain_oxygen_bond_distance_aromatic_linkinvent_7_9_3/rearranged_h_0008.sdf

> <i_m_source_file_index>
27

> <r_mmod_Potential_Energy-OPLS-2005>
382.318817138672

> <r_mmod_Stretch_Energy-OPLS-2005>
203.873550415039

> <r_mmod_Bend_Energy-OPLS-2005>
237.380813598633

> <r_mmod_Torsional_Energy-OPLS-2005>
226.825180053711

> <r_mmod_Improper_Torsional_Energy-OPLS-2005>
9.26663208007812

> <r_mmod_Van_der_Waal_Energy-OPLS-2005>
132.012680053711

> <r_mmod_Electrostatic_Energy-OPLS-2005>
-367.331634521484

> <r_mmod_Solvation_Energy-OPLS-2005>
-218.338668823242

> <b_mmod_Minimization_Converged-OPLS-2005>
0

> <r_mmod_RMS_Derivative-OPLS-2005>
0.558604717254639

$$$$
27
                    3D
 Structure written by MMmdl.
158167  0  0  1  0            999 V2000
  -30.6443  -14.8284   20.4329 C   0  0  0  0  0  0
  -30.4192  -12.5092   19.5008 C   0  0  0  0  0  0
  -29.5110  -12.5078   18.2532 C   0  0  0  0  0  0
  -28.0419  -12.3155   18.6674 C   0  0  0  0  0  0
  -27.6275  -13.2495   19.8346 C   0  0  2  0  0  0
  -28.6683  -13.2800   20.9721 C   0  0  0  0  0  0
  -25.2469  -13.8233   20.5726 C   0  0  0  0  0  0
  -24.1777  -13.0448   20.9230 C   0  0  0  0  0  0
  -24.6393  -11.6935   20.8758 C   0  0  0  0  0  0
  -23.9085  -10.4301   21.0414 C   0  0  0  0  0  0
  -24.3625   -9.4219   21.9196 C   0  0  0  0  0  0
  -23.6298   -8.2250   22.0756 C   0  0  0  0  0  0
  -22.4282   -8.0284   21.3544 C   0  0  0  0  0  0
  -21.9927   -9.0263   20.4651 C   0  0  0  0  0  0
  -22.7256  -10.2143   20.3069 C   0  0  0  0  0  0
  -21.6857   -6.0744   22.5280 C   0  0  0  0  0  0
  -21.4021   -6.5646   23.8216 C   0  0  0  0  0  0
  -21.3666   -5.6796   24.9175 C   0  0  0  0  0  0
  -21.6042   -4.3056   24.7225 C   0  0  0  0  0  0
  -21.8817   -3.8151   23.4344 C   0  0  0  0  0  0
  -21.9202   -4.6972   22.3404 C   0  0  0  0  0  0
  -22.7801  -13.5227   21.1886 C   0  0  0  0  0  0
  -22.1660   -4.2158   21.0977 F   0  0  0  0  0  0
  -21.5636   -3.4541   25.7740 F   0  0  0  0  0  0
  -29.9658  -13.6198   20.3822 N   0  0  0  0  0  0
  -26.2880  -12.9465   20.3246 N   0  0  0  0  0  0
  -25.9328  -11.6595   20.5754 N   0  0  0  0  0  0
  -22.0430  -12.8218   22.0426 N   0  0  0  0  0  0
  -25.4176  -15.1962   20.4198 N   0  0  0  0  0  0
  -31.8470  -14.8044   20.1599 O   0  0  0  0  0  0
  -21.6640   -6.8881   21.4238 O   0  0  0  0  0  0
  -22.3490  -14.5528   20.6729 O   0  0  0  0  0  0
  -24.6371  -31.8495   23.1926 C   0  0  0  0  0  0
  -25.9170  -32.4718   23.8296 C   0  0  1  0  0  0
  -27.2114  -27.1967   20.1389 C   0  0  0  0  0  0
  -25.5929  -33.8524   24.2215 N   0  0  0  0  0  0
  -23.4365  -30.4708   21.5386 C   0  0  2  0  0  0
  -24.8827  -28.9105   20.1105 C   0  0  0  0  0  0
  -22.7527  -29.4577   22.4902 C   0  0  0  0  0  0
  -18.0286  -28.1387   22.8474 C   0  0  0  0  0  0
  -24.1492  -36.7264   23.2645 C   0  0  0  0  0  0
  -25.9886  -30.7451   21.3807 C   0  0  0  0  0  0
  -26.0600  -29.3630   20.7196 C   0  0  0  0  0  0
  -27.2285  -28.5218   20.7170 C   0  0  0  0  0  0
  -26.0074  -26.8330   19.4947 C   0  0  0  0  0  0
  -24.8656  -27.6574   19.4844 C   0  0  0  0  0  0
  -23.6552  -29.8022   20.1569 C   0  0  0  0  0  0
  -25.4124  -36.3051   24.0326 C   0  0  1  0  0  0
  -20.5897  -28.3696   23.1253 C   0  0  2  0  0  0
  -20.6774  -26.9409   22.5400 C   0  0  0  0  0  0
  -19.5747  -26.6376   21.5205 C   0  0  0  0  0  0
  -18.1927  -26.7925   22.1623 C   0  0  0  0  0  0
  -19.1544  -28.8863   23.2851 C   0  0  0  0  0  0
  -18.9467  -30.1467   23.8864 C   0  0  0  0  0  0
  -17.6464  -30.6587   24.0553 C   0  0  0  0  0  0
  -25.9068  -34.9421   23.5083 C   0  0  0  0  0  0
  -16.5353  -29.9077   23.6347 C   0  0  0  0  0  0
  -16.7272  -28.6499   23.0360 C   0  0  0  0  0  0
  -26.4497  -31.6566   25.0722 C   0  0  0  0  0  0
  -25.3693  -31.3749   26.1429 C   0  0  0  0  0  0
  -27.0349  -30.2965   24.6271 C   0  0  0  0  0  0
  -27.6036  -32.4320   25.7496 C   0  0  0  0  0  0
  -27.5579  -37.1787   24.8466 C   0  0  0  0  0  0
  -21.4228  -29.3038   22.3643 N   0  0  0  0  0  0
  -26.4292  -37.3760   23.9408 N   0  0  0  0  0  0
  -24.7067  -31.0409   22.0930 N   0  0  0  0  0  0
  -23.4200  -28.8131   23.3033 O   0  0  0  0  0  0
  -28.2782  -26.2469   20.2011 O   0  0  0  0  0  0
  -26.5655  -34.8907   22.4661 O   0  0  0  0  0  0
  -23.5503  -32.1342   23.7188 O   0  0  0  0  0  0
  -29.1739  -16.8864   19.5859 C   0  0  0  0  0  0
  -30.3044  -18.6753   21.3763 C   0  0  0  0  0  0
  -30.0306  -16.2846   20.5641 C   0  0  0  0  0  0
  -29.5131  -19.2904   20.3557 C   0  0  0  0  0  0
  -30.5625  -17.2570   21.4732 C   0  0  0  0  0  0
  -28.9283  -18.3117   19.4806 C   0  0  0  0  0  0
  -28.9929  -23.0452   22.7495 C   0  0  0  0  0  0
  -29.8174  -23.7989   21.7056 C   0  0  0  0  0  0
  -28.3250  -21.8780   21.9995 C   0  0  0  0  0  0
  -29.0803  -23.5322   20.3902 C   0  0  2  0  0  0
  -29.5780  -20.8971   20.0469 C   0  0  0  0  0  0
  -27.9764  -24.7412   20.1433 C   0  0  0  0  0  0
  -28.6322  -22.0332   20.5553 N   0  3  1  0  0  0
  -31.4120  -16.8463   22.4456 F   0  0  0  0  0  0
  -27.9580  -18.8541   18.1601 Cl  0  0  0  0  0  0
  -31.4613  -12.6116   19.1952 H   0  0  0  0  0  0
  -30.3586  -11.5549   20.0260 H   0  0  0  0  0  0
  -29.8111  -11.7171   17.5646 H   0  0  0  0  0  0
  -29.6254  -13.4485   17.7129 H   0  0  0  0  0  0
  -27.9223  -11.2740   18.9682 H   0  0  0  0  0  0
  -27.3816  -12.4610   17.8120 H   0  0  0  0  0  0
  -27.5923  -14.2515   19.4082 H   0  0  0  0  0  0
  -28.7174  -12.3186   21.4855 H   0  0  0  0  0  0
  -28.3897  -14.0228   21.7222 H   0  0  0  0  0  0
  -25.2756   -9.5703   22.4791 H   0  0  0  0  0  0
  -24.0021   -7.4639   22.7467 H   0  0  0  0  0  0
  -21.0870   -8.8780   19.8944 H   0  0  0  0  0  0
  -22.3706  -10.9690   19.6190 H   0  0  0  0  0  0
  -21.1994   -7.6150   23.9723 H   0  0  0  0  0  0
  -21.1496   -6.0517   25.9080 H   0  0  0  0  0  0
  -22.0590   -2.7614   23.2837 H   0  0  0  0  0  0
  -22.4024  -11.9894   22.4868 H   0  0  0  0  0  0
  -21.1043  -13.1259   22.2582 H   0  0  0  0  0  0
  -24.6574  -15.8539   20.5530 H   0  0  0  0  0  0
  -26.2784  -15.6420   20.1295 H   0  0  0  0  0  0
  -26.7241  -32.5343   23.1035 H   0  0  0  0  0  0
  -25.0029  -33.9646   25.0329 H   0  0  0  0  0  0
  -22.7364  -31.2950   21.3879 H   0  0  0  0  0  0
  -23.3759  -35.9589   23.3296 H   0  0  0  0  0  0
  -24.3585  -36.8905   22.2063 H   0  0  0  0  0  0
  -23.7235  -37.6458   23.6675 H   0  0  0  0  0  0
  -26.1383  -31.5068   20.6132 H   0  0  0  0  0  0
  -26.8617  -30.7905   22.0210 H   0  0  0  0  0  0
  -28.1282  -28.8660   21.2086 H   0  0  0  0  0  0
  -25.9059  -25.8786   19.0027 H   0  0  0  0  0  0
  -23.9647  -27.3063   19.0006 H   0  0  0  0  0  0
  -23.7782  -30.5749   19.3966 H   0  0  0  0  0  0
  -22.7717  -29.2360   19.8554 H   0  0  0  0  0  0
  -25.1304  -36.1887   25.0819 H   0  0  0  0  0  0
  -20.9981  -28.3266   24.1377 H   0  0  0  0  0  0
  -20.5658  -26.2305   23.3606 H   0  0  0  0  0  0
  -21.6640  -26.7413   22.1202 H   0  0  0  0  0  0
  -19.6911  -25.6282   21.1241 H   0  0  0  0  0  0
  -19.6691  -27.3179   20.6729 H   0  0  0  0  0  0
  -17.4195  -26.6655   21.4031 H   0  0  0  0  0  0
  -18.0336  -26.0073   22.9030 H   0  0  0  0  0  0
  -19.7948  -30.7288   24.2214 H   0  0  0  0  0  0
  -17.5024  -31.6267   24.5151 H   0  0  0  0  0  0
  -15.5355  -30.2966   23.7707 H   0  0  0  0  0  0
  -15.8669  -28.0811   22.7101 H   0  0  0  0  0  0
  -24.5852  -30.7120   25.7748 H   0  0  0  0  0  0
  -24.8905  -32.2937   26.4828 H   0  0  0  0  0  0
  -25.7987  -30.8927   27.0221 H   0  0  0  0  0  0
  -26.2955  -29.6700   24.1272 H   0  0  0  0  0  0
  -27.3961  -29.7255   25.4834 H   0  0  0  0  0  0
  -27.8864  -30.4204   23.9579 H   0  0  0  0  0  0
  -27.2621  -33.3618   26.2052 H   0  0  0  0  0  0
  -28.3850  -32.6884   25.0330 H   0  0  0  0  0  0
  -28.0694  -31.8463   26.5428 H   0  0  0  0  0  0
  -28.2589  -38.0089   24.7514 H   0  0  0  0  0  0
  -28.1081  -36.2619   24.6288 H   0  0  0  0  0  0
  -27.2294  -37.1435   25.8870 H   0  0  0  0  0  0
  -20.9429  -29.8750   21.6826 H   0  0  0  0  0  0
  -26.0163  -38.2832   24.1410 H   0  0  0  0  0  0
  -28.7674  -16.2511   18.8132 H   0  0  0  0  0  0
  -30.8240  -19.3164   22.0730 H   0  0  0  0  0  0
  -28.2283  -23.7019   23.1686 H   0  0  0  0  0  0
  -29.6115  -22.6991   23.5787 H   0  0  0  0  0  0
  -30.8222  -23.3753   21.6594 H   0  0  0  0  0  0
  -29.9274  -24.8602   21.9364 H   0  0  0  0  0  0
  -27.2443  -21.9214   22.1391 H   0  0  0  0  0  0
  -28.6551  -20.9181   22.3982 H   0  0  0  0  0  0
  -29.7878  -23.5912   19.5622 H   0  0  0  0  0  0
  -29.6062  -21.0016   18.9619 H   0  0  0  0  0  0
  -30.5782  -21.1943   20.3620 H   0  0  0  0  0  0
  -27.1589  -24.5711   20.8454 H   0  0  0  0  0  0
  -27.5600  -24.5413   19.1577 H   0  0  0  0  0  0
  -27.7716  -21.8979   20.0433 H   0  0  0  0  0  0
  1 25  1  0  0  0
  1 30  2  0  0  0
  1 73  1  0  0  0
  2  3  1  0  0  0
  2 25  1  0  0  0
  2 86  1  0  0  0
  2 87  1  0  0  0
  3  4  1  0  0  0
  3 88  1  0  0  0
  3 89  1  0  0  0
  4  5  1  0  0  0
  4 90  1  0  0  0
  4 91  1  0  0  0
  5  6  1  0  0  0
  5 26  1  0  0  0
  5 92  1  0  0  0
  6 25  1  0  0  0
  6 93  1  0  0  0
  6 94  1  0  0  0
  7  8  2  0  0  0
  7 26  1  0  0  0
  7 29  1  0  0  0
  8  9  1  0  0  0
  8 22  1  0  0  0
  9 10  1  0  0  0
  9 27  2  0  0  0
 10 11  2  0  0  0
 10 15  1  0  0  0
 11 12  1  0  0  0
 11 95  1  0  0  0
 12 13  2  0  0  0
 12 96  1  0  0  0
 13 14  1  0  0  0
 13 31  1  0  0  0
 14 15  2  0  0  0
 14 97  1  0  0  0
 15 98  1  0  0  0
 16 17  2  0  0  0
 16 21  1  0  0  0
 16 31  1  0  0  0
 17 18  1  0  0  0
 17 99  1  0  0  0
 18 19  2  0  0  0
 18100  1  0  0  0
 19 20  1  0  0  0
 19 24  1  0  0  0
 20 21  2  0  0  0
 20101  1  0  0  0
 21 23  1  0  0  0
 22 28  1  0  0  0
 22 32  2  0  0  0
 26 27  1  0  0  0
 28102  1  0  0  0
 28103  1  0  0  0
 29104  1  0  0  0
 29105  1  0  0  0
 33 34  1  0  0  0
 33 66  1  0  0  0
 33 70  2  0  0  0
 34 36  1  0  0  0
 34 59  1  0  0  0
 34106  1  0  0  0
 35 44  2  0  0  0
 35 45  1  0  0  0
 35 68  1  0  0  0
 36 56  1  0  0  0
 36107  1  0  0  0
 37 39  1  0  0  0
 37 47  1  0  0  0
 37 66  1  0  0  0
 37108  1  0  0  0
 38 43  2  0  0  0
 38 46  1  0  0  0
 38 47  1  0  0  0
 39 64  1  0  0  0
 39 67  2  0  0  0
 40 52  1  0  0  0
 40 53  2  0  0  0
 40 58  1  0  0  0
 41109  1  0  0  0
 41110  1  0  0  0
 41111  1  0  0  0
 41 48  1  0  0  0
 42 43  1  0  0  0
 42 66  1  0  0  0
 42112  1  0  0  0
 42113  1  0  0  0
 43 44  1  0  0  0
 44114  1  0  0  0
 45 46  2  0  0  0
 45115  1  0  0  0
 46116  1  0  0  0
 47117  1  0  0  0
 47118  1  0  0  0
 48 56  1  0  0  0
 48 65  1  0  0  0
 48119  1  0  0  0
 49 50  1  0  0  0
 49 53  1  0  0  0
 49 64  1  0  0  0
 49120  1  0  0  0
 50 51  1  0  0  0
 50121  1  0  0  0
 50122  1  0  0  0
 51 52  1  0  0  0
 51123  1  0  0  0
 51124  1  0  0  0
 52125  1  0  0  0
 52126  1  0  0  0
 53 54  1  0  0  0
 54 55  2  0  0  0
 54127  1  0  0  0
 55 57  1  0  0  0
 55128  1  0  0  0
 56 69  2  0  0  0
 57 58  2  0  0  0
 57129  1  0  0  0
 58130  1  0  0  0
 59 60  1  0  0  0
 59 61  1  0  0  0
 59 62  1  0  0  0
 60131  1  0  0  0
 60132  1  0  0  0
 60133  1  0  0  0
 61134  1  0  0  0
 61135  1  0  0  0
 61136  1  0  0  0
 62137  1  0  0  0
 62138  1  0  0  0
 62139  1  0  0  0
 63 65  1  0  0  0
 63140  1  0  0  0
 63141  1  0  0  0
 63142  1  0  0  0
 64143  1  0  0  0
 65144  1  0  0  0
 68 82  1  0  0  0
 71 73  2  0  0  0
 71 76  1  0  0  0
 71145  1  0  0  0
 72 74  1  0  0  0
 72 75  2  0  0  0
 72146  1  0  0  0
 73 75  1  0  0  0
 74 76  2  0  0  0
 74 81  1  0  0  0
 75 84  1  0  0  0
 76 85  1  0  0  0
 77 78  1  0  0  0
 77 79  1  0  0  0
 77147  1  0  0  0
 77148  1  0  0  0
 78 80  1  0  0  0
 78149  1  0  0  0
 78150  1  0  0  0
 79 83  1  0  0  0
 79151  1  0  0  0
 79152  1  0  0  0
 80 82  1  0  0  0
 80 83  1  0  0  0
 80153  1  0  0  0
 81154  1  0  0  0
 81155  1  0  0  0
 81 83  1  0  0  0
 82156  1  0  0  0
 82157  1  0  0  0
 83158  1  0  0  0
M  CHG  1  83   1
M  ISO  4   1 100  68 101  73 100  82 101
M  END
> <chiral flag>
0

> <version>
0

> <s_m_source_file>
/data/baiqing/PycharmProjects/Reinvent-master-3.2/result/LINK_invent/BTK/process_docking_weight1_custom_product_contain_oxygen_bond_distance_aromatic_linkinvent_7_9_3/rearranged_h_0008.sdf

> <i_m_source_file_index>
28

> <r_mmod_Potential_Energy-OPLS-2005>
355.759399414062

> <r_mmod_Stretch_Energy-OPLS-2005>
175.477462768555

> <r_mmod_Bend_Energy-OPLS-2005>
242.40168762207

> <r_mmod_Torsional_Energy-OPLS-2005>
290.9755859375

> <r_mmod_Improper_Torsional_Energy-OPLS-2005>
9.6582498550415

> <r_mmod_Van_der_Waal_Energy-OPLS-2005>
126.318939208984

> <r_mmod_Electrostatic_Energy-OPLS-2005>
-199.541397094727

> <r_mmod_Solvation_Energy-OPLS-2005>
-421.564575195312

> <b_mmod_Minimization_Converged-OPLS-2005>
0

> <r_mmod_RMS_Derivative-OPLS-2005>
1.53853797912598

$$$$
28
                    3D
 Structure written by MMmdl.
152160  0  0  1  0            999 V2000
  -30.5165  -14.8989   20.4388 C   0  0  0  0  0  0
  -30.4560  -12.5540   19.4863 C   0  0  0  0  0  0
  -29.5258  -12.5290   18.2492 C   0  0  0  0  0  0
  -28.0551  -12.3209   18.6634 C   0  0  0  0  0  0
  -27.6392  -13.2341   19.8454 C   0  0  2  0  0  0
  -28.6847  -13.2061   20.9820 C   0  0  0  0  0  0
  -25.2504  -13.8174   20.5683 C   0  0  0  0  0  0
  -24.1808  -13.0425   20.9234 C   0  0  0  0  0  0
  -24.6402  -11.6905   20.8757 C   0  0  0  0  0  0
  -23.9075  -10.4285   21.0411 C   0  0  0  0  0  0
  -24.3621   -9.4199   21.9186 C   0  0  0  0  0  0
  -23.6293   -8.2237   22.0755 C   0  0  0  0  0  0
  -22.4275   -8.0278   21.3544 C   0  0  0  0  0  0
  -21.9913   -9.0254   20.4646 C   0  0  0  0  0  0
  -22.7247  -10.2131   20.3057 C   0  0  0  0  0  0
  -21.6851   -6.0735   22.5279 C   0  0  0  0  0  0
  -21.4014   -6.5639   23.8213 C   0  0  0  0  0  0
  -21.3659   -5.6791   24.9175 C   0  0  0  0  0  0
  -21.6043   -4.3054   24.7225 C   0  0  0  0  0  0
  -21.8819   -3.8146   23.4346 C   0  0  0  0  0  0
  -21.9193   -4.6962   22.3402 C   0  0  0  0  0  0
  -22.7828  -13.5212   21.1878 C   0  0  0  0  0  0
  -22.1659   -4.2149   21.0980 F   0  0  0  0  0  0
  -21.5629   -3.4537   25.7737 F   0  0  0  0  0  0
  -29.9703  -13.6209   20.4004 N   0  0  0  0  0  0
  -26.2927  -12.9383   20.3241 N   0  0  0  0  0  0
  -25.9331  -11.6528   20.5736 N   0  0  0  0  0  0
  -22.0465  -12.8209   22.0432 N   0  0  0  0  0  0
  -25.4168  -15.1891   20.4035 N   0  0  0  0  0  0
  -31.7077  -15.0414   20.1400 O   0  0  0  0  0  0
  -21.6637   -6.8877   21.4240 O   0  0  0  0  0  0
  -22.3516  -14.5512   20.6713 O   0  0  0  0  0  0
  -24.6417  -31.8465   23.1908 C   0  0  0  0  0  0
  -25.9198  -32.4709   23.8290 C   0  0  1  0  0  0
  -27.2210  -27.1590   20.1485 C   0  0  0  0  0  0
  -25.5952  -33.8514   24.2207 N   0  0  0  0  0  0
  -23.4442  -30.4667   21.5365 C   0  0  2  0  0  0
  -24.8937  -28.8979   20.1138 C   0  0  0  0  0  0
  -22.7560  -29.4559   22.4874 C   0  0  0  0  0  0
  -18.0302  -28.1395   22.8479 C   0  0  0  0  0  0
  -24.1490  -36.7262   23.2642 C   0  0  0  0  0  0
  -25.9993  -30.7278   21.3868 C   0  0  0  0  0  0
  -26.0713  -29.3408   20.7297 C   0  0  0  0  0  0
  -27.2367  -28.4882   20.7292 C   0  0  0  0  0  0
  -26.0173  -26.8174   19.4905 C   0  0  0  0  0  0
  -24.8785  -27.6486   19.4790 C   0  0  0  0  0  0
  -23.6698  -29.7974   20.1557 C   0  0  0  0  0  0
  -25.4122  -36.3041   24.0318 C   0  0  1  0  0  0
  -20.5916  -28.3720   23.1241 C   0  0  2  0  0  0
  -20.6788  -26.9426   22.5402 C   0  0  0  0  0  0
  -19.5759  -26.6382   21.5212 C   0  0  0  0  0  0
  -18.1941  -26.7934   22.1628 C   0  0  0  0  0  0
  -19.1560  -28.8876   23.2853 C   0  0  0  0  0  0
  -18.9476  -30.1471   23.8878 C   0  0  0  0  0  0
  -17.6472  -30.6592   24.0564 C   0  0  0  0  0  0
  -25.9070  -34.9416   23.5069 C   0  0  0  0  0  0
  -16.5363  -29.9086   23.6338 C   0  0  0  0  0  0
  -16.7286  -28.6506   23.0356 C   0  0  0  0  0  0
  -26.4525  -31.6569   25.0723 C   0  0  0  0  0  0
  -25.3713  -31.3751   26.1418 C   0  0  0  0  0  0
  -27.0389  -30.2970   24.6290 C   0  0  0  0  0  0
  -27.6055  -32.4333   25.7507 C   0  0  0  0  0  0
  -27.5575  -37.1789   24.8466 C   0  0  0  0  0  0
  -21.4254  -29.3048   22.3619 N   0  0  0  0  0  0
  -26.4287  -37.3751   23.9407 N   0  0  0  0  0  0
  -24.7148  -31.0339   22.0934 N   0  0  0  0  0  0
  -23.4211  -28.8102   23.3014 O   0  0  0  0  0  0
  -28.2865  -26.1917   20.1924 O   0  0  0  0  0  0
  -26.5652  -34.8907   22.4646 O   0  0  0  0  0  0
  -23.5539  -32.1330   23.7139 O   0  0  0  0  0  0
  -30.5610  -18.5156   20.5913 C   0  0  0  0  0  0
  -30.2843  -19.9557   20.6009 C   0  0  0  0  0  0
  -28.2500  -18.1002   20.4130 C   0  0  0  0  0  0
  -29.5424  -17.4991   20.5241 C   0  0  0  0  0  0
  -28.9681  -20.5456   20.5388 C   0  0  0  0  0  0
  -27.9696  -19.5160   20.4105 C   0  0  0  0  0  0
  -27.9687  -22.0548   22.1176 C   0  0  0  0  0  0
  -29.0338  -23.3608   20.2765 C   0  0  0  0  0  0
  -27.9861  -24.6770   20.3425 C   0  0  0  0  0  0
  -29.6233  -15.9752   20.6300 N   0  0  0  0  0  0
  -28.5781  -21.9657   20.7894 N   0  0  0  0  0  0
  -26.3024  -19.9657   20.2753 Cl  0  0  0  0  0  0
  -31.4869  -12.7301   19.1746 H   0  0  0  0  0  0
  -30.4568  -11.5870   19.9921 H   0  0  0  0  0  0
  -29.8357  -11.7431   17.5589 H   0  0  0  0  0  0
  -29.6206  -13.4695   17.7041 H   0  0  0  0  0  0
  -27.9389  -11.2750   18.9495 H   0  0  0  0  0  0
  -27.3943  -12.4779   17.8101 H   0  0  0  0  0  0
  -27.6169  -14.2463   19.4413 H   0  0  0  0  0  0
  -28.7593  -12.2084   21.4173 H   0  0  0  0  0  0
  -28.3909  -13.8710   21.7958 H   0  0  0  0  0  0
  -25.2765   -9.5675   22.4764 H   0  0  0  0  0  0
  -24.0000   -7.4627   22.7474 H   0  0  0  0  0  0
  -21.0845   -8.8776   19.8952 H   0  0  0  0  0  0
  -22.3705  -10.9672   19.6169 H   0  0  0  0  0  0
  -21.2004   -7.6147   23.9717 H   0  0  0  0  0  0
  -21.1482   -6.0520   25.9079 H   0  0  0  0  0  0
  -22.0599   -2.7609   23.2845 H   0  0  0  0  0  0
  -22.4078  -11.9877   22.4834 H   0  0  0  0  0  0
  -21.1080  -13.1233   22.2625 H   0  0  0  0  0  0
  -24.6316  -15.8261   20.4823 H   0  0  0  0  0  0
  -26.2197  -15.6064   19.9543 H   0  0  0  0  0  0
  -26.7264  -32.5326   23.1022 H   0  0  0  0  0  0
  -25.0080  -33.9635   25.0340 H   0  0  0  0  0  0
  -22.7461  -31.2922   21.3833 H   0  0  0  0  0  0
  -23.3756  -35.9591   23.3296 H   0  0  0  0  0  0
  -24.3575  -36.8900   22.2058 H   0  0  0  0  0  0
  -23.7243  -37.6456   23.6682 H   0  0  0  0  0  0
  -26.1518  -31.4828   20.6145 H   0  0  0  0  0  0
  -26.8712  -30.7784   22.0274 H   0  0  0  0  0  0
  -28.1352  -28.8249   21.2272 H   0  0  0  0  0  0
  -25.9199  -25.8767   18.9733 H   0  0  0  0  0  0
  -23.9822  -27.3076   18.9793 H   0  0  0  0  0  0
  -23.8056  -30.5722   19.4004 H   0  0  0  0  0  0
  -22.7855  -29.2381   19.8449 H   0  0  0  0  0  0
  -25.1310  -36.1873   25.0810 H   0  0  0  0  0  0
  -21.0008  -28.3308   24.1362 H   0  0  0  0  0  0
  -21.6653  -26.7434   22.1198 H   0  0  0  0  0  0
  -20.5680  -26.2334   23.3618 H   0  0  0  0  0  0
  -19.6917  -25.6286   21.1258 H   0  0  0  0  0  0
  -19.6695  -27.3179   20.6730 H   0  0  0  0  0  0
  -17.4211  -26.6670   21.4032 H   0  0  0  0  0  0
  -18.0342  -26.0083   22.9034 H   0  0  0  0  0  0
  -19.7950  -30.7295   24.2238 H   0  0  0  0  0  0
  -17.5026  -31.6268   24.5172 H   0  0  0  0  0  0
  -15.5364  -30.2982   23.7674 H   0  0  0  0  0  0
  -15.8686  -28.0820   22.7081 H   0  0  0  0  0  0
  -24.5899  -30.7090   25.7739 H   0  0  0  0  0  0
  -24.8892  -32.2930   26.4792 H   0  0  0  0  0  0
  -25.8000  -30.8959   27.0228 H   0  0  0  0  0  0
  -26.3004  -29.6695   24.1287 H   0  0  0  0  0  0
  -27.3999  -29.7265   25.4858 H   0  0  0  0  0  0
  -27.8913  -30.4212   23.9607 H   0  0  0  0  0  0
  -27.2648  -33.3650   26.2034 H   0  0  0  0  0  0
  -28.3894  -32.6866   25.0357 H   0  0  0  0  0  0
  -28.0692  -31.8491   26.5465 H   0  0  0  0  0  0
  -28.2590  -38.0087   24.7508 H   0  0  0  0  0  0
  -28.1074  -36.2617   24.6302 H   0  0  0  0  0  0
  -27.2291  -37.1447   25.8868 H   0  0  0  0  0  0
  -20.9463  -29.8763   21.6800 H   0  0  0  0  0  0
  -26.0156  -38.2821   24.1406 H   0  0  0  0  0  0
  -31.5905  -18.1997   20.6860 H   0  0  0  0  0  0
  -31.1257  -20.6223   20.7222 H   0  0  0  0  0  0
  -27.3952  -17.4452   20.3470 H   0  0  0  0  0  0
  -28.4608  -22.8185   22.7219 H   0  0  0  0  0  0
  -26.9146  -22.3230   22.0345 H   0  0  0  0  0  0
  -28.0270  -21.1221   22.6822 H   0  0  0  0  0  0
  -29.9258  -23.6228   20.8472 H   0  0  0  0  0  0
  -29.3777  -23.2450   19.2480 H   0  0  0  0  0  0
  -27.4875  -24.6237   21.3099 H   0  0  0  0  0  0
  -27.2141  -24.4139   19.6248 H   0  0  0  0  0  0
  -28.7163  -15.5777   20.8186 H   0  0  0  0  0  0
  1 25  1  0  0  0
  1 30  2  0  0  0
  1 80  1  0  0  0
  2  3  1  0  0  0
  2 25  1  0  0  0
  2 83  1  0  0  0
  2 84  1  0  0  0
  3  4  1  0  0  0
  3 85  1  0  0  0
  3 86  1  0  0  0
  4  5  1  0  0  0
  4 87  1  0  0  0
  4 88  1  0  0  0
  5  6  1  0  0  0
  5 26  1  0  0  0
  5 89  1  0  0  0
  6 25  1  0  0  0
  6 90  1  0  0  0
  6 91  1  0  0  0
  7  8  2  0  0  0
  7 26  1  0  0  0
  7 29  1  0  0  0
  8  9  1  0  0  0
  8 22  1  0  0  0
  9 10  1  0  0  0
  9 27  2  0  0  0
 10 11  2  0  0  0
 10 15  1  0  0  0
 11 12  1  0  0  0
 11 92  1  0  0  0
 12 13  2  0  0  0
 12 93  1  0  0  0
 13 14  1  0  0  0
 13 31  1  0  0  0
 14 15  2  0  0  0
 14 94  1  0  0  0
 15 95  1  0  0  0
 16 17  2  0  0  0
 16 21  1  0  0  0
 16 31  1  0  0  0
 17 18  1  0  0  0
 17 96  1  0  0  0
 18 19  2  0  0  0
 18 97  1  0  0  0
 19 20  1  0  0  0
 19 24  1  0  0  0
 20 21  2  0  0  0
 20 98  1  0  0  0
 21 23  1  0  0  0
 22 28  1  0  0  0
 22 32  2  0  0  0
 26 27  1  0  0  0
 28 99  1  0  0  0
 28100  1  0  0  0
 29101  1  0  0  0
 29102  1  0  0  0
 33 34  1  0  0  0
 33 66  1  0  0  0
 33 70  2  0  0  0
 34 36  1  0  0  0
 34 59  1  0  0  0
 34103  1  0  0  0
 35 44  2  0  0  0
 35 45  1  0  0  0
 35 68  1  0  0  0
 36 56  1  0  0  0
 36104  1  0  0  0
 37 39  1  0  0  0
 37 47  1  0  0  0
 37 66  1  0  0  0
 37105  1  0  0  0
 38 43  2  0  0  0
 38 46  1  0  0  0
 38 47  1  0  0  0
 39 64  1  0  0  0
 39 67  2  0  0  0
 40 52  1  0  0  0
 40 53  2  0  0  0
 40 58  1  0  0  0
 41106  1  0  0  0
 41107  1  0  0  0
 41108  1  0  0  0
 41 48  1  0  0  0
 42 43  1  0  0  0
 42 66  1  0  0  0
 42109  1  0  0  0
 42110  1  0  0  0
 43 44  1  0  0  0
 44111  1  0  0  0
 45 46  2  0  0  0
 45112  1  0  0  0
 46113  1  0  0  0
 47114  1  0  0  0
 47115  1  0  0  0
 48 56  1  0  0  0
 48 65  1  0  0  0
 48116  1  0  0  0
 49 50  1  0  0  0
 49 53  1  0  0  0
 49 64  1  0  0  0
 49117  1  0  0  0
 50 51  1  0  0  0
 50118  1  0  0  0
 50119  1  0  0  0
 51 52  1  0  0  0
 51120  1  0  0  0
 51121  1  0  0  0
 52122  1  0  0  0
 52123  1  0  0  0
 53 54  1  0  0  0
 54 55  2  0  0  0
 54124  1  0  0  0
 55 57  1  0  0  0
 55125  1  0  0  0
 56 69  2  0  0  0
 57 58  2  0  0  0
 57126  1  0  0  0
 58127  1  0  0  0
 59 60  1  0  0  0
 59 61  1  0  0  0
 59 62  1  0  0  0
 60128  1  0  0  0
 60129  1  0  0  0
 60130  1  0  0  0
 61131  1  0  0  0
 61132  1  0  0  0
 61133  1  0  0  0
 62134  1  0  0  0
 62135  1  0  0  0
 62136  1  0  0  0
 63 65  1  0  0  0
 63137  1  0  0  0
 63138  1  0  0  0
 63139  1  0  0  0
 64140  1  0  0  0
 65141  1  0  0  0
 68 79  1  0  0  0
 71 72  2  0  0  0
 71 74  1  0  0  0
 71142  1  0  0  0
 72 75  1  0  0  0
 72143  1  0  0  0
 73 74  2  0  0  0
 73 76  1  0  0  0
 73144  1  0  0  0
 74 80  1  0  0  0
 75 76  2  0  0  0
 75 81  1  0  0  0
 76 82  1  0  0  0
 77 81  1  0  0  0
 77145  1  0  0  0
 77146  1  0  0  0
 77147  1  0  0  0
 78 79  1  0  0  0
 78 81  1  0  0  0
 78148  1  0  0  0
 78149  1  0  0  0
 79150  1  0  0  0
 79151  1  0  0  0
 80152  1  0  0  0
M  ISO  4   1 100  68 101  79 101  80 100
M  END
> <chiral flag>
0

> <version>
0

> <s_m_source_file>
/data/baiqing/PycharmProjects/Reinvent-master-3.2/result/LINK_invent/BTK/process_docking_weight1_custom_product_contain_oxygen_bond_distance_aromatic_linkinvent_7_9_3/rearranged_h_0008.sdf

> <i_m_source_file_index>
29

> <r_mmod_Potential_Energy-OPLS-2005>
505.272094726562

> <r_mmod_Stretch_Energy-OPLS-2005>
210.874435424805

> <r_mmod_Bend_Energy-OPLS-2005>
276.394287109375

> <r_mmod_Torsional_Energy-OPLS-2005>
243.519805908203

> <r_mmod_Improper_Torsional_Energy-OPLS-2005>
7.89769601821899

> <r_mmod_Van_der_Waal_Energy-OPLS-2005>
135.679702758789

> <r_mmod_Electrostatic_Energy-OPLS-2005>
-314.520172119141

> <r_mmod_Solvation_Energy-OPLS-2005>
-219.548599243164

> <b_mmod_Minimization_Converged-OPLS-2005>
0

> <r_mmod_RMS_Derivative-OPLS-2005>
0.424254149198532

$$$$
29
                    3D
 Structure written by MMmdl.
153161  0  0  1  0            999 V2000
  -30.4655  -15.1565   20.3862 C   0  0  0  0  0  0
  -30.4598  -12.7193   19.5263 C   0  0  0  0  0  0
  -29.5426  -12.5323   18.2898 C   0  0  0  0  0  0
  -28.0937  -12.2604   18.7384 C   0  0  0  0  0  0
  -27.6334  -13.2466   19.8410 C   0  0  2  0  0  0
  -28.6751  -13.3652   20.9766 C   0  0  0  0  0  0
  -25.2483  -13.8187   20.5725 C   0  0  0  0  0  0
  -24.1808  -13.0446   20.9238 C   0  0  0  0  0  0
  -24.6372  -11.6889   20.8754 C   0  0  0  0  0  0
  -23.9031  -10.4276   21.0395 C   0  0  0  0  0  0
  -24.3578   -9.4197   21.9187 C   0  0  0  0  0  0
  -23.6255   -8.2236   22.0764 C   0  0  0  0  0  0
  -22.4249   -8.0256   21.3546 C   0  0  0  0  0  0
  -21.9862   -9.0229   20.4660 C   0  0  0  0  0  0
  -22.7178  -10.2111   20.3067 C   0  0  0  0  0  0
  -21.6855   -6.0693   22.5262 C   0  0  0  0  0  0
  -21.4008   -6.5607   23.8190 C   0  0  0  0  0  0
  -21.3661   -5.6776   24.9161 C   0  0  0  0  0  0
  -21.6054   -4.3037   24.7228 C   0  0  0  0  0  0
  -21.8826   -3.8108   23.4352 C   0  0  0  0  0  0
  -21.9193   -4.6916   22.3399 C   0  0  0  0  0  0
  -22.7811  -13.5193   21.1908 C   0  0  0  0  0  0
  -22.1673   -4.2088   21.0987 F   0  0  0  0  0  0
  -21.5638   -3.4543   25.7754 F   0  0  0  0  0  0
  -29.9193  -13.8517   20.3540 N   0  0  0  0  0  0
  -26.2926  -12.9416   20.3289 N   0  0  0  0  0  0
  -25.9336  -11.6538   20.5797 N   0  0  0  0  0  0
  -22.0491  -12.8192   22.0436 N   0  0  0  0  0  0
  -25.4199  -15.1929   20.4096 N   0  0  0  0  0  0
  -31.6785  -15.2153   20.1524 O   0  0  0  0  0  0
  -21.6644   -6.8834   21.4217 O   0  0  0  0  0  0
  -22.3493  -14.5510   20.6730 O   0  0  0  0  0  0
  -24.6594  -31.8186   23.1876 C   0  0  0  0  0  0
  -25.9366  -32.4375   23.8334 C   0  0  1  0  0  0
  -27.2202  -27.0136   20.1584 C   0  0  0  0  0  0
  -25.6086  -33.8204   24.2248 N   0  0  0  0  0  0
  -23.4613  -30.4367   21.5302 C   0  0  2  0  0  0
  -24.9138  -28.8456   20.1073 C   0  0  0  0  0  0
  -22.7661  -29.4407   22.4915 C   0  0  0  0  0  0
  -18.0272  -28.1277   22.8497 C   0  0  0  0  0  0
  -24.1486  -36.6912   23.2688 C   0  0  0  0  0  0
  -26.0377  -30.6477   21.4135 C   0  0  0  0  0  0
  -26.0977  -29.2662   20.7240 C   0  0  0  0  0  0
  -27.2508  -28.3760   20.7128 C   0  0  0  0  0  0
  -26.0008  -26.7131   19.5168 C   0  0  0  0  0  0
  -24.8872  -27.5891   19.4796 C   0  0  0  0  0  0
  -23.6904  -29.7514   20.1554 C   0  0  0  0  0  0
  -25.4111  -36.2742   24.0398 C   0  0  1  0  0  0
  -20.5897  -28.3591   23.1195 C   0  0  2  0  0  0
  -20.6657  -26.9275   22.5385 C   0  0  0  0  0  0
  -19.5663  -26.6330   21.5132 C   0  0  0  0  0  0
  -18.1862  -26.7826   22.1596 C   0  0  0  0  0  0
  -19.1547  -28.8798   23.2794 C   0  0  0  0  0  0
  -18.9468  -30.1394   23.8804 C   0  0  0  0  0  0
  -17.6465  -30.6514   24.0476 C   0  0  0  0  0  0
  -25.9142  -34.9146   23.5141 C   0  0  0  0  0  0
  -16.5349  -29.8952   23.6346 C   0  0  0  0  0  0
  -16.7261  -28.6331   23.0459 C   0  0  0  0  0  0
  -26.4740  -31.6226   25.0798 C   0  0  0  0  0  0
  -25.4139  -31.3222   26.1639 C   0  0  0  0  0  0
  -27.0670  -30.2568   24.6587 C   0  0  0  0  0  0
  -27.6263  -32.4078   25.7497 C   0  0  0  0  0  0
  -27.5528  -37.1557   24.8581 C   0  0  0  0  0  0
  -21.4370  -29.2859   22.3597 N   0  0  0  0  0  0
  -26.4221  -37.3519   23.9543 N   0  0  0  0  0  0
  -24.7366  -30.9996   22.0900 N   0  0  0  0  0  0
  -23.4256  -28.8094   23.3204 O   0  0  0  0  0  0
  -28.2592  -25.9789   20.2812 O   0  0  0  0  0  0
  -26.5746  -34.8695   22.4727 O   0  0  0  0  0  0
  -23.5721  -32.1150   23.7074 O   0  0  0  0  0  0
  -30.5788  -19.1530   20.7461 C   0  0  0  0  0  0
  -28.5510  -18.8251   19.4944 C   0  0  0  0  0  0
  -30.0731  -20.6905   21.1105 C   0  0  0  0  0  0
  -28.0828  -20.3952   19.7843 C   0  0  0  0  0  0
  -29.4676  -17.9986   20.5421 C   0  0  1  0  0  0
  -28.6304  -22.9597   20.7053 C   0  0  0  0  0  0
  -28.2536  -24.4245   19.8374 C   0  0  0  0  0  0
  -29.6189  -16.3463   20.4896 N   0  0  0  0  0  0
  -29.1157  -21.4731   20.1745 N   0  3  1  0  0  0
  -31.4875  -12.8964   19.2091 H   0  0  0  0  0  0
  -30.4974  -11.7961   20.1096 H   0  0  0  0  0  0
  -29.9017  -11.7094   17.6721 H   0  0  0  0  0  0
  -29.5709  -13.4237   17.6657 H   0  0  0  0  0  0
  -28.0693  -11.2473   19.1437 H   0  0  0  0  0  0
  -27.4109  -12.2708   17.8911 H   0  0  0  0  0  0
  -27.5699  -14.2184   19.3532 H   0  0  0  0  0  0
  -28.8244  -12.4084   21.4789 H   0  0  0  0  0  0
  -28.3416  -14.0633   21.7440 H   0  0  0  0  0  0
  -25.2728   -9.5698   22.4755 H   0  0  0  0  0  0
  -23.9982   -7.4638   22.7496 H   0  0  0  0  0  0
  -21.0790   -8.8712   19.8971 H   0  0  0  0  0  0
  -22.3610  -10.9642   19.6175 H   0  0  0  0  0  0
  -21.1995   -7.6123   23.9656 H   0  0  0  0  0  0
  -21.1488   -6.0533   25.9063 H   0  0  0  0  0  0
  -22.0605   -2.7566   23.2883 H   0  0  0  0  0  0
  -22.4118  -11.9827   22.4800 H   0  0  0  0  0  0
  -21.1131  -13.1225   22.2722 H   0  0  0  0  0  0
  -24.6458  -15.8446   20.5127 H   0  0  0  0  0  0
  -26.2390  -15.6103   19.9898 H   0  0  0  0  0  0
  -26.7457  -32.4856   23.1053 H   0  0  0  0  0  0
  -25.0105  -33.9251   25.0309 H   0  0  0  0  0  0
  -22.7628  -31.2593   21.3650 H   0  0  0  0  0  0
  -23.3788  -35.9190   23.3358 H   0  0  0  0  0  0
  -24.3614  -36.8494   22.2103 H   0  0  0  0  0  0
  -23.7163  -37.6099   23.6686 H   0  0  0  0  0  0
  -26.2937  -31.4218   20.6896 H   0  0  0  0  0  0
  -26.8675  -30.6231   22.1084 H   0  0  0  0  0  0
  -28.1587  -28.7175   21.1923 H   0  0  0  0  0  0
  -25.8456  -25.7394   19.0829 H   0  0  0  0  0  0
  -23.9808  -27.2440   18.9999 H   0  0  0  0  0  0
  -23.8094  -30.5132   19.3876 H   0  0  0  0  0  0
  -22.8112  -29.1759   19.8617 H   0  0  0  0  0  0
  -25.1240  -36.1513   25.0878 H   0  0  0  0  0  0
  -20.9911  -28.3083   24.1337 H   0  0  0  0  0  0
  -20.5320  -26.2205   23.3600 H   0  0  0  0  0  0
  -21.6525  -26.7100   22.1309 H   0  0  0  0  0  0
  -19.6772  -25.6272   21.1057 H   0  0  0  0  0  0
  -19.6527  -27.3218   20.6736 H   0  0  0  0  0  0
  -17.4097  -26.6598   21.4024 H   0  0  0  0  0  0
  -18.0279  -25.9904   22.8955 H   0  0  0  0  0  0
  -19.7963  -30.7199   24.2119 H   0  0  0  0  0  0
  -17.5018  -31.6204   24.5049 H   0  0  0  0  0  0
  -15.5331  -30.2815   23.7724 H   0  0  0  0  0  0
  -15.8647  -28.0556   22.7359 H   0  0  0  0  0  0
  -24.6484  -30.6273   25.8175 H   0  0  0  0  0  0
  -24.9157  -32.2201   26.5290 H   0  0  0  0  0  0
  -25.8805  -30.8464   27.0301 H   0  0  0  0  0  0
  -26.3336  -29.6107   24.1743 H   0  0  0  0  0  0
  -27.4286  -29.7014   25.5282 H   0  0  0  0  0  0
  -27.9291  -30.3641   23.9988 H   0  0  0  0  0  0
  -27.2891  -33.3470   26.1916 H   0  0  0  0  0  0
  -28.4112  -32.6484   25.0293 H   0  0  0  0  0  0
  -28.0928  -31.8316   26.5526 H   0  0  0  0  0  0
  -28.2574  -37.9832   24.7589 H   0  0  0  0  0  0
  -28.1005  -36.2353   24.6432 H   0  0  0  0  0  0
  -27.2298  -37.1218   25.9016 H   0  0  0  0  0  0
  -20.9745  -29.8366   21.6513 H   0  0  0  0  0  0
  -26.0023  -38.2552   24.1616 H   0  0  0  0  0  0
  -31.2437  -18.8533   21.5632 H   0  0  0  0  0  0
  -31.2302  -19.2036   19.8672 H   0  0  0  0  0  0
  -29.0413  -18.8025   18.5180 H   0  0  0  0  0  0
  -27.6210  -18.2689   19.3481 H   0  0  0  0  0  0
  -29.5924  -20.6348   22.0942 H   0  0  0  0  0  0
  -30.9505  -21.3228   21.2819 H   0  0  0  0  0  0
  -27.3009  -20.3704   20.5495 H   0  0  0  0  0  0
  -27.5760  -20.7513   18.8800 H   0  0  0  0  0  0
  -28.8907  -18.0577   21.4720 H   0  0  0  0  0  0
  -27.7784  -22.7841   21.3772 H   0  0  0  0  0  0
  -29.4405  -23.2646   21.3755 H   0  0  0  0  0  0
  -28.9587  -24.4374   19.0089 H   0  0  0  0  0  0
  -27.2979  -24.2201   19.3558 H   0  0  0  0  0  0
  -28.6947  -15.9669   20.6357 H   0  0  0  0  0  0
  -29.6635  -21.6445   19.3379 H   0  0  0  0  0  0
  1 25  1  0  0  0
  1 30  2  0  0  0
  1 78  1  0  0  0
  2  3  1  0  0  0
  2 25  1  0  0  0
  2 80  1  0  0  0
  2 81  1  0  0  0
  3  4  1  0  0  0
  3 82  1  0  0  0
  3 83  1  0  0  0
  4  5  1  0  0  0
  4 84  1  0  0  0
  4 85  1  0  0  0
  5  6  1  0  0  0
  5 26  1  0  0  0
  5 86  1  0  0  0
  6 25  1  0  0  0
  6 87  1  0  0  0
  6 88  1  0  0  0
  7  8  2  0  0  0
  7 26  1  0  0  0
  7 29  1  0  0  0
  8  9  1  0  0  0
  8 22  1  0  0  0
  9 10  1  0  0  0
  9 27  2  0  0  0
 10 11  2  0  0  0
 10 15  1  0  0  0
 11 12  1  0  0  0
 11 89  1  0  0  0
 12 13  2  0  0  0
 12 90  1  0  0  0
 13 14  1  0  0  0
 13 31  1  0  0  0
 14 15  2  0  0  0
 14 91  1  0  0  0
 15 92  1  0  0  0
 16 17  2  0  0  0
 16 21  1  0  0  0
 16 31  1  0  0  0
 17 18  1  0  0  0
 17 93  1  0  0  0
 18 19  2  0  0  0
 18 94  1  0  0  0
 19 20  1  0  0  0
 19 24  1  0  0  0
 20 21  2  0  0  0
 20 95  1  0  0  0
 21 23  1  0  0  0
 22 28  1  0  0  0
 22 32  2  0  0  0
 26 27  1  0  0  0
 28 96  1  0  0  0
 28 97  1  0  0  0
 29 98  1  0  0  0
 29 99  1  0  0  0
 33 34  1  0  0  0
 33 66  1  0  0  0
 33 70  2  0  0  0
 34 36  1  0  0  0
 34 59  1  0  0  0
 34100  1  0  0  0
 35 44  2  0  0  0
 35 45  1  0  0  0
 35 68  1  0  0  0
 36 56  1  0  0  0
 36101  1  0  0  0
 37 39  1  0  0  0
 37 47  1  0  0  0
 37 66  1  0  0  0
 37102  1  0  0  0
 38 43  2  0  0  0
 38 46  1  0  0  0
 38 47  1  0  0  0
 39 64  1  0  0  0
 39 67  2  0  0  0
 40 52  1  0  0  0
 40 53  2  0  0  0
 40 58  1  0  0  0
 41103  1  0  0  0
 41104  1  0  0  0
 41105  1  0  0  0
 41 48  1  0  0  0
 42 43  1  0  0  0
 42 66  1  0  0  0
 42106  1  0  0  0
 42107  1  0  0  0
 43 44  1  0  0  0
 44108  1  0  0  0
 45 46  2  0  0  0
 45109  1  0  0  0
 46110  1  0  0  0
 47111  1  0  0  0
 47112  1  0  0  0
 48 56  1  0  0  0
 48 65  1  0  0  0
 48113  1  0  0  0
 49 50  1  0  0  0
 49 53  1  0  0  0
 49 64  1  0  0  0
 49114  1  0  0  0
 50 51  1  0  0  0
 50115  1  0  0  0
 50116  1  0  0  0
 51 52  1  0  0  0
 51117  1  0  0  0
 51118  1  0  0  0
 52119  1  0  0  0
 52120  1  0  0  0
 53 54  1  0  0  0
 54 55  2  0  0  0
 54121  1  0  0  0
 55 57  1  0  0  0
 55122  1  0  0  0
 56 69  2  0  0  0
 57 58  2  0  0  0
 57123  1  0  0  0
 58124  1  0  0  0
 59 60  1  0  0  0
 59 61  1  0  0  0
 59 62  1  0  0  0
 60125  1  0  0  0
 60126  1  0  0  0
 60127  1  0  0  0
 61128  1  0  0  0
 61129  1  0  0  0
 61130  1  0  0  0
 62131  1  0  0  0
 62132  1  0  0  0
 62133  1  0  0  0
 63 65  1  0  0  0
 63134  1  0  0  0
 63135  1  0  0  0
 63136  1  0  0  0
 64137  1  0  0  0
 65138  1  0  0  0
 68 77  1  0  0  0
 71 73  1  0  0  0
 71 75  1  0  0  0
 71139  1  0  0  0
 71140  1  0  0  0
 72 74  1  0  0  0
 72 75  1  0  0  0
 72141  1  0  0  0
 72142  1  0  0  0
 73 79  1  0  0  0
 73143  1  0  0  0
 73144  1  0  0  0
 74 79  1  0  0  0
 74145  1  0  0  0
 74146  1  0  0  0
 75 78  1  0  0  0
 75147  1  0  0  0
 76 77  1  0  0  0
 76148  1  0  0  0
 76149  1  0  0  0
 76 79  1  0  0  0
 77150  1  0  0  0
 77151  1  0  0  0
 78152  1  0  0  0
 79153  1  0  0  0
M  CHG  1  79   1
M  ISO  4   1 100  68 101  77 101  78 100
M  END
> <chiral flag>
0

> <version>
0

> <s_m_source_file>
/data/baiqing/PycharmProjects/Reinvent-master-3.2/result/LINK_invent/BTK/process_docking_weight1_custom_product_contain_oxygen_bond_distance_aromatic_linkinvent_7_9_3/rearranged_h_0008.sdf

> <i_m_source_file_index>
30

> <r_mmod_Potential_Energy-OPLS-2005>
907.49267578125

> <r_mmod_Stretch_Energy-OPLS-2005>
422.123931884766

> <r_mmod_Bend_Energy-OPLS-2005>
452.849731445312

> <r_mmod_Torsional_Energy-OPLS-2005>
236.023727416992

> <r_mmod_Improper_Torsional_Energy-OPLS-2005>
4.44967126846313

> <r_mmod_Van_der_Waal_Energy-OPLS-2005>
109.575119018555

> <r_mmod_Electrostatic_Energy-OPLS-2005>
-210.960876464844

> <r_mmod_Solvation_Energy-OPLS-2005>
-454.601898193359

> <b_mmod_Minimization_Converged-OPLS-2005>
0

> <r_mmod_RMS_Derivative-OPLS-2005>
8.72944927215576

$$$$
30
                    3D
 Structure written by MMmdl.
147155  0  0  1  0            999 V2000
  -30.2897  -15.5985   20.3745 C   0  0  0  0  0  0
  -30.4343  -13.0561   19.5432 C   0  0  0  0  0  0
  -29.5510  -12.6691   18.3183 C   0  0  0  0  0  0
  -28.1191  -12.3121   18.7477 C   0  0  0  0  0  0
  -27.6040  -13.2949   19.8218 C   0  0  2  0  0  0
  -28.6272  -13.5354   20.9518 C   0  0  0  0  0  0
  -25.2354  -13.8257   20.5758 C   0  0  0  0  0  0
  -24.1731  -13.0423   20.9254 C   0  0  0  0  0  0
  -24.6413  -11.6927   20.8744 C   0  0  0  0  0  0
  -23.9109  -10.4286   21.0390 C   0  0  0  0  0  0
  -24.3643   -9.4202   21.9175 C   0  0  0  0  0  0
  -23.6303   -8.2245   22.0751 C   0  0  0  0  0  0
  -22.4286   -8.0284   21.3542 C   0  0  0  0  0  0
  -21.9926   -9.0261   20.4646 C   0  0  0  0  0  0
  -22.7272  -10.2129   20.3050 C   0  0  0  0  0  0
  -21.6862   -6.0732   22.5270 C   0  0  0  0  0  0
  -21.4019   -6.5636   23.8199 C   0  0  0  0  0  0
  -21.3660   -5.6791   24.9166 C   0  0  0  0  0  0
  -21.6049   -4.3052   24.7214 C   0  0  0  0  0  0
  -21.8821   -3.8141   23.4339 C   0  0  0  0  0  0
  -21.9199   -4.6958   22.3392 C   0  0  0  0  0  0
  -22.7752  -13.5169   21.1914 C   0  0  0  0  0  0
  -22.1667   -4.2142   21.0972 F   0  0  0  0  0  0
  -21.5629   -3.4536   25.7728 F   0  0  0  0  0  0
  -29.8048  -14.2094   20.3378 N   0  0  0  0  0  0
  -26.2795  -12.9555   20.3209 N   0  0  0  0  0  0
  -25.9353  -11.6640   20.5676 N   0  0  0  0  0  0
  -22.0425  -12.8141   22.0469 N   0  0  0  0  0  0
  -25.3967  -15.1990   20.4219 N   0  0  0  0  0  0
  -31.4919  -15.5863   20.0433 O   0  0  0  0  0  0
  -21.6650   -6.8877   21.4233 O   0  0  0  0  0  0
  -22.3427  -14.5479   20.6774 O   0  0  0  0  0  0
  -24.6832  -31.8015   23.1525 C   0  0  0  0  0  0
  -25.9417  -32.4487   23.8068 C   0  0  1  0  0  0
  -27.2273  -26.7194   20.2075 C   0  0  0  0  0  0
  -25.6011  -33.8312   24.1965 N   0  0  0  0  0  0
  -23.5090  -30.4049   21.5046 C   0  0  2  0  0  0
  -24.9671  -28.7505   20.1126 C   0  0  0  0  0  0
  -22.7769  -29.4327   22.4690 C   0  0  0  0  0  0
  -18.0334  -28.1439   22.8469 C   0  0  0  0  0  0
  -24.1469  -36.7146   23.2647 C   0  0  0  0  0  0
  -26.0881  -30.5397   21.4145 C   0  0  0  0  0  0
  -26.1535  -29.1058   20.7653 C   0  0  0  0  0  0
  -27.2673  -28.1159   20.7855 C   0  0  0  0  0  0
  -26.0116  -26.5732   19.4923 C   0  0  0  0  0  0
  -24.9342  -27.5092   19.4534 C   0  0  0  0  0  0
  -23.7625  -29.7044   20.1381 C   0  0  0  0  0  0
  -25.4117  -36.2906   24.0291 C   0  0  1  0  0  0
  -20.5973  -28.3796   23.1140 C   0  0  2  0  0  0
  -20.6809  -26.9457   22.5406 C   0  0  0  0  0  0
  -19.5778  -26.6380   21.5230 C   0  0  0  0  0  0
  -18.1954  -26.7973   22.1622 C   0  0  0  0  0  0
  -19.1604  -28.8941   23.2783 C   0  0  0  0  0  0
  -18.9516  -30.1522   23.8834 C   0  0  0  0  0  0
  -17.6510  -30.6625   24.0561 C   0  0  0  0  0  0
  -25.9111  -34.9303   23.4954 C   0  0  0  0  0  0
  -16.5392  -29.9112   23.6360 C   0  0  0  0  0  0
  -16.7316  -28.6530   23.0384 C   0  0  0  0  0  0
  -26.4594  -31.6521   25.0683 C   0  0  0  0  0  0
  -25.3658  -31.3849   26.1299 C   0  0  0  0  0  0
  -27.0532  -30.2872   24.6561 C   0  0  0  0  0  0
  -27.6049  -32.4381   25.7497 C   0  0  0  0  0  0
  -27.5560  -37.1703   24.8453 C   0  0  0  0  0  0
  -21.4415  -29.3044   22.3463 N   0  0  0  0  0  0
  -26.4226  -37.3688   23.9461 N   0  0  0  0  0  0
  -24.7836  -30.9483   22.0763 N   0  0  0  0  0  0
  -23.4229  -28.7916   23.3012 O   0  0  0  0  0  0
  -28.1763  -25.4960   20.3108 O   0  0  0  0  0  0
  -26.5734  -34.8885   22.4558 O   0  0  0  0  0  0
  -23.5856  -32.1071   23.6490 O   0  0  0  0  0  0
  -27.8630  -20.9378   20.8604 C   0  0  0  0  0  0
  -30.0463  -19.7566   19.8196 C   0  0  0  0  0  0
  -28.5950  -22.0765   20.2607 C   0  0  0  0  0  0
  -29.3006  -18.6219   20.4546 C   0  0  0  0  0  0
  -28.1517  -19.4479   20.9461 C   0  0  0  0  0  0
  -29.7392  -21.2678   19.7203 C   0  0  0  0  0  0
  -28.8085  -16.6047   21.9682 C   0  0  0  0  0  0
  -27.9307  -23.7995   19.9742 C   0  0  0  0  0  0
  -29.5133  -16.9149   20.7162 N   0  0  0  0  0  0
  -27.1527  -18.7618   21.5509 F   0  0  0  0  0  0
  -30.6380  -21.9782   18.9990 F   0  0  0  0  0  0
  -31.4246  -13.3282   19.1778 H   0  0  0  0  0  0
  -30.6075  -12.1861   20.1788 H   0  0  0  0  0  0
  -29.9987  -11.8393   17.7702 H   0  0  0  0  0  0
  -29.5182  -13.5099   17.6235 H   0  0  0  0  0  0
  -28.1351  -11.3023   19.1586 H   0  0  0  0  0  0
  -27.4489  -12.2847   17.8879 H   0  0  0  0  0  0
  -27.4905  -14.2446   19.2971 H   0  0  0  0  0  0
  -28.8890  -12.5990   21.4472 H   0  0  0  0  0  0
  -28.1694  -14.1356   21.7305 H   0  0  0  0  0  0
  -25.2782   -9.5683   22.4752 H   0  0  0  0  0  0
  -24.0011   -7.4638   22.7472 H   0  0  0  0  0  0
  -21.0856   -8.8790   19.8947 H   0  0  0  0  0  0
  -22.3732  -10.9672   19.6161 H   0  0  0  0  0  0
  -21.2011   -7.6145   23.9701 H   0  0  0  0  0  0
  -21.1482   -6.0519   25.9067 H   0  0  0  0  0  0
  -22.0599   -2.7602   23.2837 H   0  0  0  0  0  0
  -22.4068  -11.9811   22.4854 H   0  0  0  0  0  0
  -21.1038  -13.1145   22.2684 H   0  0  0  0  0  0
  -24.6281  -15.8483   20.5489 H   0  0  0  0  0  0
  -26.2507  -15.6499   20.1206 H   0  0  0  0  0  0
  -26.7500  -32.4966   23.0784 H   0  0  0  0  0  0
  -25.0164  -33.9360   25.0126 H   0  0  0  0  0  0
  -22.8342  -31.2426   21.3165 H   0  0  0  0  0  0
  -23.3783  -35.9418   23.3206 H   0  0  0  0  0  0
  -24.3561  -36.8910   22.2085 H   0  0  0  0  0  0
  -23.7148  -37.6264   23.6778 H   0  0  0  0  0  0
  -26.2861  -31.2637   20.6231 H   0  0  0  0  0  0
  -26.9429  -30.6123   22.0750 H   0  0  0  0  0  0
  -28.1536  -28.3889   21.3409 H   0  0  0  0  0  0
  -25.8483  -25.6333   18.9845 H   0  0  0  0  0  0
  -24.0392  -27.2290   18.9149 H   0  0  0  0  0  0
  -23.9379  -30.4663   19.3776 H   0  0  0  0  0  0
  -22.8676  -29.1717   19.8116 H   0  0  0  0  0  0
  -25.1301  -36.1654   25.0776 H   0  0  0  0  0  0
  -21.0054  -28.3427   24.1264 H   0  0  0  0  0  0
  -20.5687  -26.2424   23.3668 H   0  0  0  0  0  0
  -21.6667  -26.7410   22.1209 H   0  0  0  0  0  0
  -19.6931  -25.6268   21.1312 H   0  0  0  0  0  0
  -19.6728  -27.3149   20.6729 H   0  0  0  0  0  0
  -17.4230  -26.6735   21.4013 H   0  0  0  0  0  0
  -18.0323  -26.0131   22.9026 H   0  0  0  0  0  0
  -19.7990  -30.7358   24.2173 H   0  0  0  0  0  0
  -17.5064  -31.6303   24.5169 H   0  0  0  0  0  0
  -15.5392  -30.3007   23.7727 H   0  0  0  0  0  0
  -15.8709  -28.0831   22.7144 H   0  0  0  0  0  0
  -24.5850  -30.7189   25.7603 H   0  0  0  0  0  0
  -24.8830  -32.3076   26.4525 H   0  0  0  0  0  0
  -25.7829  -30.9142   27.0207 H   0  0  0  0  0  0
  -26.3249  -29.6496   24.1540 H   0  0  0  0  0  0
  -27.3975  -29.7307   25.5288 H   0  0  0  0  0  0
  -27.9220  -30.4039   24.0083 H   0  0  0  0  0  0
  -27.2590  -33.3757   26.1864 H   0  0  0  0  0  0
  -28.3965  -32.6829   25.0399 H   0  0  0  0  0  0
  -28.0596  -31.8642   26.5580 H   0  0  0  0  0  0
  -28.2469  -38.0104   24.7639 H   0  0  0  0  0  0
  -28.1152  -36.2641   24.6075 H   0  0  0  0  0  0
  -27.2316  -37.1098   25.8856 H   0  0  0  0  0  0
  -20.9706  -29.8726   21.6562 H   0  0  0  0  0  0
  -26.0039  -38.2702   24.1599 H   0  0  0  0  0  0
  -26.9106  -21.2169   21.2854 H   0  0  0  0  0  0
  -30.9671  -19.4647   19.3381 H   0  0  0  0  0  0
  -28.8161  -17.4605   22.6425 H   0  0  0  0  0  0
  -29.2727  -15.8198   22.5701 H   0  0  0  0  0  0
  -27.7689  -16.3393   21.7763 H   0  0  0  0  0  0
  -26.8906  -23.6709   20.2727 H   0  0  0  0  0  0
  -27.8792  -23.8142   18.8856 H   0  0  0  0  0  0
  1 25  1  0  0  0
  1 30  2  0  0  0
  1 79  1  0  0  0
  2  3  1  0  0  0
  2 25  1  0  0  0
  2 82  1  0  0  0
  2 83  1  0  0  0
  3  4  1  0  0  0
  3 84  1  0  0  0
  3 85  1  0  0  0
  4  5  1  0  0  0
  4 86  1  0  0  0
  4 87  1  0  0  0
  5  6  1  0  0  0
  5 26  1  0  0  0
  5 88  1  0  0  0
  6 25  1  0  0  0
  6 89  1  0  0  0
  6 90  1  0  0  0
  7  8  2  0  0  0
  7 26  1  0  0  0
  7 29  1  0  0  0
  8  9  1  0  0  0
  8 22  1  0  0  0
  9 10  1  0  0  0
  9 27  2  0  0  0
 10 11  2  0  0  0
 10 15  1  0  0  0
 11 12  1  0  0  0
 11 91  1  0  0  0
 12 13  2  0  0  0
 12 92  1  0  0  0
 13 14  1  0  0  0
 13 31  1  0  0  0
 14 15  2  0  0  0
 14 93  1  0  0  0
 15 94  1  0  0  0
 16 17  2  0  0  0
 16 21  1  0  0  0
 16 31  1  0  0  0
 17 18  1  0  0  0
 17 95  1  0  0  0
 18 19  2  0  0  0
 18 96  1  0  0  0
 19 20  1  0  0  0
 19 24  1  0  0  0
 20 21  2  0  0  0
 20 97  1  0  0  0
 21 23  1  0  0  0
 22 28  1  0  0  0
 22 32  2  0  0  0
 26 27  1  0  0  0
 28 98  1  0  0  0
 28 99  1  0  0  0
 29100  1  0  0  0
 29101  1  0  0  0
 33 34  1  0  0  0
 33 66  1  0  0  0
 33 70  2  0  0  0
 34 36  1  0  0  0
 34 59  1  0  0  0
 34102  1  0  0  0
 35 44  2  0  0  0
 35 45  1  0  0  0
 35 68  1  0  0  0
 36 56  1  0  0  0
 36103  1  0  0  0
 37 39  1  0  0  0
 37 47  1  0  0  0
 37 66  1  0  0  0
 37104  1  0  0  0
 38 43  2  0  0  0
 38 46  1  0  0  0
 38 47  1  0  0  0
 39 64  1  0  0  0
 39 67  2  0  0  0
 40 52  1  0  0  0
 40 53  2  0  0  0
 40 58  1  0  0  0
 41105  1  0  0  0
 41106  1  0  0  0
 41107  1  0  0  0
 41 48  1  0  0  0
 42 43  1  0  0  0
 42 66  1  0  0  0
 42108  1  0  0  0
 42109  1  0  0  0
 43 44  1  0  0  0
 44110  1  0  0  0
 45 46  2  0  0  0
 45111  1  0  0  0
 46112  1  0  0  0
 47113  1  0  0  0
 47114  1  0  0  0
 48 56  1  0  0  0
 48 65  1  0  0  0
 48115  1  0  0  0
 49 50  1  0  0  0
 49 53  1  0  0  0
 49 64  1  0  0  0
 49116  1  0  0  0
 50 51  1  0  0  0
 50117  1  0  0  0
 50118  1  0  0  0
 51 52  1  0  0  0
 51119  1  0  0  0
 51120  1  0  0  0
 52121  1  0  0  0
 52122  1  0  0  0
 53 54  1  0  0  0
 54 55  2  0  0  0
 54123  1  0  0  0
 55 57  1  0  0  0
 55124  1  0  0  0
 56 69  2  0  0  0
 57 58  2  0  0  0
 57125  1  0  0  0
 58126  1  0  0  0
 59 60  1  0  0  0
 59 61  1  0  0  0
 59 62  1  0  0  0
 60127  1  0  0  0
 60128  1  0  0  0
 60129  1  0  0  0
 61130  1  0  0  0
 61131  1  0  0  0
 61132  1  0  0  0
 62133  1  0  0  0
 62134  1  0  0  0
 62135  1  0  0  0
 63 65  1  0  0  0
 63136  1  0  0  0
 63137  1  0  0  0
 63138  1  0  0  0
 64139  1  0  0  0
 65140  1  0  0  0
 68 78  1  0  0  0
 71 73  2  0  0  0
 71 75  1  0  0  0
 71141  1  0  0  0
 72 74  1  0  0  0
 72 76  2  0  0  0
 72142  1  0  0  0
 73 76  1  0  0  0
 73 78  1  0  0  0
 74 75  2  0  0  0
 74 79  1  0  0  0
 75 80  1  0  0  0
 76 81  1  0  0  0
 77 79  1  0  0  0
 77143  1  0  0  0
 77144  1  0  0  0
 77145  1  0  0  0
 78146  1  0  0  0
 78147  1  0  0  0
M  ISO  4   1 100  68 101  78 101  79 100
M  END
> <chiral flag>
0

> <version>
0

> <s_m_source_file>
/data/baiqing/PycharmProjects/Reinvent-master-3.2/result/LINK_invent/BTK/process_docking_weight1_custom_product_contain_oxygen_bond_distance_aromatic_linkinvent_7_9_3/rearranged_h_0008.sdf

> <i_m_source_file_index>
31

> <r_mmod_Potential_Energy-OPLS-2005>
2433.6201171875

> <r_mmod_Stretch_Energy-OPLS-2005>
945.921264648438

> <r_mmod_Bend_Energy-OPLS-2005>
702.989440917969

> <r_mmod_Torsional_Energy-OPLS-2005>
285.904815673828

> <r_mmod_Improper_Torsional_Energy-OPLS-2005>
5.94466686248779

> <r_mmod_Van_der_Waal_Energy-OPLS-2005>
149.020660400391

> <r_mmod_Electrostatic_Energy-OPLS-2005>
-315.491485595703

> <r_mmod_Solvation_Energy-OPLS-2005>
-192.032211303711

> <b_mmod_Minimization_Converged-OPLS-2005>
0

> <r_mmod_RMS_Derivative-OPLS-2005>
1.28781068325043

$$$$
31
                    3D
 Structure written by MMmdl.
140148  0  0  1  0            999 V2000
  -29.8857  -16.8364   20.2380 C   0  0  0  0  0  0
  -30.2629  -13.9975   19.5303 C   0  0  0  0  0  0
  -29.5665  -13.0566   18.4477 C   0  0  0  0  0  0
  -28.2691  -12.4336   18.9543 C   0  0  0  0  0  0
  -27.5713  -13.4772   19.8334 C   0  0  2  0  0  0
  -28.4791  -14.2872   20.8561 C   0  0  0  0  0  0
  -25.2098  -13.8580   20.6002 C   0  0  0  0  0  0
  -24.1656  -13.0491   20.9355 C   0  0  0  0  0  0
  -24.6596  -11.7082   20.8734 C   0  0  0  0  0  0
  -23.9319  -10.4341   21.0315 C   0  0  0  0  0  0
  -24.3778   -9.4243   21.9132 C   0  0  0  0  0  0
  -23.6390   -8.2305   22.0742 C   0  0  0  0  0  0
  -22.4363   -8.0341   21.3543 C   0  0  0  0  0  0
  -22.0048   -9.0326   20.4632 C   0  0  0  0  0  0
  -22.7444  -10.2173   20.3006 C   0  0  0  0  0  0
  -21.6889   -6.0776   22.5277 C   0  0  0  0  0  0
  -21.4043   -6.5665   23.8214 C   0  0  0  0  0  0
  -21.3666   -5.6808   24.9170 C   0  0  0  0  0  0
  -21.6041   -4.3070   24.7215 C   0  0  0  0  0  0
  -21.8814   -3.8170   23.4332 C   0  0  0  0  0  0
  -21.9203   -4.6996   22.3394 C   0  0  0  0  0  0
  -22.7615  -13.5062   21.1941 C   0  0  0  0  0  0
  -22.1666   -4.2177   21.0971 F   0  0  0  0  0  0
  -21.5620   -3.4547   25.7724 F   0  0  0  0  0  0
  -29.4411  -15.2707   20.1402 N   0  0  0  0  0  0
  -26.2828  -13.0291   20.3607 N   0  0  0  0  0  0
  -25.9633  -11.7153   20.5695 N   0  0  0  0  0  0
  -22.0339  -12.7995   22.0497 N   0  0  0  0  0  0
  -25.3352  -15.2351   20.4404 N   0  0  0  0  0  0
  -31.1180  -16.4941   20.1688 O   0  0  0  0  0  0
  -21.6693   -6.8947   21.4251 O   0  0  0  0  0  0
  -22.3225  -14.5336   20.6777 O   0  0  0  0  0  0
  -24.7618  -31.6949   23.0825 C   0  0  0  0  0  0
  -25.9780  -32.3965   23.7684 C   0  0  1  0  0  0
  -27.2792  -25.8750   20.2706 C   0  0  0  0  0  0
  -25.6003  -33.7843   24.1465 N   0  0  0  0  0  0
  -23.6250  -30.2548   21.4559 C   0  0  2  0  0  0
  -25.0910  -28.4157   20.1373 C   0  0  0  0  0  0
  -22.8105  -29.3747   22.4497 C   0  0  0  0  0  0
  -18.0386  -28.1461   22.8408 C   0  0  0  0  0  0
  -24.1504  -36.6947   23.2675 C   0  0  0  0  0  0
  -26.2261  -30.1495   21.4748 C   0  0  0  0  0  0
  -26.2842  -28.6218   20.8356 C   0  0  0  0  0  0
  -27.3117  -27.4094   20.8531 C   0  0  0  0  0  0
  -26.0545  -26.0902   19.4984 C   0  0  0  0  0  0
  -25.0644  -27.1796   19.4436 C   0  0  0  0  0  0
  -23.9221  -29.4677   20.1290 C   0  0  0  0  0  0
  -25.4184  -36.2610   24.0224 C   0  0  1  0  0  0
  -20.6054  -28.3843   23.0998 C   0  0  2  0  0  0
  -20.6803  -26.9427   22.5429 C   0  0  0  0  0  0
  -19.5802  -26.6335   21.5227 C   0  0  0  0  0  0
  -18.1982  -26.7970   22.1601 C   0  0  0  0  0  0
  -19.1671  -28.8997   23.2657 C   0  0  0  0  0  0
  -18.9566  -30.1561   23.8737 C   0  0  0  0  0  0
  -17.6547  -30.6620   24.0532 C   0  0  0  0  0  0
  -25.9205  -34.9017   23.4756 C   0  0  0  0  0  0
  -16.5431  -29.9088   23.6368 C   0  0  0  0  0  0
  -16.7361  -28.6519   23.0372 C   0  0  0  0  0  0
  -26.4717  -31.6377   25.0647 C   0  0  0  0  0  0
  -25.3580  -31.3912   26.1114 C   0  0  0  0  0  0
  -27.0791  -30.2646   24.7140 C   0  0  0  0  0  0
  -27.6003  -32.4451   25.7494 C   0  0  0  0  0  0
  -27.5544  -37.1622   24.8463 C   0  0  0  0  0  0
  -21.4686  -29.2909   22.3221 N   0  0  0  0  0  0
  -26.4243  -37.3460   23.9403 N   0  0  0  0  0  0
  -24.9057  -30.7541   22.0560 N   0  0  0  0  0  0
  -23.4150  -28.7514   23.3242 O   0  0  0  0  0  0
  -28.1621  -24.3059   20.4033 O   0  0  0  0  0  0
  -26.5983  -34.8760   22.4468 O   0  0  0  0  0  0
  -23.6470  -32.0411   23.5242 O   0  0  0  0  0  0
  -28.4388  -20.0469   20.4410 C   0  0  0  0  0  0
  -29.9466  -21.4238   19.5216 C   0  0  0  0  0  0
  -30.3947  -19.7896   19.8744 C   0  0  0  0  0  0
  -28.6481  -22.1508   20.1904 C   0  0  3  0  0  0
  -29.4099  -18.6348   20.2330 N   0  0  0  0  0  0
  -27.3032  -19.7771   20.8466 O   0  0  0  0  0  0
  -31.1420  -14.3914   19.0194 H   0  0  0  0  0  0
  -30.7001  -13.3931   20.3281 H   0  0  0  0  0  0
  -30.2541  -12.2768   18.1180 H   0  0  0  0  0  0
  -29.3458  -13.6577   17.5644 H   0  0  0  0  0  0
  -28.5056  -11.5545   19.5550 H   0  0  0  0  0  0
  -27.6354  -12.1019   18.1305 H   0  0  0  0  0  0
  -27.2919  -14.2312   19.0954 H   0  0  0  0  0  0
  -28.9721  -13.6265   21.5718 H   0  0  0  0  0  0
  -27.8385  -14.9115   21.4785 H   0  0  0  0  0  0
  -25.2906   -9.5700   22.4739 H   0  0  0  0  0  0
  -24.0064   -7.4709   22.7494 H   0  0  0  0  0  0
  -21.0966   -8.8884   19.8948 H   0  0  0  0  0  0
  -22.3901  -10.9711   19.6117 H   0  0  0  0  0  0
  -21.2049   -7.6174   23.9726 H   0  0  0  0  0  0
  -21.1488   -6.0535   25.9074 H   0  0  0  0  0  0
  -22.0581   -2.7631   23.2828 H   0  0  0  0  0  0
  -22.4059  -11.9712   22.4906 H   0  0  0  0  0  0
  -21.0919  -13.0912   22.2687 H   0  0  0  0  0  0
  -24.5473  -15.8650   20.5465 H   0  0  0  0  0  0
  -26.1803  -15.7019   20.1374 H   0  0  0  0  0  0
  -26.7976  -32.4304   23.0490 H   0  0  0  0  0  0
  -24.9889  -33.8739   24.9445 H   0  0  0  0  0  0
  -23.0007  -31.1110   21.1923 H   0  0  0  0  0  0
  -23.3798  -35.9239   23.3218 H   0  0  0  0  0  0
  -24.3541  -36.8780   22.2113 H   0  0  0  0  0  0
  -23.7243  -37.6051   23.6901 H   0  0  0  0  0  0
  -26.5162  -30.8194   20.6645 H   0  0  0  0  0  0
  -27.0481  -30.2338   22.1707 H   0  0  0  0  0  0
  -28.1835  -27.6089   21.4602 H   0  0  0  0  0  0
  -25.7653  -25.2259   18.9169 H   0  0  0  0  0  0
  -24.1930  -26.9913   18.8316 H   0  0  0  0  0  0
  -24.1580  -30.1902   19.3471 H   0  0  0  0  0  0
  -23.0122  -28.9708   19.7890 H   0  0  0  0  0  0
  -25.1435  -36.1258   25.0710 H   0  0  0  0  0  0
  -21.0102  -28.3537   24.1140 H   0  0  0  0  0  0
  -20.5577  -26.2495   23.3765 H   0  0  0  0  0  0
  -21.6661  -26.7231   22.1310 H   0  0  0  0  0  0
  -19.6944  -25.6204   21.1356 H   0  0  0  0  0  0
  -19.6779  -27.3062   20.6695 H   0  0  0  0  0  0
  -17.4259  -26.6713   21.3997 H   0  0  0  0  0  0
  -18.0340  -26.0152   22.9031 H   0  0  0  0  0  0
  -19.8044  -30.7410   24.2041 H   0  0  0  0  0  0
  -17.5096  -31.6281   24.5171 H   0  0  0  0  0  0
  -15.5426  -30.2942   23.7783 H   0  0  0  0  0  0
  -15.8762  -28.0789   22.7169 H   0  0  0  0  0  0
  -24.5844  -30.7190   25.7385 H   0  0  0  0  0  0
  -24.8699  -32.3198   26.4083 H   0  0  0  0  0  0
  -25.7579  -30.9365   27.0188 H   0  0  0  0  0  0
  -26.3636  -29.5967   24.2341 H   0  0  0  0  0  0
  -27.4093  -29.7467   25.6156 H   0  0  0  0  0  0
  -27.9653  -30.3605   24.0870 H   0  0  0  0  0  0
  -27.2427  -33.3910   26.1575 H   0  0  0  0  0  0
  -28.4042  -32.6764   25.0494 H   0  0  0  0  0  0
  -28.0425  -31.8943   26.5805 H   0  0  0  0  0  0
  -28.2476  -37.9991   24.7512 H   0  0  0  0  0  0
  -28.1124  -36.2500   24.6291 H   0  0  0  0  0  0
  -27.2255  -37.1237   25.8862 H   0  0  0  0  0  0
  -21.0195  -29.8414   21.6033 H   0  0  0  0  0  0
  -25.9999  -38.2474   24.1420 H   0  0  0  0  0  0
  -29.8127  -21.4957   18.4413 H   0  0  0  0  0  0
  -30.8178  -22.0465   19.7270 H   0  0  0  0  0  0
  -31.0951  -19.8288   20.7119 H   0  0  0  0  0  0
  -31.0043  -19.4301   19.0439 H   0  0  0  0  0  0
  -28.9405  -22.2153   21.2381 H   0  0  0  0  0  0
  1 25  1  0  0  0
  1 30  2  0  0  0
  1 75  1  0  0  0
  2  3  1  0  0  0
  2 25  1  0  0  0
  2 77  1  0  0  0
  2 78  1  0  0  0
  3  4  1  0  0  0
  3 79  1  0  0  0
  3 80  1  0  0  0
  4  5  1  0  0  0
  4 81  1  0  0  0
  4 82  1  0  0  0
  5  6  1  0  0  0
  5 26  1  0  0  0
  5 83  1  0  0  0
  6 25  1  0  0  0
  6 84  1  0  0  0
  6 85  1  0  0  0
  7  8  2  0  0  0
  7 26  1  0  0  0
  7 29  1  0  0  0
  8  9  1  0  0  0
  8 22  1  0  0  0
  9 10  1  0  0  0
  9 27  2  0  0  0
 10 11  2  0  0  0
 10 15  1  0  0  0
 11 12  1  0  0  0
 11 86  1  0  0  0
 12 13  2  0  0  0
 12 87  1  0  0  0
 13 14  1  0  0  0
 13 31  1  0  0  0
 14 15  2  0  0  0
 14 88  1  0  0  0
 15 89  1  0  0  0
 16 17  2  0  0  0
 16 21  1  0  0  0
 16 31  1  0  0  0
 17 18  1  0  0  0
 17 90  1  0  0  0
 18 19  2  0  0  0
 18 91  1  0  0  0
 19 20  1  0  0  0
 19 24  1  0  0  0
 20 21  2  0  0  0
 20 92  1  0  0  0
 21 23  1  0  0  0
 22 28  1  0  0  0
 22 32  2  0  0  0
 26 27  1  0  0  0
 28 93  1  0  0  0
 28 94  1  0  0  0
 29 95  1  0  0  0
 29 96  1  0  0  0
 33 34  1  0  0  0
 33 66  1  0  0  0
 33 70  2  0  0  0
 34 36  1  0  0  0
 34 59  1  0  0  0
 34 97  1  0  0  0
 35 44  2  0  0  0
 35 45  1  0  0  0
 35 68  1  0  0  0
 36 56  1  0  0  0
 36 98  1  0  0  0
 37 39  1  0  0  0
 37 47  1  0  0  0
 37 66  1  0  0  0
 37 99  1  0  0  0
 38 43  2  0  0  0
 38 46  1  0  0  0
 38 47  1  0  0  0
 39 64  1  0  0  0
 39 67  2  0  0  0
 40 52  1  0  0  0
 40 53  2  0  0  0
 40 58  1  0  0  0
 41100  1  0  0  0
 41101  1  0  0  0
 41102  1  0  0  0
 41 48  1  0  0  0
 42 43  1  0  0  0
 42 66  1  0  0  0
 42103  1  0  0  0
 42104  1  0  0  0
 43 44  1  0  0  0
 44105  1  0  0  0
 45 46  2  0  0  0
 45106  1  0  0  0
 46107  1  0  0  0
 47108  1  0  0  0
 47109  1  0  0  0
 48 56  1  0  0  0
 48 65  1  0  0  0
 48110  1  0  0  0
 49 50  1  0  0  0
 49 53  1  0  0  0
 49 64  1  0  0  0
 49111  1  0  0  0
 50 51  1  0  0  0
 50112  1  0  0  0
 50113  1  0  0  0
 51 52  1  0  0  0
 51114  1  0  0  0
 51115  1  0  0  0
 52116  1  0  0  0
 52117  1  0  0  0
 53 54  1  0  0  0
 54 55  2  0  0  0
 54118  1  0  0  0
 55 57  1  0  0  0
 55119  1  0  0  0
 56 69  2  0  0  0
 57 58  2  0  0  0
 57120  1  0  0  0
 58121  1  0  0  0
 59 60  1  0  0  0
 59 61  1  0  0  0
 59 62  1  0  0  0
 60122  1  0  0  0
 60123  1  0  0  0
 60124  1  0  0  0
 61125  1  0  0  0
 61126  1  0  0  0
 61127  1  0  0  0
 62128  1  0  0  0
 62129  1  0  0  0
 62130  1  0  0  0
 63 65  1  0  0  0
 63131  1  0  0  0
 63132  1  0  0  0
 63133  1  0  0  0
 64134  1  0  0  0
 65135  1  0  0  0
 68 74  1  0  0  0
 71 74  1  0  0  0
 71 75  1  0  0  0
 71 76  2  0  0  0
 72 73  1  0  0  0
 72 74  1  0  0  0
 72136  1  0  0  0
 72137  1  0  0  0
 73 75  1  0  0  0
 73138  1  0  0  0
 73139  1  0  0  0
 74140  1  0  0  0
M  ISO  4   1 100  68 101  74 101  75 100
M  END
> <chiral flag>
0

> <version>
0

> <s_m_source_file>
/data/baiqing/PycharmProjects/Reinvent-master-3.2/result/LINK_invent/BTK/process_docking_weight1_custom_product_contain_oxygen_bond_distance_aromatic_linkinvent_7_9_3/rearranged_h_0008.sdf

> <i_m_source_file_index>
32

> <r_mmod_Potential_Energy-OPLS-2005>
8364.4599609375

> <r_mmod_Stretch_Energy-OPLS-2005>
3238.87939453125

> <r_mmod_Bend_Energy-OPLS-2005>
1714.51440429688

> <r_mmod_Torsional_Energy-OPLS-2005>
243.385314941406

> <r_mmod_Improper_Torsional_Energy-OPLS-2005>
6.36796903610229

> <r_mmod_Van_der_Waal_Energy-OPLS-2005>
123.371444702148

> <r_mmod_Electrostatic_Energy-OPLS-2005>
-308.390075683594

> <r_mmod_Solvation_Energy-OPLS-2005>
-219.110656738281

> <b_mmod_Minimization_Converged-OPLS-2005>
0

> <r_mmod_RMS_Derivative-OPLS-2005>
0.442756742238998

$$$$
32
                    3D
 Structure written by MMmdl.
161169  0  0  1  0            999 V2000
  -30.5860  -14.9828   20.4040 C   0  0  0  0  0  0
  -30.4477  -12.6220   19.4699 C   0  0  0  0  0  0
  -29.5176  -12.5104   18.2392 C   0  0  0  0  0  0
  -28.0515  -12.3075   18.6642 C   0  0  0  0  0  0
  -27.6215  -13.2516   19.8164 C   0  0  2  0  0  0
  -28.6780  -13.3416   20.9379 C   0  0  0  0  0  0
  -25.2330  -13.8127   20.5594 C   0  0  0  0  0  0
  -24.1700  -13.0355   20.9246 C   0  0  0  0  0  0
  -24.6357  -11.6898   20.8722 C   0  0  0  0  0  0
  -23.9041  -10.4263   21.0381 C   0  0  0  0  0  0
  -24.3605   -9.4202   21.9169 C   0  0  0  0  0  0
  -23.6276   -8.2247   22.0746 C   0  0  0  0  0  0
  -22.4267   -8.0246   21.3571 C   0  0  0  0  0  0
  -21.9904   -9.0194   20.4674 C   0  0  0  0  0  0
  -22.7201  -10.2088   20.3053 C   0  0  0  0  0  0
  -21.6873   -6.0681   22.5270 C   0  0  0  0  0  0
  -21.4027   -6.5589   23.8190 C   0  0  0  0  0  0
  -21.3665   -5.6757   24.9152 C   0  0  0  0  0  0
  -21.6067   -4.3019   24.7244 C   0  0  0  0  0  0
  -21.8813   -3.8104   23.4352 C   0  0  0  0  0  0
  -21.9197   -4.6908   22.3406 C   0  0  0  0  0  0
  -22.7722  -13.5155   21.1895 C   0  0  0  0  0  0
  -22.1670   -4.2072   21.0987 F   0  0  0  0  0  0
  -21.5637   -3.4527   25.7778 F   0  0  0  0  0  0
  -29.9470  -13.7415   20.3155 N   0  0  0  0  0  0
  -26.2850  -12.9421   20.3190 N   0  0  0  0  0  0
  -25.9302  -11.6563   20.5720 N   0  0  0  0  0  0
  -22.0391  -12.8179   22.0508 N   0  0  0  0  0  0
  -25.3680  -15.1816   20.3806 N   0  0  0  0  0  0
  -31.8188  -14.9743   20.3161 O   0  0  0  0  0  0
  -21.6642   -6.8827   21.4247 O   0  0  0  0  0  0
  -22.3390  -14.5385   20.6639 O   0  0  0  0  0  0
  -24.6408  -31.8482   23.1906 C   0  0  0  0  0  0
  -25.9185  -32.4736   23.8293 C   0  0  1  0  0  0
  -27.2425  -27.1819   20.1662 C   0  0  0  0  0  0
  -25.5939  -33.8527   24.2221 N   0  0  0  0  0  0
  -23.4460  -30.4644   21.5351 C   0  0  2  0  0  0
  -24.9032  -28.8970   20.1125 C   0  0  0  0  0  0
  -22.7573  -29.4545   22.4872 C   0  0  0  0  0  0
  -18.0300  -28.1389   22.8477 C   0  0  0  0  0  0
  -24.1492  -36.7269   23.2642 C   0  0  0  0  0  0
  -25.9974  -30.7401   21.3815 C   0  0  0  0  0  0
  -26.0765  -29.3524   20.7282 C   0  0  0  0  0  0
  -27.2473  -28.5151   20.7314 C   0  0  0  0  0  0
  -26.0453  -26.8164   19.5111 C   0  0  0  0  0  0
  -24.8990  -27.6416   19.4851 C   0  0  0  0  0  0
  -23.6731  -29.7905   20.1557 C   0  0  0  0  0  0
  -25.4124  -36.3062   24.0328 C   0  0  1  0  0  0
  -20.5913  -28.3699   23.1251 C   0  0  2  0  0  0
  -20.6790  -26.9401   22.5411 C   0  0  0  0  0  0
  -19.5764  -26.6371   21.5222 C   0  0  0  0  0  0
  -18.1942  -26.7933   22.1626 C   0  0  0  0  0  0
  -19.1556  -28.8861   23.2867 C   0  0  0  0  0  0
  -18.9474  -30.1457   23.8898 C   0  0  0  0  0  0
  -17.6466  -30.6580   24.0552 C   0  0  0  0  0  0
  -25.9059  -34.9431   23.5077 C   0  0  0  0  0  0
  -16.5352  -29.9077   23.6319 C   0  0  0  0  0  0
  -16.7282  -28.6493   23.0346 C   0  0  0  0  0  0
  -26.4498  -31.6569   25.0708 C   0  0  0  0  0  0
  -25.3690  -31.3739   26.1402 C   0  0  0  0  0  0
  -27.0325  -30.2972   24.6222 C   0  0  0  0  0  0
  -27.6040  -32.4305   25.7500 C   0  0  0  0  0  0
  -27.5589  -37.1797   24.8470 C   0  0  0  0  0  0
  -21.4266  -29.3044   22.3637 N   0  0  0  0  0  0
  -26.4302  -37.3776   23.9406 N   0  0  0  0  0  0
  -24.7143  -31.0367   22.0926 N   0  0  0  0  0  0
  -23.4207  -28.8083   23.3023 O   0  0  0  0  0  0
  -28.3233  -26.2369   20.2382 O   0  0  0  0  0  0
  -26.5642  -34.8916   22.4657 O   0  0  0  0  0  0
  -23.5531  -32.1297   23.7144 O   0  0  0  0  0  0
  -30.6508  -18.7078   20.0216 C   0  0  0  0  0  0
  -28.4724  -19.5875   21.4120 C   0  0  0  0  0  0
  -30.4035  -20.1426   20.1838 C   0  0  0  0  0  0
  -28.7148  -18.1690   21.2389 C   0  0  0  0  0  0
  -29.8284  -17.6287   20.5206 C   0  0  0  0  0  0
  -29.2490  -20.6797   20.8785 C   0  0  0  0  0  0
  -31.4478  -21.0642   19.5612 C   0  0  0  0  0  0
  -27.6665  -17.2130   21.7702 C   0  0  0  0  0  0
  -29.6587  -16.1798   18.5576 C   0  0  0  0  0  0
  -28.0955  -22.2721   22.3743 C   0  0  0  0  0  0
  -29.1843  -23.4821   20.4939 C   0  0  0  0  0  0
  -28.0552  -24.7203   20.3639 C   0  0  0  0  0  0
  -29.8853  -16.1745   20.0158 N   0  0  0  0  0  0
  -28.8134  -22.0979   21.1016 N   0  0  0  0  0  0
  -31.4708  -12.8006   19.1360 H   0  0  0  0  0  0
  -30.4726  -11.6857   20.0293 H   0  0  0  0  0  0
  -29.8287  -11.6816   17.6026 H   0  0  0  0  0  0
  -29.5985  -13.4092   17.6284 H   0  0  0  0  0  0
  -27.9456  -11.2681   18.9781 H   0  0  0  0  0  0
  -27.3930  -12.4382   17.8045 H   0  0  0  0  0  0
  -27.5608  -14.2349   19.3615 H   0  0  0  0  0  0
  -28.7788  -12.3922   21.4629 H   0  0  0  0  0  0
  -28.3765  -14.0897   21.6725 H   0  0  0  0  0  0
  -25.2752   -9.5623   22.4740 H   0  0  0  0  0  0
  -23.9964   -7.4634   22.7459 H   0  0  0  0  0  0
  -21.0857   -8.8642   19.8989 H   0  0  0  0  0  0
  -22.3631  -10.9570   19.6105 H   0  0  0  0  0  0
  -21.2008   -7.6101   23.9664 H   0  0  0  0  0  0
  -21.1516   -6.0507   25.9052 H   0  0  0  0  0  0
  -22.0604   -2.7572   23.2888 H   0  0  0  0  0  0
  -22.4056  -11.9870   22.4924 H   0  0  0  0  0  0
  -21.0946  -13.1105   22.2583 H   0  0  0  0  0  0
  -24.5738  -15.8050   20.4691 H   0  0  0  0  0  0
  -26.1911  -15.6397   20.0162 H   0  0  0  0  0  0
  -26.7258  -32.5358   23.1034 H   0  0  0  0  0  0
  -25.0070  -33.9638   25.0353 H   0  0  0  0  0  0
  -22.7467  -31.2881   21.3787 H   0  0  0  0  0  0
  -23.3764  -35.9599   23.3318 H   0  0  0  0  0  0
  -24.3573  -36.8875   22.2054 H   0  0  0  0  0  0
  -23.7218  -37.6467   23.6640 H   0  0  0  0  0  0
  -26.1412  -31.4962   20.6085 H   0  0  0  0  0  0
  -26.8746  -30.7955   22.0152 H   0  0  0  0  0  0
  -28.1440  -28.8647   21.2216 H   0  0  0  0  0  0
  -25.9636  -25.8564   19.0253 H   0  0  0  0  0  0
  -24.0065  -27.2848   18.9916 H   0  0  0  0  0  0
  -23.8055  -30.5643   19.3991 H   0  0  0  0  0  0
  -22.7919  -29.2278   19.8432 H   0  0  0  0  0  0
  -25.1307  -36.1936   25.0828 H   0  0  0  0  0  0
  -21.0001  -28.3281   24.1376 H   0  0  0  0  0  0
  -20.5707  -26.2294   23.3622 H   0  0  0  0  0  0
  -21.6649  -26.7428   22.1189 H   0  0  0  0  0  0
  -19.6922  -25.6284   21.1256 H   0  0  0  0  0  0
  -19.6713  -27.3181   20.6756 H   0  0  0  0  0  0
  -17.4213  -26.6680   21.4028 H   0  0  0  0  0  0
  -18.0326  -26.0082   22.9030 H   0  0  0  0  0  0
  -19.7941  -30.7288   24.2273 H   0  0  0  0  0  0
  -17.5000  -31.6269   24.5142 H   0  0  0  0  0  0
  -15.5342  -30.2973   23.7656 H   0  0  0  0  0  0
  -15.8678  -28.0810   22.7070 H   0  0  0  0  0  0
  -24.5863  -30.7103   25.7709 H   0  0  0  0  0  0
  -24.8863  -32.2905   26.4797 H   0  0  0  0  0  0
  -25.7966  -30.8914   27.0195 H   0  0  0  0  0  0
  -26.2896  -29.6727   24.1239 H   0  0  0  0  0  0
  -27.3972  -29.7245   25.4754 H   0  0  0  0  0  0
  -27.8806  -30.4223   23.9489 H   0  0  0  0  0  0
  -27.2655  -33.3621   26.2053 H   0  0  0  0  0  0
  -28.3884  -32.6838   25.0354 H   0  0  0  0  0  0
  -28.0669  -31.8423   26.5436 H   0  0  0  0  0  0
  -28.2619  -38.0085   24.7502 H   0  0  0  0  0  0
  -28.1071  -36.2599   24.6330 H   0  0  0  0  0  0
  -27.2284  -37.1509   25.8871 H   0  0  0  0  0  0
  -20.9468  -29.8753   21.6818 H   0  0  0  0  0  0
  -26.0185  -38.2864   24.1385 H   0  0  0  0  0  0
  -31.4980  -18.4182   19.4155 H   0  0  0  0  0  0
  -27.5772  -19.8346   21.9642 H   0  0  0  0  0  0
  -32.4446  -20.6772   19.7814 H   0  0  0  0  0  0
  -31.4217  -22.0897   19.9286 H   0  0  0  0  0  0
  -31.3458  -21.0855   18.4743 H   0  0  0  0  0  0
  -26.7444  -17.7234   22.0535 H   0  0  0  0  0  0
  -28.0281  -16.6571   22.6354 H   0  0  0  0  0  0
  -27.4159  -16.5090   20.9844 H   0  0  0  0  0  0
  -29.6580  -17.1864   18.1390 H   0  0  0  0  0  0
  -28.6884  -15.7613   18.3061 H   0  0  0  0  0  0
  -30.4255  -15.6352   18.0035 H   0  0  0  0  0  0
  -28.4194  -21.5769   23.1512 H   0  0  0  0  0  0
  -27.0197  -22.1453   22.2301 H   0  0  0  0  0  0
  -28.2435  -23.2694   22.7977 H   0  0  0  0  0  0
  -30.0057  -23.8714   21.0992 H   0  0  0  0  0  0
  -29.6146  -23.3146   19.5075 H   0  0  0  0  0  0
  -27.3850  -24.6494   21.2224 H   0  0  0  0  0  0
  -27.4380  -24.4305   19.5143 H   0  0  0  0  0  0
  1 25  1  0  0  0
  1 30  2  0  0  0
  1 83  1  0  0  0
  2  3  1  0  0  0
  2 25  1  0  0  0
  2 85  1  0  0  0
  2 86  1  0  0  0
  3  4  1  0  0  0
  3 87  1  0  0  0
  3 88  1  0  0  0
  4  5  1  0  0  0
  4 89  1  0  0  0
  4 90  1  0  0  0
  5  6  1  0  0  0
  5 26  1  0  0  0
  5 91  1  0  0  0
  6 25  1  0  0  0
  6 92  1  0  0  0
  6 93  1  0  0  0
  7  8  2  0  0  0
  7 26  1  0  0  0
  7 29  1  0  0  0
  8  9  1  0  0  0
  8 22  1  0  0  0
  9 10  1  0  0  0
  9 27  2  0  0  0
 10 11  2  0  0  0
 10 15  1  0  0  0
 11 12  1  0  0  0
 11 94  1  0  0  0
 12 13  2  0  0  0
 12 95  1  0  0  0
 13 14  1  0  0  0
 13 31  1  0  0  0
 14 15  2  0  0  0
 14 96  1  0  0  0
 15 97  1  0  0  0
 16 17  2  0  0  0
 16 21  1  0  0  0
 16 31  1  0  0  0
 17 18  1  0  0  0
 17 98  1  0  0  0
 18 19  2  0  0  0
 18 99  1  0  0  0
 19 20  1  0  0  0
 19 24  1  0  0  0
 20 21  2  0  0  0
 20100  1  0  0  0
 21 23  1  0  0  0
 22 28  1  0  0  0
 22 32  2  0  0  0
 26 27  1  0  0  0
 28101  1  0  0  0
 28102  1  0  0  0
 29103  1  0  0  0
 29104  1  0  0  0
 33 34  1  0  0  0
 33 66  1  0  0  0
 33 70  2  0  0  0
 34 36  1  0  0  0
 34 59  1  0  0  0
 34105  1  0  0  0
 35 44  2  0  0  0
 35 45  1  0  0  0
 35 68  1  0  0  0
 36 56  1  0  0  0
 36106  1  0  0  0
 37 39  1  0  0  0
 37 47  1  0  0  0
 37 66  1  0  0  0
 37107  1  0  0  0
 38 43  2  0  0  0
 38 46  1  0  0  0
 38 47  1  0  0  0
 39 64  1  0  0  0
 39 67  2  0  0  0
 40 52  1  0  0  0
 40 53  2  0  0  0
 40 58  1  0  0  0
 41108  1  0  0  0
 41109  1  0  0  0
 41110  1  0  0  0
 41 48  1  0  0  0
 42 43  1  0  0  0
 42 66  1  0  0  0
 42111  1  0  0  0
 42112  1  0  0  0
 43 44  1  0  0  0
 44113  1  0  0  0
 45 46  2  0  0  0
 45114  1  0  0  0
 46115  1  0  0  0
 47116  1  0  0  0
 47117  1  0  0  0
 48 56  1  0  0  0
 48 65  1  0  0  0
 48118  1  0  0  0
 49 50  1  0  0  0
 49 53  1  0  0  0
 49 64  1  0  0  0
 49119  1  0  0  0
 50 51  1  0  0  0
 50120  1  0  0  0
 50121  1  0  0  0
 51 52  1  0  0  0
 51122  1  0  0  0
 51123  1  0  0  0
 52124  1  0  0  0
 52125  1  0  0  0
 53 54  1  0  0  0
 54 55  2  0  0  0
 54126  1  0  0  0
 55 57  1  0  0  0
 55127  1  0  0  0
 56 69  2  0  0  0
 57 58  2  0  0  0
 57128  1  0  0  0
 58129  1  0  0  0
 59 60  1  0  0  0
 59 61  1  0  0  0
 59 62  1  0  0  0
 60130  1  0  0  0
 60131  1  0  0  0
 60132  1  0  0  0
 61133  1  0  0  0
 61134  1  0  0  0
 61135  1  0  0  0
 62136  1  0  0  0
 62137  1  0  0  0
 62138  1  0  0  0
 63 65  1  0  0  0
 63139  1  0  0  0
 63140  1  0  0  0
 63141  1  0  0  0
 64142  1  0  0  0
 65143  1  0  0  0
 68 82  1  0  0  0
 71 73  2  0  0  0
 71 75  1  0  0  0
 71144  1  0  0  0
 72 74  1  0  0  0
 72 76  2  0  0  0
 72145  1  0  0  0
 73 76  1  0  0  0
 73 77  1  0  0  0
 74 75  2  0  0  0
 74 78  1  0  0  0
 75 83  1  0  0  0
 76 84  1  0  0  0
 77146  1  0  0  0
 77147  1  0  0  0
 77148  1  0  0  0
 78149  1  0  0  0
 78150  1  0  0  0
 78151  1  0  0  0
 79 83  1  0  0  0
 79152  1  0  0  0
 79153  1  0  0  0
 79154  1  0  0  0
 80 84  1  0  0  0
 80155  1  0  0  0
 80156  1  0  0  0
 80157  1  0  0  0
 81 82  1  0  0  0
 81 84  1  0  0  0
 81158  1  0  0  0
 81159  1  0  0  0
 82160  1  0  0  0
 82161  1  0  0  0
M  ISO  4   1 100  68 101  82 101  83 100
M  END
> <chiral flag>
0

> <version>
0

> <s_m_source_file>
/data/baiqing/PycharmProjects/Reinvent-master-3.2/result/LINK_invent/BTK/process_docking_weight1_custom_product_contain_oxygen_bond_distance_aromatic_linkinvent_7_9_3/rearranged_h_0008.sdf

> <i_m_source_file_index>
33

> <r_mmod_Potential_Energy-OPLS-2005>
691.807556152344

> <r_mmod_Stretch_Energy-OPLS-2005>
229.302047729492

> <r_mmod_Bend_Energy-OPLS-2005>
283.751068115234

> <r_mmod_Torsional_Energy-OPLS-2005>
332.281158447266

> <r_mmod_Improper_Torsional_Energy-OPLS-2005>
26.8393058776855

> <r_mmod_Van_der_Waal_Energy-OPLS-2005>
145.732894897461

> <r_mmod_Electrostatic_Energy-OPLS-2005>
-313.28515625

> <r_mmod_Solvation_Energy-OPLS-2005>
-208.29621887207

> <b_mmod_Minimization_Converged-OPLS-2005>
0

> <r_mmod_RMS_Derivative-OPLS-2005>
5.36541604995728

$$$$
33
                    3D
 Structure written by MMmdl.
150158  0  0  1  0            999 V2000
  -30.1549  -16.0671   20.3053 C   0  0  0  0  0  0
  -30.3849  -13.4059   19.5543 C   0  0  0  0  0  0
  -29.5644  -12.7788   18.3759 C   0  0  0  0  0  0
  -28.1773  -12.3234   18.8382 C   0  0  0  0  0  0
  -27.5855  -13.3552   19.8165 C   0  0  2  0  0  0
  -28.5687  -13.8642   20.9124 C   0  0  0  0  0  0
  -25.2260  -13.8359   20.5856 C   0  0  0  0  0  0
  -24.1695  -13.0450   20.9323 C   0  0  0  0  0  0
  -24.6456  -11.6980   20.8763 C   0  0  0  0  0  0
  -23.9163  -10.4308   21.0377 C   0  0  0  0  0  0
  -24.3678   -9.4222   21.9169 C   0  0  0  0  0  0
  -23.6327   -8.2268   22.0755 C   0  0  0  0  0  0
  -22.4307   -8.0307   21.3548 C   0  0  0  0  0  0
  -21.9964   -9.0283   20.4643 C   0  0  0  0  0  0
  -22.7320  -10.2150   20.3040 C   0  0  0  0  0  0
  -21.6869   -6.0749   22.5274 C   0  0  0  0  0  0
  -21.4026   -6.5643   23.8212 C   0  0  0  0  0  0
  -21.3664   -5.6791   24.9167 C   0  0  0  0  0  0
  -21.6044   -4.3052   24.7218 C   0  0  0  0  0  0
  -21.8818   -3.8151   23.4335 C   0  0  0  0  0  0
  -21.9197   -4.6971   22.3396 C   0  0  0  0  0  0
  -22.7692  -13.5152   21.1924 C   0  0  0  0  0  0
  -22.1662   -4.2156   21.0973 F   0  0  0  0  0  0
  -21.5628   -3.4536   25.7730 F   0  0  0  0  0  0
  -29.6723  -14.6259   20.2371 N   0  0  0  0  0  0
  -26.2767  -12.9781   20.3327 N   0  0  0  0  0  0
  -25.9426  -11.6798   20.5698 N   0  0  0  0  0  0
  -22.0354  -12.8135   22.0471 N   0  0  0  0  0  0
  -25.3799  -15.2108   20.4265 N   0  0  0  0  0  0
  -31.3902  -15.9141   20.1253 O   0  0  0  0  0  0
  -21.6661   -6.8905   21.4246 O   0  0  0  0  0  0
  -22.3366  -14.5445   20.6749 O   0  0  0  0  0  0
  -24.7114  -31.7645   23.1261 C   0  0  0  0  0  0
  -25.9557  -32.4288   23.7915 C   0  0  1  0  0  0
  -27.2453  -26.4076   20.2389 C   0  0  0  0  0  0
  -25.6013  -33.8132   24.1777 N   0  0  0  0  0  0
  -23.5520  -30.3522   21.4859 C   0  0  2  0  0  0
  -25.0152  -28.6314   20.1213 C   0  0  0  0  0  0
  -22.7894  -29.4126   22.4619 C   0  0  0  0  0  0
  -18.0359  -28.1440   22.8432 C   0  0  0  0  0  0
  -24.1502  -36.7081   23.2660 C   0  0  0  0  0  0
  -26.1427  -30.3989   21.4369 C   0  0  0  0  0  0
  -26.2054  -28.9309   20.7922 C   0  0  0  0  0  0
  -27.2860  -27.8549   20.8146 C   0  0  0  0  0  0
  -26.0236  -26.3968   19.4938 C   0  0  0  0  0  0
  -24.9816  -27.3943   19.4471 C   0  0  0  0  0  0
  -23.8230  -29.6205   20.1337 C   0  0  0  0  0  0
  -25.4161  -36.2791   24.0261 C   0  0  1  0  0  0
  -20.6006  -28.3812   23.1079 C   0  0  2  0  0  0
  -20.6813  -26.9441   22.5404 C   0  0  0  0  0  0
  -19.5794  -26.6360   21.5216 C   0  0  0  0  0  0
  -18.1975  -26.7959   22.1610 C   0  0  0  0  0  0
  -19.1632  -28.8956   23.2728 C   0  0  0  0  0  0
  -18.9533  -30.1531   23.8787 C   0  0  0  0  0  0
  -17.6519  -30.6611   24.0541 C   0  0  0  0  0  0
  -25.9157  -34.9189   23.4875 C   0  0  0  0  0  0
  -16.5406  -29.9088   23.6358 C   0  0  0  0  0  0
  -16.7335  -28.6516   23.0363 C   0  0  0  0  0  0
  -26.4648  -31.6446   25.0656 C   0  0  0  0  0  0
  -25.3640  -31.3843   26.1219 C   0  0  0  0  0  0
  -27.0629  -30.2751   24.6770 C   0  0  0  0  0  0
  -27.6040  -32.4375   25.7490 C   0  0  0  0  0  0
  -27.5556  -37.1695   24.8467 C   0  0  0  0  0  0
  -21.4516  -29.3001   22.3369 N   0  0  0  0  0  0
  -26.4261  -37.3585   23.9405 N   0  0  0  0  0  0
  -24.8288  -30.8788   22.0682 N   0  0  0  0  0  0
  -23.4196  -28.7773   23.3101 O   0  0  0  0  0  0
  -28.1672  -25.0562   20.3681 O   0  0  0  0  0  0
  -26.5833  -34.8823   22.4519 O   0  0  0  0  0  0
  -23.6069  -32.0864   23.6025 O   0  0  0  0  0  0
  -28.0737  -17.7584   20.9233 C   0  0  0  0  0  0
  -29.6046  -19.3910   19.9775 C   0  0  0  0  0  0
  -27.7324  -19.0912   21.7821 C   0  0  1  0  0  0
  -28.7345  -21.1531   20.5202 C   0  0  1  0  0  0
  -28.6418  -19.2196   23.0200 C   0  0  0  0  0  0
  -28.2472  -23.1724   20.0030 C   0  0  0  0  0  0
  -29.4437  -17.5780   20.3544 N   0  0  0  0  0  0
  -27.5340  -20.4449   21.0819 N   0  3  0  0  0  0
  -31.3444  -13.7182   19.1411 H   0  0  0  0  0  0
  -30.6497  -12.6408   20.2865 H   0  0  0  0  0  0
  -30.1077  -11.9438   17.9312 H   0  0  0  0  0  0
  -29.4528  -13.5262   17.5893 H   0  0  0  0  0  0
  -28.2846  -11.3638   19.3461 H   0  0  0  0  0  0
  -27.5159  -12.1564   17.9872 H   0  0  0  0  0  0
  -27.3951  -14.2203   19.1792 H   0  0  0  0  0  0
  -28.9249  -13.0532   21.5500 H   0  0  0  0  0  0
  -28.0474  -14.5505   21.5794 H   0  0  0  0  0  0
  -25.2813   -9.5696   22.4755 H   0  0  0  0  0  0
  -24.0020   -7.4667   22.7489 H   0  0  0  0  0  0
  -21.0891   -8.8818   19.8952 H   0  0  0  0  0  0
  -22.3776  -10.9687   19.6149 H   0  0  0  0  0  0
  -21.2026   -7.6152   23.9721 H   0  0  0  0  0  0
  -21.1484   -6.0514   25.9071 H   0  0  0  0  0  0
  -22.0591   -2.7613   23.2833 H   0  0  0  0  0  0
  -22.3987  -11.9817   22.4887 H   0  0  0  0  0  0
  -21.0953  -13.1127   22.2637 H   0  0  0  0  0  0
  -24.5964  -15.8487   20.5145 H   0  0  0  0  0  0
  -26.2076  -15.6447   20.0417 H   0  0  0  0  0  0
  -26.7663  -32.4691   23.0641 H   0  0  0  0  0  0
  -25.0034  -33.9122   24.9845 H   0  0  0  0  0  0
  -22.8948  -31.1971   21.2694 H   0  0  0  0  0  0
  -23.3786  -35.9386   23.3245 H   0  0  0  0  0  0
  -24.3565  -36.8836   22.2089 H   0  0  0  0  0  0
  -23.7247  -37.6221   23.6811 H   0  0  0  0  0  0
  -26.3742  -31.1034   20.6368 H   0  0  0  0  0  0
  -26.9837  -30.4785   22.1127 H   0  0  0  0  0  0
  -28.1693  -28.0983   21.3884 H   0  0  0  0  0  0
  -25.8094  -25.4808   18.9614 H   0  0  0  0  0  0
  -24.0937  -27.1530   18.8790 H   0  0  0  0  0  0
  -24.0201  -30.3676   19.3638 H   0  0  0  0  0  0
  -22.9231  -29.0990   19.8032 H   0  0  0  0  0  0
  -25.1389  -36.1508   25.0749 H   0  0  0  0  0  0
  -21.0078  -28.3462   24.1210 H   0  0  0  0  0  0
  -20.5652  -26.2443   23.3694 H   0  0  0  0  0  0
  -21.6670  -26.7340   22.1236 H   0  0  0  0  0  0
  -19.6945  -25.6243   21.1308 H   0  0  0  0  0  0
  -19.6746  -27.3117   20.6703 H   0  0  0  0  0  0
  -17.4245  -26.6692   21.4011 H   0  0  0  0  0  0
  -18.0358  -26.0131   22.9034 H   0  0  0  0  0  0
  -19.8008  -30.7373   24.2108 H   0  0  0  0  0  0
  -17.5069  -31.6277   24.5169 H   0  0  0  0  0  0
  -15.5403  -30.2953   23.7752 H   0  0  0  0  0  0
  -15.8734  -28.0804   22.7131 H   0  0  0  0  0  0
  -24.5866  -30.7156   25.7506 H   0  0  0  0  0  0
  -24.8794  -32.3089   26.4358 H   0  0  0  0  0  0
  -25.7755  -30.9184   27.0181 H   0  0  0  0  0  0
  -26.3402  -29.6274   24.1799 H   0  0  0  0  0  0
  -27.3975  -29.7313   25.5616 H   0  0  0  0  0  0
  -27.9410  -30.3811   24.0403 H   0  0  0  0  0  0
  -27.2544  -33.3782   26.1758 H   0  0  0  0  0  0
  -28.4005  -32.6769   25.0431 H   0  0  0  0  0  0
  -28.0539  -31.8715   26.5656 H   0  0  0  0  0  0
  -28.2524  -38.0034   24.7509 H   0  0  0  0  0  0
  -28.1098  -36.2549   24.6301 H   0  0  0  0  0  0
  -27.2265  -37.1330   25.8867 H   0  0  0  0  0  0
  -20.9896  -29.8615   21.6350 H   0  0  0  0  0  0
  -26.0060  -38.2619   24.1416 H   0  0  0  0  0  0
  -27.8734  -16.8983   21.5627 H   0  0  0  0  0  0
  -27.3617  -17.6735   20.1019 H   0  0  0  0  0  0
  -30.6736  -19.5711   20.0979 H   0  0  0  0  0  0
  -29.4817  -19.3861   18.8941 H   0  0  0  0  0  0
  -26.7365  -18.8910   22.1816 H   0  0  0  0  0  0
  -29.3499  -21.3822   21.3905 H   0  0  0  0  0  0
  -28.3111  -20.0287   23.6725 H   0  0  0  0  0  0
  -29.6787  -19.4148   22.7486 H   0  0  0  0  0  0
  -28.6271  -18.3026   23.6091 H   0  0  0  0  0  0
  -27.2383  -23.0396   19.6140 H   0  0  0  0  0  0
  -28.8446  -23.2518   19.0951 H   0  0  0  0  0  0
  -27.0899  -21.0702   21.7371 H   0  0  0  0  0  0
  -26.8705  -20.3134   20.3342 H   0  0  0  0  0  0
  1 25  1  0  0  0
  1 30  2  0  0  0
  1 77  1  0  0  0
  2  3  1  0  0  0
  2 25  1  0  0  0
  2 79  1  0  0  0
  2 80  1  0  0  0
  3  4  1  0  0  0
  3 81  1  0  0  0
  3 82  1  0  0  0
  4  5  1  0  0  0
  4 83  1  0  0  0
  4 84  1  0  0  0
  5  6  1  0  0  0
  5 26  1  0  0  0
  5 85  1  0  0  0
  6 25  1  0  0  0
  6 86  1  0  0  0
  6 87  1  0  0  0
  7  8  2  0  0  0
  7 26  1  0  0  0
  7 29  1  0  0  0
  8  9  1  0  0  0
  8 22  1  0  0  0
  9 10  1  0  0  0
  9 27  2  0  0  0
 10 11  2  0  0  0
 10 15  1  0  0  0
 11 12  1  0  0  0
 11 88  1  0  0  0
 12 13  2  0  0  0
 12 89  1  0  0  0
 13 14  1  0  0  0
 13 31  1  0  0  0
 14 15  2  0  0  0
 14 90  1  0  0  0
 15 91  1  0  0  0
 16 17  2  0  0  0
 16 21  1  0  0  0
 16 31  1  0  0  0
 17 18  1  0  0  0
 17 92  1  0  0  0
 18 19  2  0  0  0
 18 93  1  0  0  0
 19 20  1  0  0  0
 19 24  1  0  0  0
 20 21  2  0  0  0
 20 94  1  0  0  0
 21 23  1  0  0  0
 22 28  1  0  0  0
 22 32  2  0  0  0
 26 27  1  0  0  0
 28 95  1  0  0  0
 28 96  1  0  0  0
 29 97  1  0  0  0
 29 98  1  0  0  0
 33 34  1  0  0  0
 33 66  1  0  0  0
 33 70  2  0  0  0
 34 36  1  0  0  0
 34 59  1  0  0  0
 34 99  1  0  0  0
 35 44  2  0  0  0
 35 45  1  0  0  0
 35 68  1  0  0  0
 36 56  1  0  0  0
 36100  1  0  0  0
 37 39  1  0  0  0
 37 47  1  0  0  0
 37 66  1  0  0  0
 37101  1  0  0  0
 38 43  2  0  0  0
 38 46  1  0  0  0
 38 47  1  0  0  0
 39 64  1  0  0  0
 39 67  2  0  0  0
 40 52  1  0  0  0
 40 53  2  0  0  0
 40 58  1  0  0  0
 41102  1  0  0  0
 41103  1  0  0  0
 41104  1  0  0  0
 41 48  1  0  0  0
 42 43  1  0  0  0
 42 66  1  0  0  0
 42105  1  0  0  0
 42106  1  0  0  0
 43 44  1  0  0  0
 44107  1  0  0  0
 45 46  2  0  0  0
 45108  1  0  0  0
 46109  1  0  0  0
 47110  1  0  0  0
 47111  1  0  0  0
 48 56  1  0  0  0
 48 65  1  0  0  0
 48112  1  0  0  0
 49 50  1  0  0  0
 49 53  1  0  0  0
 49 64  1  0  0  0
 49113  1  0  0  0
 50 51  1  0  0  0
 50114  1  0  0  0
 50115  1  0  0  0
 51 52  1  0  0  0
 51116  1  0  0  0
 51117  1  0  0  0
 52118  1  0  0  0
 52119  1  0  0  0
 53 54  1  0  0  0
 54 55  2  0  0  0
 54120  1  0  0  0
 55 57  1  0  0  0
 55121  1  0  0  0
 56 69  2  0  0  0
 57 58  2  0  0  0
 57122  1  0  0  0
 58123  1  0  0  0
 59 60  1  0  0  0
 59 61  1  0  0  0
 59 62  1  0  0  0
 60124  1  0  0  0
 60125  1  0  0  0
 60126  1  0  0  0
 61127  1  0  0  0
 61128  1  0  0  0
 61129  1  0  0  0
 62130  1  0  0  0
 62131  1  0  0  0
 62132  1  0  0  0
 63 65  1  0  0  0
 63133  1  0  0  0
 63134  1  0  0  0
 63135  1  0  0  0
 64136  1  0  0  0
 65137  1  0  0  0
 68 76  1  0  0  0
 71 73  1  0  0  0
 71 77  1  0  0  0
 71138  1  0  0  0
 71139  1  0  0  0
 72 74  1  0  0  0
 72 77  1  0  0  0
 72140  1  0  0  0
 72141  1  0  0  0
 73 75  1  0  0  0
 73 78  1  0  0  0
 73142  1  0  0  0
 74 76  1  0  0  0
 74 78  1  0  0  0
 74143  1  0  0  0
 75144  1  0  0  0
 75145  1  0  0  0
 75146  1  0  0  0
 76147  1  0  0  0
 76148  1  0  0  0
 78149  1  0  0  0
 78150  1  0  0  0
M  CHG  1  78   1
M  ISO  4   1 100  68 101  76 101  77 100
M  END
> <chiral flag>
0

> <version>
0

> <s_m_source_file>
/data/baiqing/PycharmProjects/Reinvent-master-3.2/result/LINK_invent/BTK/process_docking_weight1_custom_product_contain_oxygen_bond_distance_aromatic_linkinvent_7_9_3/rearranged_h_0008.sdf

> <i_m_source_file_index>
34

> <r_mmod_Potential_Energy-OPLS-2005>
4337.853515625

> <r_mmod_Stretch_Energy-OPLS-2005>
1932.58630371094

> <r_mmod_Bend_Energy-OPLS-2005>
920.86083984375

> <r_mmod_Torsional_Energy-OPLS-2005>
384.625

> <r_mmod_Improper_Torsional_Energy-OPLS-2005>
5.2208104133606

> <r_mmod_Van_der_Waal_Energy-OPLS-2005>
122.221466064453

> <r_mmod_Electrostatic_Energy-OPLS-2005>
-193.475769042969

> <r_mmod_Solvation_Energy-OPLS-2005>
-480.976898193359

> <b_mmod_Minimization_Converged-OPLS-2005>
0

> <r_mmod_RMS_Derivative-OPLS-2005>
0.932175636291504

$$$$
34
                    3D
 Structure written by MMmdl.
141149  0  0  1  0            999 V2000
  -29.8900  -16.7395   20.2733 C   0  0  0  0  0  0
  -30.2906  -13.9280   19.5319 C   0  0  0  0  0  0
  -29.5764  -13.0154   18.4410 C   0  0  0  0  0  0
  -28.2629  -12.4154   18.9408 C   0  0  0  0  0  0
  -27.5742  -13.4594   19.8280 C   0  0  2  0  0  0
  -28.4996  -14.2251   20.8577 C   0  0  0  0  0  0
  -25.2140  -13.8558   20.6052 C   0  0  0  0  0  0
  -24.1663  -13.0503   20.9398 C   0  0  0  0  0  0
  -24.6568  -11.7074   20.8763 C   0  0  0  0  0  0
  -23.9285  -10.4343   21.0344 C   0  0  0  0  0  0
  -24.3754   -9.4240   21.9150 C   0  0  0  0  0  0
  -23.6376   -8.2293   22.0741 C   0  0  0  0  0  0
  -22.4345   -8.0333   21.3546 C   0  0  0  0  0  0
  -22.0028   -9.0324   20.4637 C   0  0  0  0  0  0
  -22.7417  -10.2175   20.3025 C   0  0  0  0  0  0
  -21.6885   -6.0762   22.5273 C   0  0  0  0  0  0
  -21.4034   -6.5650   23.8211 C   0  0  0  0  0  0
  -21.3675   -5.6795   24.9171 C   0  0  0  0  0  0
  -21.6054   -4.3057   24.7218 C   0  0  0  0  0  0
  -21.8815   -3.8158   23.4337 C   0  0  0  0  0  0
  -21.9197   -4.6983   22.3396 C   0  0  0  0  0  0
  -22.7615  -13.5085   21.1992 C   0  0  0  0  0  0
  -22.1657   -4.2162   21.0976 F   0  0  0  0  0  0
  -21.5631   -3.4539   25.7730 F   0  0  0  0  0  0
  -29.4687  -15.1869   20.1382 N   0  0  0  0  0  0
  -26.2828  -13.0217   20.3579 N   0  0  0  0  0  0
  -25.9589  -11.7104   20.5689 N   0  0  0  0  0  0
  -22.0306  -12.8014   22.0525 N   0  0  0  0  0  0
  -25.3491  -15.2339   20.4531 N   0  0  0  0  0  0
  -31.1364  -16.4523   20.2604 O   0  0  0  0  0  0
  -21.6678   -6.8935   21.4252 O   0  0  0  0  0  0
  -22.3240  -14.5372   20.6831 O   0  0  0  0  0  0
  -24.7558  -31.7082   23.0874 C   0  0  0  0  0  0
  -25.9753  -32.4030   23.7742 C   0  0  1  0  0  0
  -27.2666  -25.9356   20.2881 C   0  0  0  0  0  0
  -25.6020  -33.7896   24.1541 N   0  0  0  0  0  0
  -23.6157  -30.2713   21.4620 C   0  0  2  0  0  0
  -25.0771  -28.4421   20.1483 C   0  0  0  0  0  0
  -22.8074  -29.3844   22.4540 C   0  0  0  0  0  0
  -18.0385  -28.1451   22.8452 C   0  0  0  0  0  0
  -24.1480  -36.6948   23.2648 C   0  0  0  0  0  0
  -26.2179  -30.1842   21.4670 C   0  0  0  0  0  0
  -26.2760  -28.6608   20.8346 C   0  0  0  0  0  0
  -27.3177  -27.4687   20.8434 C   0  0  0  0  0  0
  -26.0297  -26.1208   19.5378 C   0  0  0  0  0  0
  -25.0387  -27.2011   19.4716 C   0  0  0  0  0  0
  -23.9092  -29.4900   20.1345 C   0  0  0  0  0  0
  -25.4128  -36.2630   24.0251 C   0  0  1  0  0  0
  -20.6057  -28.3850   23.0999 C   0  0  2  0  0  0
  -20.6826  -26.9461   22.5363 C   0  0  0  0  0  0
  -19.5770  -26.6349   21.5224 C   0  0  0  0  0  0
  -18.1984  -26.7946   22.1683 C   0  0  0  0  0  0
  -19.1673  -28.8999   23.2671 C   0  0  0  0  0  0
  -18.9570  -30.1575   23.8730 C   0  0  0  0  0  0
  -17.6546  -30.6633   24.0531 C   0  0  0  0  0  0
  -25.9201  -34.9056   23.4799 C   0  0  0  0  0  0
  -16.5432  -29.9098   23.6373 C   0  0  0  0  0  0
  -16.7361  -28.6516   23.0404 C   0  0  0  0  0  0
  -26.4697  -31.6385   25.0666 C   0  0  0  0  0  0
  -25.3614  -31.3872   26.1190 C   0  0  0  0  0  0
  -27.0779  -30.2677   24.7070 C   0  0  0  0  0  0
  -27.5986  -32.4460   25.7500 C   0  0  0  0  0  0
  -27.5598  -37.1506   24.8380 C   0  0  0  0  0  0
  -21.4667  -29.2954   22.3249 N   0  0  0  0  0  0
  -26.4124  -37.3549   23.9588 N   0  0  0  0  0  0
  -24.8976  -30.7732   22.0578 N   0  0  0  0  0  0
  -23.4150  -28.7609   23.3264 O   0  0  0  0  0  0
  -28.1793  -24.4010   20.2828 O   0  0  0  0  0  0
  -26.5967  -34.8802   22.4502 O   0  0  0  0  0  0
  -23.6413  -32.0531   23.5308 O   0  0  0  0  0  0
  -27.5275  -20.9040   19.7711 C   0  0  0  0  0  0
  -27.8392  -19.1803   20.1111 C   0  0  0  0  0  0
  -29.4781  -20.3938   20.3904 C   0  0  0  0  0  0
  -28.3460  -22.2357   20.4015 C   0  0  1  0  0  0
  -29.2436  -18.4566   20.2759 N   0  0  0  0  0  0
  -31.1788  -14.3286   19.0427 H   0  0  0  0  0  0
  -30.7125  -13.3067   20.3256 H   0  0  0  0  0  0
  -30.2468  -12.2241   18.1035 H   0  0  0  0  0  0
  -29.3695  -13.6345   17.5672 H   0  0  0  0  0  0
  -28.4814  -11.5281   19.5373 H   0  0  0  0  0  0
  -27.6268  -12.0999   18.1135 H   0  0  0  0  0  0
  -27.3034  -14.2272   19.1012 H   0  0  0  0  0  0
  -28.9851  -13.5397   21.5552 H   0  0  0  0  0  0
  -27.8813  -14.8534   21.4980 H   0  0  0  0  0  0
  -25.2890   -9.5681   22.4746 H   0  0  0  0  0  0
  -24.0062   -7.4677   22.7464 H   0  0  0  0  0  0
  -21.0957   -8.8875   19.8943 H   0  0  0  0  0  0
  -22.3889  -10.9712   19.6124 H   0  0  0  0  0  0
  -21.2031   -7.6156   23.9724 H   0  0  0  0  0  0
  -21.1502   -6.0520   25.9079 H   0  0  0  0  0  0
  -22.0579   -2.7615   23.2834 H   0  0  0  0  0  0
  -22.3963  -11.9704   22.4934 H   0  0  0  0  0  0
  -21.0888  -13.0939   22.2708 H   0  0  0  0  0  0
  -24.5769  -15.8756   20.5970 H   0  0  0  0  0  0
  -26.2033  -15.6963   20.1712 H   0  0  0  0  0  0
  -26.7943  -32.4378   23.0544 H   0  0  0  0  0  0
  -24.9955  -33.8820   24.9553 H   0  0  0  0  0  0
  -22.9879  -31.1267   21.2038 H   0  0  0  0  0  0
  -23.3953  -35.9044   23.2740 H   0  0  0  0  0  0
  -24.3660  -36.9237   22.2207 H   0  0  0  0  0  0
  -23.6925  -37.5776   23.7140 H   0  0  0  0  0  0
  -26.4959  -30.8559   20.6543 H   0  0  0  0  0  0
  -27.0444  -30.2719   22.1567 H   0  0  0  0  0  0
  -28.2143  -27.6918   21.4053 H   0  0  0  0  0  0
  -25.7488  -25.2504   18.9621 H   0  0  0  0  0  0
  -24.1629  -27.0036   18.8678 H   0  0  0  0  0  0
  -24.1460  -30.2159   19.3563 H   0  0  0  0  0  0
  -22.9996  -28.9947   19.7917 H   0  0  0  0  0  0
  -25.1297  -36.1214   25.0707 H   0  0  0  0  0  0
  -21.0108  -28.3519   24.1142 H   0  0  0  0  0  0
  -20.5710  -26.2491   23.3678 H   0  0  0  0  0  0
  -21.6660  -26.7343   22.1154 H   0  0  0  0  0  0
  -19.6913  -25.6223   21.1343 H   0  0  0  0  0  0
  -19.6671  -27.3090   20.6693 H   0  0  0  0  0  0
  -17.4207  -26.6625   21.4145 H   0  0  0  0  0  0
  -18.0442  -26.0153   22.9161 H   0  0  0  0  0  0
  -19.8050  -30.7436   24.2016 H   0  0  0  0  0  0
  -17.5105  -31.6311   24.5141 H   0  0  0  0  0  0
  -15.5431  -30.2953   23.7782 H   0  0  0  0  0  0
  -15.8769  -28.0774   22.7217 H   0  0  0  0  0  0
  -24.5449  -30.7800   25.7272 H   0  0  0  0  0  0
  -24.9322  -32.3207   26.4837 H   0  0  0  0  0  0
  -25.7537  -30.8579   26.9885 H   0  0  0  0  0  0
  -26.3620  -29.6018   24.2253 H   0  0  0  0  0  0
  -27.4129  -29.7453   25.6044 H   0  0  0  0  0  0
  -27.9619  -30.3693   24.0778 H   0  0  0  0  0  0
  -27.2310  -33.3729   26.1921 H   0  0  0  0  0  0
  -28.3809  -32.7146   25.0388 H   0  0  0  0  0  0
  -28.0703  -31.8820   26.5557 H   0  0  0  0  0  0
  -28.2033  -38.0313   24.8207 H   0  0  0  0  0  0
  -28.1649  -36.2985   24.5242 H   0  0  0  0  0  0
  -27.2497  -36.9887   25.8719 H   0  0  0  0  0  0
  -21.0147  -29.8477   21.6093 H   0  0  0  0  0  0
  -25.9845  -38.2432   24.2049 H   0  0  0  0  0  0
  -26.4698  -21.0714   19.9795 H   0  0  0  0  0  0
  -27.5871  -21.0087   18.6862 H   0  0  0  0  0  0
  -27.2992  -18.6047   19.3588 H   0  0  0  0  0  0
  -27.3111  -18.9508   21.0389 H   0  0  0  0  0  0
  -30.1315  -20.4911   21.2596 H   0  0  0  0  0  0
  -30.1717  -20.5543   19.5626 H   0  0  0  0  0  0
  -28.0327  -22.2325   21.4462 H   0  0  0  0  0  0
  1 25  1  0  0  0
  1 30  2  0  0  0
  1 75  1  0  0  0
  2  3  1  0  0  0
  2 25  1  0  0  0
  2 76  1  0  0  0
  2 77  1  0  0  0
  3  4  1  0  0  0
  3 78  1  0  0  0
  3 79  1  0  0  0
  4  5  1  0  0  0
  4 80  1  0  0  0
  4 81  1  0  0  0
  5  6  1  0  0  0
  5 26  1  0  0  0
  5 82  1  0  0  0
  6 25  1  0  0  0
  6 83  1  0  0  0
  6 84  1  0  0  0
  7  8  2  0  0  0
  7 26  1  0  0  0
  7 29  1  0  0  0
  8  9  1  0  0  0
  8 22  1  0  0  0
  9 10  1  0  0  0
  9 27  2  0  0  0
 10 11  2  0  0  0
 10 15  1  0  0  0
 11 12  1  0  0  0
 11 85  1  0  0  0
 12 13  2  0  0  0
 12 86  1  0  0  0
 13 14  1  0  0  0
 13 31  1  0  0  0
 14 15  2  0  0  0
 14 87  1  0  0  0
 15 88  1  0  0  0
 16 17  2  0  0  0
 16 21  1  0  0  0
 16 31  1  0  0  0
 17 18  1  0  0  0
 17 89  1  0  0  0
 18 19  2  0  0  0
 18 90  1  0  0  0
 19 20  1  0  0  0
 19 24  1  0  0  0
 20 21  2  0  0  0
 20 91  1  0  0  0
 21 23  1  0  0  0
 22 28  1  0  0  0
 22 32  2  0  0  0
 26 27  1  0  0  0
 28 92  1  0  0  0
 28 93  1  0  0  0
 29 94  1  0  0  0
 29 95  1  0  0  0
 33 34  1  0  0  0
 33 66  1  0  0  0
 33 70  2  0  0  0
 34 36  1  0  0  0
 34 59  1  0  0  0
 34 96  1  0  0  0
 35 44  2  0  0  0
 35 45  1  0  0  0
 35 68  1  0  0  0
 36 56  1  0  0  0
 36 97  1  0  0  0
 37 39  1  0  0  0
 37 47  1  0  0  0
 37 66  1  0  0  0
 37 98  1  0  0  0
 38 43  2  0  0  0
 38 46  1  0  0  0
 38 47  1  0  0  0
 39 64  1  0  0  0
 39 67  2  0  0  0
 40 52  1  0  0  0
 40 53  2  0  0  0
 40 58  1  0  0  0
 41 99  1  0  0  0
 41100  1  0  0  0
 41101  1  0  0  0
 41 48  1  0  0  0
 42 43  1  0  0  0
 42 66  1  0  0  0
 42102  1  0  0  0
 42103  1  0  0  0
 43 44  1  0  0  0
 44104  1  0  0  0
 45 46  2  0  0  0
 45105  1  0  0  0
 46106  1  0  0  0
 47107  1  0  0  0
 47108  1  0  0  0
 48 56  1  0  0  0
 48 65  1  0  0  0
 48109  1  0  0  0
 49 50  1  0  0  0
 49 53  1  0  0  0
 49 64  1  0  0  0
 49110  1  0  0  0
 50 51  1  0  0  0
 50111  1  0  0  0
 50112  1  0  0  0
 51 52  1  0  0  0
 51113  1  0  0  0
 51114  1  0  0  0
 52115  1  0  0  0
 52116  1  0  0  0
 53 54  1  0  0  0
 54 55  2  0  0  0
 54117  1  0  0  0
 55 57  1  0  0  0
 55118  1  0  0  0
 56 69  2  0  0  0
 57 58  2  0  0  0
 57119  1  0  0  0
 58120  1  0  0  0
 59 60  1  0  0  0
 59 61  1  0  0  0
 59 62  1  0  0  0
 60121  1  0  0  0
 60122  1  0  0  0
 60123  1  0  0  0
 61124  1  0  0  0
 61125  1  0  0  0
 61126  1  0  0  0
 62127  1  0  0  0
 62128  1  0  0  0
 62129  1  0  0  0
 63 65  1  0  0  0
 63130  1  0  0  0
 63131  1  0  0  0
 63132  1  0  0  0
 64133  1  0  0  0
 65134  1  0  0  0
 68 74  1  0  0  0
 71 72  1  0  0  0
 71 74  1  0  0  0
 71135  1  0  0  0
 71136  1  0  0  0
 72 75  1  0  0  0
 72137  1  0  0  0
 72138  1  0  0  0
 73 74  1  0  0  0
 73 75  1  0  0  0
 73139  1  0  0  0
 73140  1  0  0  0
 74141  1  0  0  0
M  ISO  4   1 100  68 101  74 101  75 100
M  END
> <chiral flag>
0

> <version>
0

> <s_m_source_file>
/data/baiqing/PycharmProjects/Reinvent-master-3.2/result/LINK_invent/BTK/process_docking_weight1_custom_product_contain_oxygen_bond_distance_aromatic_linkinvent_7_9_3/rearranged_h_0008.sdf

> <i_m_source_file_index>
35

> <r_mmod_Potential_Energy-OPLS-2005>
7751.3876953125

> <r_mmod_Stretch_Energy-OPLS-2005>
3068.3291015625

> <r_mmod_Bend_Energy-OPLS-2005>
1470.4921875

> <r_mmod_Torsional_Energy-OPLS-2005>
319.435943603516

> <r_mmod_Improper_Torsional_Energy-OPLS-2005>
5.2166919708252

> <r_mmod_Van_der_Waal_Energy-OPLS-2005>
120.777961730957

> <r_mmod_Electrostatic_Energy-OPLS-2005>
-295.966827392578

> <r_mmod_Solvation_Energy-OPLS-2005>
-230.603805541992

> <b_mmod_Minimization_Converged-OPLS-2005>
0

> <r_mmod_RMS_Derivative-OPLS-2005>
2.18929362297058

$$$$
35
                    3D
 Structure written by MMmdl.
146154  0  0  1  0            999 V2000
  -30.4141  -15.2383   20.3767 C   0  0  0  0  0  0
  -30.4476  -12.7863   19.5248 C   0  0  0  0  0  0
  -29.5384  -12.5770   18.2862 C   0  0  0  0  0  0
  -28.0833  -12.3059   18.7098 C   0  0  0  0  0  0
  -27.6167  -13.2702   19.8287 C   0  0  2  0  0  0
  -28.6519  -13.4110   20.9650 C   0  0  0  0  0  0
  -25.2403  -13.8236   20.5735 C   0  0  0  0  0  0
  -24.1749  -13.0429   20.9243 C   0  0  0  0  0  0
  -24.6401  -11.6926   20.8753 C   0  0  0  0  0  0
  -23.9093  -10.4289   21.0403 C   0  0  0  0  0  0
  -24.3636   -9.4204   21.9183 C   0  0  0  0  0  0
  -23.6303   -8.2243   22.0754 C   0  0  0  0  0  0
  -22.4284   -8.0283   21.3545 C   0  0  0  0  0  0
  -21.9926   -9.0257   20.4645 C   0  0  0  0  0  0
  -22.7263  -10.2132   20.3053 C   0  0  0  0  0  0
  -21.6856   -6.0738   22.5279 C   0  0  0  0  0  0
  -21.4016   -6.5641   23.8212 C   0  0  0  0  0  0
  -21.3660   -5.6793   24.9174 C   0  0  0  0  0  0
  -21.6044   -4.3056   24.7224 C   0  0  0  0  0  0
  -21.8819   -3.8148   23.4345 C   0  0  0  0  0  0
  -21.9193   -4.6965   22.3402 C   0  0  0  0  0  0
  -22.7767  -13.5186   21.1897 C   0  0  0  0  0  0
  -22.1662   -4.2151   21.0980 F   0  0  0  0  0  0
  -21.5628   -3.4539   25.7737 F   0  0  0  0  0  0
  -29.8899  -13.9169   20.3498 N   0  0  0  0  0  0
  -26.2836  -12.9506   20.3225 N   0  0  0  0  0  0
  -25.9339  -11.6613   20.5721 N   0  0  0  0  0  0
  -22.0429  -12.8167   22.0454 N   0  0  0  0  0  0
  -25.4012  -15.1972   20.4186 N   0  0  0  0  0  0
  -31.6291  -15.2913   20.1345 O   0  0  0  0  0  0
  -21.6644   -6.8883   21.4242 O   0  0  0  0  0  0
  -22.3441  -14.5487   20.6743 O   0  0  0  0  0  0
  -24.6601  -31.8250   23.1715 C   0  0  0  0  0  0
  -25.9293  -32.4593   23.8173 C   0  0  1  0  0  0
  -27.2230  -26.9436   20.1891 C   0  0  0  0  0  0
  -25.5969  -33.8408   24.2080 N   0  0  0  0  0  0
  -23.4746  -30.4354   21.5197 C   0  0  2  0  0  0
  -24.9288  -28.8202   20.1157 C   0  0  0  0  0  0
  -22.7653  -29.4445   22.4789 C   0  0  0  0  0  0
  -18.0320  -28.1408   22.8468 C   0  0  0  0  0  0
  -24.1495  -36.7210   23.2650 C   0  0  0  0  0  0
  -26.0413  -30.6343   21.4018 C   0  0  0  0  0  0
  -26.1087  -29.2226   20.7538 C   0  0  0  0  0  0
  -27.2478  -28.3022   20.7716 C   0  0  0  0  0  0
  -26.0182  -26.6895   19.4978 C   0  0  0  0  0  0
  -24.9063  -27.5722   19.4703 C   0  0  0  0  0  0
  -23.7147  -29.7476   20.1469 C   0  0  0  0  0  0
  -25.4137  -36.2972   24.0300 C   0  0  1  0  0  0
  -20.5942  -28.3749   23.1195 C   0  0  2  0  0  0
  -20.6796  -26.9433   22.5405 C   0  0  0  0  0  0
  -19.5771  -26.6378   21.5215 C   0  0  0  0  0  0
  -18.1952  -26.7942   22.1624 C   0  0  0  0  0  0
  -19.1581  -28.8900   23.2817 C   0  0  0  0  0  0
  -18.9494  -30.1490   23.8853 C   0  0  0  0  0  0
  -17.6487  -30.6599   24.0556 C   0  0  0  0  0  0
  -25.9095  -34.9353   23.5011 C   0  0  0  0  0  0
  -16.5377  -29.9087   23.6344 C   0  0  0  0  0  0
  -16.7303  -28.6507   23.0363 C   0  0  0  0  0  0
  -26.4554  -31.6536   25.0697 C   0  0  0  0  0  0
  -25.3685  -31.3785   26.1356 C   0  0  0  0  0  0
  -27.0452  -30.2905   24.6423 C   0  0  0  0  0  0
  -27.6046  -32.4346   25.7498 C   0  0  0  0  0  0
  -27.5562  -37.1776   24.8477 C   0  0  0  0  0  0
  -21.4325  -29.3039   22.3541 N   0  0  0  0  0  0
  -26.4290  -37.3698   23.9391 N   0  0  0  0  0  0
  -24.7462  -30.9924   22.0845 N   0  0  0  0  0  0
  -23.4208  -28.8022   23.3030 O   0  0  0  0  0  0
  -28.2588  -25.8753   20.2132 O   0  0  0  0  0  0
  -26.5706  -34.8884   22.4607 O   0  0  0  0  0  0
  -23.5676  -32.1217   23.6817 O   0  0  0  0  0  0
  -30.3098  -20.5425   20.1147 C   0  0  0  0  0  0
  -30.5134  -19.0661   20.1582 C   0  0  0  0  0  0
  -28.0777  -20.2989   20.5687 C   0  0  0  0  0  0
  -29.0830  -21.3222   20.3123 C   0  0  0  0  0  0
  -29.5037  -18.0518   20.4172 C   0  0  0  0  0  0
  -28.2693  -18.8186   20.6129 C   0  0  0  0  0  0
  -29.0281  -23.0795   20.2941 C   0  0  0  0  0  0
  -29.5594  -16.4354   20.4991 N   0  0  0  0  0  0
  -27.8761  -24.2245   20.2657 N   0  0  0  0  0  0
  -27.1629  -18.0803   20.8693 F   0  0  0  0  0  0
  -31.4654  -12.9999   19.1957 H   0  0  0  0  0  0
  -30.5162  -11.8716   20.1158 H   0  0  0  0  0  0
  -29.9115  -11.7548   17.6742 H   0  0  0  0  0  0
  -29.5737  -13.4680   17.6574 H   0  0  0  0  0  0
  -28.0305  -11.2775   19.0689 H   0  0  0  0  0  0
  -27.4163  -12.3643   17.8489 H   0  0  0  0  0  0
  -27.5409  -14.2455   19.3465 H   0  0  0  0  0  0
  -28.8112  -12.4624   21.4798 H   0  0  0  0  0  0
  -28.2973  -14.1158   21.7185 H   0  0  0  0  0  0
  -25.2778   -9.5680   22.4763 H   0  0  0  0  0  0
  -24.0007   -7.4635   22.7477 H   0  0  0  0  0  0
  -21.0856   -8.8781   19.8951 H   0  0  0  0  0  0
  -22.3722  -10.9672   19.6164 H   0  0  0  0  0  0
  -21.2010   -7.6149   23.9716 H   0  0  0  0  0  0
  -21.1482   -6.0523   25.9077 H   0  0  0  0  0  0
  -22.0597   -2.7610   23.2845 H   0  0  0  0  0  0
  -22.4062  -11.9833   22.4839 H   0  0  0  0  0  0
  -21.1044  -13.1176   22.2669 H   0  0  0  0  0  0
  -24.6313  -15.8433   20.5528 H   0  0  0  0  0  0
  -26.2425  -15.6565   20.0974 H   0  0  0  0  0  0
  -26.7360  -32.5141   23.0886 H   0  0  0  0  0  0
  -25.0068  -33.9489   25.0198 H   0  0  0  0  0  0
  -22.7869  -31.2661   21.3478 H   0  0  0  0  0  0
  -23.3752  -35.9549   23.3329 H   0  0  0  0  0  0
  -24.3557  -36.8838   22.2060 H   0  0  0  0  0  0
  -23.7271  -37.6414   23.6694 H   0  0  0  0  0  0
  -26.2186  -31.3725   20.6186 H   0  0  0  0  0  0
  -26.9026  -30.6945   22.0550 H   0  0  0  0  0  0
  -28.1452  -28.6100   21.2895 H   0  0  0  0  0  0
  -25.9133  -25.7375   18.9970 H   0  0  0  0  0  0
  -24.0111  -27.2589   18.9510 H   0  0  0  0  0  0
  -23.8697  -30.5141   19.3867 H   0  0  0  0  0  0
  -22.8250  -29.2003   19.8306 H   0  0  0  0  0  0
  -25.1342  -36.1777   25.0794 H   0  0  0  0  0  0
  -21.0030  -28.3358   24.1319 H   0  0  0  0  0  0
  -20.5679  -26.2368   23.3643 H   0  0  0  0  0  0
  -21.6660  -26.7413   22.1210 H   0  0  0  0  0  0
  -19.6930  -25.6278   21.1273 H   0  0  0  0  0  0
  -19.6711  -27.3165   20.6726 H   0  0  0  0  0  0
  -17.4221  -26.6686   21.4027 H   0  0  0  0  0  0
  -18.0347  -26.0095   22.9031 H   0  0  0  0  0  0
  -19.7970  -30.7316   24.2203 H   0  0  0  0  0  0
  -17.5041  -31.6276   24.5165 H   0  0  0  0  0  0
  -15.5376  -30.2975   23.7694 H   0  0  0  0  0  0
  -15.8704  -28.0811   22.7103 H   0  0  0  0  0  0
  -24.5882  -30.7116   25.7668 H   0  0  0  0  0  0
  -24.8855  -32.2985   26.4657 H   0  0  0  0  0  0
  -25.7919  -30.9037   27.0216 H   0  0  0  0  0  0
  -26.3118  -29.6580   24.1411 H   0  0  0  0  0  0
  -27.3971  -29.7271   25.5075 H   0  0  0  0  0  0
  -27.9063  -30.4092   23.9843 H   0  0  0  0  0  0
  -27.2615  -33.3691   26.1948 H   0  0  0  0  0  0
  -28.3922  -32.6836   25.0373 H   0  0  0  0  0  0
  -28.0641  -31.8559   26.5521 H   0  0  0  0  0  0
  -28.2606  -38.0042   24.7450 H   0  0  0  0  0  0
  -28.1030  -36.2565   24.6404 H   0  0  0  0  0  0
  -27.2262  -37.1539   25.8877 H   0  0  0  0  0  0
  -20.9577  -29.8723   21.6665 H   0  0  0  0  0  0
  -26.0144  -38.2769   24.1353 H   0  0  0  0  0  0
  -31.2002  -21.1236   19.9168 H   0  0  0  0  0  0
  -31.5192  -18.7116   19.9826 H   0  0  0  0  0  0
  -27.0744  -20.6521   20.7566 H   0  0  0  0  0  0
  -29.6551  -23.3344   19.4394 H   0  0  0  0  0  0
  -29.6359  -23.3526   21.1574 H   0  0  0  0  0  0
  -28.6270  -16.0989   20.6864 H   0  0  0  0  0  0
  -27.3137  -24.1150   21.1054 H   0  0  0  0  0  0
  1 25  1  0  0  0
  1 30  2  0  0  0
  1 78  1  0  0  0
  2  3  1  0  0  0
  2 25  1  0  0  0
  2 81  1  0  0  0
  2 82  1  0  0  0
  3  4  1  0  0  0
  3 83  1  0  0  0
  3 84  1  0  0  0
  4  5  1  0  0  0
  4 85  1  0  0  0
  4 86  1  0  0  0
  5  6  1  0  0  0
  5 26  1  0  0  0
  5 87  1  0  0  0
  6 25  1  0  0  0
  6 88  1  0  0  0
  6 89  1  0  0  0
  7  8  2  0  0  0
  7 26  1  0  0  0
  7 29  1  0  0  0
  8  9  1  0  0  0
  8 22  1  0  0  0
  9 10  1  0  0  0
  9 27  2  0  0  0
 10 11  2  0  0  0
 10 15  1  0  0  0
 11 12  1  0  0  0
 11 90  1  0  0  0
 12 13  2  0  0  0
 12 91  1  0  0  0
 13 14  1  0  0  0
 13 31  1  0  0  0
 14 15  2  0  0  0
 14 92  1  0  0  0
 15 93  1  0  0  0
 16 17  2  0  0  0
 16 21  1  0  0  0
 16 31  1  0  0  0
 17 18  1  0  0  0
 17 94  1  0  0  0
 18 19  2  0  0  0
 18 95  1  0  0  0
 19 20  1  0  0  0
 19 24  1  0  0  0
 20 21  2  0  0  0
 20 96  1  0  0  0
 21 23  1  0  0  0
 22 28  1  0  0  0
 22 32  2  0  0  0
 26 27  1  0  0  0
 28 97  1  0  0  0
 28 98  1  0  0  0
 29 99  1  0  0  0
 29100  1  0  0  0
 33 34  1  0  0  0
 33 66  1  0  0  0
 33 70  2  0  0  0
 34 36  1  0  0  0
 34 59  1  0  0  0
 34101  1  0  0  0
 35 44  2  0  0  0
 35 45  1  0  0  0
 35 68  1  0  0  0
 36 56  1  0  0  0
 36102  1  0  0  0
 37 39  1  0  0  0
 37 47  1  0  0  0
 37 66  1  0  0  0
 37103  1  0  0  0
 38 43  2  0  0  0
 38 46  1  0  0  0
 38 47  1  0  0  0
 39 64  1  0  0  0
 39 67  2  0  0  0
 40 52  1  0  0  0
 40 53  2  0  0  0
 40 58  1  0  0  0
 41104  1  0  0  0
 41105  1  0  0  0
 41106  1  0  0  0
 41 48  1  0  0  0
 42 43  1  0  0  0
 42 66  1  0  0  0
 42107  1  0  0  0
 42108  1  0  0  0
 43 44  1  0  0  0
 44109  1  0  0  0
 45 46  2  0  0  0
 45110  1  0  0  0
 46111  1  0  0  0
 47112  1  0  0  0
 47113  1  0  0  0
 48 56  1  0  0  0
 48 65  1  0  0  0
 48114  1  0  0  0
 49 50  1  0  0  0
 49 53  1  0  0  0
 49 64  1  0  0  0
 49115  1  0  0  0
 50 51  1  0  0  0
 50116  1  0  0  0
 50117  1  0  0  0
 51 52  1  0  0  0
 51118  1  0  0  0
 51119  1  0  0  0
 52120  1  0  0  0
 52121  1  0  0  0
 53 54  1  0  0  0
 54 55  2  0  0  0
 54122  1  0  0  0
 55 57  1  0  0  0
 55123  1  0  0  0
 56 69  2  0  0  0
 57 58  2  0  0  0
 57124  1  0  0  0
 58125  1  0  0  0
 59 60  1  0  0  0
 59 61  1  0  0  0
 59 62  1  0  0  0
 60126  1  0  0  0
 60127  1  0  0  0
 60128  1  0  0  0
 61129  1  0  0  0
 61130  1  0  0  0
 61131  1  0  0  0
 62132  1  0  0  0
 62133  1  0  0  0
 62134  1  0  0  0
 63 65  1  0  0  0
 63135  1  0  0  0
 63136  1  0  0  0
 63137  1  0  0  0
 64138  1  0  0  0
 65139  1  0  0  0
 68 79  1  0  0  0
 71 72  2  0  0  0
 71 74  1  0  0  0
 71140  1  0  0  0
 72 75  1  0  0  0
 72141  1  0  0  0
 73 74  2  0  0  0
 73 76  1  0  0  0
 73142  1  0  0  0
 74 77  1  0  0  0
 75 76  2  0  0  0
 75 78  1  0  0  0
 76 80  1  0  0  0
 77 79  1  0  0  0
 77143  1  0  0  0
 77144  1  0  0  0
 78145  1  0  0  0
 79146  1  0  0  0
M  ISO  4   1 100  68 101  78 100  79 101
M  END
> <chiral flag>
0

> <version>
0

> <s_m_source_file>
/data/baiqing/PycharmProjects/Reinvent-master-3.2/result/LINK_invent/BTK/process_docking_weight1_custom_product_contain_oxygen_bond_distance_aromatic_linkinvent_7_9_3/rearranged_h_0008.sdf

> <i_m_source_file_index>
36

> <r_mmod_Potential_Energy-OPLS-2005>
1082.02001953125

> <r_mmod_Stretch_Energy-OPLS-2005>
491.549652099609

> <r_mmod_Bend_Energy-OPLS-2005>
433.132965087891

> <r_mmod_Torsional_Energy-OPLS-2005>
213.024719238281

> <r_mmod_Improper_Torsional_Energy-OPLS-2005>
3.47901940345764

> <r_mmod_Van_der_Waal_Energy-OPLS-2005>
126.447891235352

> <r_mmod_Electrostatic_Energy-OPLS-2005>
-402.153167724609

> <r_mmod_Solvation_Energy-OPLS-2005>
-211.249755859375

> <b_mmod_Minimization_Converged-OPLS-2005>
0

> <r_mmod_RMS_Derivative-OPLS-2005>
0.213614627718925

$$$$
36
                    3D
 Structure written by MMmdl.
146154  0  0  1  0            999 V2000
  -30.4005  -15.4005   20.3464 C   0  0  0  0  0  0
  -30.4494  -12.9200   19.4815 C   0  0  0  0  0  0
  -29.5274  -12.5565   18.2885 C   0  0  0  0  0  0
  -28.0943  -12.2585   18.7588 C   0  0  0  0  0  0
  -27.6083  -13.2810   19.8134 C   0  0  2  0  0  0
  -28.6532  -13.5278   20.9220 C   0  0  0  0  0  0
  -25.2423  -13.8273   20.5836 C   0  0  0  0  0  0
  -24.1779  -13.0466   20.9304 C   0  0  0  0  0  0
  -24.6435  -11.6960   20.8836 C   0  0  0  0  0  0
  -23.9141  -10.4320   21.0475 C   0  0  0  0  0  0
  -24.3675   -9.4211   21.9240 C   0  0  0  0  0  0
  -23.6335   -8.2257   22.0771 C   0  0  0  0  0  0
  -22.4308   -8.0317   21.3555 C   0  0  0  0  0  0
  -21.9975   -9.0317   20.4664 C   0  0  0  0  0  0
  -22.7328  -10.2177   20.3099 C   0  0  0  0  0  0
  -21.6839   -6.0767   22.5293 C   0  0  0  0  0  0
  -21.4009   -6.5667   23.8232 C   0  0  0  0  0  0
  -21.3629   -5.6815   24.9189 C   0  0  0  0  0  0
  -21.6029   -4.3079   24.7241 C   0  0  0  0  0  0
  -21.8827   -3.8173   23.4359 C   0  0  0  0  0  0
  -21.9203   -4.7001   22.3418 C   0  0  0  0  0  0
  -22.7775  -13.5210   21.1935 C   0  0  0  0  0  0
  -22.1669   -4.2196   21.0989 F   0  0  0  0  0  0
  -21.5611   -3.4546   25.7734 F   0  0  0  0  0  0
  -29.8477  -14.0788   20.2531 N   0  0  0  0  0  0
  -26.2861  -12.9564   20.3307 N   0  0  0  0  0  0
  -25.9373  -11.6650   20.5813 N   0  0  0  0  0  0
  -22.0419  -12.8208   22.0461 N   0  0  0  0  0  0
  -25.4044  -15.2024   20.4231 N   0  0  0  0  0  0
  -31.6372  -15.3682   20.2334 O   0  0  0  0  0  0
  -21.6635   -6.8933   21.4260 O   0  0  0  0  0  0
  -22.3464  -14.5529   20.6777 O   0  0  0  0  0  0
  -24.6681  -31.8188   23.1650 C   0  0  0  0  0  0
  -25.9361  -32.4553   23.8118 C   0  0  1  0  0  0
  -27.2237  -26.8495   20.2105 C   0  0  0  0  0  0
  -25.5985  -33.8359   24.2021 N   0  0  0  0  0  0
  -23.4833  -30.4273   21.5167 C   0  0  2  0  0  0
  -24.9341  -28.7844   20.1308 C   0  0  0  0  0  0
  -22.7680  -29.4442   22.4801 C   0  0  0  0  0  0
  -18.0331  -28.1426   22.8459 C   0  0  0  0  0  0
  -24.1473  -36.7185   23.2658 C   0  0  0  0  0  0
  -26.0540  -30.5919   21.4110 C   0  0  0  0  0  0
  -26.1196  -29.1654   20.7753 C   0  0  0  0  0  0
  -27.2517  -28.2181   20.7966 C   0  0  0  0  0  0
  -26.0064  -26.6342   19.5212 C   0  0  0  0  0  0
  -24.9027  -27.5327   19.4904 C   0  0  0  0  0  0
  -23.7285  -29.7322   20.1474 C   0  0  0  0  0  0
  -25.4124  -36.2932   24.0298 C   0  0  1  0  0  0
  -20.5961  -28.3772   23.1173 C   0  0  2  0  0  0
  -20.6820  -26.9449   22.5398 C   0  0  0  0  0  0
  -19.5799  -26.6383   21.5215 C   0  0  0  0  0  0
  -18.1964  -26.7960   22.1603 C   0  0  0  0  0  0
  -19.1602  -28.8923   23.2793 C   0  0  0  0  0  0
  -18.9525  -30.1511   23.8825 C   0  0  0  0  0  0
  -17.6527  -30.6625   24.0565 C   0  0  0  0  0  0
  -25.9083  -34.9315   23.4977 C   0  0  0  0  0  0
  -16.5403  -29.9115   23.6358 C   0  0  0  0  0  0
  -16.7313  -28.6534   23.0358 C   0  0  0  0  0  0
  -26.4585  -31.6544   25.0698 C   0  0  0  0  0  0
  -25.3667  -31.3841   26.1332 C   0  0  0  0  0  0
  -27.0520  -30.2903   24.6484 C   0  0  0  0  0  0
  -27.6021  -32.4400   25.7519 C   0  0  0  0  0  0
  -27.5529  -37.1760   24.8505 C   0  0  0  0  0  0
  -21.4342  -29.3054   22.3522 N   0  0  0  0  0  0
  -26.4271  -37.3666   23.9397 N   0  0  0  0  0  0
  -24.7571  -30.9753   22.0847 N   0  0  0  0  0  0
  -23.4191  -28.8027   23.3088 O   0  0  0  0  0  0
  -28.2633  -25.7553   20.1294 O   0  0  0  0  0  0
  -26.5719  -34.8903   22.4588 O   0  0  0  0  0  0
  -23.5735  -32.1222   23.6690 O   0  0  0  0  0  0
  -30.1948  -21.1463   21.5355 C   0  0  0  0  0  0
  -30.8605  -19.9945   22.0379 C   0  0  0  0  0  0
  -29.2327  -21.1203   20.5029 C   0  0  0  0  0  0
  -29.7640  -18.3157   20.5565 C   0  0  0  0  0  0
  -30.6766  -18.6604   21.5802 C   0  0  0  0  0  0
  -29.0505  -19.6251   20.0549 C   0  0  0  0  0  0
  -28.7364  -22.7524   19.9429 C   0  0  0  0  0  0
  -29.6242  -16.6945   20.2545 N   0  0  0  0  0  0
  -28.0819  -24.1088   20.6573 N   0  0  0  0  0  0
  -31.3844  -17.6834   22.1922 F   0  0  0  0  0  0
  -28.1349  -19.4313   19.0744 F   0  0  0  0  0  0
  -31.4298  -13.1860   19.0811 H   0  0  0  0  0  0
  -30.6230  -12.0627   20.1317 H   0  0  0  0  0  0
  -29.9244  -11.6921   17.7526 H   0  0  0  0  0  0
  -29.5140  -13.3813   17.5747 H   0  0  0  0  0  0
  -28.1009  -11.2604   19.2041 H   0  0  0  0  0  0
  -27.4088  -12.2062   17.9133 H   0  0  0  0  0  0
  -27.4995  -14.2197   19.2662 H   0  0  0  0  0  0
  -28.8788  -12.6169   21.4786 H   0  0  0  0  0  0
  -28.2782  -14.2545   21.6456 H   0  0  0  0  0  0
  -25.2813   -9.5646   22.4836 H   0  0  0  0  0  0
  -24.0008   -7.4630   22.7483 H   0  0  0  0  0  0
  -21.0896   -8.8896   19.8973 H   0  0  0  0  0  0
  -22.3836  -10.9751   19.6222 H   0  0  0  0  0  0
  -21.1986   -7.6171   23.9760 H   0  0  0  0  0  0
  -21.1415   -6.0524   25.9095 H   0  0  0  0  0  0
  -22.0618   -2.7640   23.2853 H   0  0  0  0  0  0
  -22.3976  -11.9847   22.4875 H   0  0  0  0  0  0
  -21.1050  -13.1253   22.2678 H   0  0  0  0  0  0
  -24.6368  -15.8531   20.5519 H   0  0  0  0  0  0
  -26.2488  -15.6516   20.0973 H   0  0  0  0  0  0
  -26.7415  -32.5064   23.0807 H   0  0  0  0  0  0
  -25.0089  -33.9398   25.0141 H   0  0  0  0  0  0
  -22.8012  -31.2614   21.3385 H   0  0  0  0  0  0
  -23.3702  -35.9563   23.3435 H   0  0  0  0  0  0
  -24.3504  -36.8727   22.2047 H   0  0  0  0  0  0
  -23.7306  -37.6427   23.6677 H   0  0  0  0  0  0
  -26.2327  -31.3105   20.6097 H   0  0  0  0  0  0
  -26.9136  -30.6654   22.0648 H   0  0  0  0  0  0
  -28.1490  -28.5140   21.3241 H   0  0  0  0  0  0
  -25.8837  -25.6871   19.0183 H   0  0  0  0  0  0
  -24.0016  -27.2234   18.9751 H   0  0  0  0  0  0
  -23.9051  -30.4982   19.3897 H   0  0  0  0  0  0
  -22.8329  -29.1991   19.8227 H   0  0  0  0  0  0
  -25.1324  -36.1720   25.0789 H   0  0  0  0  0  0
  -21.0009  -28.3410   24.1319 H   0  0  0  0  0  0
  -20.5748  -26.2386   23.3648 H   0  0  0  0  0  0
  -21.6689  -26.7468   22.1195 H   0  0  0  0  0  0
  -19.6974  -25.6279   21.1294 H   0  0  0  0  0  0
  -19.6757  -27.3175   20.6727 H   0  0  0  0  0  0
  -17.4239  -26.6713   21.3998 H   0  0  0  0  0  0
  -18.0346  -26.0119   22.9011 H   0  0  0  0  0  0
  -19.8023  -30.7329   24.2158 H   0  0  0  0  0  0
  -17.5109  -31.6310   24.5177 H   0  0  0  0  0  0
  -15.5416  -30.3002   23.7764 H   0  0  0  0  0  0
  -15.8706  -28.0866   22.7083 H   0  0  0  0  0  0
  -24.5843  -30.7211   25.7652 H   0  0  0  0  0  0
  -24.8872  -32.3064   26.4581 H   0  0  0  0  0  0
  -25.7835  -30.9111   27.0224 H   0  0  0  0  0  0
  -26.3223  -29.6528   24.1475 H   0  0  0  0  0  0
  -27.4041  -29.7324   25.5169 H   0  0  0  0  0  0
  -27.9158  -30.4108   23.9953 H   0  0  0  0  0  0
  -27.2531  -33.3754   26.1906 H   0  0  0  0  0  0
  -28.3912  -32.6853   25.0413 H   0  0  0  0  0  0
  -28.0598  -31.8653   26.5579 H   0  0  0  0  0  0
  -28.2613  -37.9965   24.7336 H   0  0  0  0  0  0
  -28.0913  -36.2466   24.6568 H   0  0  0  0  0  0
  -27.2210  -37.1709   25.8901 H   0  0  0  0  0  0
  -20.9632  -29.8683   21.6578 H   0  0  0  0  0  0
  -26.0115  -38.2738   24.1338 H   0  0  0  0  0  0
  -30.4762  -22.1066   21.9418 H   0  0  0  0  0  0
  -31.5791  -20.1461   22.8317 H   0  0  0  0  0  0
  -29.7027  -23.1499   19.6269 H   0  0  0  0  0  0
  -28.1960  -22.6000   19.0083 H   0  0  0  0  0  0
  -28.6803  -16.4781   19.9708 H   0  0  0  0  0  0
  -28.3649  -24.1137   21.6334 H   0  0  0  0  0  0
  1 25  1  0  0  0
  1 30  2  0  0  0
  1 78  1  0  0  0
  2  3  1  0  0  0
  2 25  1  0  0  0
  2 82  1  0  0  0
  2 83  1  0  0  0
  3  4  1  0  0  0
  3 84  1  0  0  0
  3 85  1  0  0  0
  4  5  1  0  0  0
  4 86  1  0  0  0
  4 87  1  0  0  0
  5  6  1  0  0  0
  5 26  1  0  0  0
  5 88  1  0  0  0
  6 25  1  0  0  0
  6 89  1  0  0  0
  6 90  1  0  0  0
  7  8  2  0  0  0
  7 26  1  0  0  0
  7 29  1  0  0  0
  8  9  1  0  0  0
  8 22  1  0  0  0
  9 10  1  0  0  0
  9 27  2  0  0  0
 10 11  2  0  0  0
 10 15  1  0  0  0
 11 12  1  0  0  0
 11 91  1  0  0  0
 12 13  2  0  0  0
 12 92  1  0  0  0
 13 14  1  0  0  0
 13 31  1  0  0  0
 14 15  2  0  0  0
 14 93  1  0  0  0
 15 94  1  0  0  0
 16 17  2  0  0  0
 16 21  1  0  0  0
 16 31  1  0  0  0
 17 18  1  0  0  0
 17 95  1  0  0  0
 18 19  2  0  0  0
 18 96  1  0  0  0
 19 20  1  0  0  0
 19 24  1  0  0  0
 20 21  2  0  0  0
 20 97  1  0  0  0
 21 23  1  0  0  0
 22 28  1  0  0  0
 22 32  2  0  0  0
 26 27  1  0  0  0
 28 98  1  0  0  0
 28 99  1  0  0  0
 29100  1  0  0  0
 29101  1  0  0  0
 33 34  1  0  0  0
 33 66  1  0  0  0
 33 70  2  0  0  0
 34 36  1  0  0  0
 34 59  1  0  0  0
 34102  1  0  0  0
 35 44  2  0  0  0
 35 45  1  0  0  0
 35 68  1  0  0  0
 36 56  1  0  0  0
 36103  1  0  0  0
 37 39  1  0  0  0
 37 47  1  0  0  0
 37 66  1  0  0  0
 37104  1  0  0  0
 38 43  2  0  0  0
 38 46  1  0  0  0
 38 47  1  0  0  0
 39 64  1  0  0  0
 39 67  2  0  0  0
 40 52  1  0  0  0
 40 53  2  0  0  0
 40 58  1  0  0  0
 41105  1  0  0  0
 41106  1  0  0  0
 41107  1  0  0  0
 41 48  1  0  0  0
 42 43  1  0  0  0
 42 66  1  0  0  0
 42108  1  0  0  0
 42109  1  0  0  0
 43 44  1  0  0  0
 44110  1  0  0  0
 45 46  2  0  0  0
 45111  1  0  0  0
 46112  1  0  0  0
 47113  1  0  0  0
 47114  1  0  0  0
 48 56  1  0  0  0
 48 65  1  0  0  0
 48115  1  0  0  0
 49 50  1  0  0  0
 49 53  1  0  0  0
 49 64  1  0  0  0
 49116  1  0  0  0
 50 51  1  0  0  0
 50117  1  0  0  0
 50118  1  0  0  0
 51 52  1  0  0  0
 51119  1  0  0  0
 51120  1  0  0  0
 52121  1  0  0  0
 52122  1  0  0  0
 53 54  1  0  0  0
 54 55  2  0  0  0
 54123  1  0  0  0
 55 57  1  0  0  0
 55124  1  0  0  0
 56 69  2  0  0  0
 57 58  2  0  0  0
 57125  1  0  0  0
 58126  1  0  0  0
 59 60  1  0  0  0
 59 61  1  0  0  0
 59 62  1  0  0  0
 60127  1  0  0  0
 60128  1  0  0  0
 60129  1  0  0  0
 61130  1  0  0  0
 61131  1  0  0  0
 61132  1  0  0  0
 62133  1  0  0  0
 62134  1  0  0  0
 62135  1  0  0  0
 63 65  1  0  0  0
 63136  1  0  0  0
 63137  1  0  0  0
 63138  1  0  0  0
 64139  1  0  0  0
 65140  1  0  0  0
 68 79  1  0  0  0
 71 72  2  0  0  0
 71 73  1  0  0  0
 71141  1  0  0  0
 72 75  1  0  0  0
 72142  1  0  0  0
 73 76  2  0  0  0
 73 77  1  0  0  0
 74 75  2  0  0  0
 74 76  1  0  0  0
 74 78  1  0  0  0
 75 80  1  0  0  0
 76 81  1  0  0  0
 77 79  1  0  0  0
 77143  1  0  0  0
 77144  1  0  0  0
 78145  1  0  0  0
 79146  1  0  0  0
M  ISO  4   1 100  68 101  78 100  79 101
M  END
> <chiral flag>
0

> <version>
0

> <s_m_source_file>
/data/baiqing/PycharmProjects/Reinvent-master-3.2/result/LINK_invent/BTK/process_docking_weight1_custom_product_contain_oxygen_bond_distance_aromatic_linkinvent_7_9_3/rearranged_h_0008.sdf

> <i_m_source_file_index>
37

> <r_mmod_Potential_Energy-OPLS-2005>
1508.71557617188

> <r_mmod_Stretch_Energy-OPLS-2005>
707.465393066406

> <r_mmod_Bend_Energy-OPLS-2005>
480.275482177734

> <r_mmod_Torsional_Energy-OPLS-2005>
232.638702392578

> <r_mmod_Improper_Torsional_Energy-OPLS-2005>
9.49328422546387

> <r_mmod_Van_der_Waal_Energy-OPLS-2005>
123.307144165039

> <r_mmod_Electrostatic_Energy-OPLS-2005>
-410.845611572266

> <r_mmod_Solvation_Energy-OPLS-2005>
-223.218780517578

> <b_mmod_Minimization_Converged-OPLS-2005>
0

> <r_mmod_RMS_Derivative-OPLS-2005>
4.73502683639526

$$$$
37
                    3D
 Structure written by MMmdl.
156165  0  0  1  0            999 V2000
  -30.5536  -14.9459   20.5158 C   0  0  0  0  0  0
  -30.4349  -12.5960   19.5279 C   0  0  0  0  0  0
  -29.5378  -12.5716   18.2682 C   0  0  0  0  0  0
  -28.0627  -12.3528   18.6577 C   0  0  0  0  0  0
  -27.6328  -13.2539   19.8443 C   0  0  2  0  0  0
  -28.6595  -13.2393   20.9928 C   0  0  0  0  0  0
  -25.2461  -13.8212   20.5695 C   0  0  0  0  0  0
  -24.1781  -13.0434   20.9207 C   0  0  0  0  0  0
  -24.6398  -11.6918   20.8706 C   0  0  0  0  0  0
  -23.9085  -10.4285   21.0386 C   0  0  0  0  0  0
  -24.3629   -9.4207   21.9176 C   0  0  0  0  0  0
  -23.6302   -8.2243   22.0745 C   0  0  0  0  0  0
  -22.4286   -8.0276   21.3533 C   0  0  0  0  0  0
  -21.9914   -9.0257   20.4646 C   0  0  0  0  0  0
  -22.7249  -10.2132   20.3051 C   0  0  0  0  0  0
  -21.6868   -6.0719   22.5269 C   0  0  0  0  0  0
  -21.4025   -6.5628   23.8198 C   0  0  0  0  0  0
  -21.3671   -5.6786   24.9162 C   0  0  0  0  0  0
  -21.6052   -4.3050   24.7215 C   0  0  0  0  0  0
  -21.8818   -3.8134   23.4339 C   0  0  0  0  0  0
  -21.9201   -4.6947   22.3394 C   0  0  0  0  0  0
  -22.7805  -13.5207   21.1906 C   0  0  0  0  0  0
  -22.1670   -4.2129   21.0971 F   0  0  0  0  0  0
  -21.5629   -3.4539   25.7730 F   0  0  0  0  0  0
  -29.9518  -13.6793   20.4386 N   0  0  0  0  0  0
  -26.2881  -12.9456   20.3177 N   0  0  0  0  0  0
  -25.9329  -11.6573   20.5641 N   0  0  0  0  0  0
  -22.0462  -12.8186   22.0461 N   0  0  0  0  0  0
  -25.4144  -15.1948   20.4199 N   0  0  0  0  0  0
  -31.6866  -15.0477   20.0306 O   0  0  0  0  0  0
  -21.6662   -6.8864   21.4228 O   0  0  0  0  0  0
  -22.3490  -14.5526   20.6778 O   0  0  0  0  0  0
  -24.6455  -31.8409   23.1850 C   0  0  0  0  0  0
  -25.9223  -32.4667   23.8250 C   0  0  1  0  0  0
  -27.2244  -27.1234   20.1548 C   0  0  0  0  0  0
  -25.5970  -33.8475   24.2179 N   0  0  0  0  0  0
  -23.4505  -30.4590   21.5278 C   0  0  2  0  0  0
  -24.9025  -28.8819   20.1067 C   0  0  0  0  0  0
  -22.7579  -29.4532   22.4815 C   0  0  0  0  0  0
  -18.0312  -28.1394   22.8460 C   0  0  0  0  0  0
  -24.1500  -36.7243   23.2643 C   0  0  0  0  0  0
  -26.0066  -30.7080   21.3884 C   0  0  0  0  0  0
  -26.0772  -29.3185   20.7311 C   0  0  0  0  0  0
  -27.2357  -28.4541   20.7414 C   0  0  0  0  0  0
  -26.0290  -26.7953   19.4776 C   0  0  0  0  0  0
  -24.8923  -27.6345   19.4628 C   0  0  0  0  0  0
  -23.6795  -29.7852   20.1475 C   0  0  0  0  0  0
  -25.4127  -36.3008   24.0316 C   0  0  1  0  0  0
  -20.5926  -28.3729   23.1216 C   0  0  2  0  0  0
  -20.6793  -26.9426   22.5395 C   0  0  0  0  0  0
  -19.5771  -26.6373   21.5203 C   0  0  0  0  0  0
  -18.1954  -26.7925   22.1616 C   0  0  0  0  0  0
  -19.1572  -28.8878   23.2829 C   0  0  0  0  0  0
  -18.9485  -30.1469   23.8862 C   0  0  0  0  0  0
  -17.6484  -30.6587   24.0558 C   0  0  0  0  0  0
  -25.9077  -34.9390   23.5058 C   0  0  0  0  0  0
  -16.5373  -29.9077   23.6337 C   0  0  0  0  0  0
  -16.7295  -28.6502   23.0343 C   0  0  0  0  0  0
  -26.4541  -31.6528   25.0694 C   0  0  0  0  0  0
  -25.3736  -31.3710   26.1391 C   0  0  0  0  0  0
  -27.0415  -30.2922   24.6287 C   0  0  0  0  0  0
  -27.6073  -32.4293   25.7476 C   0  0  0  0  0  0
  -27.5570  -37.1781   24.8466 C   0  0  0  0  0  0
  -21.4271  -29.3054   22.3583 N   0  0  0  0  0  0
  -26.4287  -37.3725   23.9403 N   0  0  0  0  0  0
  -24.7203  -31.0242   22.0894 N   0  0  0  0  0  0
  -23.4211  -28.8087   23.2983 O   0  0  0  0  0  0
  -28.2808  -26.1415   20.2520 O   0  0  0  0  0  0
  -26.5653  -34.8898   22.4627 O   0  0  0  0  0  0
  -23.5569  -32.1301   23.7053 O   0  0  0  0  0  0
  -29.2767  -20.0064   21.5800 C   0  0  0  0  0  0
  -29.5292  -18.5924   21.8173 C   0  0  0  0  0  0
  -29.3689  -19.5899   19.2810 C   0  0  0  0  0  0
  -29.1683  -20.6126   20.2894 C   0  0  0  0  0  0
  -29.7351  -17.5634   20.8137 C   0  0  0  0  0  0
  -29.6397  -18.1674   19.5131 C   0  0  0  0  0  0
  -28.5159  -24.1072   18.6415 C   0  0  0  0  0  0
  -28.5753  -22.5354   18.6552 C   0  0  0  0  0  0
  -28.7748  -23.3410   20.8586 C   0  0  0  0  0  0
  -28.0876  -24.6014   20.0370 C   0  0  1  0  0  0
  -29.8651  -15.8102   22.6262 C   0  0  0  0  0  0
  -28.8755  -22.0607   20.0126 N   0  0  0  0  0  0
  -29.9349  -16.0587   21.1726 N   0  0  0  0  0  0
  -29.7806  -17.3612   18.4328 F   0  0  0  0  0  0
  -31.4797  -12.7325   19.2470 H   0  0  0  0  0  0
  -30.3956  -11.6300   20.0346 H   0  0  0  0  0  0
  -29.8677  -11.7878   17.5854 H   0  0  0  0  0  0
  -29.6438  -13.5140   17.7276 H   0  0  0  0  0  0
  -27.9482  -11.3034   18.9298 H   0  0  0  0  0  0
  -27.4150  -12.5201   17.7961 H   0  0  0  0  0  0
  -27.6099  -14.2719   19.4548 H   0  0  0  0  0  0
  -28.7346  -12.2432   21.4322 H   0  0  0  0  0  0
  -28.3098  -13.8916   21.7916 H   0  0  0  0  0  0
  -25.2764   -9.5696   22.4769 H   0  0  0  0  0  0
  -24.0013   -7.4630   22.7456 H   0  0  0  0  0  0
  -21.0840   -8.8784   19.8954 H   0  0  0  0  0  0
  -22.3698  -10.9678   19.6169 H   0  0  0  0  0  0
  -21.2024   -7.6137   23.9692 H   0  0  0  0  0  0
  -21.1505   -6.0520   25.9066 H   0  0  0  0  0  0
  -22.0593   -2.7592   23.2851 H   0  0  0  0  0  0
  -22.4092  -11.9864   22.4876 H   0  0  0  0  0  0
  -21.1066  -13.1188   22.2632 H   0  0  0  0  0  0
  -24.6532  -15.8506   20.5568 H   0  0  0  0  0  0
  -26.2734  -15.6406   20.1241 H   0  0  0  0  0  0
  -26.7284  -32.5276   23.0970 H   0  0  0  0  0  0
  -25.0143  -33.9584   25.0344 H   0  0  0  0  0  0
  -22.7553  -31.2864   21.3696 H   0  0  0  0  0  0
  -23.3762  -35.9575   23.3292 H   0  0  0  0  0  0
  -24.3588  -36.8883   22.2059 H   0  0  0  0  0  0
  -23.7256  -37.6440   23.6685 H   0  0  0  0  0  0
  -26.1691  -31.4595   20.6145 H   0  0  0  0  0  0
  -26.8748  -30.7567   22.0334 H   0  0  0  0  0  0
  -28.1262  -28.7799   21.2607 H   0  0  0  0  0  0
  -25.9399  -25.8484   18.9661 H   0  0  0  0  0  0
  -23.9989  -27.2987   18.9537 H   0  0  0  0  0  0
  -23.8199  -30.5591   19.3918 H   0  0  0  0  0  0
  -22.7962  -29.2257   19.8345 H   0  0  0  0  0  0
  -25.1315  -36.1837   25.0807 H   0  0  0  0  0  0
  -21.0021  -28.3323   24.1335 H   0  0  0  0  0  0
  -20.5675  -26.2348   23.3617 H   0  0  0  0  0  0
  -21.6661  -26.7415   22.1207 H   0  0  0  0  0  0
  -19.6935  -25.6275   21.1254 H   0  0  0  0  0  0
  -19.6711  -27.3167   20.6718 H   0  0  0  0  0  0
  -17.4215  -26.6660   21.4022 H   0  0  0  0  0  0
  -18.0367  -26.0075   22.9027 H   0  0  0  0  0  0
  -19.7962  -30.7295   24.2211 H   0  0  0  0  0  0
  -17.5034  -31.6263   24.5171 H   0  0  0  0  0  0
  -15.5371  -30.2970   23.7668 H   0  0  0  0  0  0
  -15.8697  -28.0811   22.7058 H   0  0  0  0  0  0
  -24.5941  -30.7022   25.7711 H   0  0  0  0  0  0
  -24.8902  -32.2890   26.4750 H   0  0  0  0  0  0
  -25.8039  -30.8934   27.0205 H   0  0  0  0  0  0
  -26.3039  -29.6627   24.1297 H   0  0  0  0  0  0
  -27.4029  -29.7226   25.4857 H   0  0  0  0  0  0
  -27.8946  -30.4141   23.9611 H   0  0  0  0  0  0
  -27.2675  -33.3626   26.1973 H   0  0  0  0  0  0
  -28.3928  -32.6788   25.0329 H   0  0  0  0  0  0
  -28.0694  -31.8467   26.5455 H   0  0  0  0  0  0
  -28.2575  -38.0089   24.7503 H   0  0  0  0  0  0
  -28.1080  -36.2614   24.6307 H   0  0  0  0  0  0
  -27.2289  -37.1439   25.8871 H   0  0  0  0  0  0
  -20.9479  -29.8779   21.6773 H   0  0  0  0  0  0
  -26.0151  -38.2796   24.1392 H   0  0  0  0  0  0
  -29.1417  -20.6413   22.4453 H   0  0  0  0  0  0
  -29.5502  -18.3178   22.8600 H   0  0  0  0  0  0
  -29.3103  -19.8931   18.2471 H   0  0  0  0  0  0
  -27.8609  -24.4791   17.8524 H   0  0  0  0  0  0
  -29.5128  -24.4943   18.4255 H   0  0  0  0  0  0
  -29.3211  -22.1869   17.9390 H   0  0  0  0  0  0
  -27.6121  -22.1251   18.3476 H   0  0  0  0  0  0
  -28.2222  -23.1483   21.7797 H   0  0  0  0  0  0
  -29.7854  -23.6165   21.1615 H   0  0  0  0  0  0
  -27.0211  -24.4081   20.1371 H   0  0  0  0  0  0
  -30.6258  -16.3950   23.1472 H   0  0  0  0  0  0
  -30.0395  -14.7761   22.9321 H   0  0  0  0  0  0
  -28.8858  -16.0906   23.0165 H   0  0  0  0  0  0
  1 25  1  0  0  0
  1 30  2  0  0  0
  1 83  1  0  0  0
  2  3  1  0  0  0
  2 25  1  0  0  0
  2 85  1  0  0  0
  2 86  1  0  0  0
  3  4  1  0  0  0
  3 87  1  0  0  0
  3 88  1  0  0  0
  4  5  1  0  0  0
  4 89  1  0  0  0
  4 90  1  0  0  0
  5  6  1  0  0  0
  5 26  1  0  0  0
  5 91  1  0  0  0
  6 25  1  0  0  0
  6 92  1  0  0  0
  6 93  1  0  0  0
  7  8  2  0  0  0
  7 26  1  0  0  0
  7 29  1  0  0  0
  8  9  1  0  0  0
  8 22  1  0  0  0
  9 10  1  0  0  0
  9 27  2  0  0  0
 10 11  2  0  0  0
 10 15  1  0  0  0
 11 12  1  0  0  0
 11 94  1  0  0  0
 12 13  2  0  0  0
 12 95  1  0  0  0
 13 14  1  0  0  0
 13 31  1  0  0  0
 14 15  2  0  0  0
 14 96  1  0  0  0
 15 97  1  0  0  0
 16 17  2  0  0  0
 16 21  1  0  0  0
 16 31  1  0  0  0
 17 18  1  0  0  0
 17 98  1  0  0  0
 18 19  2  0  0  0
 18 99  1  0  0  0
 19 20  1  0  0  0
 19 24  1  0  0  0
 20 21  2  0  0  0
 20100  1  0  0  0
 21 23  1  0  0  0
 22 28  1  0  0  0
 22 32  2  0  0  0
 26 27  1  0  0  0
 28101  1  0  0  0
 28102  1  0  0  0
 29103  1  0  0  0
 29104  1  0  0  0
 33 34  1  0  0  0
 33 66  1  0  0  0
 33 70  2  0  0  0
 34 36  1  0  0  0
 34 59  1  0  0  0
 34105  1  0  0  0
 35 44  2  0  0  0
 35 45  1  0  0  0
 35 68  1  0  0  0
 36 56  1  0  0  0
 36106  1  0  0  0
 37 39  1  0  0  0
 37 47  1  0  0  0
 37 66  1  0  0  0
 37107  1  0  0  0
 38 43  2  0  0  0
 38 46  1  0  0  0
 38 47  1  0  0  0
 39 64  1  0  0  0
 39 67  2  0  0  0
 40 52  1  0  0  0
 40 53  2  0  0  0
 40 58  1  0  0  0
 41108  1  0  0  0
 41109  1  0  0  0
 41110  1  0  0  0
 41 48  1  0  0  0
 42 43  1  0  0  0
 42 66  1  0  0  0
 42111  1  0  0  0
 42112  1  0  0  0
 43 44  1  0  0  0
 44113  1  0  0  0
 45 46  2  0  0  0
 45114  1  0  0  0
 46115  1  0  0  0
 47116  1  0  0  0
 47117  1  0  0  0
 48 56  1  0  0  0
 48 65  1  0  0  0
 48118  1  0  0  0
 49 50  1  0  0  0
 49 53  1  0  0  0
 49 64  1  0  0  0
 49119  1  0  0  0
 50 51  1  0  0  0
 50120  1  0  0  0
 50121  1  0  0  0
 51 52  1  0  0  0
 51122  1  0  0  0
 51123  1  0  0  0
 52124  1  0  0  0
 52125  1  0  0  0
 53 54  1  0  0  0
 54 55  2  0  0  0
 54126  1  0  0  0
 55 57  1  0  0  0
 55127  1  0  0  0
 56 69  2  0  0  0
 57 58  2  0  0  0
 57128  1  0  0  0
 58129  1  0  0  0
 59 60  1  0  0  0
 59 61  1  0  0  0
 59 62  1  0  0  0
 60130  1  0  0  0
 60131  1  0  0  0
 60132  1  0  0  0
 61133  1  0  0  0
 61134  1  0  0  0
 61135  1  0  0  0
 62136  1  0  0  0
 62137  1  0  0  0
 62138  1  0  0  0
 63 65  1  0  0  0
 63139  1  0  0  0
 63140  1  0  0  0
 63141  1  0  0  0
 64142  1  0  0  0
 65143  1  0  0  0
 68 80  1  0  0  0
 71 72  2  0  0  0
 71 74  1  0  0  0
 71144  1  0  0  0
 72 75  1  0  0  0
 72145  1  0  0  0
 73 74  2  0  0  0
 73 76  1  0  0  0
 73146  1  0  0  0
 74 82  1  0  0  0
 75 76  2  0  0  0
 75 83  1  0  0  0
 76 84  1  0  0  0
 77 78  1  0  0  0
 77 80  1  0  0  0
 77147  1  0  0  0
 77148  1  0  0  0
 78 82  1  0  0  0
 78149  1  0  0  0
 78150  1  0  0  0
 79 80  1  0  0  0
 79 82  1  0  0  0
 79151  1  0  0  0
 79152  1  0  0  0
 80153  1  0  0  0
 81 83  1  0  0  0
 81154  1  0  0  0
 81155  1  0  0  0
 81156  1  0  0  0
M  ISO  4   1 100  68 101  80 101  83 100
M  END
> <chiral flag>
0

> <version>
0

> <s_m_source_file>
/data/baiqing/PycharmProjects/Reinvent-master-3.2/result/LINK_invent/BTK/process_docking_weight1_custom_product_contain_oxygen_bond_distance_aromatic_linkinvent_7_9_3/rearranged_h_0008.sdf

> <i_m_source_file_index>
38

> <r_mmod_Potential_Energy-OPLS-2005>
681.884826660156

> <r_mmod_Stretch_Energy-OPLS-2005>
243.969375610352

> <r_mmod_Bend_Energy-OPLS-2005>
322.621246337891

> <r_mmod_Torsional_Energy-OPLS-2005>
312.763610839844

> <r_mmod_Improper_Torsional_Energy-OPLS-2005>
3.21090960502625

> <r_mmod_Van_der_Waal_Energy-OPLS-2005>
141.194396972656

> <r_mmod_Electrostatic_Energy-OPLS-2005>
-321.284698486328

> <r_mmod_Solvation_Energy-OPLS-2005>
-214.521453857422

> <b_mmod_Minimization_Converged-OPLS-2005>
0

> <r_mmod_RMS_Derivative-OPLS-2005>
1.86074411869049

$$$$
38
                    3D
 Structure written by MMmdl.
153161  0  0  1  0            999 V2000
  -30.6023  -14.7078   20.4833 C   0  0  0  0  0  0
  -30.4453  -12.4352   19.4613 C   0  0  0  0  0  0
  -29.5129  -12.5083   18.2309 C   0  0  0  0  0  0
  -28.0405  -12.3253   18.6480 C   0  0  0  0  0  0
  -27.6499  -13.2154   19.8570 C   0  0  2  0  0  0
  -28.6965  -13.1138   20.9905 C   0  0  0  0  0  0
  -25.2566  -13.8151   20.5698 C   0  0  0  0  0  0
  -24.1835  -13.0424   20.9206 C   0  0  0  0  0  0
  -24.6396  -11.6896   20.8756 C   0  0  0  0  0  0
  -23.9066  -10.4284   21.0424 C   0  0  0  0  0  0
  -24.3614   -9.4196   21.9191 C   0  0  0  0  0  0
  -23.6295   -8.2229   22.0758 C   0  0  0  0  0  0
  -22.4274   -8.0269   21.3548 C   0  0  0  0  0  0
  -21.9912   -9.0247   20.4647 C   0  0  0  0  0  0
  -22.7246  -10.2125   20.3067 C   0  0  0  0  0  0
  -21.6851   -6.0736   22.5286 C   0  0  0  0  0  0
  -21.4011   -6.5642   23.8220 C   0  0  0  0  0  0
  -21.3662   -5.6792   24.9178 C   0  0  0  0  0  0
  -21.6050   -4.3056   24.7224 C   0  0  0  0  0  0
  -21.8822   -3.8149   23.4345 C   0  0  0  0  0  0
  -21.9193   -4.6966   22.3402 C   0  0  0  0  0  0
  -22.7862  -13.5232   21.1859 C   0  0  0  0  0  0
  -22.1663   -4.2162   21.0978 F   0  0  0  0  0  0
  -21.5628   -3.4536   25.7729 F   0  0  0  0  0  0
  -30.0053  -13.4711   20.4196 N   0  0  0  0  0  0
  -26.2979  -12.9329   20.3291 N   0  0  0  0  0  0
  -25.9322  -11.6493   20.5754 N   0  0  0  0  0  0
  -22.0498  -12.8230   22.0407 N   0  0  0  0  0  0
  -25.4281  -15.1864   20.4086 N   0  0  0  0  0  0
  -31.7760  -14.8523   20.1323 O   0  0  0  0  0  0
  -21.6636   -6.8871   21.4244 O   0  0  0  0  0  0
  -22.3567  -14.5555   20.6713 O   0  0  0  0  0  0
  -24.6284  -31.8563   23.1994 C   0  0  0  0  0  0
  -25.9114  -32.4766   23.8332 C   0  0  1  0  0  0
  -27.2269  -27.2949   20.1280 C   0  0  0  0  0  0
  -25.5920  -33.8568   24.2257 N   0  0  0  0  0  0
  -23.4241  -30.4801   21.5417 C   0  0  2  0  0  0
  -24.8745  -28.9316   20.1110 C   0  0  0  0  0  0
  -22.7489  -29.4610   22.4908 C   0  0  0  0  0  0
  -18.0292  -28.1394   22.8489 C   0  0  0  0  0  0
  -24.1487  -36.7282   23.2638 C   0  0  0  0  0  0
  -25.9679  -30.7821   21.3741 C   0  0  0  0  0  0
  -26.0438  -29.4065   20.7181 C   0  0  0  0  0  0
  -27.2256  -28.6023   20.7129 C   0  0  0  0  0  0
  -26.0397  -26.8825   19.4854 C   0  0  0  0  0  0
  -24.8751  -27.6757   19.4842 C   0  0  0  0  0  0
  -23.6419  -29.8137   20.1582 C   0  0  0  0  0  0
  -25.4112  -36.3074   24.0323 C   0  0  1  0  0  0
  -20.5893  -28.3694   23.1275 C   0  0  2  0  0  0
  -20.6785  -26.9407   22.5412 C   0  0  0  0  0  0
  -19.5763  -26.6386   21.5214 C   0  0  0  0  0  0
  -18.1939  -26.7936   22.1622 C   0  0  0  0  0  0
  -19.1548  -28.8862   23.2878 C   0  0  0  0  0  0
  -18.9463  -30.1461   23.8890 C   0  0  0  0  0  0
  -17.6466  -30.6588   24.0570 C   0  0  0  0  0  0
  -25.9047  -34.9445   23.5095 C   0  0  0  0  0  0
  -16.5356  -29.9085   23.6336 C   0  0  0  0  0  0
  -16.7280  -28.6510   23.0346 C   0  0  0  0  0  0
  -26.4504  -31.6583   25.0711 C   0  0  0  0  0  0
  -25.3733  -31.3730   26.1437 C   0  0  0  0  0  0
  -27.0348  -30.3000   24.6178 C   0  0  0  0  0  0
  -27.6051  -32.4327   25.7491 C   0  0  0  0  0  0
  -27.5572  -37.1798   24.8470 C   0  0  0  0  0  0
  -21.4196  -29.3042   22.3660 N   0  0  0  0  0  0
  -26.4290  -37.3768   23.9406 N   0  0  0  0  0  0
  -24.6922  -31.0568   22.0949 N   0  0  0  0  0  0
  -23.4207  -28.8141   23.2985 O   0  0  0  0  0  0
  -28.3269  -26.4156   20.1480 O   0  0  0  0  0  0
  -26.5620  -34.8921   22.4663 O   0  0  0  0  0  0
  -23.5439  -32.1366   23.7310 O   0  0  0  0  0  0
  -28.6586  -19.4569   20.7224 C   0  0  0  0  0  0
  -28.6895  -18.0303   20.5643 C   0  0  0  0  0  0
  -31.0193  -19.4107   21.1385 C   0  0  0  0  0  0
  -29.8236  -20.1902   21.0658 C   0  0  0  0  0  0
  -29.8696  -17.2385   20.7260 C   0  0  0  0  0  0
  -31.0523  -17.9874   20.9879 C   0  0  0  0  0  0
  -29.8062  -21.5777   21.6976 C   0  0  0  0  0  0
  -28.9073  -23.7226   20.2082 C   0  0  0  0  0  0
  -28.0972  -25.0393   20.6849 C   0  0  0  0  0  0
  -30.3108  -21.5664   22.9306 N   0  0  0  0  0  0
  -29.7518  -15.7647   20.7278 N   0  0  0  0  0  0
  -29.3907  -22.8528   21.3550 N   0  3  0  0  0  0
  -32.2297  -17.3511   21.1900 F   0  0  0  0  0  0
  -31.4840  -12.5734   19.1557 H   0  0  0  0  0  0
  -30.3963  -11.4479   19.9227 H   0  0  0  0  0  0
  -29.7923  -11.7468   17.5015 H   0  0  0  0  0  0
  -29.6355  -13.4706   17.7317 H   0  0  0  0  0  0
  -27.9038  -11.2750   18.9051 H   0  0  0  0  0  0
  -27.3783  -12.5178   17.8033 H   0  0  0  0  0  0
  -27.6542  -14.2405   19.4875 H   0  0  0  0  0  0
  -28.7269  -12.1030   21.3998 H   0  0  0  0  0  0
  -28.4298  -13.7655   21.8244 H   0  0  0  0  0  0
  -25.2763   -9.5674   22.4756 H   0  0  0  0  0  0
  -24.0016   -7.4621   22.7478 H   0  0  0  0  0  0
  -21.0844   -8.8774   19.8940 H   0  0  0  0  0  0
  -22.3721  -10.9667   19.6171 H   0  0  0  0  0  0
  -21.2004   -7.6149   23.9733 H   0  0  0  0  0  0
  -21.1483   -6.0512   25.9084 H   0  0  0  0  0  0
  -22.0598   -2.7614   23.2840 H   0  0  0  0  0  0
  -22.4106  -11.9875   22.4775 H   0  0  0  0  0  0
  -21.1117  -13.1269   22.2615 H   0  0  0  0  0  0
  -24.6538  -15.8339   20.5067 H   0  0  0  0  0  0
  -26.2492  -15.6151   20.0047 H   0  0  0  0  0  0
  -26.7184  -32.5430   23.1076 H   0  0  0  0  0  0
  -25.0097  -33.9715   25.0426 H   0  0  0  0  0  0
  -22.7192  -31.3005   21.3971 H   0  0  0  0  0  0
  -23.3751  -35.9615   23.3317 H   0  0  0  0  0  0
  -24.3581  -36.8892   22.2052 H   0  0  0  0  0  0
  -23.7250  -37.6490   23.6658 H   0  0  0  0  0  0
  -26.1037  -31.5448   20.6063 H   0  0  0  0  0  0
  -26.8456  -30.8299   22.0067 H   0  0  0  0  0  0
  -28.1244  -28.9656   21.1917 H   0  0  0  0  0  0
  -26.0011  -25.9260   18.9846 H   0  0  0  0  0  0
  -23.9808  -27.3090   18.9989 H   0  0  0  0  0  0
  -23.7619  -30.5903   19.4015 H   0  0  0  0  0  0
  -22.7615  -29.2439   19.8555 H   0  0  0  0  0  0
  -25.1303  -36.1916   25.0817 H   0  0  0  0  0  0
  -20.9998  -28.3270   24.1391 H   0  0  0  0  0  0
  -20.5695  -26.2286   23.3607 H   0  0  0  0  0  0
  -21.6646  -26.7443   22.1191 H   0  0  0  0  0  0
  -19.6918  -25.6301   21.1235 H   0  0  0  0  0  0
  -19.6704  -27.3207   20.6756 H   0  0  0  0  0  0
  -17.4206  -26.6686   21.4025 H   0  0  0  0  0  0
  -18.0332  -26.0080   22.9021 H   0  0  0  0  0  0
  -19.7936  -30.7287   24.2241 H   0  0  0  0  0  0
  -17.5015  -31.6269   24.5172 H   0  0  0  0  0  0
  -15.5354  -30.2988   23.7661 H   0  0  0  0  0  0
  -15.8681  -28.0838   22.7048 H   0  0  0  0  0  0
  -24.5915  -30.7067   25.7777 H   0  0  0  0  0  0
  -24.8918  -32.2897   26.4842 H   0  0  0  0  0  0
  -25.8054  -30.8931   27.0223 H   0  0  0  0  0  0
  -26.2922  -29.6746   24.1207 H   0  0  0  0  0  0
  -27.4052  -29.7268   25.4689 H   0  0  0  0  0  0
  -27.8792  -30.4292   23.9404 H   0  0  0  0  0  0
  -27.2651  -33.3636   26.2041 H   0  0  0  0  0  0
  -28.3875  -32.6868   25.0328 H   0  0  0  0  0  0
  -28.0696  -31.8465   26.5431 H   0  0  0  0  0  0
  -28.2599  -38.0084   24.7503 H   0  0  0  0  0  0
  -28.1055  -36.2616   24.6316 H   0  0  0  0  0  0
  -27.2287  -37.1474   25.8872 H   0  0  0  0  0  0
  -20.9357  -29.8751   21.6872 H   0  0  0  0  0  0
  -26.0169  -38.2839   24.1408 H   0  0  0  0  0  0
  -27.7053  -19.9664   20.6884 H   0  0  0  0  0  0
  -27.7519  -17.5299   20.3722 H   0  0  0  0  0  0
  -31.9396  -19.9022   21.4217 H   0  0  0  0  0  0
  -29.7864  -24.0400   19.6463 H   0  0  0  0  0  0
  -28.3035  -23.1324   19.5184 H   0  0  0  0  0  0
  -28.2376  -25.1392   21.7613 H   0  0  0  0  0  0
  -27.0439  -24.7776   20.5898 H   0  0  0  0  0  0
  -30.4820  -22.3838   23.4936 H   0  0  0  0  0  0
  -30.5858  -20.6769   23.3206 H   0  0  0  0  0  0
  -28.8129  -15.4433   20.8945 H   0  0  0  0  0  0
  -29.4976  -23.4765   22.1388 H   0  0  0  0  0  0
  1 25  1  0  0  0
  1 30  2  0  0  0
  1 81  1  0  0  0
  2  3  1  0  0  0
  2 25  1  0  0  0
  2 84  1  0  0  0
  2 85  1  0  0  0
  3  4  1  0  0  0
  3 86  1  0  0  0
  3 87  1  0  0  0
  4  5  1  0  0  0
  4 88  1  0  0  0
  4 89  1  0  0  0
  5  6  1  0  0  0
  5 26  1  0  0  0
  5 90  1  0  0  0
  6 25  1  0  0  0
  6 91  1  0  0  0
  6 92  1  0  0  0
  7  8  2  0  0  0
  7 26  1  0  0  0
  7 29  1  0  0  0
  8  9  1  0  0  0
  8 22  1  0  0  0
  9 10  1  0  0  0
  9 27  2  0  0  0
 10 11  2  0  0  0
 10 15  1  0  0  0
 11 12  1  0  0  0
 11 93  1  0  0  0
 12 13  2  0  0  0
 12 94  1  0  0  0
 13 14  1  0  0  0
 13 31  1  0  0  0
 14 15  2  0  0  0
 14 95  1  0  0  0
 15 96  1  0  0  0
 16 17  2  0  0  0
 16 21  1  0  0  0
 16 31  1  0  0  0
 17 18  1  0  0  0
 17 97  1  0  0  0
 18 19  2  0  0  0
 18 98  1  0  0  0
 19 20  1  0  0  0
 19 24  1  0  0  0
 20 21  2  0  0  0
 20 99  1  0  0  0
 21 23  1  0  0  0
 22 28  1  0  0  0
 22 32  2  0  0  0
 26 27  1  0  0  0
 28100  1  0  0  0
 28101  1  0  0  0
 29102  1  0  0  0
 29103  1  0  0  0
 33 34  1  0  0  0
 33 66  1  0  0  0
 33 70  2  0  0  0
 34 36  1  0  0  0
 34 59  1  0  0  0
 34104  1  0  0  0
 35 44  2  0  0  0
 35 45  1  0  0  0
 35 68  1  0  0  0
 36 56  1  0  0  0
 36105  1  0  0  0
 37 39  1  0  0  0
 37 47  1  0  0  0
 37 66  1  0  0  0
 37106  1  0  0  0
 38 43  2  0  0  0
 38 46  1  0  0  0
 38 47  1  0  0  0
 39 64  1  0  0  0
 39 67  2  0  0  0
 40 52  1  0  0  0
 40 53  2  0  0  0
 40 58  1  0  0  0
 41107  1  0  0  0
 41108  1  0  0  0
 41109  1  0  0  0
 41 48  1  0  0  0
 42 43  1  0  0  0
 42 66  1  0  0  0
 42110  1  0  0  0
 42111  1  0  0  0
 43 44  1  0  0  0
 44112  1  0  0  0
 45 46  2  0  0  0
 45113  1  0  0  0
 46114  1  0  0  0
 47115  1  0  0  0
 47116  1  0  0  0
 48 56  1  0  0  0
 48 65  1  0  0  0
 48117  1  0  0  0
 49 50  1  0  0  0
 49 53  1  0  0  0
 49 64  1  0  0  0
 49118  1  0  0  0
 50 51  1  0  0  0
 50119  1  0  0  0
 50120  1  0  0  0
 51 52  1  0  0  0
 51121  1  0  0  0
 51122  1  0  0  0
 52123  1  0  0  0
 52124  1  0  0  0
 53 54  1  0  0  0
 54 55  2  0  0  0
 54125  1  0  0  0
 55 57  1  0  0  0
 55126  1  0  0  0
 56 69  2  0  0  0
 57 58  2  0  0  0
 57127  1  0  0  0
 58128  1  0  0  0
 59 60  1  0  0  0
 59 61  1  0  0  0
 59 62  1  0  0  0
 60129  1  0  0  0
 60130  1  0  0  0
 60131  1  0  0  0
 61132  1  0  0  0
 61133  1  0  0  0
 61134  1  0  0  0
 62135  1  0  0  0
 62136  1  0  0  0
 62137  1  0  0  0
 63 65  1  0  0  0
 63138  1  0  0  0
 63139  1  0  0  0
 63140  1  0  0  0
 64141  1  0  0  0
 65142  1  0  0  0
 68 79  1  0  0  0
 71 72  2  0  0  0
 71 74  1  0  0  0
 71143  1  0  0  0
 72 75  1  0  0  0
 72144  1  0  0  0
 73 74  2  0  0  0
 73 76  1  0  0  0
 73145  1  0  0  0
 74 77  1  0  0  0
 75 76  2  0  0  0
 75 81  1  0  0  0
 76 83  1  0  0  0
 77 80  1  0  0  0
 77 82  2  0  0  0
 78 79  1  0  0  0
 78 82  1  0  0  0
 78146  1  0  0  0
 78147  1  0  0  0
 79148  1  0  0  0
 79149  1  0  0  0
 80150  1  0  0  0
 80151  1  0  0  0
 81152  1  0  0  0
 82153  1  0  0  0
M  CHG  1  82   1
M  ISO  4   1 100  68 101  79 101  81 100
M  END
> <chiral flag>
0

> <version>
0

> <s_m_source_file>
/data/baiqing/PycharmProjects/Reinvent-master-3.2/result/LINK_invent/BTK/process_docking_weight1_custom_product_contain_oxygen_bond_distance_aromatic_linkinvent_7_9_3/rearranged_h_0008.sdf

> <i_m_source_file_index>
39

> <r_mmod_Potential_Energy-OPLS-2005>
-94.1840362548828

> <r_mmod_Stretch_Energy-OPLS-2005>
96.02294921875

> <r_mmod_Bend_Energy-OPLS-2005>
219.619644165039

> <r_mmod_Torsional_Energy-OPLS-2005>
256.260559082031

> <r_mmod_Improper_Torsional_Energy-OPLS-2005>
9.61963081359863

> <r_mmod_Van_der_Waal_Energy-OPLS-2005>
140.130844116211

> <r_mmod_Electrostatic_Energy-OPLS-2005>
-439.287231445312

> <r_mmod_Solvation_Energy-OPLS-2005>
-443.847503662109

> <b_mmod_Minimization_Converged-OPLS-2005>
0

> <r_mmod_RMS_Derivative-OPLS-2005>
1.63149225711823

$$$$
39
                    3D
 Structure written by MMmdl.
156165  0  0  1  0            999 V2000
  -30.5625  -14.8830   20.4161 C   0  0  0  0  0  0
  -30.4362  -12.5378   19.5022 C   0  0  0  0  0  0
  -29.5219  -12.5299   18.2551 C   0  0  0  0  0  0
  -28.0459  -12.3421   18.6597 C   0  0  0  0  0  0
  -27.6357  -13.2511   19.8476 C   0  0  2  0  0  0
  -28.6766  -13.2348   20.9890 C   0  0  0  0  0  0
  -25.2481  -13.8224   20.5713 C   0  0  0  0  0  0
  -24.1772  -13.0457   20.9212 C   0  0  0  0  0  0
  -24.6373  -11.6931   20.8711 C   0  0  0  0  0  0
  -23.9048  -10.4294   21.0374 C   0  0  0  0  0  0
  -24.3601   -9.4224   21.9167 C   0  0  0  0  0  0
  -23.6283   -8.2251   22.0752 C   0  0  0  0  0  0
  -22.4266   -8.0268   21.3542 C   0  0  0  0  0  0
  -21.9884   -9.0248   20.4660 C   0  0  0  0  0  0
  -22.7205  -10.2131   20.3054 C   0  0  0  0  0  0
  -21.6861   -6.0720   22.5261 C   0  0  0  0  0  0
  -21.4021   -6.5621   23.8198 C   0  0  0  0  0  0
  -21.3675   -5.6778   24.9154 C   0  0  0  0  0  0
  -21.6049   -4.3040   24.7211 C   0  0  0  0  0  0
  -21.8826   -3.8132   23.4329 C   0  0  0  0  0  0
  -21.9208   -4.6946   22.3386 C   0  0  0  0  0  0
  -22.7795  -13.5237   21.1872 C   0  0  0  0  0  0
  -22.1685   -4.2127   21.0967 F   0  0  0  0  0  0
  -21.5641   -3.4537   25.7734 F   0  0  0  0  0  0
  -29.9667  -13.6255   20.4068 N   0  0  0  0  0  0
  -26.2911  -12.9469   20.3251 N   0  0  0  0  0  0
  -25.9311  -11.6592   20.5707 N   0  0  0  0  0  0
  -22.0428  -12.8245   22.0433 N   0  0  0  0  0  0
  -25.4183  -15.1946   20.4169 N   0  0  0  0  0  0
  -31.7527  -14.9564   20.0916 O   0  0  0  0  0  0
  -21.6643   -6.8853   21.4225 O   0  0  0  0  0  0
  -22.3490  -14.5557   20.6717 O   0  0  0  0  0  0
  -24.6410  -31.8446   23.1885 C   0  0  0  0  0  0
  -25.9199  -32.4691   23.8266 C   0  0  1  0  0  0
  -27.2157  -27.1470   20.1550 C   0  0  0  0  0  0
  -25.5947  -33.8495   24.2203 N   0  0  0  0  0  0
  -23.4441  -30.4626   21.5355 C   0  0  2  0  0  0
  -24.8926  -28.8903   20.1100 C   0  0  0  0  0  0
  -22.7557  -29.4539   22.4881 C   0  0  0  0  0  0
  -18.0299  -28.1395   22.8484 C   0  0  0  0  0  0
  -24.1490  -36.7255   23.2643 C   0  0  0  0  0  0
  -25.9973  -30.7203   21.3870 C   0  0  0  0  0  0
  -26.0665  -29.3317   20.7312 C   0  0  0  0  0  0
  -27.2272  -28.4746   20.7381 C   0  0  0  0  0  0
  -26.0214  -26.8078   19.4809 C   0  0  0  0  0  0
  -24.8818  -27.6411   19.4699 C   0  0  0  0  0  0
  -23.6684  -29.7908   20.1543 C   0  0  0  0  0  0
  -25.4121  -36.3027   24.0321 C   0  0  1  0  0  0
  -20.5910  -28.3713   23.1255 C   0  0  2  0  0  0
  -20.6780  -26.9423   22.5415 C   0  0  0  0  0  0
  -19.5754  -26.6379   21.5219 C   0  0  0  0  0  0
  -18.1933  -26.7937   22.1631 C   0  0  0  0  0  0
  -19.1557  -28.8876   23.2855 C   0  0  0  0  0  0
  -18.9475  -30.1477   23.8870 C   0  0  0  0  0  0
  -17.6463  -30.6591   24.0561 C   0  0  0  0  0  0
  -25.9068  -34.9404   23.5073 C   0  0  0  0  0  0
  -16.5362  -29.9076   23.6341 C   0  0  0  0  0  0
  -16.7282  -28.6507   23.0356 C   0  0  0  0  0  0
  -26.4523  -31.6547   25.0704 C   0  0  0  0  0  0
  -25.3720  -31.3750   26.1418 C   0  0  0  0  0  0
  -27.0376  -30.2940   24.6286 C   0  0  0  0  0  0
  -27.6050  -32.4318   25.7489 C   0  0  0  0  0  0
  -27.5582  -37.1777   24.8468 C   0  0  0  0  0  0
  -21.4257  -29.3029   22.3631 N   0  0  0  0  0  0
  -26.4288  -37.3742   23.9416 N   0  0  0  0  0  0
  -24.7139  -31.0301   22.0918 N   0  0  0  0  0  0
  -23.4213  -28.8111   23.3040 O   0  0  0  0  0  0
  -28.2929  -26.1953   20.2373 O   0  0  0  0  0  0
  -26.5655  -34.8903   22.4649 O   0  0  0  0  0  0
  -23.5534  -32.1333   23.7110 O   0  0  0  0  0  0
  -29.5332  -19.6957   18.1991 C   0  0  0  0  0  0
  -29.8101  -18.4147   17.6959 C   0  0  0  0  0  0
  -29.4713  -18.7736   20.4220 C   0  0  0  0  0  0
  -29.3669  -20.0025   19.5778 C   0  0  0  0  0  0
  -29.7732  -17.3923   19.9215 C   0  0  0  0  0  0
  -29.9254  -17.2926   18.5209 C   0  0  0  0  0  0
  -29.1009  -24.0080   19.0245 C   0  0  0  0  0  0
  -28.4959  -23.6586   21.2889 C   0  0  0  0  0  0
  -28.9837  -22.4379   18.7620 C   0  0  0  0  0  0
  -28.4114  -22.0426   21.0599 C   0  0  0  0  0  0
  -28.1508  -24.6501   20.0838 C   0  0  0  0  0  0
  -29.1500  -21.4602   19.8949 N   0  0  0  0  0  0
  -29.8083  -16.0580   20.6590 N   0  0  0  0  0  0
  -30.1190  -16.0950   17.9192 F   0  0  0  0  0  0
  -31.4744  -12.6767   19.1962 H   0  0  0  0  0  0
  -30.4097  -11.5718   20.0118 H   0  0  0  0  0  0
  -29.8275  -11.7404   17.5676 H   0  0  0  0  0  0
  -29.6386  -13.4706   17.7123 H   0  0  0  0  0  0
  -27.9043  -11.2948   18.9322 H   0  0  0  0  0  0
  -27.3953  -12.5282   17.8041 H   0  0  0  0  0  0
  -27.6164  -14.2663   19.4473 H   0  0  0  0  0  0
  -28.7393  -12.2482   21.4486 H   0  0  0  0  0  0
  -28.3864  -13.9232   21.7840 H   0  0  0  0  0  0
  -25.2731   -9.5757   22.4749 H   0  0  0  0  0  0
  -24.0032   -7.4658   22.7481 H   0  0  0  0  0  0
  -21.0816   -8.8749   19.8961 H   0  0  0  0  0  0
  -22.3634  -10.9667   19.6177 H   0  0  0  0  0  0
  -21.1996   -7.6137   23.9676 H   0  0  0  0  0  0
  -21.1508   -6.0515   25.9057 H   0  0  0  0  0  0
  -22.0595   -2.7598   23.2821 H   0  0  0  0  0  0
  -22.4042  -11.9905   22.4822 H   0  0  0  0  0  0
  -21.1047  -13.1287   22.2643 H   0  0  0  0  0  0
  -24.6574  -15.8522   20.5421 H   0  0  0  0  0  0
  -26.2588  -15.6273   20.0569 H   0  0  0  0  0  0
  -26.7265  -32.5307   23.0991 H   0  0  0  0  0  0
  -25.0064  -33.9607   25.0331 H   0  0  0  0  0  0
  -22.7450  -31.2872   21.3819 H   0  0  0  0  0  0
  -23.3751  -35.9585   23.3291 H   0  0  0  0  0  0
  -24.3589  -36.8897   22.2061 H   0  0  0  0  0  0
  -23.7241  -37.6449   23.6682 H   0  0  0  0  0  0
  -26.1537  -31.4724   20.6131 H   0  0  0  0  0  0
  -26.8683  -30.7702   22.0288 H   0  0  0  0  0  0
  -28.1225  -28.8062   21.2452 H   0  0  0  0  0  0
  -25.9339  -25.8679   18.9576 H   0  0  0  0  0  0
  -23.9881  -27.3019   18.9650 H   0  0  0  0  0  0
  -23.8030  -30.5645   19.3969 H   0  0  0  0  0  0
  -22.7830  -29.2295   19.8487 H   0  0  0  0  0  0
  -25.1300  -36.1856   25.0810 H   0  0  0  0  0  0
  -20.9994  -28.3292   24.1379 H   0  0  0  0  0  0
  -20.5685  -26.2320   23.3624 H   0  0  0  0  0  0
  -21.6646  -26.7428   22.1208 H   0  0  0  0  0  0
  -19.6911  -25.6282   21.1265 H   0  0  0  0  0  0
  -19.6694  -27.3180   20.6746 H   0  0  0  0  0  0
  -17.4205  -26.6687   21.4022 H   0  0  0  0  0  0
  -18.0327  -26.0087   22.9032 H   0  0  0  0  0  0
  -19.7943  -30.7305   24.2218 H   0  0  0  0  0  0
  -17.5017  -31.6267   24.5155 H   0  0  0  0  0  0
  -15.5357  -30.2961   23.7687 H   0  0  0  0  0  0
  -15.8688  -28.0814   22.7070 H   0  0  0  0  0  0
  -24.5866  -30.7133   25.7754 H   0  0  0  0  0  0
  -24.8941  -32.2926   26.4833 H   0  0  0  0  0  0
  -25.8001  -30.8919   27.0208 H   0  0  0  0  0  0
  -26.2984  -29.6667   24.1283 H   0  0  0  0  0  0
  -27.3976  -29.7235   25.4860 H   0  0  0  0  0  0
  -27.8905  -30.4172   23.9613 H   0  0  0  0  0  0
  -27.2631  -33.3616   26.2049 H   0  0  0  0  0  0
  -28.3858  -32.6887   25.0318 H   0  0  0  0  0  0
  -28.0730  -31.8463   26.5417 H   0  0  0  0  0  0
  -28.2576  -38.0094   24.7510 H   0  0  0  0  0  0
  -28.1089  -36.2612   24.6274 H   0  0  0  0  0  0
  -27.2306  -37.1420   25.8875 H   0  0  0  0  0  0
  -20.9473  -29.8733   21.6805 H   0  0  0  0  0  0
  -26.0150  -38.2813   24.1399 H   0  0  0  0  0  0
  -29.4459  -20.4292   17.4196 H   0  0  0  0  0  0
  -29.9130  -18.2868   16.6292 H   0  0  0  0  0  0
  -29.3225  -18.8866   21.4846 H   0  0  0  0  0  0
  -28.9424  -24.5157   18.0728 H   0  0  0  0  0  0
  -30.1326  -24.2333   19.2996 H   0  0  0  0  0  0
  -29.5040  -23.8899   21.6373 H   0  0  0  0  0  0
  -27.8524  -23.9135   22.1315 H   0  0  0  0  0  0
  -29.7667  -22.2650   18.0256 H   0  0  0  0  0  0
  -28.0313  -22.2292   18.2690 H   0  0  0  0  0  0
  -27.3623  -21.7632   20.9558 H   0  0  0  0  0  0
  -28.7597  -21.5429   21.9658 H   0  0  0  0  0  0
  -27.1322  -24.4065   19.7974 H   0  0  0  0  0  0
  -28.9799  -15.8846   21.2072 H   0  0  0  0  0  0
  1 25  1  0  0  0
  1 30  2  0  0  0
  1 83  1  0  0  0
  2  3  1  0  0  0
  2 25  1  0  0  0
  2 85  1  0  0  0
  2 86  1  0  0  0
  3  4  1  0  0  0
  3 87  1  0  0  0
  3 88  1  0  0  0
  4  5  1  0  0  0
  4 89  1  0  0  0
  4 90  1  0  0  0
  5  6  1  0  0  0
  5 26  1  0  0  0
  5 91  1  0  0  0
  6 25  1  0  0  0
  6 92  1  0  0  0
  6 93  1  0  0  0
  7  8  2  0  0  0
  7 26  1  0  0  0
  7 29  1  0  0  0
  8  9  1  0  0  0
  8 22  1  0  0  0
  9 10  1  0  0  0
  9 27  2  0  0  0
 10 11  2  0  0  0
 10 15  1  0  0  0
 11 12  1  0  0  0
 11 94  1  0  0  0
 12 13  2  0  0  0
 12 95  1  0  0  0
 13 14  1  0  0  0
 13 31  1  0  0  0
 14 15  2  0  0  0
 14 96  1  0  0  0
 15 97  1  0  0  0
 16 17  2  0  0  0
 16 21  1  0  0  0
 16 31  1  0  0  0
 17 18  1  0  0  0
 17 98  1  0  0  0
 18 19  2  0  0  0
 18 99  1  0  0  0
 19 20  1  0  0  0
 19 24  1  0  0  0
 20 21  2  0  0  0
 20100  1  0  0  0
 21 23  1  0  0  0
 22 28  1  0  0  0
 22 32  2  0  0  0
 26 27  1  0  0  0
 28101  1  0  0  0
 28102  1  0  0  0
 29103  1  0  0  0
 29104  1  0  0  0
 33 34  1  0  0  0
 33 66  1  0  0  0
 33 70  2  0  0  0
 34 36  1  0  0  0
 34 59  1  0  0  0
 34105  1  0  0  0
 35 44  2  0  0  0
 35 45  1  0  0  0
 35 68  1  0  0  0
 36 56  1  0  0  0
 36106  1  0  0  0
 37 39  1  0  0  0
 37 47  1  0  0  0
 37 66  1  0  0  0
 37107  1  0  0  0
 38 43  2  0  0  0
 38 46  1  0  0  0
 38 47  1  0  0  0
 39 64  1  0  0  0
 39 67  2  0  0  0
 40 52  1  0  0  0
 40 53  2  0  0  0
 40 58  1  0  0  0
 41108  1  0  0  0
 41109  1  0  0  0
 41110  1  0  0  0
 41 48  1  0  0  0
 42 43  1  0  0  0
 42 66  1  0  0  0
 42111  1  0  0  0
 42112  1  0  0  0
 43 44  1  0  0  0
 44113  1  0  0  0
 45 46  2  0  0  0
 45114  1  0  0  0
 46115  1  0  0  0
 47116  1  0  0  0
 47117  1  0  0  0
 48 56  1  0  0  0
 48 65  1  0  0  0
 48118  1  0  0  0
 49 50  1  0  0  0
 49 53  1  0  0  0
 49 64  1  0  0  0
 49119  1  0  0  0
 50 51  1  0  0  0
 50120  1  0  0  0
 50121  1  0  0  0
 51 52  1  0  0  0
 51122  1  0  0  0
 51123  1  0  0  0
 52124  1  0  0  0
 52125  1  0  0  0
 53 54  1  0  0  0
 54 55  2  0  0  0
 54126  1  0  0  0
 55 57  1  0  0  0
 55127  1  0  0  0
 56 69  2  0  0  0
 57 58  2  0  0  0
 57128  1  0  0  0
 58129  1  0  0  0
 59 60  1  0  0  0
 59 61  1  0  0  0
 59 62  1  0  0  0
 60130  1  0  0  0
 60131  1  0  0  0
 60132  1  0  0  0
 61133  1  0  0  0
 61134  1  0  0  0
 61135  1  0  0  0
 62136  1  0  0  0
 62137  1  0  0  0
 62138  1  0  0  0
 63 65  1  0  0  0
 63139  1  0  0  0
 63140  1  0  0  0
 63141  1  0  0  0
 64142  1  0  0  0
 65143  1  0  0  0
 68 81  1  0  0  0
 71 72  2  0  0  0
 71 74  1  0  0  0
 71144  1  0  0  0
 72 76  1  0  0  0
 72145  1  0  0  0
 73 74  2  0  0  0
 73 75  1  0  0  0
 73146  1  0  0  0
 74 82  1  0  0  0
 75 76  2  0  0  0
 75 83  1  0  0  0
 76 84  1  0  0  0
 77 79  1  0  0  0
 77 81  1  0  0  0
 77147  1  0  0  0
 77148  1  0  0  0
 78 80  1  0  0  0
 78 81  1  0  0  0
 78149  1  0  0  0
 78150  1  0  0  0
 79 82  1  0  0  0
 79151  1  0  0  0
 79152  1  0  0  0
 80 82  1  0  0  0
 80153  1  0  0  0
 80154  1  0  0  0
 81155  1  0  0  0
 83156  1  0  0  0
M  ISO  4   1 100  68 101  81 101  83 100
M  END
> <chiral flag>
0

> <version>
0

> <s_m_source_file>
/data/baiqing/PycharmProjects/Reinvent-master-3.2/result/LINK_invent/BTK/process_docking_weight1_custom_product_contain_oxygen_bond_distance_aromatic_linkinvent_7_9_3/rearranged_h_0008.sdf

> <i_m_source_file_index>
40

> <r_mmod_Potential_Energy-OPLS-2005>
429.105346679688

> <r_mmod_Stretch_Energy-OPLS-2005>
222.407623291016

> <r_mmod_Bend_Energy-OPLS-2005>
266.642364501953

> <r_mmod_Torsional_Energy-OPLS-2005>
264.221313476562

> <r_mmod_Improper_Torsional_Energy-OPLS-2005>
7.21914529800415

> <r_mmod_Van_der_Waal_Energy-OPLS-2005>
152.335144042969

> <r_mmod_Electrostatic_Energy-OPLS-2005>
-410.213836669922

> <r_mmod_Solvation_Energy-OPLS-2005>
-234.256774902344

> <b_mmod_Minimization_Converged-OPLS-2005>
0

> <r_mmod_RMS_Derivative-OPLS-2005>
3.04211902618408

$$$$
40
                    3D
 Structure written by MMmdl.
155164  0  0  1  0            999 V2000
  -30.6041  -14.6714   20.4994 C   0  0  0  0  0  0
  -30.4520  -12.4073   19.4664 C   0  0  0  0  0  0
  -29.5294  -12.5176   18.2313 C   0  0  0  0  0  0
  -28.0475  -12.3429   18.6300 C   0  0  0  0  0  0
  -27.6559  -13.2153   19.8528 C   0  0  2  0  0  0
  -28.6973  -13.0791   20.9880 C   0  0  0  0  0  0
  -25.2567  -13.8160   20.5574 C   0  0  0  0  0  0
  -24.1839  -13.0431   20.9141 C   0  0  0  0  0  0
  -24.6403  -11.6904   20.8667 C   0  0  0  0  0  0
  -23.9065  -10.4293   21.0360 C   0  0  0  0  0  0
  -24.3595   -9.4217   21.9157 C   0  0  0  0  0  0
  -23.6281   -8.2241   22.0736 C   0  0  0  0  0  0
  -22.4269   -8.0259   21.3525 C   0  0  0  0  0  0
  -21.9900   -9.0251   20.4651 C   0  0  0  0  0  0
  -22.7215  -10.2136   20.3048 C   0  0  0  0  0  0
  -21.6861   -6.0719   22.5264 C   0  0  0  0  0  0
  -21.4021   -6.5622   23.8195 C   0  0  0  0  0  0
  -21.3653   -5.6772   24.9158 C   0  0  0  0  0  0
  -21.6046   -4.3039   24.7209 C   0  0  0  0  0  0
  -21.8830   -3.8134   23.4329 C   0  0  0  0  0  0
  -21.9179   -4.6950   22.3383 C   0  0  0  0  0  0
  -22.7849  -13.5228   21.1803 C   0  0  0  0  0  0
  -22.1667   -4.2137   21.0964 F   0  0  0  0  0  0
  -21.5626   -3.4525   25.7721 F   0  0  0  0  0  0
  -30.0129  -13.4345   20.4311 N   0  0  0  0  0  0
  -26.2996  -12.9340   20.3201 N   0  0  0  0  0  0
  -25.9340  -11.6512   20.5662 N   0  0  0  0  0  0
  -22.0476  -12.8266   22.0383 N   0  0  0  0  0  0
  -25.4287  -15.1861   20.3917 N   0  0  0  0  0  0
  -31.7789  -14.8353   20.1501 O   0  0  0  0  0  0
  -21.6628   -6.8855   21.4212 O   0  0  0  0  0  0
  -22.3541  -14.5509   20.6591 O   0  0  0  0  0  0
  -24.6257  -31.8592   23.2029 C   0  0  0  0  0  0
  -25.9102  -32.4762   23.8347 C   0  0  1  0  0  0
  -27.2189  -27.3110   20.1215 C   0  0  0  0  0  0
  -25.5929  -33.8561   24.2281 N   0  0  0  0  0  0
  -23.4179  -30.4817   21.5489 C   0  0  2  0  0  0
  -24.8635  -28.9429   20.1062 C   0  0  0  0  0  0
  -22.7451  -29.4615   22.4973 C   0  0  0  0  0  0
  -18.0270  -28.1375   22.8484 C   0  0  0  0  0  0
  -24.1490  -36.7316   23.2635 C   0  0  0  0  0  0
  -25.9589  -30.7889   21.3725 C   0  0  0  0  0  0
  -26.0312  -29.4151   20.7169 C   0  0  0  0  0  0
  -27.2099  -28.6113   20.7169 C   0  0  0  0  0  0
  -26.0284  -26.9001   19.4744 C   0  0  0  0  0  0
  -24.8663  -27.6923   19.4716 C   0  0  0  0  0  0
  -23.6285  -29.8184   20.1632 C   0  0  0  0  0  0
  -25.4112  -36.3086   24.0317 C   0  0  1  0  0  0
  -20.5864  -28.3672   23.1305 C   0  0  2  0  0  0
  -20.6762  -26.9399   22.5418 C   0  0  0  0  0  0
  -19.5746  -26.6376   21.5219 C   0  0  0  0  0  0
  -18.1928  -26.7919   22.1619 C   0  0  0  0  0  0
  -19.1520  -28.8846   23.2884 C   0  0  0  0  0  0
  -18.9441  -30.1466   23.8868 C   0  0  0  0  0  0
  -17.6438  -30.6576   24.0563 C   0  0  0  0  0  0
  -25.9051  -34.9441   23.5098 C   0  0  0  0  0  0
  -16.5332  -29.9068   23.6333 C   0  0  0  0  0  0
  -16.7257  -28.6492   23.0340 C   0  0  0  0  0  0
  -26.4490  -31.6553   25.0703 C   0  0  0  0  0  0
  -25.3739  -31.3693   26.1460 C   0  0  0  0  0  0
  -27.0293  -30.2969   24.6127 C   0  0  0  0  0  0
  -27.6077  -32.4263   25.7451 C   0  0  0  0  0  0
  -27.5594  -37.1796   24.8443 C   0  0  0  0  0  0
  -21.4167  -29.3023   22.3710 N   0  0  0  0  0  0
  -26.4291  -37.3782   23.9405 N   0  0  0  0  0  0
  -24.6875  -31.0590   22.0989 N   0  0  0  0  0  0
  -23.4187  -28.8170   23.3049 O   0  0  0  0  0  0
  -28.3337  -26.4557   20.1896 O   0  0  0  0  0  0
  -26.5608  -34.8901   22.4657 O   0  0  0  0  0  0
  -23.5421  -32.1410   23.7337 O   0  0  0  0  0  0
  -28.7212  -19.4246   20.6784 C   0  0  0  0  0  0
  -28.6966  -17.9910   20.6993 C   0  0  0  0  0  0
  -31.0937  -17.9141   20.6979 C   0  0  0  0  0  0
  -29.9443  -20.1475   20.6907 C   0  0  0  0  0  0
  -29.8757  -17.1860   20.7142 C   0  0  0  0  0  0
  -31.1217  -19.3411   20.6893 C   0  0  0  0  0  0
  -29.3718  -24.0641   20.0604 C   0  0  0  0  0  0
  -27.3099  -24.2938   21.1434 C   0  0  0  0  0  0
  -27.7576  -22.8034   21.1072 C   0  0  0  0  0  0
  -28.1177  -24.9892   20.0374 C   0  0  1  0  0  0
  -30.1283  -21.7207   20.7730 C   0  0  0  0  0  0
  -29.0979  -22.8013   20.5193 N   0  0  0  0  0  0
  -29.7594  -15.7188   20.7857 N   0  0  0  0  0  0
  -30.4844  -24.4610   19.6979 O   0  0  0  0  0  0
  -32.3297  -19.9552   20.7013 F   0  0  0  0  0  0
  -31.4966  -12.5348   19.1767 H   0  0  0  0  0  0
  -30.3833  -11.4136   19.9136 H   0  0  0  0  0  0
  -29.8129  -11.7766   17.4824 H   0  0  0  0  0  0
  -29.6668  -13.4923   17.7584 H   0  0  0  0  0  0
  -27.8870  -11.2893   18.8609 H   0  0  0  0  0  0
  -27.4008  -12.5692   17.7823 H   0  0  0  0  0  0
  -27.6690  -14.2464   19.4992 H   0  0  0  0  0  0
  -28.7152  -12.0588   21.3753 H   0  0  0  0  0  0
  -28.4404  -13.7104   21.8392 H   0  0  0  0  0  0
  -25.2758   -9.5692   22.4691 H   0  0  0  0  0  0
  -24.0010   -7.4626   22.7456 H   0  0  0  0  0  0
  -21.0827   -8.8751   19.8965 H   0  0  0  0  0  0
  -22.3660  -10.9644   19.6136 H   0  0  0  0  0  0
  -21.2052   -7.6137   23.9703 H   0  0  0  0  0  0
  -21.1464   -6.0498   25.9051 H   0  0  0  0  0  0
  -22.0621   -2.7599   23.2818 H   0  0  0  0  0  0
  -22.4097  -12.0001   22.4912 H   0  0  0  0  0  0
  -21.1062  -13.1300   22.2491 H   0  0  0  0  0  0
  -24.6531  -15.8354   20.4636 H   0  0  0  0  0  0
  -26.2607  -15.6015   19.9912 H   0  0  0  0  0  0
  -26.7163  -32.5423   23.1090 H   0  0  0  0  0  0
  -25.0078  -33.9686   25.0425 H   0  0  0  0  0  0
  -22.7127  -31.3033   21.4099 H   0  0  0  0  0  0
  -23.3737  -35.9665   23.3260 H   0  0  0  0  0  0
  -24.3624  -36.8984   22.2071 H   0  0  0  0  0  0
  -23.7250  -37.6502   23.6684 H   0  0  0  0  0  0
  -26.0775  -31.5534   20.6042 H   0  0  0  0  0  0
  -26.8428  -30.8460   21.9945 H   0  0  0  0  0  0
  -28.1036  -28.9661   21.2099 H   0  0  0  0  0  0
  -25.9540  -25.9530   18.9647 H   0  0  0  0  0  0
  -23.9747  -27.3328   18.9764 H   0  0  0  0  0  0
  -23.7323  -30.5933   19.4038 H   0  0  0  0  0  0
  -22.7492  -29.2408   19.8732 H   0  0  0  0  0  0
  -25.1290  -36.1947   25.0809 H   0  0  0  0  0  0
  -20.9950  -28.3239   24.1427 H   0  0  0  0  0  0
  -20.5693  -26.2264   23.3601 H   0  0  0  0  0  0
  -21.6631  -26.7452   22.1225 H   0  0  0  0  0  0
  -19.6922  -25.6291   21.1254 H   0  0  0  0  0  0
  -19.6707  -27.3171   20.6739 H   0  0  0  0  0  0
  -17.4211  -26.6657   21.4015 H   0  0  0  0  0  0
  -18.0329  -26.0065   22.9018 H   0  0  0  0  0  0
  -19.7918  -30.7299   24.2212 H   0  0  0  0  0  0
  -17.4983  -31.6249   24.5178 H   0  0  0  0  0  0
  -15.5334  -30.2950   23.7671 H   0  0  0  0  0  0
  -15.8657  -28.0815   22.7039 H   0  0  0  0  0  0
  -24.5823  -30.7166   25.7766 H   0  0  0  0  0  0
  -24.9043  -32.2872   26.5007 H   0  0  0  0  0  0
  -25.8076  -30.8736   27.0158 H   0  0  0  0  0  0
  -26.2844  -29.6731   24.1188 H   0  0  0  0  0  0
  -27.4024  -29.7217   25.4606 H   0  0  0  0  0  0
  -27.8707  -30.4215   23.9310 H   0  0  0  0  0  0
  -27.2717  -33.3535   26.2098 H   0  0  0  0  0  0
  -28.3857  -32.6867   25.0261 H   0  0  0  0  0  0
  -28.0794  -31.8344   26.5304 H   0  0  0  0  0  0
  -28.2568  -38.0129   24.7536 H   0  0  0  0  0  0
  -28.1125  -36.2660   24.6202 H   0  0  0  0  0  0
  -27.2326  -37.1398   25.8844 H   0  0  0  0  0  0
  -20.9338  -29.8723   21.6907 H   0  0  0  0  0  0
  -26.0168  -38.2855   24.1404 H   0  0  0  0  0  0
  -27.7823  -19.9605   20.6741 H   0  0  0  0  0  0
  -27.7306  -17.5029   20.7013 H   0  0  0  0  0  0
  -32.0368  -17.3902   20.7086 H   0  0  0  0  0  0
  -27.5630  -24.7348   22.1100 H   0  0  0  0  0  0
  -26.2340  -24.4078   21.0116 H   0  0  0  0  0  0
  -27.0894  -22.2264   20.4671 H   0  0  0  0  0  0
  -27.7436  -22.3506   22.0996 H   0  0  0  0  0  0
  -27.6776  -24.7830   19.0636 H   0  0  0  0  0  0
  -30.9568  -21.9308   20.0966 H   0  0  0  0  0  0
  -30.5265  -21.9224   21.7689 H   0  0  0  0  0  0
  -28.8276  -15.3911   20.9918 H   0  0  0  0  0  0
  1 25  1  0  0  0
  1 30  2  0  0  0
  1 83  1  0  0  0
  2  3  1  0  0  0
  2 25  1  0  0  0
  2 86  1  0  0  0
  2 87  1  0  0  0
  3  4  1  0  0  0
  3 88  1  0  0  0
  3 89  1  0  0  0
  4  5  1  0  0  0
  4 90  1  0  0  0
  4 91  1  0  0  0
  5  6  1  0  0  0
  5 26  1  0  0  0
  5 92  1  0  0  0
  6 25  1  0  0  0
  6 93  1  0  0  0
  6 94  1  0  0  0
  7  8  2  0  0  0
  7 26  1  0  0  0
  7 29  1  0  0  0
  8  9  1  0  0  0
  8 22  1  0  0  0
  9 10  1  0  0  0
  9 27  2  0  0  0
 10 11  2  0  0  0
 10 15  1  0  0  0
 11 12  1  0  0  0
 11 95  1  0  0  0
 12 13  2  0  0  0
 12 96  1  0  0  0
 13 14  1  0  0  0
 13 31  1  0  0  0
 14 15  2  0  0  0
 14 97  1  0  0  0
 15 98  1  0  0  0
 16 17  2  0  0  0
 16 21  1  0  0  0
 16 31  1  0  0  0
 17 18  1  0  0  0
 17 99  1  0  0  0
 18 19  2  0  0  0
 18100  1  0  0  0
 19 20  1  0  0  0
 19 24  1  0  0  0
 20 21  2  0  0  0
 20101  1  0  0  0
 21 23  1  0  0  0
 22 28  1  0  0  0
 22 32  2  0  0  0
 26 27  1  0  0  0
 28102  1  0  0  0
 28103  1  0  0  0
 29104  1  0  0  0
 29105  1  0  0  0
 33 34  1  0  0  0
 33 66  1  0  0  0
 33 70  2  0  0  0
 34 36  1  0  0  0
 34 59  1  0  0  0
 34106  1  0  0  0
 35 44  2  0  0  0
 35 45  1  0  0  0
 35 68  1  0  0  0
 36 56  1  0  0  0
 36107  1  0  0  0
 37 39  1  0  0  0
 37 47  1  0  0  0
 37 66  1  0  0  0
 37108  1  0  0  0
 38 43  2  0  0  0
 38 46  1  0  0  0
 38 47  1  0  0  0
 39 64  1  0  0  0
 39 67  2  0  0  0
 40 52  1  0  0  0
 40 53  2  0  0  0
 40 58  1  0  0  0
 41109  1  0  0  0
 41110  1  0  0  0
 41111  1  0  0  0
 41 48  1  0  0  0
 42 43  1  0  0  0
 42 66  1  0  0  0
 42112  1  0  0  0
 42113  1  0  0  0
 43 44  1  0  0  0
 44114  1  0  0  0
 45 46  2  0  0  0
 45115  1  0  0  0
 46116  1  0  0  0
 47117  1  0  0  0
 47118  1  0  0  0
 48 56  1  0  0  0
 48 65  1  0  0  0
 48119  1  0  0  0
 49 50  1  0  0  0
 49 53  1  0  0  0
 49 64  1  0  0  0
 49120  1  0  0  0
 50 51  1  0  0  0
 50121  1  0  0  0
 50122  1  0  0  0
 51 52  1  0  0  0
 51123  1  0  0  0
 51124  1  0  0  0
 52125  1  0  0  0
 52126  1  0  0  0
 53 54  1  0  0  0
 54 55  2  0  0  0
 54127  1  0  0  0
 55 57  1  0  0  0
 55128  1  0  0  0
 56 69  2  0  0  0
 57 58  2  0  0  0
 57129  1  0  0  0
 58130  1  0  0  0
 59 60  1  0  0  0
 59 61  1  0  0  0
 59 62  1  0  0  0
 60131  1  0  0  0
 60132  1  0  0  0
 60133  1  0  0  0
 61134  1  0  0  0
 61135  1  0  0  0
 61136  1  0  0  0
 62137  1  0  0  0
 62138  1  0  0  0
 62139  1  0  0  0
 63 65  1  0  0  0
 63140  1  0  0  0
 63141  1  0  0  0
 63142  1  0  0  0
 64143  1  0  0  0
 65144  1  0  0  0
 68 80  1  0  0  0
 71 72  2  0  0  0
 71 74  1  0  0  0
 71145  1  0  0  0
 72 75  1  0  0  0
 72146  1  0  0  0
 73 75  2  0  0  0
 73 76  1  0  0  0
 73147  1  0  0  0
 74 76  2  0  0  0
 74 81  1  0  0  0
 75 83  1  0  0  0
 76 85  1  0  0  0
 77 80  1  0  0  0
 77 82  1  0  0  0
 77 84  2  0  0  0
 78 79  1  0  0  0
 78 80  1  0  0  0
 78148  1  0  0  0
 78149  1  0  0  0
 79 82  1  0  0  0
 79150  1  0  0  0
 79151  1  0  0  0
 80152  1  0  0  0
 81 82  1  0  0  0
 81153  1  0  0  0
 81154  1  0  0  0
 83155  1  0  0  0
M  ISO  4   1 100  68 101  80 101  83 100
M  END
> <chiral flag>
0

> <version>
0

> <s_m_source_file>
/data/baiqing/PycharmProjects/Reinvent-master-3.2/result/LINK_invent/BTK/process_docking_weight1_custom_product_contain_oxygen_bond_distance_aromatic_linkinvent_7_9_3/rearranged_h_0008.sdf

> <i_m_source_file_index>
41

> <r_mmod_Potential_Energy-OPLS-2005>
144.584716796875

> <r_mmod_Stretch_Energy-OPLS-2005>
85.5951156616211

> <r_mmod_Bend_Energy-OPLS-2005>
198.883499145508

> <r_mmod_Torsional_Energy-OPLS-2005>
231.26432800293

> <r_mmod_Improper_Torsional_Energy-OPLS-2005>
5.80612993240356

> <r_mmod_Van_der_Waal_Energy-OPLS-2005>
137.812301635742

> <r_mmod_Electrostatic_Energy-OPLS-2005>
-330.693664550781

> <r_mmod_Solvation_Energy-OPLS-2005>
-241.349395751953

> <b_mmod_Minimization_Converged-OPLS-2005>
0

> <r_mmod_RMS_Derivative-OPLS-2005>
3.97656869888306

$$$$
41
                    3D
 Structure written by MMmdl.
150158  0  0  1  0            999 V2000
  -30.3026  -15.5951   20.3318 C   0  0  0  0  0  0
  -30.4333  -13.0487   19.5367 C   0  0  0  0  0  0
  -29.5519  -12.6450   18.3199 C   0  0  0  0  0  0
  -28.1204  -12.3003   18.7610 C   0  0  0  0  0  0
  -27.5998  -13.3035   19.8152 C   0  0  2  0  0  0
  -28.6204  -13.6103   20.9357 C   0  0  0  0  0  0
  -25.2334  -13.8279   20.5785 C   0  0  0  0  0  0
  -24.1719  -13.0435   20.9288 C   0  0  0  0  0  0
  -24.6417  -11.6945   20.8770 C   0  0  0  0  0  0
  -23.9118  -10.4294   21.0404 C   0  0  0  0  0  0
  -24.3651   -9.4206   21.9186 C   0  0  0  0  0  0
  -23.6310   -8.2248   22.0760 C   0  0  0  0  0  0
  -22.4290   -8.0292   21.3550 C   0  0  0  0  0  0
  -21.9936   -9.0269   20.4651 C   0  0  0  0  0  0
  -22.7283  -10.2139   20.3057 C   0  0  0  0  0  0
  -21.6858   -6.0744   22.5279 C   0  0  0  0  0  0
  -21.4022   -6.5644   23.8215 C   0  0  0  0  0  0
  -21.3661   -5.6796   24.9175 C   0  0  0  0  0  0
  -21.6041   -4.3058   24.7224 C   0  0  0  0  0  0
  -21.8817   -3.8152   23.4345 C   0  0  0  0  0  0
  -21.9193   -4.6970   22.3403 C   0  0  0  0  0  0
  -22.7729  -13.5169   21.1924 C   0  0  0  0  0  0
  -22.1660   -4.2155   21.0980 F   0  0  0  0  0  0
  -21.5623   -3.4541   25.7736 F   0  0  0  0  0  0
  -29.8011  -14.2240   20.2851 N   0  0  0  0  0  0
  -26.2787  -12.9604   20.3234 N   0  0  0  0  0  0
  -25.9363  -11.6681   20.5705 N   0  0  0  0  0  0
  -22.0392  -12.8148   22.0476 N   0  0  0  0  0  0
  -25.3906  -15.2020   20.4217 N   0  0  0  0  0  0
  -31.5375  -15.5652   20.1677 O   0  0  0  0  0  0
  -21.6647   -6.8890   21.4244 O   0  0  0  0  0  0
  -22.3403  -14.5468   20.6761 O   0  0  0  0  0  0
  -24.6838  -31.8004   23.1526 C   0  0  0  0  0  0
  -25.9417  -32.4472   23.8072 C   0  0  1  0  0  0
  -27.2285  -26.7122   20.2097 C   0  0  0  0  0  0
  -25.5995  -33.8296   24.1956 N   0  0  0  0  0  0
  -23.5098  -30.4030   21.5061 C   0  0  2  0  0  0
  -24.9678  -28.7466   20.1176 C   0  0  0  0  0  0
  -22.7767  -29.4319   22.4711 C   0  0  0  0  0  0
  -18.0338  -28.1423   22.8452 C   0  0  0  0  0  0
  -24.1496  -36.7158   23.2654 C   0  0  0  0  0  0
  -26.0906  -30.5363   21.4160 C   0  0  0  0  0  0
  -26.1573  -29.1024   20.7649 C   0  0  0  0  0  0
  -27.2735  -28.1131   20.7786 C   0  0  0  0  0  0
  -26.0058  -26.5650   19.5061 C   0  0  0  0  0  0
  -24.9307  -27.5028   19.4650 C   0  0  0  0  0  0
  -23.7639  -29.7013   20.1410 C   0  0  0  0  0  0
  -25.4147  -36.2898   24.0281 C   0  0  1  0  0  0
  -20.5974  -28.3783   23.1139 C   0  0  2  0  0  0
  -20.6804  -26.9441   22.5403 C   0  0  0  0  0  0
  -19.5781  -26.6371   21.5215 C   0  0  0  0  0  0
  -18.1964  -26.7949   22.1618 C   0  0  0  0  0  0
  -19.1604  -28.8927   23.2778 C   0  0  0  0  0  0
  -18.9510  -30.1510   23.8826 C   0  0  0  0  0  0
  -17.6500  -30.6604   24.0551 C   0  0  0  0  0  0
  -25.9123  -34.9287   23.4954 C   0  0  0  0  0  0
  -16.5389  -29.9087   23.6350 C   0  0  0  0  0  0
  -16.7318  -28.6510   23.0364 C   0  0  0  0  0  0
  -26.4591  -31.6506   25.0695 C   0  0  0  0  0  0
  -25.3656  -31.3820   26.1308 C   0  0  0  0  0  0
  -27.0522  -30.2844   24.6592 C   0  0  0  0  0  0
  -27.6039  -32.4366   25.7516 C   0  0  0  0  0  0
  -27.5560  -37.1743   24.8470 C   0  0  0  0  0  0
  -21.4415  -29.3032   22.3460 N   0  0  0  0  0  0
  -26.4276  -37.3655   23.9397 N   0  0  0  0  0  0
  -24.7847  -30.9457   22.0775 N   0  0  0  0  0  0
  -23.4210  -28.7917   23.3053 O   0  0  0  0  0  0
  -28.1836  -25.4896   20.2805 O   0  0  0  0  0  0
  -26.5764  -34.8860   22.4570 O   0  0  0  0  0  0
  -23.5858  -32.1072   23.6485 O   0  0  0  0  0  0
  -28.4470  -20.9673   19.2128 C   0  0  0  0  0  0
  -29.5808  -19.7166   21.2979 C   0  0  0  0  0  0
  -28.6230  -22.0637   20.2063 C   0  0  0  0  0  0
  -28.7705  -19.4721   19.2339 C   0  0  0  0  0  0
  -29.2462  -21.2226   21.2763 C   0  0  0  0  0  0
  -29.3938  -18.6270   20.2889 C   0  0  0  0  0  0
  -28.3509  -18.7063   17.9929 C   0  0  0  0  0  0
  -29.5411  -21.9780   22.5579 C   0  0  0  0  0  0
  -27.8657  -23.7757   20.1361 C   0  0  0  0  0  0
  -29.4741  -16.9080   20.3736 N   0  0  0  0  0  0
  -31.4271  -13.3134   19.1734 H   0  0  0  0  0  0
  -30.5911  -12.1969   20.2006 H   0  0  0  0  0  0
  -29.9955  -11.8020   17.7883 H   0  0  0  0  0  0
  -29.5217  -13.4735   17.6105 H   0  0  0  0  0  0
  -28.1373  -11.2981   19.1910 H   0  0  0  0  0  0
  -27.4511  -12.2566   17.9010 H   0  0  0  0  0  0
  -27.4698  -14.2327   19.2587 H   0  0  0  0  0  0
  -28.8705  -12.7174   21.5109 H   0  0  0  0  0  0
  -28.1974  -14.3241   21.6444 H   0  0  0  0  0  0
  -25.2792   -9.5674   22.4770 H   0  0  0  0  0  0
  -24.0010   -7.4637   22.7481 H   0  0  0  0  0  0
  -21.0866   -8.8803   19.8955 H   0  0  0  0  0  0
  -22.3747  -10.9685   19.6169 H   0  0  0  0  0  0
  -21.2023   -7.6155   23.9719 H   0  0  0  0  0  0
  -21.1481   -6.0527   25.9077 H   0  0  0  0  0  0
  -22.0592   -2.7614   23.2844 H   0  0  0  0  0  0
  -22.4033  -11.9827   22.4876 H   0  0  0  0  0  0
  -21.1004  -13.1149   22.2685 H   0  0  0  0  0  0
  -24.6126  -15.8437   20.5309 H   0  0  0  0  0  0
  -26.2203  -15.6467   20.0545 H   0  0  0  0  0  0
  -26.7500  -32.4945   23.0787 H   0  0  0  0  0  0
  -25.0049  -33.9334   25.0045 H   0  0  0  0  0  0
  -22.8352  -31.2406   21.3170 H   0  0  0  0  0  0
  -23.3765  -35.9482   23.3293 H   0  0  0  0  0  0
  -24.3557  -36.8842   22.2073 H   0  0  0  0  0  0
  -23.7257  -37.6332   23.6746 H   0  0  0  0  0  0
  -26.2929  -31.2625   20.6277 H   0  0  0  0  0  0
  -26.9416  -30.6031   22.0814 H   0  0  0  0  0  0
  -28.1686  -28.3902   21.3176 H   0  0  0  0  0  0
  -25.8384  -25.6243   19.0015 H   0  0  0  0  0  0
  -24.0331  -27.2213   18.9315 H   0  0  0  0  0  0
  -23.9402  -30.4625   19.3802 H   0  0  0  0  0  0
  -22.8685  -29.1691   19.8152 H   0  0  0  0  0  0
  -25.1359  -36.1665   25.0773 H   0  0  0  0  0  0
  -21.0055  -28.3409   24.1265 H   0  0  0  0  0  0
  -20.5667  -26.2407   23.3665 H   0  0  0  0  0  0
  -21.6665  -26.7385   22.1223 H   0  0  0  0  0  0
  -19.6938  -25.6262   21.1293 H   0  0  0  0  0  0
  -19.6724  -27.3140   20.6711 H   0  0  0  0  0  0
  -17.4232  -26.6687   21.4025 H   0  0  0  0  0  0
  -18.0358  -26.0112   22.9035 H   0  0  0  0  0  0
  -19.7984  -30.7345   24.2167 H   0  0  0  0  0  0
  -17.5048  -31.6274   24.5168 H   0  0  0  0  0  0
  -15.5386  -30.2966   23.7716 H   0  0  0  0  0  0
  -15.8718  -28.0806   22.7119 H   0  0  0  0  0  0
  -24.5866  -30.7144   25.7605 H   0  0  0  0  0  0
  -24.8818  -32.3042   26.4537 H   0  0  0  0  0  0
  -25.7833  -30.9112   27.0217 H   0  0  0  0  0  0
  -26.3235  -29.6458   24.1592 H   0  0  0  0  0  0
  -27.3952  -29.7293   25.5333 H   0  0  0  0  0  0
  -27.9215  -30.3966   24.0113 H   0  0  0  0  0  0
  -27.2572  -33.3730   26.1899 H   0  0  0  0  0  0
  -28.3951  -32.6828   25.0423 H   0  0  0  0  0  0
  -28.0594  -31.8629   26.5596 H   0  0  0  0  0  0
  -28.2567  -38.0045   24.7483 H   0  0  0  0  0  0
  -28.1064  -36.2565   24.6344 H   0  0  0  0  0  0
  -27.2268  -37.1437   25.8871 H   0  0  0  0  0  0
  -20.9719  -29.8688   21.6526 H   0  0  0  0  0  0
  -26.0106  -38.2707   24.1387 H   0  0  0  0  0  0
  -27.9415  -21.2998   18.3168 H   0  0  0  0  0  0
  -29.9821  -19.3575   22.2354 H   0  0  0  0  0  0
  -28.2553  -19.3627   17.1277 H   0  0  0  0  0  0
  -27.3912  -18.2161   18.1581 H   0  0  0  0  0  0
  -29.0867  -17.9410   17.7423 H   0  0  0  0  0  0
  -30.0234  -21.3488   23.3063 H   0  0  0  0  0  0
  -28.6188  -22.3681   22.9895 H   0  0  0  0  0  0
  -30.2032  -22.8203   22.3545 H   0  0  0  0  0  0
  -27.0349  -23.6586   20.8318 H   0  0  0  0  0  0
  -27.3841  -23.7399   19.1590 H   0  0  0  0  0  0
  -28.5240  -16.5699   20.4124 H   0  0  0  0  0  0
  1 25  1  0  0  0
  1 30  2  0  0  0
  1 80  1  0  0  0
  2  3  1  0  0  0
  2 25  1  0  0  0
  2 81  1  0  0  0
  2 82  1  0  0  0
  3  4  1  0  0  0
  3 83  1  0  0  0
  3 84  1  0  0  0
  4  5  1  0  0  0
  4 85  1  0  0  0
  4 86  1  0  0  0
  5  6  1  0  0  0
  5 26  1  0  0  0
  5 87  1  0  0  0
  6 25  1  0  0  0
  6 88  1  0  0  0
  6 89  1  0  0  0
  7  8  2  0  0  0
  7 26  1  0  0  0
  7 29  1  0  0  0
  8  9  1  0  0  0
  8 22  1  0  0  0
  9 10  1  0  0  0
  9 27  2  0  0  0
 10 11  2  0  0  0
 10 15  1  0  0  0
 11 12  1  0  0  0
 11 90  1  0  0  0
 12 13  2  0  0  0
 12 91  1  0  0  0
 13 14  1  0  0  0
 13 31  1  0  0  0
 14 15  2  0  0  0
 14 92  1  0  0  0
 15 93  1  0  0  0
 16 17  2  0  0  0
 16 21  1  0  0  0
 16 31  1  0  0  0
 17 18  1  0  0  0
 17 94  1  0  0  0
 18 19  2  0  0  0
 18 95  1  0  0  0
 19 20  1  0  0  0
 19 24  1  0  0  0
 20 21  2  0  0  0
 20 96  1  0  0  0
 21 23  1  0  0  0
 22 28  1  0  0  0
 22 32  2  0  0  0
 26 27  1  0  0  0
 28 97  1  0  0  0
 28 98  1  0  0  0
 29 99  1  0  0  0
 29100  1  0  0  0
 33 34  1  0  0  0
 33 66  1  0  0  0
 33 70  2  0  0  0
 34 36  1  0  0  0
 34 59  1  0  0  0
 34101  1  0  0  0
 35 44  2  0  0  0
 35 45  1  0  0  0
 35 68  1  0  0  0
 36 56  1  0  0  0
 36102  1  0  0  0
 37 39  1  0  0  0
 37 47  1  0  0  0
 37 66  1  0  0  0
 37103  1  0  0  0
 38 43  2  0  0  0
 38 46  1  0  0  0
 38 47  1  0  0  0
 39 64  1  0  0  0
 39 67  2  0  0  0
 40 52  1  0  0  0
 40 53  2  0  0  0
 40 58  1  0  0  0
 41104  1  0  0  0
 41105  1  0  0  0
 41106  1  0  0  0
 41 48  1  0  0  0
 42 43  1  0  0  0
 42 66  1  0  0  0
 42107  1  0  0  0
 42108  1  0  0  0
 43 44  1  0  0  0
 44109  1  0  0  0
 45 46  2  0  0  0
 45110  1  0  0  0
 46111  1  0  0  0
 47112  1  0  0  0
 47113  1  0  0  0
 48 56  1  0  0  0
 48 65  1  0  0  0
 48114  1  0  0  0
 49 50  1  0  0  0
 49 53  1  0  0  0
 49 64  1  0  0  0
 49115  1  0  0  0
 50 51  1  0  0  0
 50116  1  0  0  0
 50117  1  0  0  0
 51 52  1  0  0  0
 51118  1  0  0  0
 51119  1  0  0  0
 52120  1  0  0  0
 52121  1  0  0  0
 53 54  1  0  0  0
 54 55  2  0  0  0
 54122  1  0  0  0
 55 57  1  0  0  0
 55123  1  0  0  0
 56 69  2  0  0  0
 57 58  2  0  0  0
 57124  1  0  0  0
 58125  1  0  0  0
 59 60  1  0  0  0
 59 61  1  0  0  0
 59 62  1  0  0  0
 60126  1  0  0  0
 60127  1  0  0  0
 60128  1  0  0  0
 61129  1  0  0  0
 61130  1  0  0  0
 61131  1  0  0  0
 62132  1  0  0  0
 62133  1  0  0  0
 62134  1  0  0  0
 63 65  1  0  0  0
 63135  1  0  0  0
 63136  1  0  0  0
 63137  1  0  0  0
 64138  1  0  0  0
 65139  1  0  0  0
 68 79  1  0  0  0
 71 73  2  0  0  0
 71 74  1  0  0  0
 71140  1  0  0  0
 72 75  2  0  0  0
 72 76  1  0  0  0
 72141  1  0  0  0
 73 75  1  0  0  0
 73 79  1  0  0  0
 74 76  2  0  0  0
 74 77  1  0  0  0
 75 78  1  0  0  0
 76 80  1  0  0  0
 77142  1  0  0  0
 77143  1  0  0  0
 77144  1  0  0  0
 78145  1  0  0  0
 78146  1  0  0  0
 78147  1  0  0  0
 79148  1  0  0  0
 79149  1  0  0  0
 80150  1  0  0  0
M  ISO  4   1 100  68 101  79 101  80 100
M  END
> <chiral flag>
0

> <version>
0

> <s_m_source_file>
/data/baiqing/PycharmProjects/Reinvent-master-3.2/result/LINK_invent/BTK/process_docking_weight1_custom_product_contain_oxygen_bond_distance_aromatic_linkinvent_7_9_3/rearranged_h_0008.sdf

> <i_m_source_file_index>
42

> <r_mmod_Potential_Energy-OPLS-2005>
2262.70751953125

> <r_mmod_Stretch_Energy-OPLS-2005>
917.577331542969

> <r_mmod_Bend_Energy-OPLS-2005>
655.342224121094

> <r_mmod_Torsional_Energy-OPLS-2005>
258.717437744141

> <r_mmod_Improper_Torsional_Energy-OPLS-2005>
10.176064491272

> <r_mmod_Van_der_Waal_Energy-OPLS-2005>
130.060333251953

> <r_mmod_Electrostatic_Energy-OPLS-2005>
-361.068634033203

> <r_mmod_Solvation_Energy-OPLS-2005>
-211.298919677734

> <b_mmod_Minimization_Converged-OPLS-2005>
0

> <r_mmod_RMS_Derivative-OPLS-2005>
0.497664153575897

$$$$
42
                    3D
 Structure written by MMmdl.
155163  0  0  1  0            999 V2000
  -30.4892  -15.0314   20.4271 C   0  0  0  0  0  0
  -30.4448  -12.6419   19.5090 C   0  0  0  0  0  0
  -29.5252  -12.5358   18.2679 C   0  0  0  0  0  0
  -28.0667  -12.2957   18.6980 C   0  0  0  0  0  0
  -27.6302  -13.2429   19.8435 C   0  0  2  0  0  0
  -28.6714  -13.3002   20.9833 C   0  0  0  0  0  0
  -25.2491  -13.8193   20.5754 C   0  0  0  0  0  0
  -24.1801  -13.0428   20.9267 C   0  0  0  0  0  0
  -24.6390  -11.6915   20.8784 C   0  0  0  0  0  0
  -23.9049  -10.4293   21.0421 C   0  0  0  0  0  0
  -24.3596   -9.4212   21.9200 C   0  0  0  0  0  0
  -23.6287   -8.2233   22.0761 C   0  0  0  0  0  0
  -22.4274   -8.0264   21.3543 C   0  0  0  0  0  0
  -21.9901   -9.0240   20.4653 C   0  0  0  0  0  0
  -22.7214  -10.2123   20.3069 C   0  0  0  0  0  0
  -21.6861   -6.0726   22.5274 C   0  0  0  0  0  0
  -21.4017   -6.5642   23.8202 C   0  0  0  0  0  0
  -21.3671   -5.6794   24.9176 C   0  0  0  0  0  0
  -21.6042   -4.3054   24.7226 C   0  0  0  0  0  0
  -21.8825   -3.8143   23.4352 C   0  0  0  0  0  0
  -21.9205   -4.6955   22.3399 C   0  0  0  0  0  0
  -22.7824  -13.5206   21.1894 C   0  0  0  0  0  0
  -22.1671   -4.2136   21.0980 F   0  0  0  0  0  0
  -21.5620   -3.4544   25.7745 F   0  0  0  0  0  0
  -29.9311  -13.7477   20.3795 N   0  0  0  0  0  0
  -26.2894  -12.9389   20.3290 N   0  0  0  0  0  0
  -25.9322  -11.6533   20.5772 N   0  0  0  0  0  0
  -22.0486  -12.8202   22.0444 N   0  0  0  0  0  0
  -25.4193  -15.1894   20.4115 N   0  0  0  0  0  0
  -31.6940  -15.1076   20.1512 O   0  0  0  0  0  0
  -21.6648   -6.8858   21.4224 O   0  0  0  0  0  0
  -22.3527  -14.5528   20.6765 O   0  0  0  0  0  0
  -24.6463  -31.8405   23.1768 C   0  0  0  0  0  0
  -25.9192  -32.4677   23.8219 C   0  0  1  0  0  0
  -27.2189  -27.0785   20.1866 C   0  0  0  0  0  0
  -25.5897  -33.8482   24.2153 N   0  0  0  0  0  0
  -23.4550  -30.4570   21.5206 C   0  0  2  0  0  0
  -24.9065  -28.8635   20.1132 C   0  0  0  0  0  0
  -22.7577  -29.4560   22.4770 C   0  0  0  0  0  0
  -18.0281  -28.1441   22.8504 C   0  0  0  0  0  0
  -24.1457  -36.7226   23.2657 C   0  0  0  0  0  0
  -26.0138  -30.7019   21.3786 C   0  0  0  0  0  0
  -26.0862  -29.3021   20.7306 C   0  0  0  0  0  0
  -27.2453  -28.4322   20.7357 C   0  0  0  0  0  0
  -26.0126  -26.7447   19.5397 C   0  0  0  0  0  0
  -24.8855  -27.6001   19.4994 C   0  0  0  0  0  0
  -23.6868  -29.7771   20.1441 C   0  0  0  0  0  0
  -25.4103  -36.3040   24.0327 C   0  0  1  0  0  0
  -20.5916  -28.3776   23.1200 C   0  0  2  0  0  0
  -20.6778  -26.9457   22.5402 C   0  0  0  0  0  0
  -19.5748  -26.6393   21.5227 C   0  0  0  0  0  0
  -18.1925  -26.7996   22.1621 C   0  0  0  0  0  0
  -19.1566  -28.8910   23.2841 C   0  0  0  0  0  0
  -18.9497  -30.1507   23.8878 C   0  0  0  0  0  0
  -17.6506  -30.6646   24.0592 C   0  0  0  0  0  0
  -25.9055  -34.9410   23.5063 C   0  0  0  0  0  0
  -16.5375  -29.9173   23.6353 C   0  0  0  0  0  0
  -16.7278  -28.6582   23.0376 C   0  0  0  0  0  0
  -26.4498  -31.6568   25.0693 C   0  0  0  0  0  0
  -25.3666  -31.3814   26.1366 C   0  0  0  0  0  0
  -27.0358  -30.2968   24.6309 C   0  0  0  0  0  0
  -27.6006  -32.4370   25.7476 C   0  0  0  0  0  0
  -27.5559  -37.1768   24.8487 C   0  0  0  0  0  0
  -21.4259  -29.3094   22.3556 N   0  0  0  0  0  0
  -26.4256  -37.3772   23.9463 N   0  0  0  0  0  0
  -24.7261  -31.0263   22.0789 N   0  0  0  0  0  0
  -23.4193  -28.8104   23.2932 O   0  0  0  0  0  0
  -28.2792  -26.0845   20.1951 O   0  0  0  0  0  0
  -26.5693  -34.8936   22.4681 O   0  0  0  0  0  0
  -23.5557  -32.1236   23.6969 O   0  0  0  0  0  0
  -27.0238  -20.8831   21.0201 C   0  0  0  0  0  0
  -25.9929  -20.0381   21.4481 C   0  0  0  0  0  0
  -27.4862  -18.1541   21.2271 C   0  0  0  0  0  0
  -28.5982  -18.9196   20.7678 C   0  0  0  0  0  0
  -28.3381  -20.4507   20.6764 C   0  0  0  0  0  0
  -26.2325  -18.6750   21.5640 C   0  0  0  0  0  0
  -30.5196  -21.3866   20.1607 C   0  0  0  0  0  0
  -29.8442  -17.8221   20.5183 C   0  0  0  0  0  0
  -28.6274  -23.1270   19.8156 C   0  0  0  0  0  0
  -28.1278  -24.5628   20.6230 C   0  0  0  0  0  0
  -29.6740  -16.2091   20.5877 N   0  0  0  0  0  0
  -29.1088  -21.6965   20.3746 N   0  0  0  0  0  0
  -25.2510  -17.8571   22.0161 F   0  0  0  0  0  0
  -31.4730  -12.8169   19.1946 H   0  0  0  0  0  0
  -30.4577  -11.6942   20.0519 H   0  0  0  0  0  0
  -29.8561  -11.7220   17.6197 H   0  0  0  0  0  0
  -29.5948  -13.4487   17.6763 H   0  0  0  0  0  0
  -27.9956  -11.2624   19.0402 H   0  0  0  0  0  0
  -27.3928  -12.3872   17.8443 H   0  0  0  0  0  0
  -27.5846  -14.2348   19.3953 H   0  0  0  0  0  0
  -28.7905  -12.3306   21.4706 H   0  0  0  0  0  0
  -28.3599  -13.9976   21.7598 H   0  0  0  0  0  0
  -25.2733   -9.5710   22.4801 H   0  0  0  0  0  0
  -24.0010   -7.4638   22.7494 H   0  0  0  0  0  0
  -21.0834   -8.8751   19.8975 H   0  0  0  0  0  0
  -22.3660  -10.9668   19.6201 H   0  0  0  0  0  0
  -21.1998   -7.6154   23.9698 H   0  0  0  0  0  0
  -21.1486   -6.0534   25.9075 H   0  0  0  0  0  0
  -22.0594   -2.7607   23.2856 H   0  0  0  0  0  0
  -22.4087  -11.9818   22.4739 H   0  0  0  0  0  0
  -21.1126  -13.1267   22.2695 H   0  0  0  0  0  0
  -24.6636  -15.8463   20.5736 H   0  0  0  0  0  0
  -26.2360  -15.6264   20.0080 H   0  0  0  0  0  0
  -26.7273  -32.5294   23.0978 H   0  0  0  0  0  0
  -25.0012  -33.9618   25.0263 H   0  0  0  0  0  0
  -22.7621  -31.2850   21.3559 H   0  0  0  0  0  0
  -23.3741  -35.9535   23.3322 H   0  0  0  0  0  0
  -24.3536  -36.8840   22.2074 H   0  0  0  0  0  0
  -23.7174  -37.6402   23.6687 H   0  0  0  0  0  0
  -26.1714  -31.4457   20.5942 H   0  0  0  0  0  0
  -26.8866  -30.7600   22.0149 H   0  0  0  0  0  0
  -28.1514  -28.7765   21.2123 H   0  0  0  0  0  0
  -25.9292  -25.7736   19.0716 H   0  0  0  0  0  0
  -23.9844  -27.2549   19.0097 H   0  0  0  0  0  0
  -23.8277  -30.5463   19.3830 H   0  0  0  0  0  0
  -22.8042  -29.2197   19.8308 H   0  0  0  0  0  0
  -25.1282  -36.1840   25.0815 H   0  0  0  0  0  0
  -21.0030  -28.3375   24.1314 H   0  0  0  0  0  0
  -20.5655  -26.2401   23.3634 H   0  0  0  0  0  0
  -21.6646  -26.7452   22.1186 H   0  0  0  0  0  0
  -19.6912  -25.6290   21.1275 H   0  0  0  0  0  0
  -19.6703  -27.3215   20.6760 H   0  0  0  0  0  0
  -17.4190  -26.6729   21.4018 H   0  0  0  0  0  0
  -18.0282  -26.0178   22.9037 H   0  0  0  0  0  0
  -19.7987  -30.7336   24.2208 H   0  0  0  0  0  0
  -17.5087  -31.6322   24.5218 H   0  0  0  0  0  0
  -15.5408  -30.3111   23.7703 H   0  0  0  0  0  0
  -15.8643  -28.0933   22.7118 H   0  0  0  0  0  0
  -24.5876  -30.7109   25.7736 H   0  0  0  0  0  0
  -24.8777  -32.2986   26.4646 H   0  0  0  0  0  0
  -25.7900  -30.9119   27.0242 H   0  0  0  0  0  0
  -26.2972  -29.6706   24.1304 H   0  0  0  0  0  0
  -27.3943  -29.7290   25.4900 H   0  0  0  0  0  0
  -27.8893  -30.4193   23.9650 H   0  0  0  0  0  0
  -27.2582  -33.3736   26.1897 H   0  0  0  0  0  0
  -28.3876  -32.6837   25.0345 H   0  0  0  0  0  0
  -28.0591  -31.8587   26.5496 H   0  0  0  0  0  0
  -28.2585  -38.0058   24.7545 H   0  0  0  0  0  0
  -28.1007  -36.2587   24.6252 H   0  0  0  0  0  0
  -27.2269  -37.1370   25.8882 H   0  0  0  0  0  0
  -20.9437  -29.8779   21.6738 H   0  0  0  0  0  0
  -26.0084  -38.2813   24.1510 H   0  0  0  0  0  0
  -26.7578  -21.9297   21.0057 H   0  0  0  0  0  0
  -25.0225  -20.4350   21.7115 H   0  0  0  0  0  0
  -27.5593  -17.0892   21.3652 H   0  0  0  0  0  0
  -30.9205  -20.7684   20.9660 H   0  0  0  0  0  0
  -31.1251  -22.2930   20.1226 H   0  0  0  0  0  0
  -30.6630  -20.8523   19.2177 H   0  0  0  0  0  0
  -30.6131  -18.0658   21.2547 H   0  0  0  0  0  0
  -30.2931  -18.0526   19.5506 H   0  0  0  0  0  0
  -29.4640  -23.4649   19.2021 H   0  0  0  0  0  0
  -27.8568  -22.9154   19.0742 H   0  0  0  0  0  0
  -27.0743  -24.4248   20.8712 H   0  0  0  0  0  0
  -28.6208  -24.5311   21.5944 H   0  0  0  0  0  0
  -28.7163  -15.9460   20.7510 H   0  0  0  0  0  0
  1 25  1  0  0  0
  1 30  2  0  0  0
  1 81  1  0  0  0
  2  3  1  0  0  0
  2 25  1  0  0  0
  2 84  1  0  0  0
  2 85  1  0  0  0
  3  4  1  0  0  0
  3 86  1  0  0  0
  3 87  1  0  0  0
  4  5  1  0  0  0
  4 88  1  0  0  0
  4 89  1  0  0  0
  5  6  1  0  0  0
  5 26  1  0  0  0
  5 90  1  0  0  0
  6 25  1  0  0  0
  6 91  1  0  0  0
  6 92  1  0  0  0
  7  8  2  0  0  0
  7 26  1  0  0  0
  7 29  1  0  0  0
  8  9  1  0  0  0
  8 22  1  0  0  0
  9 10  1  0  0  0
  9 27  2  0  0  0
 10 11  2  0  0  0
 10 15  1  0  0  0
 11 12  1  0  0  0
 11 93  1  0  0  0
 12 13  2  0  0  0
 12 94  1  0  0  0
 13 14  1  0  0  0
 13 31  1  0  0  0
 14 15  2  0  0  0
 14 95  1  0  0  0
 15 96  1  0  0  0
 16 17  2  0  0  0
 16 21  1  0  0  0
 16 31  1  0  0  0
 17 18  1  0  0  0
 17 97  1  0  0  0
 18 19  2  0  0  0
 18 98  1  0  0  0
 19 20  1  0  0  0
 19 24  1  0  0  0
 20 21  2  0  0  0
 20 99  1  0  0  0
 21 23  1  0  0  0
 22 28  1  0  0  0
 22 32  2  0  0  0
 26 27  1  0  0  0
 28100  1  0  0  0
 28101  1  0  0  0
 29102  1  0  0  0
 29103  1  0  0  0
 33 34  1  0  0  0
 33 66  1  0  0  0
 33 70  2  0  0  0
 34 36  1  0  0  0
 34 59  1  0  0  0
 34104  1  0  0  0
 35 44  2  0  0  0
 35 45  1  0  0  0
 35 68  1  0  0  0
 36 56  1  0  0  0
 36105  1  0  0  0
 37 39  1  0  0  0
 37 47  1  0  0  0
 37 66  1  0  0  0
 37106  1  0  0  0
 38 43  2  0  0  0
 38 46  1  0  0  0
 38 47  1  0  0  0
 39 64  1  0  0  0
 39 67  2  0  0  0
 40 52  1  0  0  0
 40 53  2  0  0  0
 40 58  1  0  0  0
 41107  1  0  0  0
 41108  1  0  0  0
 41109  1  0  0  0
 41 48  1  0  0  0
 42 43  1  0  0  0
 42 66  1  0  0  0
 42110  1  0  0  0
 42111  1  0  0  0
 43 44  1  0  0  0
 44112  1  0  0  0
 45 46  2  0  0  0
 45113  1  0  0  0
 46114  1  0  0  0
 47115  1  0  0  0
 47116  1  0  0  0
 48 56  1  0  0  0
 48 65  1  0  0  0
 48117  1  0  0  0
 49 50  1  0  0  0
 49 53  1  0  0  0
 49 64  1  0  0  0
 49118  1  0  0  0
 50 51  1  0  0  0
 50119  1  0  0  0
 50120  1  0  0  0
 51 52  1  0  0  0
 51121  1  0  0  0
 51122  1  0  0  0
 52123  1  0  0  0
 52124  1  0  0  0
 53 54  1  0  0  0
 54 55  2  0  0  0
 54125  1  0  0  0
 55 57  1  0  0  0
 55126  1  0  0  0
 56 69  2  0  0  0
 57 58  2  0  0  0
 57127  1  0  0  0
 58128  1  0  0  0
 59 60  1  0  0  0
 59 61  1  0  0  0
 59 62  1  0  0  0
 60129  1  0  0  0
 60130  1  0  0  0
 60131  1  0  0  0
 61132  1  0  0  0
 61133  1  0  0  0
 61134  1  0  0  0
 62135  1  0  0  0
 62136  1  0  0  0
 62137  1  0  0  0
 63 65  1  0  0  0
 63138  1  0  0  0
 63139  1  0  0  0
 63140  1  0  0  0
 64141  1  0  0  0
 65142  1  0  0  0
 68 80  1  0  0  0
 71 72  2  0  0  0
 71 75  1  0  0  0
 71143  1  0  0  0
 72 76  1  0  0  0
 72144  1  0  0  0
 73 74  1  0  0  0
 73 76  2  0  0  0
 73145  1  0  0  0
 74 75  2  0  0  0
 74 78  1  0  0  0
 75 82  1  0  0  0
 76 83  1  0  0  0
 77 82  1  0  0  0
 77146  1  0  0  0
 77147  1  0  0  0
 77148  1  0  0  0
 78 81  1  0  0  0
 78149  1  0  0  0
 78150  1  0  0  0
 79 80  1  0  0  0
 79 82  1  0  0  0
 79151  1  0  0  0
 79152  1  0  0  0
 80153  1  0  0  0
 80154  1  0  0  0
 81155  1  0  0  0
M  ISO  4   1 100  68 101  80 101  81 100
M  END
> <chiral flag>
0

> <version>
0

> <s_m_source_file>
/data/baiqing/PycharmProjects/Reinvent-master-3.2/result/LINK_invent/BTK/process_docking_weight1_custom_product_contain_oxygen_bond_distance_aromatic_linkinvent_7_9_3/rearranged_h_0008.sdf

> <i_m_source_file_index>
43

> <r_mmod_Potential_Energy-OPLS-2005>
734.200805664062

> <r_mmod_Stretch_Energy-OPLS-2005>
373.129364013672

> <r_mmod_Bend_Energy-OPLS-2005>
392.4033203125

> <r_mmod_Torsional_Energy-OPLS-2005>
213.749862670898

> <r_mmod_Improper_Torsional_Energy-OPLS-2005>
5.44006490707397

> <r_mmod_Van_der_Waal_Energy-OPLS-2005>
129.897537231445

> <r_mmod_Electrostatic_Energy-OPLS-2005>
-397.864624023438

> <r_mmod_Solvation_Energy-OPLS-2005>
-229.990325927734

> <b_mmod_Minimization_Converged-OPLS-2005>
0

> <r_mmod_RMS_Derivative-OPLS-2005>
4.80566310882568

$$$$
43
                    3D
 Structure written by MMmdl.
144152  0  0  1  0            999 V2000
  -30.2652  -15.7673   20.3147 C   0  0  0  0  0  0
  -30.4156  -13.1788   19.5381 C   0  0  0  0  0  0
  -29.5592  -12.6878   18.3329 C   0  0  0  0  0  0
  -28.1402  -12.3070   18.7797 C   0  0  0  0  0  0
  -27.5922  -13.3225   19.8068 C   0  0  2  0  0  0
  -28.6001  -13.7148   20.9163 C   0  0  0  0  0  0
  -25.2310  -13.8302   20.5802 C   0  0  0  0  0  0
  -24.1712  -13.0434   20.9291 C   0  0  0  0  0  0
  -24.6432  -11.6950   20.8748 C   0  0  0  0  0  0
  -23.9131  -10.4294   21.0382 C   0  0  0  0  0  0
  -24.3658   -9.4208   21.9172 C   0  0  0  0  0  0
  -23.6310   -8.2253   22.0760 C   0  0  0  0  0  0
  -22.4290   -8.0292   21.3553 C   0  0  0  0  0  0
  -21.9935   -9.0270   20.4654 C   0  0  0  0  0  0
  -22.7289  -10.2135   20.3046 C   0  0  0  0  0  0
  -21.6857   -6.0737   22.5280 C   0  0  0  0  0  0
  -21.4023   -6.5638   23.8215 C   0  0  0  0  0  0
  -21.3662   -5.6789   24.9177 C   0  0  0  0  0  0
  -21.6044   -4.3052   24.7228 C   0  0  0  0  0  0
  -21.8817   -3.8146   23.4347 C   0  0  0  0  0  0
  -21.9195   -4.6964   22.3403 C   0  0  0  0  0  0
  -22.7715  -13.5159   21.1917 C   0  0  0  0  0  0
  -22.1661   -4.2150   21.0981 F   0  0  0  0  0  0
  -21.5628   -3.4536   25.7740 F   0  0  0  0  0  0
  -29.7525  -14.3786   20.2493 N   0  0  0  0  0  0
  -26.2774  -12.9664   20.3225 N   0  0  0  0  0  0
  -25.9385  -11.6720   20.5666 N   0  0  0  0  0  0
  -22.0372  -12.8149   22.0470 N   0  0  0  0  0  0
  -25.3868  -15.2050   20.4258 N   0  0  0  0  0  0
  -31.5012  -15.6515   20.1801 O   0  0  0  0  0  0
  -21.6647   -6.8890   21.4247 O   0  0  0  0  0  0
  -22.3388  -14.5453   20.6746 O   0  0  0  0  0  0
  -24.6927  -31.7888   23.1439 C   0  0  0  0  0  0
  -25.9468  -32.4409   23.8019 C   0  0  1  0  0  0
  -27.2272  -26.6037   20.2251 C   0  0  0  0  0  0
  -25.6011  -33.8242   24.1894 N   0  0  0  0  0  0
  -23.5235  -30.3870   21.4998 C   0  0  2  0  0  0
  -24.9819  -28.7082   20.1204 C   0  0  0  0  0  0
  -22.7804  -29.4262   22.4684 C   0  0  0  0  0  0
  -18.0342  -28.1435   22.8441 C   0  0  0  0  0  0
  -24.1498  -36.7133   23.2653 C   0  0  0  0  0  0
  -26.1081  -30.4892   21.4236 C   0  0  0  0  0  0
  -26.1731  -29.0433   20.7748 C   0  0  0  0  0  0
  -27.2759  -28.0227   20.7905 C   0  0  0  0  0  0
  -26.0013  -26.5024   19.5124 C   0  0  0  0  0  0
  -24.9410  -27.4641   19.4654 C   0  0  0  0  0  0
  -23.7833  -29.6762   20.1389 C   0  0  0  0  0  0
  -25.4154  -36.2862   24.0268 C   0  0  1  0  0  0
  -20.5981  -28.3801   23.1123 C   0  0  2  0  0  0
  -20.6810  -26.9449   22.5411 C   0  0  0  0  0  0
  -19.5789  -26.6369   21.5223 C   0  0  0  0  0  0
  -18.1970  -26.7959   22.1617 C   0  0  0  0  0  0
  -19.1609  -28.8945   23.2759 C   0  0  0  0  0  0
  -18.9517  -30.1522   23.8813 C   0  0  0  0  0  0
  -17.6509  -30.6612   24.0546 C   0  0  0  0  0  0
  -25.9139  -34.9253   23.4922 C   0  0  0  0  0  0
  -16.5397  -29.9091   23.6355 C   0  0  0  0  0  0
  -16.7321  -28.6517   23.0363 C   0  0  0  0  0  0
  -26.4613  -31.6488   25.0686 C   0  0  0  0  0  0
  -25.3654  -31.3850   26.1287 C   0  0  0  0  0  0
  -27.0552  -30.2806   24.6668 C   0  0  0  0  0  0
  -27.6037  -32.4373   25.7516 C   0  0  0  0  0  0
  -27.5564  -37.1723   24.8460 C   0  0  0  0  0  0
  -21.4442  -29.3022   22.3427 N   0  0  0  0  0  0
  -26.4272  -37.3634   23.9401 N   0  0  0  0  0  0
  -24.7992  -30.9237   22.0748 N   0  0  0  0  0  0
  -23.4198  -28.7873   23.3071 O   0  0  0  0  0  0
  -28.1763  -25.3397   20.2895 O   0  0  0  0  0  0
  -26.5793  -34.8851   22.4546 O   0  0  0  0  0  0
  -23.5926  -32.1016   23.6330 O   0  0  0  0  0  0
  -30.3213  -22.0238   20.3355 C   0  0  0  0  0  0
  -31.2329  -20.9197   20.3781 C   0  0  0  0  0  0
  -28.6766  -20.2763   20.2781 C   0  0  0  0  0  0
  -28.9174  -21.9019   20.2805 C   0  0  0  0  0  0
  -29.6344  -18.9424   20.3231 C   0  0  0  0  0  0
  -30.9462  -19.5118   20.3751 C   0  0  0  0  0  0
  -27.9456  -23.5488   20.2025 C   0  0  0  0  0  0
  -29.5050  -17.1724   20.3359 N   0  0  0  0  0  0
  -32.3390  -18.4989   20.4547 Cl  0  0  0  0  0  0
  -31.4005  -13.4530   19.1588 H   0  0  0  0  0  0
  -30.6066  -12.3609   20.2345 H   0  0  0  0  0  0
  -30.0413  -11.8428   17.8393 H   0  0  0  0  0  0
  -29.5038  -13.4846   17.5896 H   0  0  0  0  0  0
  -28.1872  -11.3178   19.2360 H   0  0  0  0  0  0
  -27.4749  -12.2214   17.9198 H   0  0  0  0  0  0
  -27.4360  -14.2264   19.2160 H   0  0  0  0  0  0
  -28.8895  -12.8557   21.5234 H   0  0  0  0  0  0
  -28.1413  -14.4314   21.5993 H   0  0  0  0  0  0
  -25.2805   -9.5676   22.4747 H   0  0  0  0  0  0
  -24.0016   -7.4642   22.7476 H   0  0  0  0  0  0
  -21.0869   -8.8796   19.8953 H   0  0  0  0  0  0
  -22.3755  -10.9672   19.6147 H   0  0  0  0  0  0
  -21.2017   -7.6147   23.9718 H   0  0  0  0  0  0
  -21.1485   -6.0520   25.9078 H   0  0  0  0  0  0
  -22.0590   -2.7608   23.2847 H   0  0  0  0  0  0
  -22.4007  -11.9853   22.4922 H   0  0  0  0  0  0
  -21.0968  -13.1138   22.2624 H   0  0  0  0  0  0
  -24.6114  -15.8482   20.5445 H   0  0  0  0  0  0
  -26.2228  -15.6527   20.0750 H   0  0  0  0  0  0
  -26.7556  -32.4849   23.0734 H   0  0  0  0  0  0
  -25.0043  -33.9262   24.9969 H   0  0  0  0  0  0
  -22.8540  -31.2271   21.3024 H   0  0  0  0  0  0
  -23.3778  -35.9443   23.3260 H   0  0  0  0  0  0
  -24.3560  -36.8862   22.2079 H   0  0  0  0  0  0
  -23.7244  -37.6284   23.6783 H   0  0  0  0  0  0
  -26.3212  -31.2087   20.6321 H   0  0  0  0  0  0
  -26.9542  -30.5594   22.0942 H   0  0  0  0  0  0
  -28.1696  -28.2896   21.3373 H   0  0  0  0  0  0
  -25.8152  -25.5677   19.0029 H   0  0  0  0  0  0
  -24.0438  -27.1970   18.9237 H   0  0  0  0  0  0
  -23.9681  -30.4332   19.3761 H   0  0  0  0  0  0
  -22.8858  -29.1502   19.8101 H   0  0  0  0  0  0
  -25.1369  -36.1607   25.0757 H   0  0  0  0  0  0
  -21.0054  -28.3442   24.1254 H   0  0  0  0  0  0
  -20.5675  -26.2425   23.3682 H   0  0  0  0  0  0
  -21.6667  -26.7386   22.1237 H   0  0  0  0  0  0
  -19.6947  -25.6253   21.1312 H   0  0  0  0  0  0
  -19.6742  -27.3125   20.6709 H   0  0  0  0  0  0
  -17.4240  -26.6692   21.4017 H   0  0  0  0  0  0
  -18.0354  -26.0129   22.9041 H   0  0  0  0  0  0
  -19.7993  -30.7354   24.2151 H   0  0  0  0  0  0
  -17.5059  -31.6282   24.5166 H   0  0  0  0  0  0
  -15.5394  -30.2967   23.7732 H   0  0  0  0  0  0
  -15.8721  -28.0808   22.7129 H   0  0  0  0  0  0
  -24.5850  -30.7191   25.7592 H   0  0  0  0  0  0
  -24.8839  -32.3090   26.4493 H   0  0  0  0  0  0
  -25.7801  -30.9152   27.0213 H   0  0  0  0  0  0
  -26.3286  -29.6398   24.1666 H   0  0  0  0  0  0
  -27.3930  -29.7288   25.5452 H   0  0  0  0  0  0
  -27.9290  -30.3895   24.0243 H   0  0  0  0  0  0
  -27.2552  -33.3745   26.1872 H   0  0  0  0  0  0
  -28.3967  -32.6824   25.0438 H   0  0  0  0  0  0
  -28.0583  -31.8661   26.5621 H   0  0  0  0  0  0
  -28.2538  -38.0058   24.7507 H   0  0  0  0  0  0
  -28.1103  -36.2574   24.6287 H   0  0  0  0  0  0
  -27.2278  -37.1359   25.8863 H   0  0  0  0  0  0
  -20.9771  -29.8663   21.6462 H   0  0  0  0  0  0
  -26.0087  -38.2676   24.1417 H   0  0  0  0  0  0
  -30.7366  -23.0219   20.3403 H   0  0  0  0  0  0
  -32.2788  -21.1873   20.4180 H   0  0  0  0  0  0
  -27.6269  -20.0243   20.2347 H   0  0  0  0  0  0
  -27.1798  -23.3892   20.9615 H   0  0  0  0  0  0
  -27.4002  -23.4388   19.2655 H   0  0  0  0  0  0
  -28.5254  -16.9318   20.3650 H   0  0  0  0  0  0
  1 25  1  0  0  0
  1 30  2  0  0  0
  1 78  1  0  0  0
  2  3  1  0  0  0
  2 25  1  0  0  0
  2 80  1  0  0  0
  2 81  1  0  0  0
  3  4  1  0  0  0
  3 82  1  0  0  0
  3 83  1  0  0  0
  4  5  1  0  0  0
  4 84  1  0  0  0
  4 85  1  0  0  0
  5  6  1  0  0  0
  5 26  1  0  0  0
  5 86  1  0  0  0
  6 25  1  0  0  0
  6 87  1  0  0  0
  6 88  1  0  0  0
  7  8  2  0  0  0
  7 26  1  0  0  0
  7 29  1  0  0  0
  8  9  1  0  0  0
  8 22  1  0  0  0
  9 10  1  0  0  0
  9 27  2  0  0  0
 10 11  2  0  0  0
 10 15  1  0  0  0
 11 12  1  0  0  0
 11 89  1  0  0  0
 12 13  2  0  0  0
 12 90  1  0  0  0
 13 14  1  0  0  0
 13 31  1  0  0  0
 14 15  2  0  0  0
 14 91  1  0  0  0
 15 92  1  0  0  0
 16 17  2  0  0  0
 16 21  1  0  0  0
 16 31  1  0  0  0
 17 18  1  0  0  0
 17 93  1  0  0  0
 18 19  2  0  0  0
 18 94  1  0  0  0
 19 20  1  0  0  0
 19 24  1  0  0  0
 20 21  2  0  0  0
 20 95  1  0  0  0
 21 23  1  0  0  0
 22 28  1  0  0  0
 22 32  2  0  0  0
 26 27  1  0  0  0
 28 96  1  0  0  0
 28 97  1  0  0  0
 29 98  1  0  0  0
 29 99  1  0  0  0
 33 34  1  0  0  0
 33 66  1  0  0  0
 33 70  2  0  0  0
 34 36  1  0  0  0
 34 59  1  0  0  0
 34100  1  0  0  0
 35 44  2  0  0  0
 35 45  1  0  0  0
 35 68  1  0  0  0
 36 56  1  0  0  0
 36101  1  0  0  0
 37 39  1  0  0  0
 37 47  1  0  0  0
 37 66  1  0  0  0
 37102  1  0  0  0
 38 43  2  0  0  0
 38 46  1  0  0  0
 38 47  1  0  0  0
 39 64  1  0  0  0
 39 67  2  0  0  0
 40 52  1  0  0  0
 40 53  2  0  0  0
 40 58  1  0  0  0
 41103  1  0  0  0
 41104  1  0  0  0
 41105  1  0  0  0
 41 48  1  0  0  0
 42 43  1  0  0  0
 42 66  1  0  0  0
 42106  1  0  0  0
 42107  1  0  0  0
 43 44  1  0  0  0
 44108  1  0  0  0
 45 46  2  0  0  0
 45109  1  0  0  0
 46110  1  0  0  0
 47111  1  0  0  0
 47112  1  0  0  0
 48 56  1  0  0  0
 48 65  1  0  0  0
 48113  1  0  0  0
 49 50  1  0  0  0
 49 53  1  0  0  0
 49 64  1  0  0  0
 49114  1  0  0  0
 50 51  1  0  0  0
 50115  1  0  0  0
 50116  1  0  0  0
 51 52  1  0  0  0
 51117  1  0  0  0
 51118  1  0  0  0
 52119  1  0  0  0
 52120  1  0  0  0
 53 54  1  0  0  0
 54 55  2  0  0  0
 54121  1  0  0  0
 55 57  1  0  0  0
 55122  1  0  0  0
 56 69  2  0  0  0
 57 58  2  0  0  0
 57123  1  0  0  0
 58124  1  0  0  0
 59 60  1  0  0  0
 59 61  1  0  0  0
 59 62  1  0  0  0
 60125  1  0  0  0
 60126  1  0  0  0
 60127  1  0  0  0
 61128  1  0  0  0
 61129  1  0  0  0
 61130  1  0  0  0
 62131  1  0  0  0
 62132  1  0  0  0
 62133  1  0  0  0
 63 65  1  0  0  0
 63134  1  0  0  0
 63135  1  0  0  0
 63136  1  0  0  0
 64137  1  0  0  0
 65138  1  0  0  0
 68 77  1  0  0  0
 71 72  2  0  0  0
 71 74  1  0  0  0
 71139  1  0  0  0
 72 76  1  0  0  0
 72140  1  0  0  0
 73 74  2  0  0  0
 73 75  1  0  0  0
 73141  1  0  0  0
 74 77  1  0  0  0
 75 76  2  0  0  0
 75 78  1  0  0  0
 76 79  1  0  0  0
 77142  1  0  0  0
 77143  1  0  0  0
 78144  1  0  0  0
M  ISO  4   1 100  68 101  77 101  78 100
M  END
> <chiral flag>
0

> <version>
0

> <s_m_source_file>
/data/baiqing/PycharmProjects/Reinvent-master-3.2/result/LINK_invent/BTK/process_docking_weight1_custom_product_contain_oxygen_bond_distance_aromatic_linkinvent_7_9_3/rearranged_h_0008.sdf

> <i_m_source_file_index>
44

> <r_mmod_Potential_Energy-OPLS-2005>
2799.751953125

> <r_mmod_Stretch_Energy-OPLS-2005>
1267.00988769531

> <r_mmod_Bend_Energy-OPLS-2005>
649.981872558594

> <r_mmod_Torsional_Energy-OPLS-2005>
222.998062133789

> <r_mmod_Improper_Torsional_Energy-OPLS-2005>
4.10822296142578

> <r_mmod_Van_der_Waal_Energy-OPLS-2005>
132.290893554688

> <r_mmod_Electrostatic_Energy-OPLS-2005>
-362.683471679688

> <r_mmod_Solvation_Energy-OPLS-2005>
-221.141159057617

> <b_mmod_Minimization_Converged-OPLS-2005>
0

> <r_mmod_RMS_Derivative-OPLS-2005>
1.11031103134155

$$$$
44
                    3D
 Structure written by MMmdl.
140148  0  0  1  0            999 V2000
  -30.0912  -16.3111   20.2764 C   0  0  0  0  0  0
  -30.3432  -13.6004   19.5338 C   0  0  0  0  0  0
  -29.5598  -12.8563   18.3909 C   0  0  0  0  0  0
  -28.2015  -12.3483   18.8752 C   0  0  0  0  0  0
  -27.5752  -13.3919   19.8152 C   0  0  2  0  0  0
  -28.5378  -14.0161   20.8807 C   0  0  0  0  0  0
  -25.2202  -13.8428   20.5929 C   0  0  0  0  0  0
  -24.1669  -13.0460   20.9332 C   0  0  0  0  0  0
  -24.6489  -11.7008   20.8759 C   0  0  0  0  0  0
  -23.9207  -10.4314   21.0364 C   0  0  0  0  0  0
  -24.3710   -9.4223   21.9162 C   0  0  0  0  0  0
  -23.6349   -8.2272   22.0750 C   0  0  0  0  0  0
  -22.4327   -8.0311   21.3543 C   0  0  0  0  0  0
  -21.9990   -9.0291   20.4638 C   0  0  0  0  0  0
  -22.7356  -10.2152   20.3032 C   0  0  0  0  0  0
  -21.6872   -6.0759   22.5277 C   0  0  0  0  0  0
  -21.4029   -6.5655   23.8213 C   0  0  0  0  0  0
  -21.3663   -5.6802   24.9171 C   0  0  0  0  0  0
  -21.6042   -4.3064   24.7219 C   0  0  0  0  0  0
  -21.8816   -3.8161   23.4339 C   0  0  0  0  0  0
  -21.9198   -4.6982   22.3398 C   0  0  0  0  0  0
  -22.7658  -13.5115   21.1937 C   0  0  0  0  0  0
  -22.1664   -4.2166   21.0975 F   0  0  0  0  0  0
  -21.5625   -3.4544   25.7730 F   0  0  0  0  0  0
  -29.5910  -14.8451   20.1748 N   0  0  0  0  0  0
  -26.2767  -12.9932   20.3422 N   0  0  0  0  0  0
  -25.9476  -11.6901   20.5698 N   0  0  0  0  0  0
  -22.0351  -12.8068   22.0489 N   0  0  0  0  0  0
  -25.3660  -15.2189   20.4391 N   0  0  0  0  0  0
  -31.3275  -16.0582   20.1990 O   0  0  0  0  0  0
  -21.6669   -6.8916   21.4246 O   0  0  0  0  0  0
  -22.3304  -14.5402   20.6771 O   0  0  0  0  0  0
  -24.7273  -31.7441   23.1127 C   0  0  0  0  0  0
  -25.9629  -32.4194   23.7848 C   0  0  1  0  0  0
  -27.2486  -26.2369   20.2525 C   0  0  0  0  0  0
  -25.6013  -33.8046   24.1683 N   0  0  0  0  0  0
  -23.5750  -30.3240   21.4771 C   0  0  2  0  0  0
  -25.0376  -28.5663   20.1287 C   0  0  0  0  0  0
  -22.7962  -29.4013   22.4580 C   0  0  0  0  0  0
  -18.0367  -28.1444   22.8431 C   0  0  0  0  0  0
  -24.1500  -36.7039   23.2666 C   0  0  0  0  0  0
  -26.1709  -30.3216   21.4485 C   0  0  0  0  0  0
  -26.2313  -28.8344   20.8066 C   0  0  0  0  0  0
  -27.2948  -27.7130   20.8254 C   0  0  0  0  0  0
  -26.0213  -26.2995   19.5035 C   0  0  0  0  0  0
  -24.9999  -27.3292   19.4513 C   0  0  0  0  0  0
  -23.8546  -29.5771   20.1326 C   0  0  0  0  0  0
  -25.4166  -36.2737   24.0249 C   0  0  1  0  0  0
  -20.6023  -28.3822   23.1057 C   0  0  2  0  0  0
  -20.6808  -26.9438   22.5411 C   0  0  0  0  0  0
  -19.5792  -26.6352   21.5222 C   0  0  0  0  0  0
  -18.1975  -26.7961   22.1613 C   0  0  0  0  0  0
  -19.1644  -28.8968   23.2711 C   0  0  0  0  0  0
  -18.9542  -30.1539   23.8776 C   0  0  0  0  0  0
  -17.6527  -30.6614   24.0540 C   0  0  0  0  0  0
  -25.9170  -34.9138   23.4840 C   0  0  0  0  0  0
  -16.5414  -29.9088   23.6361 C   0  0  0  0  0  0
  -16.7344  -28.6515   23.0373 C   0  0  0  0  0  0
  -26.4664  -31.6433   25.0663 C   0  0  0  0  0  0
  -25.3612  -31.3875   26.1193 C   0  0  0  0  0  0
  -27.0678  -30.2729   24.6897 C   0  0  0  0  0  0
  -27.6017  -32.4411   25.7507 C   0  0  0  0  0  0
  -27.5548  -37.1676   24.8469 C   0  0  0  0  0  0
  -21.4568  -29.2975   22.3325 N   0  0  0  0  0  0
  -26.4255  -37.3547   23.9403 N   0  0  0  0  0  0
  -24.8537  -30.8415   22.0644 N   0  0  0  0  0  0
  -23.4188  -28.7691   23.3139 O   0  0  0  0  0  0
  -28.1539  -24.8103   20.3501 O   0  0  0  0  0  0
  -26.5881  -34.8807   22.4506 O   0  0  0  0  0  0
  -23.6195  -32.0734   23.5784 O   0  0  0  0  0  0
  -28.4094  -18.9500   20.3106 C   0  0  0  0  0  0
  -30.1626  -19.5074   20.0885 C   0  0  0  0  0  0
  -28.8905  -20.7108   20.4711 C   0  0  1  0  0  0
  -28.1807  -22.8197   20.0852 C   0  0  0  0  0  0
  -29.5494  -17.9530   20.2937 N   0  0  0  0  0  0
  -27.2218  -18.6172   20.2666 O   0  0  0  0  0  0
  -31.2782  -13.9365   19.0849 H   0  0  0  0  0  0
  -30.6651  -12.8920   20.2996 H   0  0  0  0  0  0
  -30.1516  -12.0314   17.9919 H   0  0  0  0  0  0
  -29.4064  -13.5514   17.5642 H   0  0  0  0  0  0
  -28.3549  -11.4163   19.4209 H   0  0  0  0  0  0
  -27.5436  -12.1194   18.0357 H   0  0  0  0  0  0
  -27.3469  -14.2150   19.1357 H   0  0  0  0  0  0
  -28.9467  -13.2628   21.5562 H   0  0  0  0  0  0
  -27.9768  -14.6982   21.5208 H   0  0  0  0  0  0
  -25.2843   -9.5691   22.4759 H   0  0  0  0  0  0
  -24.0036   -7.4671   22.7489 H   0  0  0  0  0  0
  -21.0914   -8.8833   19.8949 H   0  0  0  0  0  0
  -22.3813  -10.9695   19.6145 H   0  0  0  0  0  0
  -21.2028   -7.6164   23.9722 H   0  0  0  0  0  0
  -21.1484   -6.0531   25.9074 H   0  0  0  0  0  0
  -22.0589   -2.7623   23.2834 H   0  0  0  0  0  0
  -22.4030  -11.9761   22.4884 H   0  0  0  0  0  0
  -21.0944  -13.1022   22.2685 H   0  0  0  0  0  0
  -24.5913  -15.8615   20.5641 H   0  0  0  0  0  0
  -26.2182  -15.6816   20.1485 H   0  0  0  0  0  0
  -26.7763  -32.4566   23.0594 H   0  0  0  0  0  0
  -24.9989  -33.9003   24.9724 H   0  0  0  0  0  0
  -22.9274  -31.1726   21.2468 H   0  0  0  0  0  0
  -23.3785  -35.9343   23.3247 H   0  0  0  0  0  0
  -24.3550  -36.8812   22.2097 H   0  0  0  0  0  0
  -23.7246  -37.6172   23.6837 H   0  0  0  0  0  0
  -26.4207  -31.0138   20.6435 H   0  0  0  0  0  0
  -27.0058  -30.4053   22.1306 H   0  0  0  0  0  0
  -28.1794  -27.9428   21.4024 H   0  0  0  0  0  0
  -25.7796  -25.3982   18.9578 H   0  0  0  0  0  0
  -24.1147  -27.1055   18.8718 H   0  0  0  0  0  0
  -24.0670  -30.3177   19.3607 H   0  0  0  0  0  0
  -22.9506  -29.0663   19.7971 H   0  0  0  0  0  0
  -25.1401  -36.1434   25.0737 H   0  0  0  0  0  0
  -21.0088  -28.3482   24.1191 H   0  0  0  0  0  0
  -20.5632  -26.2457   23.3714 H   0  0  0  0  0  0
  -21.6665  -26.7309   22.1255 H   0  0  0  0  0  0
  -19.6940  -25.6231   21.1329 H   0  0  0  0  0  0
  -19.6751  -27.3096   20.6701 H   0  0  0  0  0  0
  -17.4247  -26.6701   21.4015 H   0  0  0  0  0  0
  -18.0350  -26.0134   22.9038 H   0  0  0  0  0  0
  -19.8019  -30.7383   24.2094 H   0  0  0  0  0  0
  -17.5077  -31.6281   24.5166 H   0  0  0  0  0  0
  -15.5409  -30.2955   23.7754 H   0  0  0  0  0  0
  -15.8744  -28.0795   22.7156 H   0  0  0  0  0  0
  -24.5837  -30.7194   25.7468 H   0  0  0  0  0  0
  -24.8767  -32.3136   26.4293 H   0  0  0  0  0  0
  -25.7681  -30.9235   27.0187 H   0  0  0  0  0  0
  -26.3479  -29.6186   24.1975 H   0  0  0  0  0  0
  -27.4011  -29.7375   25.5798 H   0  0  0  0  0  0
  -27.9488  -30.3761   24.0563 H   0  0  0  0  0  0
  -27.2490  -33.3831   26.1717 H   0  0  0  0  0  0
  -28.4008  -32.6785   25.0472 H   0  0  0  0  0  0
  -28.0490  -31.8802   26.5724 H   0  0  0  0  0  0
  -28.2512  -38.0017   24.7502 H   0  0  0  0  0  0
  -28.1096  -36.2530   24.6318 H   0  0  0  0  0  0
  -27.2256  -37.1324   25.8869 H   0  0  0  0  0  0
  -20.9981  -29.8563   21.6263 H   0  0  0  0  0  0
  -26.0042  -38.2576   24.1411 H   0  0  0  0  0  0
  -31.0297  -19.6779   20.7300 H   0  0  0  0  0  0
  -30.5280  -19.6612   19.0683 H   0  0  0  0  0  0
  -28.9338  -20.7447   21.5592 H   0  0  0  0  0  0
  -27.1103  -22.6841   20.2397 H   0  0  0  0  0  0
  -28.2629  -22.8546   18.9991 H   0  0  0  0  0  0
  1 25  1  0  0  0
  1 30  2  0  0  0
  1 75  1  0  0  0
  2  3  1  0  0  0
  2 25  1  0  0  0
  2 77  1  0  0  0
  2 78  1  0  0  0
  3  4  1  0  0  0
  3 79  1  0  0  0
  3 80  1  0  0  0
  4  5  1  0  0  0
  4 81  1  0  0  0
  4 82  1  0  0  0
  5  6  1  0  0  0
  5 26  1  0  0  0
  5 83  1  0  0  0
  6 25  1  0  0  0
  6 84  1  0  0  0
  6 85  1  0  0  0
  7  8  2  0  0  0
  7 26  1  0  0  0
  7 29  1  0  0  0
  8  9  1  0  0  0
  8 22  1  0  0  0
  9 10  1  0  0  0
  9 27  2  0  0  0
 10 11  2  0  0  0
 10 15  1  0  0  0
 11 12  1  0  0  0
 11 86  1  0  0  0
 12 13  2  0  0  0
 12 87  1  0  0  0
 13 14  1  0  0  0
 13 31  1  0  0  0
 14 15  2  0  0  0
 14 88  1  0  0  0
 15 89  1  0  0  0
 16 17  2  0  0  0
 16 21  1  0  0  0
 16 31  1  0  0  0
 17 18  1  0  0  0
 17 90  1  0  0  0
 18 19  2  0  0  0
 18 91  1  0  0  0
 19 20  1  0  0  0
 19 24  1  0  0  0
 20 21  2  0  0  0
 20 92  1  0  0  0
 21 23  1  0  0  0
 22 28  1  0  0  0
 22 32  2  0  0  0
 26 27  1  0  0  0
 28 93  1  0  0  0
 28 94  1  0  0  0
 29 95  1  0  0  0
 29 96  1  0  0  0
 33 34  1  0  0  0
 33 66  1  0  0  0
 33 70  2  0  0  0
 34 36  1  0  0  0
 34 59  1  0  0  0
 34 97  1  0  0  0
 35 44  2  0  0  0
 35 45  1  0  0  0
 35 68  1  0  0  0
 36 56  1  0  0  0
 36 98  1  0  0  0
 37 39  1  0  0  0
 37 47  1  0  0  0
 37 66  1  0  0  0
 37 99  1  0  0  0
 38 43  2  0  0  0
 38 46  1  0  0  0
 38 47  1  0  0  0
 39 64  1  0  0  0
 39 67  2  0  0  0
 40 52  1  0  0  0
 40 53  2  0  0  0
 40 58  1  0  0  0
 41100  1  0  0  0
 41101  1  0  0  0
 41102  1  0  0  0
 41 48  1  0  0  0
 42 43  1  0  0  0
 42 66  1  0  0  0
 42103  1  0  0  0
 42104  1  0  0  0
 43 44  1  0  0  0
 44105  1  0  0  0
 45 46  2  0  0  0
 45106  1  0  0  0
 46107  1  0  0  0
 47108  1  0  0  0
 47109  1  0  0  0
 48 56  1  0  0  0
 48 65  1  0  0  0
 48110  1  0  0  0
 49 50  1  0  0  0
 49 53  1  0  0  0
 49 64  1  0  0  0
 49111  1  0  0  0
 50 51  1  0  0  0
 50112  1  0  0  0
 50113  1  0  0  0
 51 52  1  0  0  0
 51114  1  0  0  0
 51115  1  0  0  0
 52116  1  0  0  0
 52117  1  0  0  0
 53 54  1  0  0  0
 54 55  2  0  0  0
 54118  1  0  0  0
 55 57  1  0  0  0
 55119  1  0  0  0
 56 69  2  0  0  0
 57 58  2  0  0  0
 57120  1  0  0  0
 58121  1  0  0  0
 59 60  1  0  0  0
 59 61  1  0  0  0
 59 62  1  0  0  0
 60122  1  0  0  0
 60123  1  0  0  0
 60124  1  0  0  0
 61125  1  0  0  0
 61126  1  0  0  0
 61127  1  0  0  0
 62128  1  0  0  0
 62129  1  0  0  0
 62130  1  0  0  0
 63 65  1  0  0  0
 63131  1  0  0  0
 63132  1  0  0  0
 63133  1  0  0  0
 64134  1  0  0  0
 65135  1  0  0  0
 68 74  1  0  0  0
 71 73  1  0  0  0
 71 75  1  0  0  0
 71 76  2  0  0  0
 72 73  1  0  0  0
 72 75  1  0  0  0
 72136  1  0  0  0
 72137  1  0  0  0
 73 74  1  0  0  0
 73138  1  0  0  0
 74139  1  0  0  0
 74140  1  0  0  0
M  ISO  4   1 100  68 101  74 101  75 100
M  END
> <chiral flag>
0

> <version>
0

> <s_m_source_file>
/data/baiqing/PycharmProjects/Reinvent-master-3.2/result/LINK_invent/BTK/process_docking_weight1_custom_product_contain_oxygen_bond_distance_aromatic_linkinvent_7_9_3/rearranged_h_0008.sdf

> <i_m_source_file_index>
45

> <r_mmod_Potential_Energy-OPLS-2005>
5394.24365234375

> <r_mmod_Stretch_Energy-OPLS-2005>
2258.55932617188

> <r_mmod_Bend_Energy-OPLS-2005>
1186.66918945312

> <r_mmod_Torsional_Energy-OPLS-2005>
216.801376342773

> <r_mmod_Improper_Torsional_Energy-OPLS-2005>
5.13449096679688

> <r_mmod_Van_der_Waal_Energy-OPLS-2005>
117.738090515137

> <r_mmod_Electrostatic_Energy-OPLS-2005>
-353.426422119141

> <r_mmod_Solvation_Energy-OPLS-2005>
-208.759887695312

> <b_mmod_Minimization_Converged-OPLS-2005>
0

> <r_mmod_RMS_Derivative-OPLS-2005>
0.254608929157257

$$$$
45
                    3D
 Structure written by MMmdl.
146154  0  0  1  0            999 V2000
  -30.4118  -15.2355   20.3788 C   0  0  0  0  0  0
  -30.4481  -12.7845   19.5252 C   0  0  0  0  0  0
  -29.5391  -12.5765   18.2862 C   0  0  0  0  0  0
  -28.0839  -12.3051   18.7091 C   0  0  0  0  0  0
  -27.6173  -13.2683   19.8287 C   0  0  2  0  0  0
  -28.6519  -13.4065   20.9660 C   0  0  0  0  0  0
  -25.2410  -13.8235   20.5728 C   0  0  0  0  0  0
  -24.1756  -13.0435   20.9256 C   0  0  0  0  0  0
  -24.6401  -11.6929   20.8761 C   0  0  0  0  0  0
  -23.9091  -10.4292   21.0408 C   0  0  0  0  0  0
  -24.3635   -9.4205   21.9185 C   0  0  0  0  0  0
  -23.6303   -8.2243   22.0755 C   0  0  0  0  0  0
  -22.4284   -8.0283   21.3545 C   0  0  0  0  0  0
  -21.9926   -9.0258   20.4646 C   0  0  0  0  0  0
  -22.7262  -10.2134   20.3056 C   0  0  0  0  0  0
  -21.6856   -6.0738   22.5279 C   0  0  0  0  0  0
  -21.4016   -6.5641   23.8212 C   0  0  0  0  0  0
  -21.3660   -5.6793   24.9174 C   0  0  0  0  0  0
  -21.6044   -4.3056   24.7224 C   0  0  0  0  0  0
  -21.8819   -3.8147   23.4345 C   0  0  0  0  0  0
  -21.9194   -4.6965   22.3402 C   0  0  0  0  0  0
  -22.7774  -13.5193   21.1903 C   0  0  0  0  0  0
  -22.1661   -4.2150   21.0980 F   0  0  0  0  0  0
  -21.5628   -3.4539   25.7737 F   0  0  0  0  0  0
  -29.8901  -13.9134   20.3522 N   0  0  0  0  0  0
  -26.2836  -12.9496   20.3215 N   0  0  0  0  0  0
  -25.9336  -11.6609   20.5720 N   0  0  0  0  0  0
  -22.0429  -12.8175   22.0455 N   0  0  0  0  0  0
  -25.4038  -15.1969   20.4130 N   0  0  0  0  0  0
  -31.6262  -15.2915   20.1340 O   0  0  0  0  0  0
  -21.6644   -6.8883   21.4242 O   0  0  0  0  0  0
  -22.3455  -14.5495   20.6744 O   0  0  0  0  0  0
  -24.6599  -31.8253   23.1718 C   0  0  0  0  0  0
  -25.9291  -32.4595   23.8176 C   0  0  1  0  0  0
  -27.2226  -26.9456   20.1895 C   0  0  0  0  0  0
  -25.5970  -33.8410   24.2082 N   0  0  0  0  0  0
  -23.4742  -30.4358   21.5200 C   0  0  2  0  0  0
  -24.9284  -28.8210   20.1158 C   0  0  0  0  0  0
  -22.7652  -29.4446   22.4791 C   0  0  0  0  0  0
  -18.0319  -28.1409   22.8469 C   0  0  0  0  0  0
  -24.1494  -36.7211   23.2650 C   0  0  0  0  0  0
  -26.0409  -30.6352   21.4018 C   0  0  0  0  0  0
  -26.1082  -29.2238   20.7538 C   0  0  0  0  0  0
  -27.2475  -28.3040   20.7717 C   0  0  0  0  0  0
  -26.0180  -26.6905   19.4985 C   0  0  0  0  0  0
  -24.9060  -27.5729   19.4706 C   0  0  0  0  0  0
  -23.7141  -29.7481   20.1470 C   0  0  0  0  0  0
  -25.4136  -36.2972   24.0300 C   0  0  1  0  0  0
  -20.5942  -28.3750   23.1195 C   0  0  2  0  0  0
  -20.6796  -26.9434   22.5405 C   0  0  0  0  0  0
  -19.5770  -26.6378   21.5215 C   0  0  0  0  0  0
  -18.1952  -26.7942   22.1623 C   0  0  0  0  0  0
  -19.1580  -28.8900   23.2819 C   0  0  0  0  0  0
  -18.9492  -30.1491   23.8853 C   0  0  0  0  0  0
  -17.6486  -30.6599   24.0556 C   0  0  0  0  0  0
  -25.9096  -34.9354   23.5012 C   0  0  0  0  0  0
  -16.5376  -29.9087   23.6344 C   0  0  0  0  0  0
  -16.7301  -28.6508   23.0361 C   0  0  0  0  0  0
  -26.4553  -31.6537   25.0698 C   0  0  0  0  0  0
  -25.3685  -31.3784   26.1358 C   0  0  0  0  0  0
  -27.0452  -30.2907   24.6423 C   0  0  0  0  0  0
  -27.6046  -32.4346   25.7499 C   0  0  0  0  0  0
  -27.5564  -37.1772   24.8474 C   0  0  0  0  0  0
  -21.4324  -29.3041   22.3542 N   0  0  0  0  0  0
  -26.4287  -37.3701   23.9396 N   0  0  0  0  0  0
  -24.7459  -30.9928   22.0848 N   0  0  0  0  0  0
  -23.4207  -28.8020   23.3030 O   0  0  0  0  0  0
  -28.2589  -25.8785   20.2110 O   0  0  0  0  0  0
  -26.5706  -34.8886   22.4608 O   0  0  0  0  0  0
  -23.5674  -32.1218   23.6820 O   0  0  0  0  0  0
  -28.0804  -20.3145   20.5846 C   0  0  0  0  0  0
  -28.2722  -18.8362   20.6332 C   0  0  0  0  0  0
  -30.5001  -19.0628   20.1486 C   0  0  0  0  0  0
  -29.0896  -21.3267   20.3090 C   0  0  0  0  0  0
  -29.4925  -18.0500   20.4245 C   0  0  0  0  0  0
  -30.3175  -20.5441   20.0989 C   0  0  0  0  0  0
  -29.0297  -23.0846   20.2740 C   0  0  0  0  0  0
  -29.5524  -16.4311   20.5065 N   0  0  0  0  0  0
  -27.8767  -24.2295   20.2842 N   0  0  0  0  0  0
  -31.7484  -21.4492   19.7583 Cl  0  0  0  0  0  0
  -31.4661  -12.9986   19.1969 H   0  0  0  0  0  0
  -30.5164  -11.8687   20.1146 H   0  0  0  0  0  0
  -29.9124  -11.7551   17.6732 H   0  0  0  0  0  0
  -29.5745  -13.4683   17.6587 H   0  0  0  0  0  0
  -28.0310  -11.2762   19.0671 H   0  0  0  0  0  0
  -27.4170  -12.3641   17.8481 H   0  0  0  0  0  0
  -27.5433  -14.2440   19.3473 H   0  0  0  0  0  0
  -28.8106  -12.4564   21.4785 H   0  0  0  0  0  0
  -28.2967  -14.1093   21.7213 H   0  0  0  0  0  0
  -25.2777   -9.5679   22.4765 H   0  0  0  0  0  0
  -24.0008   -7.4634   22.7476 H   0  0  0  0  0  0
  -21.0857   -8.8782   19.8951 H   0  0  0  0  0  0
  -22.3721  -10.9675   19.6167 H   0  0  0  0  0  0
  -21.2010   -7.6149   23.9716 H   0  0  0  0  0  0
  -21.1482   -6.0523   25.9077 H   0  0  0  0  0  0
  -22.0597   -2.7610   23.2845 H   0  0  0  0  0  0
  -22.4059  -11.9841   22.4843 H   0  0  0  0  0  0
  -21.1041  -13.1183   22.2660 H   0  0  0  0  0  0
  -24.6240  -15.8384   20.5097 H   0  0  0  0  0  0
  -26.2237  -15.6319   20.0120 H   0  0  0  0  0  0
  -26.7358  -32.5140   23.0890 H   0  0  0  0  0  0
  -25.0068  -33.9492   25.0199 H   0  0  0  0  0  0
  -22.7865  -31.2664   21.3482 H   0  0  0  0  0  0
  -23.3756  -35.9545   23.3314 H   0  0  0  0  0  0
  -24.3562  -36.8852   22.2063 H   0  0  0  0  0  0
  -23.7260  -37.6406   23.6702 H   0  0  0  0  0  0
  -26.2179  -31.3735   20.6185 H   0  0  0  0  0  0
  -26.9027  -30.6955   22.0546 H   0  0  0  0  0  0
  -28.1449  -28.6123   21.2890 H   0  0  0  0  0  0
  -25.9137  -25.7381   18.9984 H   0  0  0  0  0  0
  -24.0106  -27.2593   18.9517 H   0  0  0  0  0  0
  -23.8691  -30.5148   19.3869 H   0  0  0  0  0  0
  -22.8245  -29.2007   19.8307 H   0  0  0  0  0  0
  -25.1338  -36.1777   25.0793 H   0  0  0  0  0  0
  -21.0029  -28.3357   24.1319 H   0  0  0  0  0  0
  -20.5678  -26.2368   23.3643 H   0  0  0  0  0  0
  -21.6659  -26.7412   22.1211 H   0  0  0  0  0  0
  -19.6930  -25.6278   21.1273 H   0  0  0  0  0  0
  -19.6711  -27.3165   20.6727 H   0  0  0  0  0  0
  -17.4221  -26.6685   21.4027 H   0  0  0  0  0  0
  -18.0347  -26.0096   22.9031 H   0  0  0  0  0  0
  -19.7969  -30.7318   24.2202 H   0  0  0  0  0  0
  -17.5039  -31.6274   24.5166 H   0  0  0  0  0  0
  -15.5375  -30.2974   23.7694 H   0  0  0  0  0  0
  -15.8702  -28.0811   22.7101 H   0  0  0  0  0  0
  -24.5881  -30.7116   25.7670 H   0  0  0  0  0  0
  -24.8857  -32.2985   26.4661 H   0  0  0  0  0  0
  -25.7920  -30.9035   27.0217 H   0  0  0  0  0  0
  -26.3119  -29.6580   24.1409 H   0  0  0  0  0  0
  -27.3972  -29.7271   25.5074 H   0  0  0  0  0  0
  -27.9062  -30.4094   23.9842 H   0  0  0  0  0  0
  -27.2614  -33.3690   26.1952 H   0  0  0  0  0  0
  -28.3920  -32.6836   25.0373 H   0  0  0  0  0  0
  -28.0642  -31.8556   26.5519 H   0  0  0  0  0  0
  -28.2595  -38.0053   24.7469 H   0  0  0  0  0  0
  -28.1046  -36.2576   24.6370 H   0  0  0  0  0  0
  -27.2270  -37.1499   25.8875 H   0  0  0  0  0  0
  -20.9575  -29.8723   21.6667 H   0  0  0  0  0  0
  -26.0139  -38.2768   24.1371 H   0  0  0  0  0  0
  -27.0818  -20.6774   20.7835 H   0  0  0  0  0  0
  -27.3808  -18.2674   20.8587 H   0  0  0  0  0  0
  -31.4999  -18.6991   19.9607 H   0  0  0  0  0  0
  -29.6129  -23.3320   19.3867 H   0  0  0  0  0  0
  -29.6777  -23.3674   21.1043 H   0  0  0  0  0  0
  -28.6284  -16.0753   20.6988 H   0  0  0  0  0  0
  -27.3428  -24.1238   21.1428 H   0  0  0  0  0  0
  1 25  1  0  0  0
  1 30  2  0  0  0
  1 78  1  0  0  0
  2  3  1  0  0  0
  2 25  1  0  0  0
  2 81  1  0  0  0
  2 82  1  0  0  0
  3  4  1  0  0  0
  3 83  1  0  0  0
  3 84  1  0  0  0
  4  5  1  0  0  0
  4 85  1  0  0  0
  4 86  1  0  0  0
  5  6  1  0  0  0
  5 26  1  0  0  0
  5 87  1  0  0  0
  6 25  1  0  0  0
  6 88  1  0  0  0
  6 89  1  0  0  0
  7  8  2  0  0  0
  7 26  1  0  0  0
  7 29  1  0  0  0
  8  9  1  0  0  0
  8 22  1  0  0  0
  9 10  1  0  0  0
  9 27  2  0  0  0
 10 11  2  0  0  0
 10 15  1  0  0  0
 11 12  1  0  0  0
 11 90  1  0  0  0
 12 13  2  0  0  0
 12 91  1  0  0  0
 13 14  1  0  0  0
 13 31  1  0  0  0
 14 15  2  0  0  0
 14 92  1  0  0  0
 15 93  1  0  0  0
 16 17  2  0  0  0
 16 21  1  0  0  0
 16 31  1  0  0  0
 17 18  1  0  0  0
 17 94  1  0  0  0
 18 19  2  0  0  0
 18 95  1  0  0  0
 19 20  1  0  0  0
 19 24  1  0  0  0
 20 21  2  0  0  0
 20 96  1  0  0  0
 21 23  1  0  0  0
 22 28  1  0  0  0
 22 32  2  0  0  0
 26 27  1  0  0  0
 28 97  1  0  0  0
 28 98  1  0  0  0
 29 99  1  0  0  0
 29100  1  0  0  0
 33 34  1  0  0  0
 33 66  1  0  0  0
 33 70  2  0  0  0
 34 36  1  0  0  0
 34 59  1  0  0  0
 34101  1  0  0  0
 35 44  2  0  0  0
 35 45  1  0  0  0
 35 68  1  0  0  0
 36 56  1  0  0  0
 36102  1  0  0  0
 37 39  1  0  0  0
 37 47  1  0  0  0
 37 66  1  0  0  0
 37103  1  0  0  0
 38 43  2  0  0  0
 38 46  1  0  0  0
 38 47  1  0  0  0
 39 64  1  0  0  0
 39 67  2  0  0  0
 40 52  1  0  0  0
 40 53  2  0  0  0
 40 58  1  0  0  0
 41104  1  0  0  0
 41105  1  0  0  0
 41106  1  0  0  0
 41 48  1  0  0  0
 42 43  1  0  0  0
 42 66  1  0  0  0
 42107  1  0  0  0
 42108  1  0  0  0
 43 44  1  0  0  0
 44109  1  0  0  0
 45 46  2  0  0  0
 45110  1  0  0  0
 46111  1  0  0  0
 47112  1  0  0  0
 47113  1  0  0  0
 48 56  1  0  0  0
 48 65  1  0  0  0
 48114  1  0  0  0
 49 50  1  0  0  0
 49 53  1  0  0  0
 49 64  1  0  0  0
 49115  1  0  0  0
 50 51  1  0  0  0
 50116  1  0  0  0
 50117  1  0  0  0
 51 52  1  0  0  0
 51118  1  0  0  0
 51119  1  0  0  0
 52120  1  0  0  0
 52121  1  0  0  0
 53 54  1  0  0  0
 54 55  2  0  0  0
 54122  1  0  0  0
 55 57  1  0  0  0
 55123  1  0  0  0
 56 69  2  0  0  0
 57 58  2  0  0  0
 57124  1  0  0  0
 58125  1  0  0  0
 59 60  1  0  0  0
 59 61  1  0  0  0
 59 62  1  0  0  0
 60126  1  0  0  0
 60127  1  0  0  0
 60128  1  0  0  0
 61129  1  0  0  0
 61130  1  0  0  0
 61131  1  0  0  0
 62132  1  0  0  0
 62133  1  0  0  0
 62134  1  0  0  0
 63 65  1  0  0  0
 63135  1  0  0  0
 63136  1  0  0  0
 63137  1  0  0  0
 64138  1  0  0  0
 65139  1  0  0  0
 68 79  1  0  0  0
 71 72  2  0  0  0
 71 74  1  0  0  0
 71140  1  0  0  0
 72 75  1  0  0  0
 72141  1  0  0  0
 73 75  2  0  0  0
 73 76  1  0  0  0
 73142  1  0  0  0
 74 76  2  0  0  0
 74 77  1  0  0  0
 75 78  1  0  0  0
 76 80  1  0  0  0
 77 79  1  0  0  0
 77143  1  0  0  0
 77144  1  0  0  0
 78145  1  0  0  0
 79146  1  0  0  0
M  ISO  4   1 100  68 101  78 100  79 101
M  END
> <chiral flag>
0

> <version>
0

> <s_m_source_file>
/data/baiqing/PycharmProjects/Reinvent-master-3.2/result/LINK_invent/BTK/process_docking_weight1_custom_product_contain_oxygen_bond_distance_aromatic_linkinvent_7_9_3/rearranged_h_0008.sdf

> <i_m_source_file_index>
46

> <r_mmod_Potential_Energy-OPLS-2005>
1126.54809570312

> <r_mmod_Stretch_Energy-OPLS-2005>
495.221557617188

> <r_mmod_Bend_Energy-OPLS-2005>
431.9560546875

> <r_mmod_Torsional_Energy-OPLS-2005>
213.374588012695

> <r_mmod_Improper_Torsional_Energy-OPLS-2005>
3.81285977363586

> <r_mmod_Van_der_Waal_Energy-OPLS-2005>
126.651062011719

> <r_mmod_Electrostatic_Energy-OPLS-2005>
-345.745819091797

> <r_mmod_Solvation_Energy-OPLS-2005>
-223.652038574219

> <b_mmod_Minimization_Converged-OPLS-2005>
0

> <r_mmod_RMS_Derivative-OPLS-2005>
0.177762135863304

$$$$
46
                    3D
 Structure written by MMmdl.
150159  0  0  1  0            999 V2000
  -30.3585  -15.4086   20.2785 C   0  0  0  0  0  0
  -30.4494  -12.8926   19.5234 C   0  0  0  0  0  0
  -29.5506  -12.5394   18.3061 C   0  0  0  0  0  0
  -28.0988  -12.2597   18.7411 C   0  0  0  0  0  0
  -27.6020  -13.2509   19.8210 C   0  0  2  0  0  0
  -28.6413  -13.5149   20.9334 C   0  0  0  0  0  0
  -25.2405  -13.8154   20.5830 C   0  0  0  0  0  0
  -24.1720  -13.0379   20.9278 C   0  0  0  0  0  0
  -24.6351  -11.6869   20.8795 C   0  0  0  0  0  0
  -23.9047  -10.4251   21.0425 C   0  0  0  0  0  0
  -24.3603   -9.4168   21.9197 C   0  0  0  0  0  0
  -23.6277   -8.2209   22.0758 C   0  0  0  0  0  0
  -22.4260   -8.0258   21.3546 C   0  0  0  0  0  0
  -21.9894   -9.0231   20.4650 C   0  0  0  0  0  0
  -22.7224  -10.2108   20.3065 C   0  0  0  0  0  0
  -21.6840   -6.0723   22.5278 C   0  0  0  0  0  0
  -21.4005   -6.5632   23.8210 C   0  0  0  0  0  0
  -21.3656   -5.6789   24.9175 C   0  0  0  0  0  0
  -21.6043   -4.3051   24.7226 C   0  0  0  0  0  0
  -21.8820   -3.8140   23.4348 C   0  0  0  0  0  0
  -21.9188   -4.6954   22.3403 C   0  0  0  0  0  0
  -22.7745  -13.5167   21.1901 C   0  0  0  0  0  0
  -22.1659   -4.2142   21.0980 F   0  0  0  0  0  0
  -21.5631   -3.4538   25.7740 F   0  0  0  0  0  0
  -29.8482  -14.0588   20.2781 N   0  0  0  0  0  0
  -26.2797  -12.9358   20.3330 N   0  0  0  0  0  0
  -25.9284  -11.6494   20.5791 N   0  0  0  0  0  0
  -22.0388  -12.8173   22.0460 N   0  0  0  0  0  0
  -25.4086  -15.1896   20.4321 N   0  0  0  0  0  0
  -31.6007  -15.4120   20.2221 O   0  0  0  0  0  0
  -21.6622   -6.8861   21.4239 O   0  0  0  0  0  0
  -22.3446  -14.5470   20.6726 O   0  0  0  0  0  0
  -24.6677  -31.8161   23.1644 C   0  0  0  0  0  0
  -25.9333  -32.4547   23.8132 C   0  0  1  0  0  0
  -27.2322  -26.8694   20.1949 C   0  0  0  0  0  0
  -25.5976  -33.8364   24.2032 N   0  0  0  0  0  0
  -23.4863  -30.4232   21.5133 C   0  0  2  0  0  0
  -24.9437  -28.7943   20.1118 C   0  0  0  0  0  0
  -22.7690  -29.4399   22.4755 C   0  0  0  0  0  0
  -18.0326  -28.1412   22.8463 C   0  0  0  0  0  0
  -24.1494  -36.7193   23.2650 C   0  0  0  0  0  0
  -26.0569  -30.6014   21.4060 C   0  0  0  0  0  0
  -26.1242  -29.1834   20.7555 C   0  0  0  0  0  0
  -27.2545  -28.2404   20.7763 C   0  0  0  0  0  0
  -26.0250  -26.6470   19.4923 C   0  0  0  0  0  0
  -24.9222  -27.5477   19.4607 C   0  0  0  0  0  0
  -23.7313  -29.7293   20.1427 C   0  0  0  0  0  0
  -25.4137  -36.2943   24.0295 C   0  0  1  0  0  0
  -20.5953  -28.3760   23.1176 C   0  0  2  0  0  0
  -20.6799  -26.9435   22.5403 C   0  0  0  0  0  0
  -19.5774  -26.6375   21.5214 C   0  0  0  0  0  0
  -18.1956  -26.7943   22.1621 C   0  0  0  0  0  0
  -19.1588  -28.8907   23.2806 C   0  0  0  0  0  0
  -18.9497  -30.1497   23.8845 C   0  0  0  0  0  0
  -17.6489  -30.6598   24.0554 C   0  0  0  0  0  0
  -25.9105  -34.9328   23.4991 C   0  0  0  0  0  0
  -16.5380  -29.9085   23.6345 C   0  0  0  0  0  0
  -16.7308  -28.6506   23.0362 C   0  0  0  0  0  0
  -26.4567  -31.6523   25.0691 C   0  0  0  0  0  0
  -25.3678  -31.3794   26.1338 C   0  0  0  0  0  0
  -27.0481  -30.2882   24.6481 C   0  0  0  0  0  0
  -27.6041  -32.4354   25.7498 C   0  0  0  0  0  0
  -27.5568  -37.1754   24.8467 C   0  0  0  0  0  0
  -21.4353  -29.3036   22.3511 N   0  0  0  0  0  0
  -26.4277  -37.3687   23.9408 N   0  0  0  0  0  0
  -24.7584  -30.9765   22.0810 N   0  0  0  0  0  0
  -23.4209  -28.7989   23.3034 O   0  0  0  0  0  0
  -28.2511  -25.7603   20.2916 O   0  0  0  0  0  0
  -26.5727  -34.8877   22.4595 O   0  0  0  0  0  0
  -23.5733  -32.1162   23.6699 O   0  0  0  0  0  0
  -29.2816  -19.6805   20.5632 C   0  0  0  0  0  0
  -28.9556  -21.0294   18.5550 C   0  0  0  0  0  0
  -29.3187  -18.5644   18.4536 C   0  0  0  0  0  0
  -28.9913  -21.1098   19.9609 C   0  0  0  0  0  0
  -29.4885  -18.3118   19.8280 C   0  0  0  0  0  0
  -29.1015  -19.8220   17.8357 C   0  0  0  0  0  0
  -29.2067  -17.3004   17.6764 C   0  0  0  0  0  0
  -28.8040  -16.2877   18.7416 C   0  0  0  0  0  0
  -28.7835  -22.7780   20.5509 C   0  0  0  0  0  0
  -29.5143  -16.6469   19.9922 N   0  0  0  0  0  0
  -27.9651  -24.0883   19.9340 N   0  0  0  0  0  0
  -28.9788  -19.8679   16.4871 F   0  0  0  0  0  0
  -31.4518  -13.1374   19.1694 H   0  0  0  0  0  0
  -30.5730  -12.0294   20.1795 H   0  0  0  0  0  0
  -29.9532  -11.6684   17.7866 H   0  0  0  0  0  0
  -29.5748  -13.3470   17.5760 H   0  0  0  0  0  0
  -28.0710  -11.2471   19.1455 H   0  0  0  0  0  0
  -27.4320  -12.2606   17.8778 H   0  0  0  0  0  0
  -27.4541  -14.1743   19.2785 H   0  0  0  0  0  0
  -28.8534  -12.6119   21.5078 H   0  0  0  0  0  0
  -28.2565  -14.2514   21.6403 H   0  0  0  0  0  0
  -25.2746   -9.5644   22.4777 H   0  0  0  0  0  0
  -23.9984   -7.4591   22.7469 H   0  0  0  0  0  0
  -21.0827   -8.8747   19.8954 H   0  0  0  0  0  0
  -22.3682  -10.9651   19.6180 H   0  0  0  0  0  0
  -21.1998   -7.6140   23.9711 H   0  0  0  0  0  0
  -21.1478   -6.0520   25.9077 H   0  0  0  0  0  0
  -22.0606   -2.7602   23.2848 H   0  0  0  0  0  0
  -22.4000  -11.9845   22.4871 H   0  0  0  0  0  0
  -21.1003  -13.1200   22.2649 H   0  0  0  0  0  0
  -24.6459  -15.8447   20.5656 H   0  0  0  0  0  0
  -26.2764  -15.6391   20.1729 H   0  0  0  0  0  0
  -26.7404  -32.5068   23.0843 H   0  0  0  0  0  0
  -25.0058  -33.9427   25.0140 H   0  0  0  0  0  0
  -22.8032  -31.2563   21.3350 H   0  0  0  0  0  0
  -23.3765  -35.9513   23.3278 H   0  0  0  0  0  0
  -24.3569  -36.8877   22.2072 H   0  0  0  0  0  0
  -23.7246  -37.6367   23.6733 H   0  0  0  0  0  0
  -26.2438  -31.3361   20.6218 H   0  0  0  0  0  0
  -26.9142  -30.6626   22.0643 H   0  0  0  0  0  0
  -28.1446  -28.5356   21.3136 H   0  0  0  0  0  0
  -25.8991  -25.6952   18.9966 H   0  0  0  0  0  0
  -24.0272  -27.2435   18.9357 H   0  0  0  0  0  0
  -23.8917  -30.4937   19.3816 H   0  0  0  0  0  0
  -22.8402  -29.1858   19.8242 H   0  0  0  0  0  0
  -25.1339  -36.1728   25.0787 H   0  0  0  0  0  0
  -21.0039  -28.3372   24.1300 H   0  0  0  0  0  0
  -20.5671  -26.2379   23.3650 H   0  0  0  0  0  0
  -21.6663  -26.7400   22.1216 H   0  0  0  0  0  0
  -19.6931  -25.6271   21.1282 H   0  0  0  0  0  0
  -19.6714  -27.3154   20.6719 H   0  0  0  0  0  0
  -17.4225  -26.6685   21.4027 H   0  0  0  0  0  0
  -18.0351  -26.0098   22.9030 H   0  0  0  0  0  0
  -19.7973  -30.7328   24.2189 H   0  0  0  0  0  0
  -17.5041  -31.6273   24.5166 H   0  0  0  0  0  0
  -15.5378  -30.2969   23.7700 H   0  0  0  0  0  0
  -15.8710  -28.0810   22.7104 H   0  0  0  0  0  0
  -24.5867  -30.7138   25.7648 H   0  0  0  0  0  0
  -24.8864  -32.3002   26.4638 H   0  0  0  0  0  0
  -25.7896  -30.9040   27.0203 H   0  0  0  0  0  0
  -26.3165  -29.6531   24.1474 H   0  0  0  0  0  0
  -27.3971  -29.7281   25.5167 H   0  0  0  0  0  0
  -27.9120  -30.4049   23.9935 H   0  0  0  0  0  0
  -27.2589  -33.3698   26.1936 H   0  0  0  0  0  0
  -28.3921  -32.6850   25.0380 H   0  0  0  0  0  0
  -28.0632  -31.8580   26.5533 H   0  0  0  0  0  0
  -28.2566  -38.0068   24.7508 H   0  0  0  0  0  0
  -28.1082  -36.2593   24.6299 H   0  0  0  0  0  0
  -27.2283  -37.1401   25.8869 H   0  0  0  0  0  0
  -20.9619  -29.8711   21.6619 H   0  0  0  0  0  0
  -26.0119  -38.2743   24.1408 H   0  0  0  0  0  0
  -29.3001  -19.6310   21.6428 H   0  0  0  0  0  0
  -28.7853  -21.9326   17.9876 H   0  0  0  0  0  0
  -30.1738  -17.0563   17.2346 H   0  0  0  0  0  0
  -28.4660  -17.3664   16.8782 H   0  0  0  0  0  0
  -28.9693  -15.3100   18.2978 H   0  0  0  0  0  0
  -27.7344  -16.3802   18.9332 H   0  0  0  0  0  0
  -29.8100  -23.1334   20.6454 H   0  0  0  0  0  0
  -28.4401  -22.6796   21.5810 H   0  0  0  0  0  0
  -27.9279  -24.0206   18.9211 H   0  0  0  0  0  0
  1 25  1  0  0  0
  1 30  2  0  0  0
  1 80  1  0  0  0
  2  3  1  0  0  0
  2 25  1  0  0  0
  2 83  1  0  0  0
  2 84  1  0  0  0
  3  4  1  0  0  0
  3 85  1  0  0  0
  3 86  1  0  0  0
  4  5  1  0  0  0
  4 87  1  0  0  0
  4 88  1  0  0  0
  5  6  1  0  0  0
  5 26  1  0  0  0
  5 89  1  0  0  0
  6 25  1  0  0  0
  6 90  1  0  0  0
  6 91  1  0  0  0
  7  8  2  0  0  0
  7 26  1  0  0  0
  7 29  1  0  0  0
  8  9  1  0  0  0
  8 22  1  0  0  0
  9 10  1  0  0  0
  9 27  2  0  0  0
 10 11  2  0  0  0
 10 15  1  0  0  0
 11 12  1  0  0  0
 11 92  1  0  0  0
 12 13  2  0  0  0
 12 93  1  0  0  0
 13 14  1  0  0  0
 13 31  1  0  0  0
 14 15  2  0  0  0
 14 94  1  0  0  0
 15 95  1  0  0  0
 16 17  2  0  0  0
 16 21  1  0  0  0
 16 31  1  0  0  0
 17 18  1  0  0  0
 17 96  1  0  0  0
 18 19  2  0  0  0
 18 97  1  0  0  0
 19 20  1  0  0  0
 19 24  1  0  0  0
 20 21  2  0  0  0
 20 98  1  0  0  0
 21 23  1  0  0  0
 22 28  1  0  0  0
 22 32  2  0  0  0
 26 27  1  0  0  0
 28 99  1  0  0  0
 28100  1  0  0  0
 29101  1  0  0  0
 29102  1  0  0  0
 33 34  1  0  0  0
 33 66  1  0  0  0
 33 70  2  0  0  0
 34 36  1  0  0  0
 34 59  1  0  0  0
 34103  1  0  0  0
 35 44  2  0  0  0
 35 45  1  0  0  0
 35 68  1  0  0  0
 36 56  1  0  0  0
 36104  1  0  0  0
 37 39  1  0  0  0
 37 47  1  0  0  0
 37 66  1  0  0  0
 37105  1  0  0  0
 38 43  2  0  0  0
 38 46  1  0  0  0
 38 47  1  0  0  0
 39 64  1  0  0  0
 39 67  2  0  0  0
 40 52  1  0  0  0
 40 53  2  0  0  0
 40 58  1  0  0  0
 41106  1  0  0  0
 41107  1  0  0  0
 41108  1  0  0  0
 41 48  1  0  0  0
 42 43  1  0  0  0
 42 66  1  0  0  0
 42109  1  0  0  0
 42110  1  0  0  0
 43 44  1  0  0  0
 44111  1  0  0  0
 45 46  2  0  0  0
 45112  1  0  0  0
 46113  1  0  0  0
 47114  1  0  0  0
 47115  1  0  0  0
 48 56  1  0  0  0
 48 65  1  0  0  0
 48116  1  0  0  0
 49 50  1  0  0  0
 49 53  1  0  0  0
 49 64  1  0  0  0
 49117  1  0  0  0
 50 51  1  0  0  0
 50118  1  0  0  0
 50119  1  0  0  0
 51 52  1  0  0  0
 51120  1  0  0  0
 51121  1  0  0  0
 52122  1  0  0  0
 52123  1  0  0  0
 53 54  1  0  0  0
 54 55  2  0  0  0
 54124  1  0  0  0
 55 57  1  0  0  0
 55125  1  0  0  0
 56 69  2  0  0  0
 57 58  2  0  0  0
 57126  1  0  0  0
 58127  1  0  0  0
 59 60  1  0  0  0
 59 61  1  0  0  0
 59 62  1  0  0  0
 60128  1  0  0  0
 60129  1  0  0  0
 60130  1  0  0  0
 61131  1  0  0  0
 61132  1  0  0  0
 61133  1  0  0  0
 62134  1  0  0  0
 62135  1  0  0  0
 62136  1  0  0  0
 63 65  1  0  0  0
 63137  1  0  0  0
 63138  1  0  0  0
 63139  1  0  0  0
 64140  1  0  0  0
 65141  1  0  0  0
 68 81  1  0  0  0
 71 74  2  0  0  0
 71 75  1  0  0  0
 71142  1  0  0  0
 72 74  1  0  0  0
 72 76  2  0  0  0
 72143  1  0  0  0
 73 75  2  0  0  0
 73 76  1  0  0  0
 73 77  1  0  0  0
 74 79  1  0  0  0
 75 80  1  0  0  0
 76 82  1  0  0  0
 77 78  1  0  0  0
 77144  1  0  0  0
 77145  1  0  0  0
 78 80  1  0  0  0
 78146  1  0  0  0
 78147  1  0  0  0
 79 81  1  0  0  0
 79148  1  0  0  0
 79149  1  0  0  0
 81150  1  0  0  0
M  ISO  4   1 100  68 101  80 100  81 101
M  END
> <chiral flag>
0

> <version>
0

> <s_m_source_file>
/data/baiqing/PycharmProjects/Reinvent-master-3.2/result/LINK_invent/BTK/process_docking_weight1_custom_product_contain_oxygen_bond_distance_aromatic_linkinvent_7_9_3/rearranged_h_0008.sdf

> <i_m_source_file_index>
47

> <r_mmod_Potential_Energy-OPLS-2005>
1877.55969238281

> <r_mmod_Stretch_Energy-OPLS-2005>
717.181213378906

> <r_mmod_Bend_Energy-OPLS-2005>
595.159118652344

> <r_mmod_Torsional_Energy-OPLS-2005>
321.148681640625

> <r_mmod_Improper_Torsional_Energy-OPLS-2005>
18.8030281066895

> <r_mmod_Van_der_Waal_Energy-OPLS-2005>
131.821624755859

> <r_mmod_Electrostatic_Energy-OPLS-2005>
-294.699951171875

> <r_mmod_Solvation_Energy-OPLS-2005>
-206.987457275391

> <b_mmod_Minimization_Converged-OPLS-2005>
0

> <r_mmod_RMS_Derivative-OPLS-2005>
0.539420366287231

$$$$
47
                    3D
 Structure written by MMmdl.
146154  0  0  1  0            999 V2000
  -30.4115  -15.2360   20.3782 C   0  0  0  0  0  0
  -30.4481  -12.7847   19.5253 C   0  0  0  0  0  0
  -29.5392  -12.5763   18.2863 C   0  0  0  0  0  0
  -28.0839  -12.3050   18.7091 C   0  0  0  0  0  0
  -27.6174  -13.2684   19.8287 C   0  0  2  0  0  0
  -28.6520  -13.4066   20.9660 C   0  0  0  0  0  0
  -25.2410  -13.8235   20.5726 C   0  0  0  0  0  0
  -24.1757  -13.0435   20.9256 C   0  0  0  0  0  0
  -24.6402  -11.6929   20.8762 C   0  0  0  0  0  0
  -23.9092  -10.4292   21.0408 C   0  0  0  0  0  0
  -24.3635   -9.4205   21.9186 C   0  0  0  0  0  0
  -23.6303   -8.2243   22.0755 C   0  0  0  0  0  0
  -22.4285   -8.0283   21.3545 C   0  0  0  0  0  0
  -21.9926   -9.0258   20.4646 C   0  0  0  0  0  0
  -22.7262  -10.2133   20.3057 C   0  0  0  0  0  0
  -21.6856   -6.0738   22.5279 C   0  0  0  0  0  0
  -21.4016   -6.5641   23.8212 C   0  0  0  0  0  0
  -21.3660   -5.6793   24.9174 C   0  0  0  0  0  0
  -21.6044   -4.3056   24.7224 C   0  0  0  0  0  0
  -21.8819   -3.8148   23.4345 C   0  0  0  0  0  0
  -21.9193   -4.6965   22.3402 C   0  0  0  0  0  0
  -22.7775  -13.5193   21.1903 C   0  0  0  0  0  0
  -22.1662   -4.2150   21.0979 F   0  0  0  0  0  0
  -21.5628   -3.4539   25.7737 F   0  0  0  0  0  0
  -29.8901  -13.9137   20.3521 N   0  0  0  0  0  0
  -26.2837  -12.9497   20.3215 N   0  0  0  0  0  0
  -25.9337  -11.6609   20.5720 N   0  0  0  0  0  0
  -22.0430  -12.8175   22.0455 N   0  0  0  0  0  0
  -25.4038  -15.1969   20.4127 N   0  0  0  0  0  0
  -31.6257  -15.2922   20.1320 O   0  0  0  0  0  0
  -21.6644   -6.8883   21.4242 O   0  0  0  0  0  0
  -22.3456  -14.5496   20.6744 O   0  0  0  0  0  0
  -24.6599  -31.8252   23.1717 C   0  0  0  0  0  0
  -25.9291  -32.4596   23.8175 C   0  0  1  0  0  0
  -27.2227  -26.9453   20.1894 C   0  0  0  0  0  0
  -25.5969  -33.8410   24.2082 N   0  0  0  0  0  0
  -23.4743  -30.4358   21.5198 C   0  0  2  0  0  0
  -24.9285  -28.8210   20.1157 C   0  0  0  0  0  0
  -22.7652  -29.4446   22.4789 C   0  0  0  0  0  0
  -18.0319  -28.1410   22.8469 C   0  0  0  0  0  0
  -24.1494  -36.7211   23.2650 C   0  0  0  0  0  0
  -26.0410  -30.6352   21.4018 C   0  0  0  0  0  0
  -26.1083  -29.2238   20.7538 C   0  0  0  0  0  0
  -27.2475  -28.3037   20.7717 C   0  0  0  0  0  0
  -26.0181  -26.6905   19.4983 C   0  0  0  0  0  0
  -24.9062  -27.5730   19.4704 C   0  0  0  0  0  0
  -23.7142  -29.7481   20.1469 C   0  0  0  0  0  0
  -25.4137  -36.2973   24.0300 C   0  0  1  0  0  0
  -20.5943  -28.3750   23.1196 C   0  0  2  0  0  0
  -20.6796  -26.9435   22.5405 C   0  0  0  0  0  0
  -19.5771  -26.6379   21.5216 C   0  0  0  0  0  0
  -18.1952  -26.7944   22.1623 C   0  0  0  0  0  0
  -19.1580  -28.8901   23.2820 C   0  0  0  0  0  0
  -18.9493  -30.1492   23.8854 C   0  0  0  0  0  0
  -17.6487  -30.6600   24.0557 C   0  0  0  0  0  0
  -25.9095  -34.9354   23.5012 C   0  0  0  0  0  0
  -16.5377  -29.9089   23.6344 C   0  0  0  0  0  0
  -16.7301  -28.6509   23.0362 C   0  0  0  0  0  0
  -26.4553  -31.6537   25.0698 C   0  0  0  0  0  0
  -25.3684  -31.3786   26.1357 C   0  0  0  0  0  0
  -27.0451  -30.2907   24.6421 C   0  0  0  0  0  0
  -27.6047  -32.4345   25.7498 C   0  0  0  0  0  0
  -27.5563  -37.1775   24.8476 C   0  0  0  0  0  0
  -21.4324  -29.3041   22.3541 N   0  0  0  0  0  0
  -26.4288  -37.3700   23.9393 N   0  0  0  0  0  0
  -24.7460  -30.9928   22.0847 N   0  0  0  0  0  0
  -23.4208  -28.8021   23.3029 O   0  0  0  0  0  0
  -28.2587  -25.8777   20.2125 O   0  0  0  0  0  0
  -26.5705  -34.8886   22.4608 O   0  0  0  0  0  0
  -23.5674  -32.1218   23.6818 O   0  0  0  0  0  0
  -28.0770  -20.3125   20.6106 C   0  0  0  0  0  0
  -28.2727  -18.8348   20.6575 C   0  0  0  0  0  0
  -30.4901  -19.0659   20.1263 C   0  0  0  0  0  0
  -29.0793  -21.3247   20.3118 C   0  0  0  0  0  0
  -29.4903  -18.0508   20.4259 C   0  0  0  0  0  0
  -30.3028  -20.5464   20.0773 C   0  0  0  0  0  0
  -29.0269  -23.0813   20.2873 C   0  0  0  0  0  0
  -29.5522  -16.4316   20.5083 N   0  0  0  0  0  0
  -27.8750  -24.2284   20.2741 N   0  0  0  0  0  0
  -31.4112  -21.2681   19.7859 F   0  0  0  0  0  0
  -31.4662  -12.9987   19.1970 H   0  0  0  0  0  0
  -30.5164  -11.8690   20.1148 H   0  0  0  0  0  0
  -29.9126  -11.7546   17.6736 H   0  0  0  0  0  0
  -29.5747  -13.4679   17.6585 H   0  0  0  0  0  0
  -28.0311  -11.2762   19.0674 H   0  0  0  0  0  0
  -27.4171  -12.3641   17.8481 H   0  0  0  0  0  0
  -27.5435  -14.2440   19.3472 H   0  0  0  0  0  0
  -28.8109  -12.4568   21.4787 H   0  0  0  0  0  0
  -28.2968  -14.1096   21.7211 H   0  0  0  0  0  0
  -25.2777   -9.5679   22.4765 H   0  0  0  0  0  0
  -24.0008   -7.4635   22.7477 H   0  0  0  0  0  0
  -21.0857   -8.8783   19.8951 H   0  0  0  0  0  0
  -22.3723  -10.9675   19.6167 H   0  0  0  0  0  0
  -21.2010   -7.6149   23.9717 H   0  0  0  0  0  0
  -21.1482   -6.0522   25.9077 H   0  0  0  0  0  0
  -22.0598   -2.7610   23.2845 H   0  0  0  0  0  0
  -22.4059  -11.9840   22.4841 H   0  0  0  0  0  0
  -21.1043  -13.1184   22.2661 H   0  0  0  0  0  0
  -24.6236  -15.8381   20.5082 H   0  0  0  0  0  0
  -26.2233  -15.6315   20.0105 H   0  0  0  0  0  0
  -26.7358  -32.5141   23.0889 H   0  0  0  0  0  0
  -25.0068  -33.9492   25.0200 H   0  0  0  0  0  0
  -22.7866  -31.2665   21.3481 H   0  0  0  0  0  0
  -23.3754  -35.9547   23.3323 H   0  0  0  0  0  0
  -24.3558  -36.8842   22.2062 H   0  0  0  0  0  0
  -23.7264  -37.6410   23.6696 H   0  0  0  0  0  0
  -26.2181  -31.3735   20.6186 H   0  0  0  0  0  0
  -26.9027  -30.6955   22.0546 H   0  0  0  0  0  0
  -28.1447  -28.6119   21.2895 H   0  0  0  0  0  0
  -25.9133  -25.7382   18.9981 H   0  0  0  0  0  0
  -24.0108  -27.2596   18.9514 H   0  0  0  0  0  0
  -23.8689  -30.5148   19.3868 H   0  0  0  0  0  0
  -22.8246  -29.2006   19.8306 H   0  0  0  0  0  0
  -25.1340  -36.1779   25.0794 H   0  0  0  0  0  0
  -21.0030  -28.3358   24.1319 H   0  0  0  0  0  0
  -20.5680  -26.2369   23.3643 H   0  0  0  0  0  0
  -21.6660  -26.7414   22.1210 H   0  0  0  0  0  0
  -19.6931  -25.6279   21.1274 H   0  0  0  0  0  0
  -19.6711  -27.3167   20.6729 H   0  0  0  0  0  0
  -17.4221  -26.6687   21.4027 H   0  0  0  0  0  0
  -18.0347  -26.0098   22.9032 H   0  0  0  0  0  0
  -19.7969  -30.7320   24.2202 H   0  0  0  0  0  0
  -17.5039  -31.6276   24.5167 H   0  0  0  0  0  0
  -15.5376  -30.2977   23.7695 H   0  0  0  0  0  0
  -15.8701  -28.0813   22.7102 H   0  0  0  0  0  0
  -24.5880  -30.7118   25.7669 H   0  0  0  0  0  0
  -24.8857  -32.2987   26.4660 H   0  0  0  0  0  0
  -25.7919  -30.9036   27.0216 H   0  0  0  0  0  0
  -26.3118  -29.6581   24.1407 H   0  0  0  0  0  0
  -27.3972  -29.7270   25.5071 H   0  0  0  0  0  0
  -27.9061  -30.4096   23.9840 H   0  0  0  0  0  0
  -27.2617  -33.3690   26.1950 H   0  0  0  0  0  0
  -28.3922  -32.6832   25.0372 H   0  0  0  0  0  0
  -28.0642  -31.8555   26.5518 H   0  0  0  0  0  0
  -28.2603  -38.0046   24.7459 H   0  0  0  0  0  0
  -28.1035  -36.2569   24.6391 H   0  0  0  0  0  0
  -27.2265  -37.1524   25.8877 H   0  0  0  0  0  0
  -20.9575  -29.8722   21.6665 H   0  0  0  0  0  0
  -26.0142  -38.2769   24.1361 H   0  0  0  0  0  0
  -27.0829  -20.6747   20.8318 H   0  0  0  0  0  0
  -27.3873  -18.2646   20.9024 H   0  0  0  0  0  0
  -31.4875  -18.7080   19.9168 H   0  0  0  0  0  0
  -29.6395  -23.3299   19.4203 H   0  0  0  0  0  0
  -29.6521  -23.3551   21.1378 H   0  0  0  0  0  0
  -28.6295  -16.0752   20.7059 H   0  0  0  0  0  0
  -27.3230  -24.1215   21.1210 H   0  0  0  0  0  0
  1 25  1  0  0  0
  1 30  2  0  0  0
  1 78  1  0  0  0
  2  3  1  0  0  0
  2 25  1  0  0  0
  2 81  1  0  0  0
  2 82  1  0  0  0
  3  4  1  0  0  0
  3 83  1  0  0  0
  3 84  1  0  0  0
  4  5  1  0  0  0
  4 85  1  0  0  0
  4 86  1  0  0  0
  5  6  1  0  0  0
  5 26  1  0  0  0
  5 87  1  0  0  0
  6 25  1  0  0  0
  6 88  1  0  0  0
  6 89  1  0  0  0
  7  8  2  0  0  0
  7 26  1  0  0  0
  7 29  1  0  0  0
  8  9  1  0  0  0
  8 22  1  0  0  0
  9 10  1  0  0  0
  9 27  2  0  0  0
 10 11  2  0  0  0
 10 15  1  0  0  0
 11 12  1  0  0  0
 11 90  1  0  0  0
 12 13  2  0  0  0
 12 91  1  0  0  0
 13 14  1  0  0  0
 13 31  1  0  0  0
 14 15  2  0  0  0
 14 92  1  0  0  0
 15 93  1  0  0  0
 16 17  2  0  0  0
 16 21  1  0  0  0
 16 31  1  0  0  0
 17 18  1  0  0  0
 17 94  1  0  0  0
 18 19  2  0  0  0
 18 95  1  0  0  0
 19 20  1  0  0  0
 19 24  1  0  0  0
 20 21  2  0  0  0
 20 96  1  0  0  0
 21 23  1  0  0  0
 22 28  1  0  0  0
 22 32  2  0  0  0
 26 27  1  0  0  0
 28 97  1  0  0  0
 28 98  1  0  0  0
 29 99  1  0  0  0
 29100  1  0  0  0
 33 34  1  0  0  0
 33 66  1  0  0  0
 33 70  2  0  0  0
 34 36  1  0  0  0
 34 59  1  0  0  0
 34101  1  0  0  0
 35 44  2  0  0  0
 35 45  1  0  0  0
 35 68  1  0  0  0
 36 56  1  0  0  0
 36102  1  0  0  0
 37 39  1  0  0  0
 37 47  1  0  0  0
 37 66  1  0  0  0
 37103  1  0  0  0
 38 43  2  0  0  0
 38 46  1  0  0  0
 38 47  1  0  0  0
 39 64  1  0  0  0
 39 67  2  0  0  0
 40 52  1  0  0  0
 40 53  2  0  0  0
 40 58  1  0  0  0
 41104  1  0  0  0
 41105  1  0  0  0
 41106  1  0  0  0
 41 48  1  0  0  0
 42 43  1  0  0  0
 42 66  1  0  0  0
 42107  1  0  0  0
 42108  1  0  0  0
 43 44  1  0  0  0
 44109  1  0  0  0
 45 46  2  0  0  0
 45110  1  0  0  0
 46111  1  0  0  0
 47112  1  0  0  0
 47113  1  0  0  0
 48 56  1  0  0  0
 48 65  1  0  0  0
 48114  1  0  0  0
 49 50  1  0  0  0
 49 53  1  0  0  0
 49 64  1  0  0  0
 49115  1  0  0  0
 50 51  1  0  0  0
 50116  1  0  0  0
 50117  1  0  0  0
 51 52  1  0  0  0
 51118  1  0  0  0
 51119  1  0  0  0
 52120  1  0  0  0
 52121  1  0  0  0
 53 54  1  0  0  0
 54 55  2  0  0  0
 54122  1  0  0  0
 55 57  1  0  0  0
 55123  1  0  0  0
 56 69  2  0  0  0
 57 58  2  0  0  0
 57124  1  0  0  0
 58125  1  0  0  0
 59 60  1  0  0  0
 59 61  1  0  0  0
 59 62  1  0  0  0
 60126  1  0  0  0
 60127  1  0  0  0
 60128  1  0  0  0
 61129  1  0  0  0
 61130  1  0  0  0
 61131  1  0  0  0
 62132  1  0  0  0
 62133  1  0  0  0
 62134  1  0  0  0
 63 65  1  0  0  0
 63135  1  0  0  0
 63136  1  0  0  0
 63137  1  0  0  0
 64138  1  0  0  0
 65139  1  0  0  0
 68 79  1  0  0  0
 71 72  2  0  0  0
 71 74  1  0  0  0
 71140  1  0  0  0
 72 75  1  0  0  0
 72141  1  0  0  0
 73 75  2  0  0  0
 73 76  1  0  0  0
 73142  1  0  0  0
 74 76  2  0  0  0
 74 77  1  0  0  0
 75 78  1  0  0  0
 76 80  1  0  0  0
 77 79  1  0  0  0
 77143  1  0  0  0
 77144  1  0  0  0
 78145  1  0  0  0
 79146  1  0  0  0
M  ISO  4   1 100  68 101  78 100  79 101
M  END
> <chiral flag>
0

> <version>
0

> <s_m_source_file>
/data/baiqing/PycharmProjects/Reinvent-master-3.2/result/LINK_invent/BTK/process_docking_weight1_custom_product_contain_oxygen_bond_distance_aromatic_linkinvent_7_9_3/rearranged_h_0008.sdf

> <i_m_source_file_index>
48

> <r_mmod_Potential_Energy-OPLS-2005>
1131.50427246094

> <r_mmod_Stretch_Energy-OPLS-2005>
494.5185546875

> <r_mmod_Bend_Energy-OPLS-2005>
431.97265625

> <r_mmod_Torsional_Energy-OPLS-2005>
213.545684814453

> <r_mmod_Improper_Torsional_Energy-OPLS-2005>
3.83938789367676

> <r_mmod_Van_der_Waal_Energy-OPLS-2005>
127.036819458008

> <r_mmod_Electrostatic_Energy-OPLS-2005>
-344.446197509766

> <r_mmod_Solvation_Energy-OPLS-2005>
-220.450500488281

> <b_mmod_Minimization_Converged-OPLS-2005>
0

> <r_mmod_RMS_Derivative-OPLS-2005>
0.236234650015831

$$$$
48
                    3D
 Structure written by MMmdl.
148156  0  0  1  0            999 V2000
  -30.5228  -14.9167   20.4313 C   0  0  0  0  0  0
  -30.4527  -12.5651   19.4877 C   0  0  0  0  0  0
  -29.5223  -12.5321   18.2510 C   0  0  0  0  0  0
  -28.0527  -12.3252   18.6684 C   0  0  0  0  0  0
  -27.6371  -13.2417   19.8490 C   0  0  2  0  0  0
  -28.6854  -13.2233   20.9832 C   0  0  0  0  0  0
  -25.2448  -13.8158   20.5686 C   0  0  0  0  0  0
  -24.1761  -13.0385   20.9174 C   0  0  0  0  0  0
  -24.6398  -11.6886   20.8731 C   0  0  0  0  0  0
  -23.9080  -10.4267   21.0394 C   0  0  0  0  0  0
  -24.3625   -9.4188   21.9179 C   0  0  0  0  0  0
  -23.6292   -8.2230   22.0755 C   0  0  0  0  0  0
  -22.4274   -8.0271   21.3544 C   0  0  0  0  0  0
  -21.9911   -9.0243   20.4644 C   0  0  0  0  0  0
  -22.7248  -10.2114   20.3049 C   0  0  0  0  0  0
  -21.6850   -6.0728   22.5280 C   0  0  0  0  0  0
  -21.4012   -6.5634   23.8212 C   0  0  0  0  0  0
  -21.3660   -5.6789   24.9174 C   0  0  0  0  0  0
  -21.6045   -4.3052   24.7226 C   0  0  0  0  0  0
  -21.8819   -3.8143   23.4348 C   0  0  0  0  0  0
  -21.9192   -4.6957   22.3403 C   0  0  0  0  0  0
  -22.7788  -13.5170   21.1852 C   0  0  0  0  0  0
  -22.1660   -4.2142   21.0982 F   0  0  0  0  0  0
  -21.5629   -3.4538   25.7740 F   0  0  0  0  0  0
  -29.9694  -13.6394   20.3971 N   0  0  0  0  0  0
  -26.2925  -12.9417   20.3307 N   0  0  0  0  0  0
  -25.9345  -11.6543   20.5765 N   0  0  0  0  0  0
  -22.0456  -12.8166   22.0431 N   0  0  0  0  0  0
  -25.3980  -15.1883   20.4162 N   0  0  0  0  0  0
  -31.7121  -15.0435   20.1228 O   0  0  0  0  0  0
  -21.6635   -6.8872   21.4244 O   0  0  0  0  0  0
  -22.3462  -14.5480   20.6716 O   0  0  0  0  0  0
  -24.6428  -31.8455   23.1893 C   0  0  0  0  0  0
  -25.9209  -32.4700   23.8276 C   0  0  1  0  0  0
  -27.2212  -27.1510   20.1471 C   0  0  0  0  0  0
  -25.5964  -33.8504   24.2195 N   0  0  0  0  0  0
  -23.4449  -30.4655   21.5359 C   0  0  2  0  0  0
  -24.8944  -28.8950   20.1116 C   0  0  0  0  0  0
  -22.7562  -29.4554   22.4876 C   0  0  0  0  0  0
  -18.0303  -28.1391   22.8474 C   0  0  0  0  0  0
  -24.1491  -36.7254   23.2643 C   0  0  0  0  0  0
  -26.0006  -30.7234   21.3865 C   0  0  0  0  0  0
  -26.0726  -29.3366   20.7270 C   0  0  0  0  0  0
  -27.2368  -28.4816   20.7267 C   0  0  0  0  0  0
  -26.0137  -26.8076   19.4968 C   0  0  0  0  0  0
  -24.8771  -27.6429   19.4817 C   0  0  0  0  0  0
  -23.6701  -29.7953   20.1550 C   0  0  0  0  0  0
  -25.4124  -36.3031   24.0314 C   0  0  1  0  0  0
  -20.5913  -28.3716   23.1235 C   0  0  2  0  0  0
  -20.6789  -26.9421   22.5402 C   0  0  0  0  0  0
  -19.5763  -26.6379   21.5207 C   0  0  0  0  0  0
  -18.1943  -26.7929   22.1619 C   0  0  0  0  0  0
  -19.1560  -28.8871   23.2842 C   0  0  0  0  0  0
  -18.9482  -30.1469   23.8864 C   0  0  0  0  0  0
  -17.6481  -30.6589   24.0555 C   0  0  0  0  0  0
  -25.9077  -34.9407   23.5060 C   0  0  0  0  0  0
  -16.5369  -29.9083   23.6336 C   0  0  0  0  0  0
  -16.7289  -28.6501   23.0355 C   0  0  0  0  0  0
  -26.4531  -31.6565   25.0715 C   0  0  0  0  0  0
  -25.3716  -31.3757   26.1412 C   0  0  0  0  0  0
  -27.0405  -30.2964   24.6293 C   0  0  0  0  0  0
  -27.6058  -32.4335   25.7502 C   0  0  0  0  0  0
  -27.5572  -37.1784   24.8468 C   0  0  0  0  0  0
  -21.4257  -29.3048   22.3615 N   0  0  0  0  0  0
  -26.4286  -37.3746   23.9406 N   0  0  0  0  0  0
  -24.7159  -31.0322   22.0923 N   0  0  0  0  0  0
  -23.4206  -28.8102   23.3024 O   0  0  0  0  0  0
  -28.2815  -26.1757   20.2129 O   0  0  0  0  0  0
  -26.5659  -34.8900   22.4636 O   0  0  0  0  0  0
  -23.5548  -32.1335   23.7117 O   0  0  0  0  0  0
  -27.9545  -19.4976   20.6062 C   0  0  0  0  0  0
  -30.2294  -19.9959   20.2757 C   0  0  0  0  0  0
  -29.5582  -17.5258   20.5345 C   0  0  0  0  0  0
  -28.9008  -20.5481   20.4056 C   0  0  0  0  0  0
  -28.2565  -18.0910   20.6717 C   0  0  0  0  0  0
  -30.5473  -18.5603   20.3325 C   0  0  0  0  0  0
  -27.9825  -24.6539   20.1089 C   0  0  0  0  0  0
  -28.9862  -23.3142   20.3044 C   0  0  0  0  0  0
  -29.6483  -16.0013   20.6502 N   0  0  0  0  0  0
  -28.3697  -21.9133   20.3406 O   0  0  0  0  0  0
  -27.2305  -17.2317   20.8750 F   0  0  0  0  0  0
  -31.8433  -18.1912   20.1953 F   0  0  0  0  0  0
  -31.4836  -12.7360   19.1734 H   0  0  0  0  0  0
  -30.4520  -11.6013   19.9993 H   0  0  0  0  0  0
  -29.8312  -11.7411   17.5661 H   0  0  0  0  0  0
  -29.6158  -13.4680   17.6981 H   0  0  0  0  0  0
  -27.9382  -11.2801   18.9580 H   0  0  0  0  0  0
  -27.3899  -12.4788   17.8159 H   0  0  0  0  0  0
  -27.6087  -14.2533   19.4431 H   0  0  0  0  0  0
  -28.7637  -12.2292   21.4259 H   0  0  0  0  0  0
  -28.3912  -13.8934   21.7926 H   0  0  0  0  0  0
  -25.2769   -9.5662   22.4755 H   0  0  0  0  0  0
  -23.9993   -7.4622   22.7481 H   0  0  0  0  0  0
  -21.0840   -8.8767   19.8953 H   0  0  0  0  0  0
  -22.3712  -10.9652   19.6157 H   0  0  0  0  0  0
  -21.2007   -7.6142   23.9711 H   0  0  0  0  0  0
  -21.1481   -6.0521   25.9077 H   0  0  0  0  0  0
  -22.0600   -2.7605   23.2852 H   0  0  0  0  0  0
  -22.4085  -11.9830   22.4812 H   0  0  0  0  0  0
  -21.1083  -13.1194   22.2663 H   0  0  0  0  0  0
  -24.6245  -15.8238   20.5731 H   0  0  0  0  0  0
  -26.2675  -15.6807   20.2466 H   0  0  0  0  0  0
  -26.7276  -32.5313   23.1006 H   0  0  0  0  0  0
  -25.0101  -33.9624   25.0335 H   0  0  0  0  0  0
  -22.7461  -31.2907   21.3828 H   0  0  0  0  0  0
  -23.3755  -35.9585   23.3307 H   0  0  0  0  0  0
  -24.3578  -36.8885   22.2058 H   0  0  0  0  0  0
  -23.7241  -37.6446   23.6684 H   0  0  0  0  0  0
  -26.1550  -31.4790   20.6151 H   0  0  0  0  0  0
  -26.8708  -30.7721   22.0293 H   0  0  0  0  0  0
  -28.1343  -28.8162   21.2277 H   0  0  0  0  0  0
  -25.9066  -25.8535   19.0054 H   0  0  0  0  0  0
  -23.9780  -27.2978   18.9900 H   0  0  0  0  0  0
  -23.8054  -30.5707   19.4003 H   0  0  0  0  0  0
  -22.7848  -29.2374   19.8444 H   0  0  0  0  0  0
  -25.1307  -36.1863   25.0806 H   0  0  0  0  0  0
  -20.9996  -28.3311   24.1359 H   0  0  0  0  0  0
  -20.5682  -26.2333   23.3623 H   0  0  0  0  0  0
  -21.6656  -26.7433   22.1198 H   0  0  0  0  0  0
  -19.6928  -25.6283   21.1256 H   0  0  0  0  0  0
  -19.6700  -27.3170   20.6719 H   0  0  0  0  0  0
  -17.4211  -26.6668   21.4024 H   0  0  0  0  0  0
  -18.0345  -26.0073   22.9017 H   0  0  0  0  0  0
  -19.7961  -30.7288   24.2218 H   0  0  0  0  0  0
  -17.5039  -31.6268   24.5163 H   0  0  0  0  0  0
  -15.5367  -30.2973   23.7687 H   0  0  0  0  0  0
  -15.8688  -28.0812   22.7085 H   0  0  0  0  0  0
  -24.5897  -30.7101   25.7737 H   0  0  0  0  0  0
  -24.8902  -32.2942   26.4781 H   0  0  0  0  0  0
  -25.7994  -30.8970   27.0229 H   0  0  0  0  0  0
  -26.3028  -29.6681   24.1289 H   0  0  0  0  0  0
  -27.4016  -29.7264   25.4865 H   0  0  0  0  0  0
  -27.8932  -30.4208   23.9614 H   0  0  0  0  0  0
  -27.2650  -33.3660   26.2015 H   0  0  0  0  0  0
  -28.3902  -32.6859   25.0355 H   0  0  0  0  0  0
  -28.0692  -31.8506   26.5474 H   0  0  0  0  0  0
  -28.2587  -38.0082   24.7503 H   0  0  0  0  0  0
  -28.1068  -36.2608   24.6312 H   0  0  0  0  0  0
  -27.2290  -37.1447   25.8873 H   0  0  0  0  0  0
  -20.9472  -29.8764   21.6795 H   0  0  0  0  0  0
  -26.0153  -38.2813   24.1409 H   0  0  0  0  0  0
  -26.9177  -19.7781   20.7194 H   0  0  0  0  0  0
  -31.0484  -20.6814   20.1165 H   0  0  0  0  0  0
  -27.1596  -24.4925   20.8063 H   0  0  0  0  0  0
  -27.5501  -24.5063   19.1205 H   0  0  0  0  0  0
  -29.5391  -23.4368   21.2357 H   0  0  0  0  0  0
  -29.7356  -23.3258   19.5129 H   0  0  0  0  0  0
  -28.7382  -15.6339   20.8804 H   0  0  0  0  0  0
  1 25  1  0  0  0
  1 30  2  0  0  0
  1 79  1  0  0  0
  2  3  1  0  0  0
  2 25  1  0  0  0
  2 83  1  0  0  0
  2 84  1  0  0  0
  3  4  1  0  0  0
  3 85  1  0  0  0
  3 86  1  0  0  0
  4  5  1  0  0  0
  4 87  1  0  0  0
  4 88  1  0  0  0
  5  6  1  0  0  0
  5 26  1  0  0  0
  5 89  1  0  0  0
  6 25  1  0  0  0
  6 90  1  0  0  0
  6 91  1  0  0  0
  7  8  2  0  0  0
  7 26  1  0  0  0
  7 29  1  0  0  0
  8  9  1  0  0  0
  8 22  1  0  0  0
  9 10  1  0  0  0
  9 27  2  0  0  0
 10 11  2  0  0  0
 10 15  1  0  0  0
 11 12  1  0  0  0
 11 92  1  0  0  0
 12 13  2  0  0  0
 12 93  1  0  0  0
 13 14  1  0  0  0
 13 31  1  0  0  0
 14 15  2  0  0  0
 14 94  1  0  0  0
 15 95  1  0  0  0
 16 17  2  0  0  0
 16 21  1  0  0  0
 16 31  1  0  0  0
 17 18  1  0  0  0
 17 96  1  0  0  0
 18 19  2  0  0  0
 18 97  1  0  0  0
 19 20  1  0  0  0
 19 24  1  0  0  0
 20 21  2  0  0  0
 20 98  1  0  0  0
 21 23  1  0  0  0
 22 28  1  0  0  0
 22 32  2  0  0  0
 26 27  1  0  0  0
 28 99  1  0  0  0
 28100  1  0  0  0
 29101  1  0  0  0
 29102  1  0  0  0
 33 34  1  0  0  0
 33 66  1  0  0  0
 33 70  2  0  0  0
 34 36  1  0  0  0
 34 59  1  0  0  0
 34103  1  0  0  0
 35 44  2  0  0  0
 35 45  1  0  0  0
 35 68  1  0  0  0
 36 56  1  0  0  0
 36104  1  0  0  0
 37 39  1  0  0  0
 37 47  1  0  0  0
 37 66  1  0  0  0
 37105  1  0  0  0
 38 43  2  0  0  0
 38 46  1  0  0  0
 38 47  1  0  0  0
 39 64  1  0  0  0
 39 67  2  0  0  0
 40 52  1  0  0  0
 40 53  2  0  0  0
 40 58  1  0  0  0
 41106  1  0  0  0
 41107  1  0  0  0
 41108  1  0  0  0
 41 48  1  0  0  0
 42 43  1  0  0  0
 42 66  1  0  0  0
 42109  1  0  0  0
 42110  1  0  0  0
 43 44  1  0  0  0
 44111  1  0  0  0
 45 46  2  0  0  0
 45112  1  0  0  0
 46113  1  0  0  0
 47114  1  0  0  0
 47115  1  0  0  0
 48 56  1  0  0  0
 48 65  1  0  0  0
 48116  1  0  0  0
 49 50  1  0  0  0
 49 53  1  0  0  0
 49 64  1  0  0  0
 49117  1  0  0  0
 50 51  1  0  0  0
 50118  1  0  0  0
 50119  1  0  0  0
 51 52  1  0  0  0
 51120  1  0  0  0
 51121  1  0  0  0
 52122  1  0  0  0
 52123  1  0  0  0
 53 54  1  0  0  0
 54 55  2  0  0  0
 54124  1  0  0  0
 55 57  1  0  0  0
 55125  1  0  0  0
 56 69  2  0  0  0
 57 58  2  0  0  0
 57126  1  0  0  0
 58127  1  0  0  0
 59 60  1  0  0  0
 59 61  1  0  0  0
 59 62  1  0  0  0
 60128  1  0  0  0
 60129  1  0  0  0
 60130  1  0  0  0
 61131  1  0  0  0
 61132  1  0  0  0
 61133  1  0  0  0
 62134  1  0  0  0
 62135  1  0  0  0
 62136  1  0  0  0
 63 65  1  0  0  0
 63137  1  0  0  0
 63138  1  0  0  0
 63139  1  0  0  0
 64140  1  0  0  0
 65141  1  0  0  0
 68 77  1  0  0  0
 71 74  2  0  0  0
 71 75  1  0  0  0
 71142  1  0  0  0
 72 74  1  0  0  0
 72 76  2  0  0  0
 72143  1  0  0  0
 73 75  2  0  0  0
 73 76  1  0  0  0
 73 79  1  0  0  0
 74 80  1  0  0  0
 75 81  1  0  0  0
 76 82  1  0  0  0
 77 78  1  0  0  0
 77144  1  0  0  0
 77145  1  0  0  0
 78 80  1  0  0  0
 78146  1  0  0  0
 78147  1  0  0  0
 79148  1  0  0  0
M  ISO  4   1 100  68 101  77 101  79 100
M  END
> <chiral flag>
0

> <version>
0

> <s_m_source_file>
/data/baiqing/PycharmProjects/Reinvent-master-3.2/result/LINK_invent/BTK/process_docking_weight1_custom_product_contain_oxygen_bond_distance_aromatic_linkinvent_7_9_3/rearranged_h_0008.sdf

> <i_m_source_file_index>
49

> <r_mmod_Potential_Energy-OPLS-2005>
399.469116210938

> <r_mmod_Stretch_Energy-OPLS-2005>
214.641143798828

> <r_mmod_Bend_Energy-OPLS-2005>
307.445495605469

> <r_mmod_Torsional_Energy-OPLS-2005>
210.494476318359

> <r_mmod_Improper_Torsional_Energy-OPLS-2005>
3.88823580741882

> <r_mmod_Van_der_Waal_Energy-OPLS-2005>
132.977157592773

> <r_mmod_Electrostatic_Energy-OPLS-2005>
-434.508483886719

> <r_mmod_Solvation_Energy-OPLS-2005>
-210.045440673828

> <b_mmod_Minimization_Converged-OPLS-2005>
0

> <r_mmod_RMS_Derivative-OPLS-2005>
0.629383087158203

$$$$
50
                    3D
 Structure written by MMmdl.
156164  0  0  1  0            999 V2000
  -30.4281  -15.2896   20.3523 C   0  0  0  0  0  0
  -30.4347  -12.8314   19.5035 C   0  0  0  0  0  0
  -29.5260  -12.5676   18.2769 C   0  0  0  0  0  0
  -28.0782  -12.2830   18.7158 C   0  0  0  0  0  0
  -27.6018  -13.2653   19.8143 C   0  0  2  0  0  0
  -28.6413  -13.4693   20.9346 C   0  0  0  0  0  0
  -25.2386  -13.8218   20.5783 C   0  0  0  0  0  0
  -24.1722  -13.0426   20.9267 C   0  0  0  0  0  0
  -24.6364  -11.6913   20.8771 C   0  0  0  0  0  0
  -23.9062  -10.4281   21.0413 C   0  0  0  0  0  0
  -24.3616   -9.4196   21.9183 C   0  0  0  0  0  0
  -23.6294   -8.2231   22.0750 C   0  0  0  0  0  0
  -22.4275   -8.0269   21.3543 C   0  0  0  0  0  0
  -21.9911   -9.0239   20.4642 C   0  0  0  0  0  0
  -22.7240  -10.2120   20.3056 C   0  0  0  0  0  0
  -21.6851   -6.0732   22.5281 C   0  0  0  0  0  0
  -21.4016   -6.5636   23.8214 C   0  0  0  0  0  0
  -21.3667   -5.6789   24.9176 C   0  0  0  0  0  0
  -21.6045   -4.3051   24.7227 C   0  0  0  0  0  0
  -21.8819   -3.8144   23.4347 C   0  0  0  0  0  0
  -21.9191   -4.6958   22.3405 C   0  0  0  0  0  0
  -22.7743  -13.5185   21.1912 C   0  0  0  0  0  0
  -22.1660   -4.2145   21.0981 F   0  0  0  0  0  0
  -21.5630   -3.4537   25.7741 F   0  0  0  0  0  0
  -29.8574  -13.9850   20.2838 N   0  0  0  0  0  0
  -26.2776  -12.9457   20.3241 N   0  0  0  0  0  0
  -25.9294  -11.6575   20.5737 N   0  0  0  0  0  0
  -22.0405  -12.8163   22.0462 N   0  0  0  0  0  0
  -25.4089  -15.1956   20.4262 N   0  0  0  0  0  0
  -31.6673  -15.2624   20.2929 O   0  0  0  0  0  0
  -21.6638   -6.8871   21.4241 O   0  0  0  0  0  0
  -22.3426  -14.5491   20.6755 O   0  0  0  0  0  0
  -24.6630  -31.8227   23.1693 C   0  0  0  0  0  0
  -25.9310  -32.4583   23.8155 C   0  0  1  0  0  0
  -27.2156  -26.9218   20.2005 C   0  0  0  0  0  0
  -25.5981  -33.8398   24.2059 N   0  0  0  0  0  0
  -23.4767  -30.4351   21.5190 C   0  0  2  0  0  0
  -24.9286  -28.8154   20.1207 C   0  0  0  0  0  0
  -22.7652  -29.4438   22.4770 C   0  0  0  0  0  0
  -18.0317  -28.1396   22.8468 C   0  0  0  0  0  0
  -24.1494  -36.7215   23.2643 C   0  0  0  0  0  0
  -26.0458  -30.6306   21.3968 C   0  0  0  0  0  0
  -26.1143  -29.2173   20.7483 C   0  0  0  0  0  0
  -27.2562  -28.2957   20.7541 C   0  0  0  0  0  0
  -25.9977  -26.6665   19.5332 C   0  0  0  0  0  0
  -24.8951  -27.5595   19.4935 C   0  0  0  0  0  0
  -23.7170  -29.7476   20.1470 C   0  0  0  0  0  0
  -25.4132  -36.2966   24.0292 C   0  0  1  0  0  0
  -20.5941  -28.3741   23.1183 C   0  0  2  0  0  0
  -20.6794  -26.9419   22.5398 C   0  0  0  0  0  0
  -19.5769  -26.6367   21.5209 C   0  0  0  0  0  0
  -18.1949  -26.7933   22.1616 C   0  0  0  0  0  0
  -19.1579  -28.8889   23.2815 C   0  0  0  0  0  0
  -18.9490  -30.1481   23.8849 C   0  0  0  0  0  0
  -17.6485  -30.6594   24.0548 C   0  0  0  0  0  0
  -25.9097  -34.9350   23.4995 C   0  0  0  0  0  0
  -16.5375  -29.9077   23.6344 C   0  0  0  0  0  0
  -16.7300  -28.6496   23.0367 C   0  0  0  0  0  0
  -26.4564  -31.6533   25.0688 C   0  0  0  0  0  0
  -25.3693  -31.3795   26.1350 C   0  0  0  0  0  0
  -27.0458  -30.2898   24.6424 C   0  0  0  0  0  0
  -27.6043  -32.4354   25.7501 C   0  0  0  0  0  0
  -27.5572  -37.1753   24.8455 C   0  0  0  0  0  0
  -21.4319  -29.3043   22.3532 N   0  0  0  0  0  0
  -26.4272  -37.3704   23.9412 N   0  0  0  0  0  0
  -24.7502  -30.9893   22.0826 N   0  0  0  0  0  0
  -23.4202  -28.7993   23.2999 O   0  0  0  0  0  0
  -28.2454  -25.8425   20.1857 O   0  0  0  0  0  0
  -26.5705  -34.8890   22.4590 O   0  0  0  0  0  0
  -23.5702  -32.1189   23.6795 O   0  0  0  0  0  0
  -28.1248  -17.8810   18.5731 C   0  0  0  0  0  0
  -28.6131  -19.3453   18.7790 C   0  0  0  0  0  0
  -29.1734  -16.7495   18.8223 C   0  0  0  0  0  0
  -29.8805  -18.1530   20.7111 C   0  0  0  0  0  0
  -28.9232  -19.5910   20.2538 C   0  0  1  0  0  0
  -30.4428  -21.4197   21.2257 C   0  0  0  0  0  0
  -28.5857  -22.6227   19.9284 C   0  0  0  0  0  0
  -28.1344  -24.2419   20.6078 C   0  0  0  0  0  0
  -29.6791  -16.5831   20.2069 N   0  0  0  0  0  0
  -29.0868  -21.2086   20.6823 N   0  3  1  0  0  0
  -31.4458  -13.0538   19.1596 H   0  0  0  0  0  0
  -30.5236  -11.9403   20.1268 H   0  0  0  0  0  0
  -29.9108  -11.7343   17.6875 H   0  0  0  0  0  0
  -29.5405  -13.4397   17.6218 H   0  0  0  0  0  0
  -28.0440  -11.2621   19.0990 H   0  0  0  0  0  0
  -27.4056  -12.3088   17.8576 H   0  0  0  0  0  0
  -27.4936  -14.2184   19.3009 H   0  0  0  0  0  0
  -28.8263  -12.5446   21.4830 H   0  0  0  0  0  0
  -28.2773  -14.1985   21.6606 H   0  0  0  0  0  0
  -25.2761   -9.5671   22.4758 H   0  0  0  0  0  0
  -24.0005   -7.4618   22.7463 H   0  0  0  0  0  0
  -21.0849   -8.8753   19.8938 H   0  0  0  0  0  0
  -22.3698  -10.9655   19.6164 H   0  0  0  0  0  0
  -21.2010   -7.6143   23.9720 H   0  0  0  0  0  0
  -21.1493   -6.0518   25.9082 H   0  0  0  0  0  0
  -22.0592   -2.7604   23.2850 H   0  0  0  0  0  0
  -22.4045  -11.9833   22.4851 H   0  0  0  0  0  0
  -21.1011  -13.1157   22.2670 H   0  0  0  0  0  0
  -24.6498  -15.8549   20.5571 H   0  0  0  0  0  0
  -26.2718  -15.6354   20.1344 H   0  0  0  0  0  0
  -26.7379  -32.5121   23.0868 H   0  0  0  0  0  0
  -25.0110  -33.9473   25.0199 H   0  0  0  0  0  0
  -22.7914  -31.2677   21.3469 H   0  0  0  0  0  0
  -23.3769  -35.9530   23.3264 H   0  0  0  0  0  0
  -24.3574  -36.8909   22.2066 H   0  0  0  0  0  0
  -23.7241  -37.6386   23.6732 H   0  0  0  0  0  0
  -26.2206  -31.3684   20.6125 H   0  0  0  0  0  0
  -26.9081  -30.6914   22.0489 H   0  0  0  0  0  0
  -28.1639  -28.6129   21.2474 H   0  0  0  0  0  0
  -25.8792  -25.7101   19.0440 H   0  0  0  0  0  0
  -23.9937  -27.2460   18.9850 H   0  0  0  0  0  0
  -23.8726  -30.5142   19.3866 H   0  0  0  0  0  0
  -22.8266  -29.2021   19.8308 H   0  0  0  0  0  0
  -25.1324  -36.1757   25.0781 H   0  0  0  0  0  0
  -21.0031  -28.3351   24.1304 H   0  0  0  0  0  0
  -20.5666  -26.2350   23.3631 H   0  0  0  0  0  0
  -21.6658  -26.7382   22.1207 H   0  0  0  0  0  0
  -19.6921  -25.6261   21.1277 H   0  0  0  0  0  0
  -19.6726  -27.3146   20.6714 H   0  0  0  0  0  0
  -17.4214  -26.6677   21.4024 H   0  0  0  0  0  0
  -18.0346  -26.0077   22.9013 H   0  0  0  0  0  0
  -19.7965  -30.7309   24.2200 H   0  0  0  0  0  0
  -17.5036  -31.6278   24.5141 H   0  0  0  0  0  0
  -15.5374  -30.2964   23.7697 H   0  0  0  0  0  0
  -15.8697  -28.0803   22.7108 H   0  0  0  0  0  0
  -24.5880  -30.7135   25.7672 H   0  0  0  0  0  0
  -24.8883  -32.3003   26.4655 H   0  0  0  0  0  0
  -25.7923  -30.9048   27.0210 H   0  0  0  0  0  0
  -26.3125  -29.6577   24.1404 H   0  0  0  0  0  0
  -27.3962  -29.7262   25.5083 H   0  0  0  0  0  0
  -27.9076  -30.4081   23.9852 H   0  0  0  0  0  0
  -27.2592  -33.3696   26.1947 H   0  0  0  0  0  0
  -28.3925  -32.6851   25.0386 H   0  0  0  0  0  0
  -28.0631  -31.8573   26.5533 H   0  0  0  0  0  0
  -28.2529  -38.0103   24.7538 H   0  0  0  0  0  0
  -28.1123  -36.2627   24.6229 H   0  0  0  0  0  0
  -27.2293  -37.1332   25.8856 H   0  0  0  0  0  0
  -20.9547  -29.8763   21.6702 H   0  0  0  0  0  0
  -26.0118  -38.2752   24.1461 H   0  0  0  0  0  0
  -27.7782  -17.7902   17.5428 H   0  0  0  0  0  0
  -27.2417  -17.6960   19.1870 H   0  0  0  0  0  0
  -27.8386  -20.0373   18.4471 H   0  0  0  0  0  0
  -29.4959  -19.5418   18.1700 H   0  0  0  0  0  0
  -30.0318  -16.9236   18.1698 H   0  0  0  0  0  0
  -28.7397  -15.8139   18.4716 H   0  0  0  0  0  0
  -29.8844  -18.1093   21.8006 H   0  0  0  0  0  0
  -30.9125  -18.3847   20.4475 H   0  0  0  0  0  0
  -27.9724  -19.3956   20.7514 H   0  0  0  0  0  0
  -30.6970  -20.6487   21.9534 H   0  0  0  0  0  0
  -30.5139  -22.3823   21.7328 H   0  0  0  0  0  0
  -31.1836  -21.3978   20.4271 H   0  0  0  0  0  0
  -29.3670  -22.8253   19.1962 H   0  0  0  0  0  0
  -27.7338  -22.3262   19.3171 H   0  0  0  0  0  0
  -28.6779  -24.2575   21.5518 H   0  0  0  0  0  0
  -27.0988  -24.1288   20.9284 H   0  0  0  0  0  0
  -28.5146  -21.2203   21.5151 H   0  0  0  0  0  0
  1 25  1  0  0  0
  1 30  2  0  0  0
  1 79  1  0  0  0
  2  3  1  0  0  0
  2 25  1  0  0  0
  2 81  1  0  0  0
  2 82  1  0  0  0
  3  4  1  0  0  0
  3 83  1  0  0  0
  3 84  1  0  0  0
  4  5  1  0  0  0
  4 85  1  0  0  0
  4 86  1  0  0  0
  5  6  1  0  0  0
  5 26  1  0  0  0
  5 87  1  0  0  0
  6 25  1  0  0  0
  6 88  1  0  0  0
  6 89  1  0  0  0
  7  8  2  0  0  0
  7 26  1  0  0  0
  7 29  1  0  0  0
  8  9  1  0  0  0
  8 22  1  0  0  0
  9 10  1  0  0  0
  9 27  2  0  0  0
 10 11  2  0  0  0
 10 15  1  0  0  0
 11 12  1  0  0  0
 11 90  1  0  0  0
 12 13  2  0  0  0
 12 91  1  0  0  0
 13 14  1  0  0  0
 13 31  1  0  0  0
 14 15  2  0  0  0
 14 92  1  0  0  0
 15 93  1  0  0  0
 16 17  2  0  0  0
 16 21  1  0  0  0
 16 31  1  0  0  0
 17 18  1  0  0  0
 17 94  1  0  0  0
 18 19  2  0  0  0
 18 95  1  0  0  0
 19 20  1  0  0  0
 19 24  1  0  0  0
 20 21  2  0  0  0
 20 96  1  0  0  0
 21 23  1  0  0  0
 22 28  1  0  0  0
 22 32  2  0  0  0
 26 27  1  0  0  0
 28 97  1  0  0  0
 28 98  1  0  0  0
 29 99  1  0  0  0
 29100  1  0  0  0
 33 34  1  0  0  0
 33 66  1  0  0  0
 33 70  2  0  0  0
 34 36  1  0  0  0
 34 59  1  0  0  0
 34101  1  0  0  0
 35 44  2  0  0  0
 35 45  1  0  0  0
 35 68  1  0  0  0
 36 56  1  0  0  0
 36102  1  0  0  0
 37 39  1  0  0  0
 37 47  1  0  0  0
 37 66  1  0  0  0
 37103  1  0  0  0
 38 43  2  0  0  0
 38 46  1  0  0  0
 38 47  1  0  0  0
 39 64  1  0  0  0
 39 67  2  0  0  0
 40 52  1  0  0  0
 40 53  2  0  0  0
 40 58  1  0  0  0
 41104  1  0  0  0
 41105  1  0  0  0
 41106  1  0  0  0
 41 48  1  0  0  0
 42 43  1  0  0  0
 42 66  1  0  0  0
 42107  1  0  0  0
 42108  1  0  0  0
 43 44  1  0  0  0
 44109  1  0  0  0
 45 46  2  0  0  0
 45110  1  0  0  0
 46111  1  0  0  0
 47112  1  0  0  0
 47113  1  0  0  0
 48 56  1  0  0  0
 48 65  1  0  0  0
 48114  1  0  0  0
 49 50  1  0  0  0
 49 53  1  0  0  0
 49 64  1  0  0  0
 49115  1  0  0  0
 50 51  1  0  0  0
 50116  1  0  0  0
 50117  1  0  0  0
 51 52  1  0  0  0
 51118  1  0  0  0
 51119  1  0  0  0
 52120  1  0  0  0
 52121  1  0  0  0
 53 54  1  0  0  0
 54 55  2  0  0  0
 54122  1  0  0  0
 55 57  1  0  0  0
 55123  1  0  0  0
 56 69  2  0  0  0
 57 58  2  0  0  0
 57124  1  0  0  0
 58125  1  0  0  0
 59 60  1  0  0  0
 59 61  1  0  0  0
 59 62  1  0  0  0
 60126  1  0  0  0
 60127  1  0  0  0
 60128  1  0  0  0
 61129  1  0  0  0
 61130  1  0  0  0
 61131  1  0  0  0
 62132  1  0  0  0
 62133  1  0  0  0
 62134  1  0  0  0
 63 65  1  0  0  0
 63135  1  0  0  0
 63136  1  0  0  0
 63137  1  0  0  0
 64138  1  0  0  0
 65139  1  0  0  0
 68 78  1  0  0  0
 71 72  1  0  0  0
 71 73  1  0  0  0
 71140  1  0  0  0
 71141  1  0  0  0
 72142  1  0  0  0
 72143  1  0  0  0
 72 75  1  0  0  0
 73 79  1  0  0  0
 73144  1  0  0  0
 73145  1  0  0  0
 74 75  1  0  0  0
 74 79  1  0  0  0
 74146  1  0  0  0
 74147  1  0  0  0
 75 80  1  0  0  0
 75148  1  0  0  0
 76149  1  0  0  0
 76150  1  0  0  0
 76151  1  0  0  0
 76 80  1  0  0  0
 77 78  1  0  0  0
 77 80  1  0  0  0
 77152  1  0  0  0
 77153  1  0  0  0
 78154  1  0  0  0
 78155  1  0  0  0
 80156  1  0  0  0
M  CHG  1  80   1
M  ISO  4   1 100  68 101  78 101  79 100
M  END
> <chiral flag>
0

> <version>
0

> <s_m_source_file>
/data/baiqing/PycharmProjects/Reinvent-master-3.2/result/LINK_invent/BTK/process_docking_weight1_custom_product_contain_oxygen_bond_distance_aromatic_linkinvent_7_9_3/rearranged_h_0008.sdf

> <i_m_source_file_index>
50

> <r_mmod_Potential_Energy-OPLS-2005>
1457.23352050781

> <r_mmod_Stretch_Energy-OPLS-2005>
617.609191894531

> <r_mmod_Bend_Energy-OPLS-2005>
479.901336669922

> <r_mmod_Torsional_Energy-OPLS-2005>
370.177734375

> <r_mmod_Improper_Torsional_Energy-OPLS-2005>
10.1959438323975

> <r_mmod_Van_der_Waal_Energy-OPLS-2005>
106.011657714844

> <r_mmod_Electrostatic_Energy-OPLS-2005>
-169.547958374023

> <r_mmod_Solvation_Energy-OPLS-2005>
-430.953826904297

> <b_mmod_Minimization_Converged-OPLS-2005>
0

> <r_mmod_RMS_Derivative-OPLS-2005>
0.96895831823349

$$$$
51
                    3D
 Structure written by MMmdl.
155163  0  0  1  0            999 V2000
  -30.6113  -14.8391   20.2549 C   0  0  0  0  0  0
  -30.4385  -12.4975   19.4436 C   0  0  0  0  0  0
  -29.4982  -12.4307   18.2244 C   0  0  0  0  0  0
  -28.0429  -12.2407   18.6855 C   0  0  0  0  0  0
  -27.6310  -13.2244   19.8128 C   0  0  2  0  0  0
  -28.6957  -13.2922   20.9284 C   0  0  0  0  0  0
  -25.2553  -13.8193   20.5733 C   0  0  0  0  0  0
  -24.1833  -13.0455   20.9253 C   0  0  0  0  0  0
  -24.6403  -11.6928   20.8800 C   0  0  0  0  0  0
  -23.9071  -10.4311   21.0442 C   0  0  0  0  0  0
  -24.3625   -9.4218   21.9205 C   0  0  0  0  0  0
  -23.6300   -8.2249   22.0762 C   0  0  0  0  0  0
  -22.4283   -8.0290   21.3549 C   0  0  0  0  0  0
  -21.9923   -9.0272   20.4656 C   0  0  0  0  0  0
  -22.7251  -10.2157   20.3080 C   0  0  0  0  0  0
  -21.6854   -6.0747   22.5279 C   0  0  0  0  0  0
  -21.4007   -6.5645   23.8212 C   0  0  0  0  0  0
  -21.3654   -5.6794   24.9174 C   0  0  0  0  0  0
  -21.6044   -4.3059   24.7224 C   0  0  0  0  0  0
  -21.8821   -3.8156   23.4345 C   0  0  0  0  0  0
  -21.9195   -4.6976   22.3402 C   0  0  0  0  0  0
  -22.7858  -13.5259   21.1870 C   0  0  0  0  0  0
  -22.1666   -4.2159   21.0978 F   0  0  0  0  0  0
  -21.5631   -3.4541   25.7735 F   0  0  0  0  0  0
  -29.9707  -13.6243   20.2798 N   0  0  0  0  0  0
  -26.2946  -12.9369   20.3267 N   0  0  0  0  0  0
  -25.9334  -11.6546   20.5819 N   0  0  0  0  0  0
  -22.0484  -12.8252   22.0409 N   0  0  0  0  0  0
  -25.4256  -15.1925   20.4124 N   0  0  0  0  0  0
  -31.8399  -14.8678   20.1616 O   0  0  0  0  0  0
  -21.6644   -6.8892   21.4244 O   0  0  0  0  0  0
  -22.3542  -14.5560   20.6706 O   0  0  0  0  0  0
  -24.6296  -31.8474   23.1734 C   0  0  0  0  0  0
  -25.9152  -32.4602   23.8154 C   0  0  1  0  0  0
  -27.2451  -27.2969   20.0001 C   0  0  0  0  0  0
  -25.5941  -33.8419   24.2218 N   0  0  0  0  0  0
  -23.4175  -30.4642   21.5216 C   0  0  2  0  0  0
  -24.8590  -28.8825   20.1358 C   0  0  0  0  0  0
  -22.7347  -29.4674   22.4744 C   0  0  0  0  0  0
  -18.0338  -28.1438   22.8412 C   0  0  0  0  0  0
  -24.1584  -36.7306   23.2605 C   0  0  0  0  0  0
  -25.9666  -30.7798   21.3579 C   0  0  0  0  0  0
  -26.0415  -29.3910   20.6942 C   0  0  0  0  0  0
  -27.2275  -28.5977   20.6283 C   0  0  0  0  0  0
  -26.0462  -26.8636   19.4293 C   0  0  0  0  0  0
  -24.8693  -27.6119   19.5263 C   0  0  0  0  0  0
  -23.6260  -29.7476   20.1664 C   0  0  0  0  0  0
  -25.4163  -36.2963   24.0291 C   0  0  1  0  0  0
  -20.5912  -28.3833   23.1084 C   0  0  2  0  0  0
  -20.6885  -26.9545   22.5249 C   0  0  0  0  0  0
  -19.5879  -26.6456   21.5075 C   0  0  0  0  0  0
  -18.2040  -26.7990   22.1524 C   0  0  0  0  0  0
  -19.1590  -28.8937   23.2784 C   0  0  0  0  0  0
  -18.9522  -30.1527   23.8828 C   0  0  0  0  0  0
  -17.6511  -30.6603   24.0568 C   0  0  0  0  0  0
  -25.9059  -34.9341   23.5058 C   0  0  0  0  0  0
  -16.5424  -29.9103   23.6382 C   0  0  0  0  0  0
  -16.7300  -28.6571   23.0344 C   0  0  0  0  0  0
  -26.4648  -31.6408   25.0579 C   0  0  0  0  0  0
  -25.3872  -31.3643   26.1324 C   0  0  0  0  0  0
  -27.0468  -30.2708   24.6122 C   0  0  0  0  0  0
  -27.6155  -32.4126   25.7330 C   0  0  0  0  0  0
  -27.5577  -37.1746   24.8402 C   0  0  0  0  0  0
  -21.4051  -29.3171   22.3381 N   0  0  0  0  0  0
  -26.4296  -37.3658   23.9375 N   0  0  0  0  0  0
  -24.6919  -31.0387   22.0703 N   0  0  0  0  0  0
  -23.4016  -28.8233   23.2910 O   0  0  0  0  0  0
  -28.4309  -26.5367   19.8634 O   0  0  0  0  0  0
  -26.5590  -34.8819   22.4573 O   0  0  0  0  0  0
  -23.5491  -32.1280   23.7051 O   0  0  0  0  0  0
  -30.7410  -19.9015   19.1848 C   0  0  0  0  0  0
  -28.5175  -19.1127   18.9202 C   0  0  0  0  0  0
  -30.3487  -21.2126   18.7737 C   0  0  0  0  0  0
  -28.1197  -20.4493   18.5067 C   0  0  0  0  0  0
  -29.8583  -18.7901   19.2930 C   0  0  0  0  0  0
  -29.0167  -21.5671   18.4664 C   0  0  0  0  0  0
  -29.3280  -23.2952   16.7254 C   0  0  0  0  0  0
  -30.4873  -17.4223   19.8801 C   0  0  0  0  0  0
  -27.9066  -24.0057   18.6894 C   0  0  0  0  0  0
  -28.6098  -25.0460   19.7126 C   0  0  0  0  0  0
  -29.8815  -16.0163   20.0323 N   0  0  0  0  0  0
  -28.7334  -22.9192   18.0271 N   0  0  0  0  0  0
  -31.4715  -12.6289   19.1172 H   0  0  0  0  0  0
  -30.4136  -11.5750   20.0242 H   0  0  0  0  0  0
  -29.7953  -11.6043   17.5818 H   0  0  0  0  0  0
  -29.5820  -13.3366   17.6208 H   0  0  0  0  0  0
  -27.9707  -11.2202   19.0655 H   0  0  0  0  0  0
  -27.3521  -12.2955   17.8452 H   0  0  0  0  0  0
  -27.5826  -14.2062   19.3402 H   0  0  0  0  0  0
  -28.7823  -12.3469   21.4640 H   0  0  0  0  0  0
  -28.4374  -14.0537   21.6675 H   0  0  0  0  0  0
  -25.2774   -9.5689   22.4779 H   0  0  0  0  0  0
  -24.0013   -7.4637   22.7478 H   0  0  0  0  0  0
  -21.0858   -8.8802   19.8954 H   0  0  0  0  0  0
  -22.3718  -10.9705   19.6193 H   0  0  0  0  0  0
  -21.1987   -7.6150   23.9719 H   0  0  0  0  0  0
  -21.1470   -6.0523   25.9078 H   0  0  0  0  0  0
  -22.0603   -2.7616   23.2841 H   0  0  0  0  0  0
  -22.4098  -11.9916   22.4808 H   0  0  0  0  0  0
  -21.1087  -13.1278   22.2595 H   0  0  0  0  0  0
  -24.6623  -15.8481   20.5368 H   0  0  0  0  0  0
  -26.2752  -15.6338   20.0884 H   0  0  0  0  0  0
  -26.7156  -32.5313   23.0800 H   0  0  0  0  0  0
  -25.0222  -33.9596   25.0441 H   0  0  0  0  0  0
  -22.7142  -31.2830   21.3242 H   0  0  0  0  0  0
  -23.3745  -35.9660   23.3137 H   0  0  0  0  0  0
  -24.3670  -36.9070   22.2014 H   0  0  0  0  0  0
  -23.7400  -37.6474   23.6778 H   0  0  0  0  0  0
  -26.1466  -31.5647   20.6110 H   0  0  0  0  0  0
  -26.8242  -30.7791   22.0113 H   0  0  0  0  0  0
  -28.1533  -28.9605   21.0343 H   0  0  0  0  0  0
  -25.9920  -25.9674   18.8050 H   0  0  0  0  0  0
  -23.9909  -27.1649   19.0678 H   0  0  0  0  0  0
  -23.6884  -30.4859   19.3635 H   0  0  0  0  0  0
  -22.7350  -29.1528   19.9164 H   0  0  0  0  0  0
  -25.1372  -36.1728   25.0724 H   0  0  0  0  0  0
  -21.0192  -28.3653   24.1127 H   0  0  0  0  0  0
  -20.5796  -26.2505   23.3507 H   0  0  0  0  0  0
  -21.6753  -26.7568   22.1039 H   0  0  0  0  0  0
  -19.7039  -25.6358   21.1175 H   0  0  0  0  0  0
  -19.6841  -27.3191   20.6557 H   0  0  0  0  0  0
  -17.4271  -26.6581   21.3963 H   0  0  0  0  0  0
  -18.0524  -26.0175   22.9012 H   0  0  0  0  0  0
  -19.7989  -30.7338   24.2080 H   0  0  0  0  0  0
  -17.5109  -31.6249   24.5248 H   0  0  0  0  0  0
  -15.5418  -30.3016   23.7777 H   0  0  0  0  0  0
  -15.8686  -28.0851   22.7121 H   0  0  0  0  0  0
  -24.5855  -30.7227   25.7683 H   0  0  0  0  0  0
  -24.9430  -32.2949   26.4814 H   0  0  0  0  0  0
  -25.8217  -30.8695   26.9974 H   0  0  0  0  0  0
  -26.3087  -29.6183   24.1407 H   0  0  0  0  0  0
  -27.4337  -29.7179   25.4706 H   0  0  0  0  0  0
  -27.8849  -30.3800   23.9201 H   0  0  0  0  0  0
  -27.2674  -33.3291   26.1974 H   0  0  0  0  0  0
  -28.3907  -32.6745   25.0172 H   0  0  0  0  0  0
  -28.0839  -31.8192   26.5134 H   0  0  0  0  0  0
  -28.2522  -38.0160   24.7515 H   0  0  0  0  0  0
  -28.1253  -36.2641   24.6240 H   0  0  0  0  0  0
  -27.2315  -37.1346   25.8830 H   0  0  0  0  0  0
  -20.9140  -29.8503   21.6284 H   0  0  0  0  0  0
  -26.0187  -38.2664   24.1377 H   0  0  0  0  0  0
  -31.7754  -19.7759   19.4746 H   0  0  0  0  0  0
  -27.7578  -18.3514   18.9917 H   0  0  0  0  0  0
  -31.1069  -21.9790   18.7025 H   0  0  0  0  0  0
  -27.0958  -20.5910   18.1854 H   0  0  0  0  0  0
  -29.7666  -22.4409   16.2070 H   0  0  0  0  0  0
  -30.0888  -24.0709   16.8074 H   0  0  0  0  0  0
  -28.5676  -23.6830   16.0433 H   0  0  0  0  0  0
  -30.7953  -17.7125   20.8833 H   0  0  0  0  0  0
  -31.4243  -17.3050   19.3344 H   0  0  0  0  0  0
  -27.4553  -24.5652   17.8694 H   0  0  0  0  0  0
  -27.0811  -23.5291   19.2124 H   0  0  0  0  0  0
  -28.5534  -24.6077   20.7178 H   0  0  0  0  0  0
  -29.6766  -24.9717   19.5415 H   0  0  0  0  0  0
  -28.8817  -15.9486   19.9769 H   0  0  0  0  0  0
  1 25  1  0  0  0
  1 30  2  0  0  0
  1 81  1  0  0  0
  2  3  1  0  0  0
  2 25  1  0  0  0
  2 83  1  0  0  0
  2 84  1  0  0  0
  3  4  1  0  0  0
  3 85  1  0  0  0
  3 86  1  0  0  0
  4  5  1  0  0  0
  4 87  1  0  0  0
  4 88  1  0  0  0
  5  6  1  0  0  0
  5 26  1  0  0  0
  5 89  1  0  0  0
  6 25  1  0  0  0
  6 90  1  0  0  0
  6 91  1  0  0  0
  7  8  2  0  0  0
  7 26  1  0  0  0
  7 29  1  0  0  0
  8  9  1  0  0  0
  8 22  1  0  0  0
  9 10  1  0  0  0
  9 27  2  0  0  0
 10 11  2  0  0  0
 10 15  1  0  0  0
 11 12  1  0  0  0
 11 92  1  0  0  0
 12 13  2  0  0  0
 12 93  1  0  0  0
 13 14  1  0  0  0
 13 31  1  0  0  0
 14 15  2  0  0  0
 14 94  1  0  0  0
 15 95  1  0  0  0
 16 17  2  0  0  0
 16 21  1  0  0  0
 16 31  1  0  0  0
 17 18  1  0  0  0
 17 96  1  0  0  0
 18 19  2  0  0  0
 18 97  1  0  0  0
 19 20  1  0  0  0
 19 24  1  0  0  0
 20 21  2  0  0  0
 20 98  1  0  0  0
 21 23  1  0  0  0
 22 28  1  0  0  0
 22 32  2  0  0  0
 26 27  1  0  0  0
 28 99  1  0  0  0
 28100  1  0  0  0
 29101  1  0  0  0
 29102  1  0  0  0
 33 34  1  0  0  0
 33 66  1  0  0  0
 33 70  2  0  0  0
 34 36  1  0  0  0
 34 59  1  0  0  0
 34103  1  0  0  0
 35 44  2  0  0  0
 35 45  1  0  0  0
 35 68  1  0  0  0
 36 56  1  0  0  0
 36104  1  0  0  0
 37 39  1  0  0  0
 37 47  1  0  0  0
 37 66  1  0  0  0
 37105  1  0  0  0
 38 43  2  0  0  0
 38 46  1  0  0  0
 38 47  1  0  0  0
 39 64  1  0  0  0
 39 67  2  0  0  0
 40 52  1  0  0  0
 40 53  2  0  0  0
 40 58  1  0  0  0
 41106  1  0  0  0
 41107  1  0  0  0
 41108  1  0  0  0
 41 48  1  0  0  0
 42 43  1  0  0  0
 42 66  1  0  0  0
 42109  1  0  0  0
 42110  1  0  0  0
 43 44  1  0  0  0
 44111  1  0  0  0
 45 46  2  0  0  0
 45112  1  0  0  0
 46113  1  0  0  0
 47114  1  0  0  0
 47115  1  0  0  0
 48 56  1  0  0  0
 48 65  1  0  0  0
 48116  1  0  0  0
 49 50  1  0  0  0
 49 53  1  0  0  0
 49 64  1  0  0  0
 49117  1  0  0  0
 50 51  1  0  0  0
 50118  1  0  0  0
 50119  1  0  0  0
 51 52  1  0  0  0
 51120  1  0  0  0
 51121  1  0  0  0
 52122  1  0  0  0
 52123  1  0  0  0
 53 54  1  0  0  0
 54 55  2  0  0  0
 54124  1  0  0  0
 55 57  1  0  0  0
 55125  1  0  0  0
 56 69  2  0  0  0
 57 58  2  0  0  0
 57126  1  0  0  0
 58127  1  0  0  0
 59 60  1  0  0  0
 59 61  1  0  0  0
 59 62  1  0  0  0
 60128  1  0  0  0
 60129  1  0  0  0
 60130  1  0  0  0
 61131  1  0  0  0
 61132  1  0  0  0
 61133  1  0  0  0
 62134  1  0  0  0
 62135  1  0  0  0
 62136  1  0  0  0
 63 65  1  0  0  0
 63137  1  0  0  0
 63138  1  0  0  0
 63139  1  0  0  0
 64140  1  0  0  0
 65141  1  0  0  0
 68 80  1  0  0  0
 71 73  2  0  0  0
 71 75  1  0  0  0
 71142  1  0  0  0
 72 74  1  0  0  0
 72 75  2  0  0  0
 72143  1  0  0  0
 73 76  1  0  0  0
 73144  1  0  0  0
 74 76  2  0  0  0
 74145  1  0  0  0
 75 78  1  0  0  0
 76 82  1  0  0  0
 77 82  1  0  0  0
 77146  1  0  0  0
 77147  1  0  0  0
 77148  1  0  0  0
 78 81  1  0  0  0
 78149  1  0  0  0
 78150  1  0  0  0
 79 80  1  0  0  0
 79 82  1  0  0  0
 79151  1  0  0  0
 79152  1  0  0  0
 80153  1  0  0  0
 80154  1  0  0  0
 81155  1  0  0  0
M  ISO  4   1 100  68 101  80 101  81 100
M  END
> <chiral flag>
0

> <version>
0

> <s_m_source_file>
/data/baiqing/PycharmProjects/Reinvent-master-3.2/result/LINK_invent/BTK/process_docking_weight1_custom_product_contain_oxygen_bond_distance_aromatic_linkinvent_7_9_3/rearranged_h_0008.sdf

> <i_m_source_file_index>
51

> <r_mmod_Potential_Energy-OPLS-2005>
296.880889892578

> <r_mmod_Stretch_Energy-OPLS-2005>
131.293899536133

> <r_mmod_Bend_Energy-OPLS-2005>
272.573272705078

> <r_mmod_Torsional_Energy-OPLS-2005>
243.934371948242

> <r_mmod_Improper_Torsional_Energy-OPLS-2005>
8.0540246963501

> <r_mmod_Van_der_Waal_Energy-OPLS-2005>
134.328994750977

> <r_mmod_Electrostatic_Energy-OPLS-2005>
-393.064025878906

> <r_mmod_Solvation_Energy-OPLS-2005>
-223.035095214844

> <b_mmod_Minimization_Converged-OPLS-2005>
0

> <r_mmod_RMS_Derivative-OPLS-2005>
22.6596088409424

$$$$
52
                    3D
 Structure written by MMmdl.
148156  0  0  1  0            999 V2000
  -30.5228  -14.9167   20.4313 C   0  0  0  0  0  0
  -30.4527  -12.5651   19.4877 C   0  0  0  0  0  0
  -29.5223  -12.5321   18.2510 C   0  0  0  0  0  0
  -28.0527  -12.3252   18.6684 C   0  0  0  0  0  0
  -27.6371  -13.2417   19.8490 C   0  0  2  0  0  0
  -28.6854  -13.2233   20.9832 C   0  0  0  0  0  0
  -25.2448  -13.8158   20.5686 C   0  0  0  0  0  0
  -24.1761  -13.0385   20.9174 C   0  0  0  0  0  0
  -24.6398  -11.6886   20.8731 C   0  0  0  0  0  0
  -23.9080  -10.4267   21.0394 C   0  0  0  0  0  0
  -24.3625   -9.4188   21.9179 C   0  0  0  0  0  0
  -23.6292   -8.2230   22.0755 C   0  0  0  0  0  0
  -22.4274   -8.0271   21.3544 C   0  0  0  0  0  0
  -21.9911   -9.0243   20.4644 C   0  0  0  0  0  0
  -22.7248  -10.2114   20.3049 C   0  0  0  0  0  0
  -21.6850   -6.0728   22.5280 C   0  0  0  0  0  0
  -21.4012   -6.5634   23.8212 C   0  0  0  0  0  0
  -21.3660   -5.6789   24.9174 C   0  0  0  0  0  0
  -21.6045   -4.3052   24.7226 C   0  0  0  0  0  0
  -21.8819   -3.8143   23.4348 C   0  0  0  0  0  0
  -21.9192   -4.6957   22.3403 C   0  0  0  0  0  0
  -22.7788  -13.5170   21.1852 C   0  0  0  0  0  0
  -22.1660   -4.2142   21.0982 F   0  0  0  0  0  0
  -21.5629   -3.4538   25.7740 F   0  0  0  0  0  0
  -29.9694  -13.6394   20.3971 N   0  0  0  0  0  0
  -26.2925  -12.9417   20.3307 N   0  0  0  0  0  0
  -25.9345  -11.6543   20.5765 N   0  0  0  0  0  0
  -22.0456  -12.8166   22.0431 N   0  0  0  0  0  0
  -25.3980  -15.1883   20.4162 N   0  0  0  0  0  0
  -31.7121  -15.0435   20.1228 O   0  0  0  0  0  0
  -21.6635   -6.8872   21.4244 O   0  0  0  0  0  0
  -22.3462  -14.5480   20.6716 O   0  0  0  0  0  0
  -24.6428  -31.8455   23.1893 C   0  0  0  0  0  0
  -25.9209  -32.4700   23.8276 C   0  0  1  0  0  0
  -27.2212  -27.1510   20.1471 C   0  0  0  0  0  0
  -25.5964  -33.8504   24.2195 N   0  0  0  0  0  0
  -23.4449  -30.4655   21.5359 C   0  0  2  0  0  0
  -24.8944  -28.8950   20.1116 C   0  0  0  0  0  0
  -22.7562  -29.4554   22.4876 C   0  0  0  0  0  0
  -18.0303  -28.1391   22.8474 C   0  0  0  0  0  0
  -24.1491  -36.7254   23.2643 C   0  0  0  0  0  0
  -26.0006  -30.7234   21.3865 C   0  0  0  0  0  0
  -26.0726  -29.3366   20.7270 C   0  0  0  0  0  0
  -27.2368  -28.4816   20.7267 C   0  0  0  0  0  0
  -26.0137  -26.8076   19.4968 C   0  0  0  0  0  0
  -24.8771  -27.6429   19.4817 C   0  0  0  0  0  0
  -23.6701  -29.7953   20.1550 C   0  0  0  0  0  0
  -25.4124  -36.3031   24.0314 C   0  0  1  0  0  0
  -20.5913  -28.3716   23.1235 C   0  0  2  0  0  0
  -20.6789  -26.9421   22.5402 C   0  0  0  0  0  0
  -19.5763  -26.6379   21.5207 C   0  0  0  0  0  0
  -18.1943  -26.7929   22.1619 C   0  0  0  0  0  0
  -19.1560  -28.8871   23.2842 C   0  0  0  0  0  0
  -18.9482  -30.1469   23.8864 C   0  0  0  0  0  0
  -17.6481  -30.6589   24.0555 C   0  0  0  0  0  0
  -25.9077  -34.9407   23.5060 C   0  0  0  0  0  0
  -16.5369  -29.9083   23.6336 C   0  0  0  0  0  0
  -16.7289  -28.6501   23.0355 C   0  0  0  0  0  0
  -26.4531  -31.6565   25.0715 C   0  0  0  0  0  0
  -25.3716  -31.3757   26.1412 C   0  0  0  0  0  0
  -27.0405  -30.2964   24.6293 C   0  0  0  0  0  0
  -27.6058  -32.4335   25.7502 C   0  0  0  0  0  0
  -27.5572  -37.1784   24.8468 C   0  0  0  0  0  0
  -21.4257  -29.3048   22.3615 N   0  0  0  0  0  0
  -26.4286  -37.3746   23.9406 N   0  0  0  0  0  0
  -24.7159  -31.0322   22.0923 N   0  0  0  0  0  0
  -23.4206  -28.8102   23.3024 O   0  0  0  0  0  0
  -28.2815  -26.1757   20.2129 O   0  0  0  0  0  0
  -26.5659  -34.8900   22.4636 O   0  0  0  0  0  0
  -23.5548  -32.1335   23.7117 O   0  0  0  0  0  0
  -27.9545  -19.4976   20.6062 C   0  0  0  0  0  0
  -30.2294  -19.9959   20.2757 C   0  0  0  0  0  0
  -29.5582  -17.5258   20.5345 C   0  0  0  0  0  0
  -28.9008  -20.5481   20.4056 C   0  0  0  0  0  0
  -28.2565  -18.0910   20.6717 C   0  0  0  0  0  0
  -30.5473  -18.5603   20.3325 C   0  0  0  0  0  0
  -27.9825  -24.6539   20.1089 C   0  0  0  0  0  0
  -28.9862  -23.3142   20.3044 C   0  0  0  0  0  0
  -29.6483  -16.0013   20.6502 N   0  0  0  0  0  0
  -28.3697  -21.9133   20.3406 O   0  0  0  0  0  0
  -27.2305  -17.2317   20.8750 F   0  0  0  0  0  0
  -31.8433  -18.1912   20.1953 F   0  0  0  0  0  0
  -31.4836  -12.7360   19.1734 H   0  0  0  0  0  0
  -30.4520  -11.6013   19.9993 H   0  0  0  0  0  0
  -29.8312  -11.7411   17.5661 H   0  0  0  0  0  0
  -29.6158  -13.4680   17.6981 H   0  0  0  0  0  0
  -27.9382  -11.2801   18.9580 H   0  0  0  0  0  0
  -27.3899  -12.4788   17.8159 H   0  0  0  0  0  0
  -27.6087  -14.2533   19.4431 H   0  0  0  0  0  0
  -28.7637  -12.2292   21.4259 H   0  0  0  0  0  0
  -28.3912  -13.8934   21.7926 H   0  0  0  0  0  0
  -25.2769   -9.5662   22.4755 H   0  0  0  0  0  0
  -23.9993   -7.4622   22.7481 H   0  0  0  0  0  0
  -21.0840   -8.8767   19.8953 H   0  0  0  0  0  0
  -22.3712  -10.9652   19.6157 H   0  0  0  0  0  0
  -21.2007   -7.6142   23.9711 H   0  0  0  0  0  0
  -21.1481   -6.0521   25.9077 H   0  0  0  0  0  0
  -22.0600   -2.7605   23.2852 H   0  0  0  0  0  0
  -22.4085  -11.9830   22.4812 H   0  0  0  0  0  0
  -21.1083  -13.1194   22.2663 H   0  0  0  0  0  0
  -24.6245  -15.8238   20.5731 H   0  0  0  0  0  0
  -26.2675  -15.6807   20.2466 H   0  0  0  0  0  0
  -26.7276  -32.5313   23.1006 H   0  0  0  0  0  0
  -25.0101  -33.9624   25.0335 H   0  0  0  0  0  0
  -22.7461  -31.2907   21.3828 H   0  0  0  0  0  0
  -23.3755  -35.9585   23.3307 H   0  0  0  0  0  0
  -24.3578  -36.8885   22.2058 H   0  0  0  0  0  0
  -23.7241  -37.6446   23.6684 H   0  0  0  0  0  0
  -26.1550  -31.4790   20.6151 H   0  0  0  0  0  0
  -26.8708  -30.7721   22.0293 H   0  0  0  0  0  0
  -28.1343  -28.8162   21.2277 H   0  0  0  0  0  0
  -25.9066  -25.8535   19.0054 H   0  0  0  0  0  0
  -23.9780  -27.2978   18.9900 H   0  0  0  0  0  0
  -23.8054  -30.5707   19.4003 H   0  0  0  0  0  0
  -22.7848  -29.2374   19.8444 H   0  0  0  0  0  0
  -25.1307  -36.1863   25.0806 H   0  0  0  0  0  0
  -20.9996  -28.3311   24.1359 H   0  0  0  0  0  0
  -20.5682  -26.2333   23.3623 H   0  0  0  0  0  0
  -21.6656  -26.7433   22.1198 H   0  0  0  0  0  0
  -19.6928  -25.6283   21.1256 H   0  0  0  0  0  0
  -19.6700  -27.3170   20.6719 H   0  0  0  0  0  0
  -17.4211  -26.6668   21.4024 H   0  0  0  0  0  0
  -18.0345  -26.0073   22.9017 H   0  0  0  0  0  0
  -19.7961  -30.7288   24.2218 H   0  0  0  0  0  0
  -17.5039  -31.6268   24.5163 H   0  0  0  0  0  0
  -15.5367  -30.2973   23.7687 H   0  0  0  0  0  0
  -15.8688  -28.0812   22.7085 H   0  0  0  0  0  0
  -24.5897  -30.7101   25.7737 H   0  0  0  0  0  0
  -24.8902  -32.2942   26.4781 H   0  0  0  0  0  0
  -25.7994  -30.8970   27.0229 H   0  0  0  0  0  0
  -26.3028  -29.6681   24.1289 H   0  0  0  0  0  0
  -27.4016  -29.7264   25.4865 H   0  0  0  0  0  0
  -27.8932  -30.4208   23.9614 H   0  0  0  0  0  0
  -27.2650  -33.3660   26.2015 H   0  0  0  0  0  0
  -28.3902  -32.6859   25.0355 H   0  0  0  0  0  0
  -28.0692  -31.8506   26.5474 H   0  0  0  0  0  0
  -28.2587  -38.0082   24.7503 H   0  0  0  0  0  0
  -28.1068  -36.2608   24.6312 H   0  0  0  0  0  0
  -27.2290  -37.1447   25.8873 H   0  0  0  0  0  0
  -20.9472  -29.8764   21.6795 H   0  0  0  0  0  0
  -26.0153  -38.2813   24.1409 H   0  0  0  0  0  0
  -26.9177  -19.7781   20.7194 H   0  0  0  0  0  0
  -31.0484  -20.6814   20.1165 H   0  0  0  0  0  0
  -27.1596  -24.4925   20.8063 H   0  0  0  0  0  0
  -27.5501  -24.5063   19.1205 H   0  0  0  0  0  0
  -29.5391  -23.4368   21.2357 H   0  0  0  0  0  0
  -29.7356  -23.3258   19.5129 H   0  0  0  0  0  0
  -28.7382  -15.6339   20.8804 H   0  0  0  0  0  0
  1 25  1  0  0  0
  1 30  2  0  0  0
  1 79  1  0  0  0
  2  3  1  0  0  0
  2 25  1  0  0  0
  2 83  1  0  0  0
  2 84  1  0  0  0
  3  4  1  0  0  0
  3 85  1  0  0  0
  3 86  1  0  0  0
  4  5  1  0  0  0
  4 87  1  0  0  0
  4 88  1  0  0  0
  5  6  1  0  0  0
  5 26  1  0  0  0
  5 89  1  0  0  0
  6 25  1  0  0  0
  6 90  1  0  0  0
  6 91  1  0  0  0
  7  8  2  0  0  0
  7 26  1  0  0  0
  7 29  1  0  0  0
  8  9  1  0  0  0
  8 22  1  0  0  0
  9 10  1  0  0  0
  9 27  2  0  0  0
 10 11  2  0  0  0
 10 15  1  0  0  0
 11 12  1  0  0  0
 11 92  1  0  0  0
 12 13  2  0  0  0
 12 93  1  0  0  0
 13 14  1  0  0  0
 13 31  1  0  0  0
 14 15  2  0  0  0
 14 94  1  0  0  0
 15 95  1  0  0  0
 16 17  2  0  0  0
 16 21  1  0  0  0
 16 31  1  0  0  0
 17 18  1  0  0  0
 17 96  1  0  0  0
 18 19  2  0  0  0
 18 97  1  0  0  0
 19 20  1  0  0  0
 19 24  1  0  0  0
 20 21  2  0  0  0
 20 98  1  0  0  0
 21 23  1  0  0  0
 22 28  1  0  0  0
 22 32  2  0  0  0
 26 27  1  0  0  0
 28 99  1  0  0  0
 28100  1  0  0  0
 29101  1  0  0  0
 29102  1  0  0  0
 33 34  1  0  0  0
 33 66  1  0  0  0
 33 70  2  0  0  0
 34 36  1  0  0  0
 34 59  1  0  0  0
 34103  1  0  0  0
 35 44  2  0  0  0
 35 45  1  0  0  0
 35 68  1  0  0  0
 36 56  1  0  0  0
 36104  1  0  0  0
 37 39  1  0  0  0
 37 47  1  0  0  0
 37 66  1  0  0  0
 37105  1  0  0  0
 38 43  2  0  0  0
 38 46  1  0  0  0
 38 47  1  0  0  0
 39 64  1  0  0  0
 39 67  2  0  0  0
 40 52  1  0  0  0
 40 53  2  0  0  0
 40 58  1  0  0  0
 41106  1  0  0  0
 41107  1  0  0  0
 41108  1  0  0  0
 41 48  1  0  0  0
 42 43  1  0  0  0
 42 66  1  0  0  0
 42109  1  0  0  0
 42110  1  0  0  0
 43 44  1  0  0  0
 44111  1  0  0  0
 45 46  2  0  0  0
 45112  1  0  0  0
 46113  1  0  0  0
 47114  1  0  0  0
 47115  1  0  0  0
 48 56  1  0  0  0
 48 65  1  0  0  0
 48116  1  0  0  0
 49 50  1  0  0  0
 49 53  1  0  0  0
 49 64  1  0  0  0
 49117  1  0  0  0
 50 51  1  0  0  0
 50118  1  0  0  0
 50119  1  0  0  0
 51 52  1  0  0  0
 51120  1  0  0  0
 51121  1  0  0  0
 52122  1  0  0  0
 52123  1  0  0  0
 53 54  1  0  0  0
 54 55  2  0  0  0
 54124  1  0  0  0
 55 57  1  0  0  0
 55125  1  0  0  0
 56 69  2  0  0  0
 57 58  2  0  0  0
 57126  1  0  0  0
 58127  1  0  0  0
 59 60  1  0  0  0
 59 61  1  0  0  0
 59 62  1  0  0  0
 60128  1  0  0  0
 60129  1  0  0  0
 60130  1  0  0  0
 61131  1  0  0  0
 61132  1  0  0  0
 61133  1  0  0  0
 62134  1  0  0  0
 62135  1  0  0  0
 62136  1  0  0  0
 63 65  1  0  0  0
 63137  1  0  0  0
 63138  1  0  0  0
 63139  1  0  0  0
 64140  1  0  0  0
 65141  1  0  0  0
 68 77  1  0  0  0
 71 74  2  0  0  0
 71 75  1  0  0  0
 71142  1  0  0  0
 72 74  1  0  0  0
 72 76  2  0  0  0
 72143  1  0  0  0
 73 75  2  0  0  0
 73 76  1  0  0  0
 73 79  1  0  0  0
 74 80  1  0  0  0
 75 81  1  0  0  0
 76 82  1  0  0  0
 77 78  1  0  0  0
 77144  1  0  0  0
 77145  1  0  0  0
 78 80  1  0  0  0
 78146  1  0  0  0
 78147  1  0  0  0
 79148  1  0  0  0
M  ISO  4   1 100  68 101  77 101  79 100
M  END
> <chiral flag>
0

> <version>
0

> <s_m_source_file>
/data/baiqing/PycharmProjects/Reinvent-master-3.2/result/LINK_invent/BTK/process_docking_weight1_custom_product_contain_oxygen_bond_distance_aromatic_linkinvent_7_9_3/rearranged_h_0008.sdf

> <i_m_source_file_index>
52

> <r_mmod_Potential_Energy-OPLS-2005>
399.469116210938

> <r_mmod_Stretch_Energy-OPLS-2005>
214.641143798828

> <r_mmod_Bend_Energy-OPLS-2005>
307.445495605469

> <r_mmod_Torsional_Energy-OPLS-2005>
210.494476318359

> <r_mmod_Improper_Torsional_Energy-OPLS-2005>
3.88823580741882

> <r_mmod_Van_der_Waal_Energy-OPLS-2005>
132.977157592773

> <r_mmod_Electrostatic_Energy-OPLS-2005>
-434.508483886719

> <r_mmod_Solvation_Energy-OPLS-2005>
-210.045440673828

> <b_mmod_Minimization_Converged-OPLS-2005>
0

> <r_mmod_RMS_Derivative-OPLS-2005>
0.629383087158203

$$$$
53
                    3D
 Structure written by MMmdl.
148156  0  0  1  0            999 V2000
  -30.5180  -14.9163   20.4264 C   0  0  0  0  0  0
  -30.4549  -12.5644   19.4862 C   0  0  0  0  0  0
  -29.5228  -12.5297   18.2506 C   0  0  0  0  0  0
  -28.0527  -12.3240   18.6688 C   0  0  0  0  0  0
  -27.6376  -13.2401   19.8501 C   0  0  2  0  0  0
  -28.6875  -13.2194   20.9834 C   0  0  0  0  0  0
  -25.2444  -13.8145   20.5680 C   0  0  0  0  0  0
  -24.1762  -13.0380   20.9192 C   0  0  0  0  0  0
  -24.6398  -11.6877   20.8749 C   0  0  0  0  0  0
  -23.9083  -10.4258   21.0408 C   0  0  0  0  0  0
  -24.3624   -9.4179   21.9192 C   0  0  0  0  0  0
  -23.6285   -8.2224   22.0761 C   0  0  0  0  0  0
  -22.4270   -8.0270   21.3546 C   0  0  0  0  0  0
  -21.9910   -9.0248   20.4651 C   0  0  0  0  0  0
  -22.7250  -10.2119   20.3059 C   0  0  0  0  0  0
  -21.6847   -6.0730   22.5279 C   0  0  0  0  0  0
  -21.4009   -6.5636   23.8211 C   0  0  0  0  0  0
  -21.3657   -5.6790   24.9174 C   0  0  0  0  0  0
  -21.6044   -4.3051   24.7223 C   0  0  0  0  0  0
  -21.8819   -3.8144   23.4342 C   0  0  0  0  0  0
  -21.9192   -4.6961   22.3399 C   0  0  0  0  0  0
  -22.7787  -13.5170   21.1859 C   0  0  0  0  0  0
  -22.1659   -4.2145   21.0975 F   0  0  0  0  0  0
  -21.5631   -3.4534   25.7737 F   0  0  0  0  0  0
  -29.9701  -13.6370   20.3958 N   0  0  0  0  0  0
  -26.2926  -12.9403   20.3314 N   0  0  0  0  0  0
  -25.9346  -11.6535   20.5782 N   0  0  0  0  0  0
  -22.0445  -12.8176   22.0438 N   0  0  0  0  0  0
  -25.3966  -15.1857   20.4089 N   0  0  0  0  0  0
  -31.7082  -15.0524   20.1224 O   0  0  0  0  0  0
  -21.6630   -6.8872   21.4240 O   0  0  0  0  0  0
  -22.3472  -14.5485   20.6722 O   0  0  0  0  0  0
  -24.6436  -31.8436   23.1914 C   0  0  0  0  0  0
  -25.9214  -32.4690   23.8291 C   0  0  1  0  0  0
  -27.2211  -27.1507   20.1421 C   0  0  0  0  0  0
  -25.5964  -33.8498   24.2205 N   0  0  0  0  0  0
  -23.4469  -30.4663   21.5347 C   0  0  2  0  0  0
  -24.8956  -28.8961   20.1108 C   0  0  0  0  0  0
  -22.7572  -29.4547   22.4846 C   0  0  0  0  0  0
  -18.0304  -28.1392   22.8468 C   0  0  0  0  0  0
  -24.1484  -36.7235   23.2648 C   0  0  0  0  0  0
  -26.0042  -30.7209   21.3908 C   0  0  0  0  0  0
  -26.0738  -29.3359   20.7273 C   0  0  0  0  0  0
  -27.2375  -28.4804   20.7248 C   0  0  0  0  0  0
  -26.0126  -26.8085   19.4931 C   0  0  0  0  0  0
  -24.8769  -27.6445   19.4793 C   0  0  0  0  0  0
  -23.6743  -29.7999   20.1527 C   0  0  0  0  0  0
  -25.4115  -36.3020   24.0327 C   0  0  1  0  0  0
  -20.5918  -28.3715   23.1220 C   0  0  2  0  0  0
  -20.6786  -26.9417   22.5389 C   0  0  0  0  0  0
  -19.5764  -26.6368   21.5199 C   0  0  0  0  0  0
  -18.1943  -26.7929   22.1612 C   0  0  0  0  0  0
  -19.1561  -28.8872   23.2835 C   0  0  0  0  0  0
  -18.9487  -30.1472   23.8857 C   0  0  0  0  0  0
  -17.6485  -30.6586   24.0562 C   0  0  0  0  0  0
  -25.9070  -34.9402   23.5063 C   0  0  0  0  0  0
  -16.5374  -29.9080   23.6346 C   0  0  0  0  0  0
  -16.7290  -28.6504   23.0351 C   0  0  0  0  0  0
  -26.4544  -31.6571   25.0737 C   0  0  0  0  0  0
  -25.3737  -31.3756   26.1436 C   0  0  0  0  0  0
  -27.0432  -30.2971   24.6331 C   0  0  0  0  0  0
  -27.6070  -32.4353   25.7514 C   0  0  0  0  0  0
  -27.5564  -37.1771   24.8472 C   0  0  0  0  0  0
  -21.4262  -29.3046   22.3596 N   0  0  0  0  0  0
  -26.4272  -37.3738   23.9421 N   0  0  0  0  0  0
  -24.7178  -31.0314   22.0937 N   0  0  0  0  0  0
  -23.4215  -28.8081   23.2986 O   0  0  0  0  0  0
  -28.2796  -26.1744   20.2072 O   0  0  0  0  0  0
  -26.5646  -34.8901   22.4636 O   0  0  0  0  0  0
  -23.5553  -32.1300   23.7137 O   0  0  0  0  0  0
  -30.5195  -18.5584   20.2859 C   0  0  0  0  0  0
  -30.2065  -19.9937   20.2173 C   0  0  0  0  0  0
  -29.5366  -17.5244   20.5114 C   0  0  0  0  0  0
  -28.8787  -20.5452   20.3529 C   0  0  0  0  0  0
  -28.2358  -18.0942   20.6595 C   0  0  0  0  0  0
  -27.9258  -19.5011   20.5739 C   0  0  0  0  0  0
  -27.9843  -24.6559   20.0558 C   0  0  0  0  0  0
  -28.9709  -23.3104   20.2951 C   0  0  0  0  0  0
  -29.6360  -15.9991   20.6330 N   0  0  0  0  0  0
  -28.3538  -21.9109   20.2580 O   0  0  0  0  0  0
  -27.2134  -17.2410   20.8952 F   0  0  0  0  0  0
  -26.6264  -19.8623   20.7144 F   0  0  0  0  0  0
  -31.4848  -12.7387   19.1709 H   0  0  0  0  0  0
  -30.4577  -11.6005   19.9971 H   0  0  0  0  0  0
  -29.8305  -11.7370   17.5671 H   0  0  0  0  0  0
  -29.6162  -13.4644   17.6958 H   0  0  0  0  0  0
  -27.9372  -11.2787   18.9574 H   0  0  0  0  0  0
  -27.3892  -12.4782   17.8171 H   0  0  0  0  0  0
  -27.6100  -14.2520   19.4458 H   0  0  0  0  0  0
  -28.7665  -12.2239   21.4222 H   0  0  0  0  0  0
  -28.3946  -13.8859   21.7963 H   0  0  0  0  0  0
  -25.2770   -9.5652   22.4769 H   0  0  0  0  0  0
  -23.9986   -7.4617   22.7483 H   0  0  0  0  0  0
  -21.0839   -8.8776   19.8956 H   0  0  0  0  0  0
  -22.3716  -10.9665   19.6167 H   0  0  0  0  0  0
  -21.1997   -7.6145   23.9713 H   0  0  0  0  0  0
  -21.1479   -6.0519   25.9078 H   0  0  0  0  0  0
  -22.0601   -2.7605   23.2844 H   0  0  0  0  0  0
  -22.4058  -11.9832   22.4817 H   0  0  0  0  0  0
  -21.1079  -13.1231   22.2677 H   0  0  0  0  0  0
  -24.6200  -15.8213   20.5481 H   0  0  0  0  0  0
  -26.2546  -15.6692   20.1760 H   0  0  0  0  0  0
  -26.7275  -32.5293   23.1014 H   0  0  0  0  0  0
  -25.0139  -33.9611   25.0370 H   0  0  0  0  0  0
  -22.7499  -31.2930   21.3815 H   0  0  0  0  0  0
  -23.3761  -35.9554   23.3299 H   0  0  0  0  0  0
  -24.3569  -36.8860   22.2061 H   0  0  0  0  0  0
  -23.7224  -37.6423   23.6690 H   0  0  0  0  0  0
  -26.1665  -31.4797   20.6237 H   0  0  0  0  0  0
  -26.8725  -30.7612   22.0374 H   0  0  0  0  0  0
  -28.1353  -28.8135   21.2256 H   0  0  0  0  0  0
  -25.9047  -25.8533   19.0029 H   0  0  0  0  0  0
  -23.9770  -27.3009   18.9880 H   0  0  0  0  0  0
  -23.8179  -30.5778   19.4017 H   0  0  0  0  0  0
  -22.7889  -29.2463   19.8357 H   0  0  0  0  0  0
  -25.1301  -36.1841   25.0820 H   0  0  0  0  0  0
  -21.0011  -28.3296   24.1338 H   0  0  0  0  0  0
  -20.5659  -26.2333   23.3605 H   0  0  0  0  0  0
  -21.6652  -26.7398   22.1200 H   0  0  0  0  0  0
  -19.6929  -25.6270   21.1246 H   0  0  0  0  0  0
  -19.6710  -27.3162   20.6719 H   0  0  0  0  0  0
  -17.4209  -26.6661   21.4020 H   0  0  0  0  0  0
  -18.0354  -26.0079   22.9013 H   0  0  0  0  0  0
  -19.7970  -30.7298   24.2192 H   0  0  0  0  0  0
  -17.5048  -31.6266   24.5166 H   0  0  0  0  0  0
  -15.5378  -30.2975   23.7708 H   0  0  0  0  0  0
  -15.8683  -28.0826   22.7079 H   0  0  0  0  0  0
  -24.5913  -30.7103   25.7760 H   0  0  0  0  0  0
  -24.8942  -32.2943   26.4832 H   0  0  0  0  0  0
  -25.8024  -30.8945   27.0236 H   0  0  0  0  0  0
  -26.3067  -29.6668   24.1331 H   0  0  0  0  0  0
  -27.4044  -29.7288   25.4916 H   0  0  0  0  0  0
  -27.8971  -30.4218   23.9666 H   0  0  0  0  0  0
  -27.2661  -33.3683   26.2013 H   0  0  0  0  0  0
  -28.3918  -32.6854   25.0366 H   0  0  0  0  0  0
  -28.0703  -31.8534   26.5487 H   0  0  0  0  0  0
  -28.2574  -38.0073   24.7515 H   0  0  0  0  0  0
  -28.1058  -36.2599   24.6302 H   0  0  0  0  0  0
  -27.2282  -37.1415   25.8875 H   0  0  0  0  0  0
  -20.9470  -29.8778   21.6791 H   0  0  0  0  0  0
  -26.0130  -38.2795   24.1447 H   0  0  0  0  0  0
  -31.5507  -18.2599   20.1616 H   0  0  0  0  0  0
  -31.0204  -20.6806   20.0326 H   0  0  0  0  0  0
  -27.1176  -24.4813   20.6939 H   0  0  0  0  0  0
  -27.6158  -24.5342   19.0376 H   0  0  0  0  0  0
  -29.4462  -23.4120   21.2708 H   0  0  0  0  0  0
  -29.7820  -23.3373   19.5669 H   0  0  0  0  0  0
  -28.7301  -15.6175   20.8606 H   0  0  0  0  0  0
  1 25  1  0  0  0
  1 30  2  0  0  0
  1 79  1  0  0  0
  2  3  1  0  0  0
  2 25  1  0  0  0
  2 83  1  0  0  0
  2 84  1  0  0  0
  3  4  1  0  0  0
  3 85  1  0  0  0
  3 86  1  0  0  0
  4  5  1  0  0  0
  4 87  1  0  0  0
  4 88  1  0  0  0
  5  6  1  0  0  0
  5 26  1  0  0  0
  5 89  1  0  0  0
  6 25  1  0  0  0
  6 90  1  0  0  0
  6 91  1  0  0  0
  7  8  2  0  0  0
  7 26  1  0  0  0
  7 29  1  0  0  0
  8  9  1  0  0  0
  8 22  1  0  0  0
  9 10  1  0  0  0
  9 27  2  0  0  0
 10 11  2  0  0  0
 10 15  1  0  0  0
 11 12  1  0  0  0
 11 92  1  0  0  0
 12 13  2  0  0  0
 12 93  1  0  0  0
 13 14  1  0  0  0
 13 31  1  0  0  0
 14 15  2  0  0  0
 14 94  1  0  0  0
 15 95  1  0  0  0
 16 17  2  0  0  0
 16 21  1  0  0  0
 16 31  1  0  0  0
 17 18  1  0  0  0
 17 96  1  0  0  0
 18 19  2  0  0  0
 18 97  1  0  0  0
 19 20  1  0  0  0
 19 24  1  0  0  0
 20 21  2  0  0  0
 20 98  1  0  0  0
 21 23  1  0  0  0
 22 28  1  0  0  0
 22 32  2  0  0  0
 26 27  1  0  0  0
 28 99  1  0  0  0
 28100  1  0  0  0
 29101  1  0  0  0
 29102  1  0  0  0
 33 34  1  0  0  0
 33 66  1  0  0  0
 33 70  2  0  0  0
 34 36  1  0  0  0
 34 59  1  0  0  0
 34103  1  0  0  0
 35 44  2  0  0  0
 35 45  1  0  0  0
 35 68  1  0  0  0
 36 56  1  0  0  0
 36104  1  0  0  0
 37 39  1  0  0  0
 37 47  1  0  0  0
 37 66  1  0  0  0
 37105  1  0  0  0
 38 43  2  0  0  0
 38 46  1  0  0  0
 38 47  1  0  0  0
 39 64  1  0  0  0
 39 67  2  0  0  0
 40 52  1  0  0  0
 40 53  2  0  0  0
 40 58  1  0  0  0
 41106  1  0  0  0
 41107  1  0  0  0
 41108  1  0  0  0
 41 48  1  0  0  0
 42 43  1  0  0  0
 42 66  1  0  0  0
 42109  1  0  0  0
 42110  1  0  0  0
 43 44  1  0  0  0
 44111  1  0  0  0
 45 46  2  0  0  0
 45112  1  0  0  0
 46113  1  0  0  0
 47114  1  0  0  0
 47115  1  0  0  0
 48 56  1  0  0  0
 48 65  1  0  0  0
 48116  1  0  0  0
 49 50  1  0  0  0
 49 53  1  0  0  0
 49 64  1  0  0  0
 49117  1  0  0  0
 50 51  1  0  0  0
 50118  1  0  0  0
 50119  1  0  0  0
 51 52  1  0  0  0
 51120  1  0  0  0
 51121  1  0  0  0
 52122  1  0  0  0
 52123  1  0  0  0
 53 54  1  0  0  0
 54 55  2  0  0  0
 54124  1  0  0  0
 55 57  1  0  0  0
 55125  1  0  0  0
 56 69  2  0  0  0
 57 58  2  0  0  0
 57126  1  0  0  0
 58127  1  0  0  0
 59 60  1  0  0  0
 59 61  1  0  0  0
 59 62  1  0  0  0
 60128  1  0  0  0
 60129  1  0  0  0
 60130  1  0  0  0
 61131  1  0  0  0
 61132  1  0  0  0
 61133  1  0  0  0
 62134  1  0  0  0
 62135  1  0  0  0
 62136  1  0  0  0
 63 65  1  0  0  0
 63137  1  0  0  0
 63138  1  0  0  0
 63139  1  0  0  0
 64140  1  0  0  0
 65141  1  0  0  0
 68 77  1  0  0  0
 71 72  2  0  0  0
 71 73  1  0  0  0
 71142  1  0  0  0
 72 74  1  0  0  0
 72143  1  0  0  0
 73 75  2  0  0  0
 73 79  1  0  0  0
 74 76  2  0  0  0
 74 80  1  0  0  0
 75 76  1  0  0  0
 75 81  1  0  0  0
 76 82  1  0  0  0
 77 78  1  0  0  0
 77144  1  0  0  0
 77145  1  0  0  0
 78 80  1  0  0  0
 78146  1  0  0  0
 78147  1  0  0  0
 79148  1  0  0  0
M  ISO  4   1 100  68 101  77 101  79 100
M  END
> <chiral flag>
0

> <version>
0

> <s_m_source_file>
/data/baiqing/PycharmProjects/Reinvent-master-3.2/result/LINK_invent/BTK/process_docking_weight1_custom_product_contain_oxygen_bond_distance_aromatic_linkinvent_7_9_3/rearranged_h_0008.sdf

> <i_m_source_file_index>
53

> <r_mmod_Potential_Energy-OPLS-2005>
484.214324951172

> <r_mmod_Stretch_Energy-OPLS-2005>
215.82551574707

> <r_mmod_Bend_Energy-OPLS-2005>
304.97802734375

> <r_mmod_Torsional_Energy-OPLS-2005>
210.716842651367

> <r_mmod_Improper_Torsional_Energy-OPLS-2005>
3.92577123641968

> <r_mmod_Van_der_Waal_Energy-OPLS-2005>
133.032150268555

> <r_mmod_Electrostatic_Energy-OPLS-2005>
-357.032440185547

> <r_mmod_Solvation_Energy-OPLS-2005>
-202.940658569336

> <b_mmod_Minimization_Converged-OPLS-2005>
0

> <r_mmod_RMS_Derivative-OPLS-2005>
1.12868571281433

$$$$
54
                    3D
 Structure written by MMmdl.
147155  0  0  1  0            999 V2000
  -30.4085  -15.3275   20.3540 C   0  0  0  0  0  0
  -30.4364  -12.8465   19.5457 C   0  0  0  0  0  0
  -29.5417  -12.5918   18.3042 C   0  0  0  0  0  0
  -28.0915  -12.3048   18.7280 C   0  0  0  0  0  0
  -27.6108  -13.2825   19.8280 C   0  0  2  0  0  0
  -28.6382  -13.4778   20.9653 C   0  0  0  0  0  0
  -25.2375  -13.8262   20.5753 C   0  0  0  0  0  0
  -24.1734  -13.0442   20.9262 C   0  0  0  0  0  0
  -24.6399  -11.6944   20.8767 C   0  0  0  0  0  0
  -23.9098  -10.4298   21.0408 C   0  0  0  0  0  0
  -24.3640   -9.4209   21.9186 C   0  0  0  0  0  0
  -23.6306   -8.2248   22.0757 C   0  0  0  0  0  0
  -22.4287   -8.0287   21.3545 C   0  0  0  0  0  0
  -21.9932   -9.0263   20.4647 C   0  0  0  0  0  0
  -22.7270  -10.2138   20.3056 C   0  0  0  0  0  0
  -21.6857   -6.0742   22.5278 C   0  0  0  0  0  0
  -21.4016   -6.5643   23.8212 C   0  0  0  0  0  0
  -21.3658   -5.6794   24.9173 C   0  0  0  0  0  0
  -21.6042   -4.3057   24.7221 C   0  0  0  0  0  0
  -21.8819   -3.8150   23.4342 C   0  0  0  0  0  0
  -21.9193   -4.6969   22.3400 C   0  0  0  0  0  0
  -22.7748  -13.5185   21.1905 C   0  0  0  0  0  0
  -22.1662   -4.2155   21.0978 F   0  0  0  0  0  0
  -21.5629   -3.4539   25.7734 F   0  0  0  0  0  0
  -29.8670  -14.0016   20.3450 N   0  0  0  0  0  0
  -26.2809  -12.9550   20.3238 N   0  0  0  0  0  0
  -25.9339  -11.6648   20.5733 N   0  0  0  0  0  0
  -22.0411  -12.8163   22.0460 N   0  0  0  0  0  0
  -25.4000  -15.1999   20.4171 N   0  0  0  0  0  0
  -31.6185  -15.3274   20.0795 O   0  0  0  0  0  0
  -21.6646   -6.8885   21.4240 O   0  0  0  0  0  0
  -22.3426  -14.5485   20.6746 O   0  0  0  0  0  0
  -24.6666  -31.8186   23.1665 C   0  0  0  0  0  0
  -25.9326  -32.4564   23.8146 C   0  0  1  0  0  0
  -27.2195  -26.8828   20.1872 C   0  0  0  0  0  0
  -25.5981  -33.8382   24.2050 N   0  0  0  0  0  0
  -23.4841  -30.4286   21.5152 C   0  0  2  0  0  0
  -24.9399  -28.8087   20.1076 C   0  0  0  0  0  0
  -22.7688  -29.4413   22.4752 C   0  0  0  0  0  0
  -18.0324  -28.1419   22.8466 C   0  0  0  0  0  0
  -24.1485  -36.7189   23.2651 C   0  0  0  0  0  0
  -26.0555  -30.6090   21.4054 C   0  0  0  0  0  0
  -26.1219  -29.1946   20.7505 C   0  0  0  0  0  0
  -27.2512  -28.2511   20.7706 C   0  0  0  0  0  0
  -26.0148  -26.6684   19.4781 C   0  0  0  0  0  0
  -24.9149  -27.5679   19.4503 C   0  0  0  0  0  0
  -23.7277  -29.7418   20.1420 C   0  0  0  0  0  0
  -25.4130  -36.2955   24.0301 C   0  0  1  0  0  0
  -20.5955  -28.3764   23.1179 C   0  0  2  0  0  0
  -20.6798  -26.9441   22.5406 C   0  0  0  0  0  0
  -19.5772  -26.6383   21.5218 C   0  0  0  0  0  0
  -18.1953  -26.7952   22.1623 C   0  0  0  0  0  0
  -19.1591  -28.8911   23.2811 C   0  0  0  0  0  0
  -18.9505  -30.1498   23.8851 C   0  0  0  0  0  0
  -17.6498  -30.6609   24.0556 C   0  0  0  0  0  0
  -25.9102  -34.9340   23.4999 C   0  0  0  0  0  0
  -16.5384  -29.9099   23.6348 C   0  0  0  0  0  0
  -16.7307  -28.6517   23.0368 C   0  0  0  0  0  0
  -26.4565  -31.6529   25.0694 C   0  0  0  0  0  0
  -25.3674  -31.3798   26.1340 C   0  0  0  0  0  0
  -27.0473  -30.2890   24.6467 C   0  0  0  0  0  0
  -27.6051  -32.4349   25.7495 C   0  0  0  0  0  0
  -27.5559  -37.1754   24.8471 C   0  0  0  0  0  0
  -21.4351  -29.3043   22.3515 N   0  0  0  0  0  0
  -26.4268  -37.3699   23.9415 N   0  0  0  0  0  0
  -24.7570  -30.9806   22.0822 N   0  0  0  0  0  0
  -23.4214  -28.7987   23.3015 O   0  0  0  0  0  0
  -28.1957  -25.7434   20.3188 O   0  0  0  0  0  0
  -26.5722  -34.8886   22.4602 O   0  0  0  0  0  0
  -23.5723  -32.1178   23.6726 O   0  0  0  0  0  0
  -28.6812  -22.4849   21.9239 C   0  0  0  0  0  0
  -28.9714  -21.2663   22.6054 C   0  0  0  0  0  0
  -28.9097  -21.1879   19.9088 C   0  0  0  0  0  0
  -28.6095  -22.5907   20.5188 C   0  0  0  0  0  0
  -29.2438  -19.8242   20.5880 C   0  0  0  0  0  0
  -29.2351  -20.0083   21.9895 C   0  0  0  0  0  0
  -29.7428  -18.2301   19.9909 C   0  0  0  0  0  0
  -28.0476  -24.1411   19.8690 C   0  0  0  0  0  0
  -29.6365  -16.6067   20.4703 N   0  0  0  0  0  0
  -29.5132  -18.9499   22.7869 F   0  0  0  0  0  0
  -31.4556  -13.0504   19.2156 H   0  0  0  0  0  0
  -30.5088  -11.9476   20.1603 H   0  0  0  0  0  0
  -29.9332  -11.7620   17.7142 H   0  0  0  0  0  0
  -29.5654  -13.4688   17.6556 H   0  0  0  0  0  0
  -28.0545  -11.2825   19.1066 H   0  0  0  0  0  0
  -27.4252  -12.3363   17.8650 H   0  0  0  0  0  0
  -27.5209  -14.2446   19.3221 H   0  0  0  0  0  0
  -28.8159  -12.5488   21.5096 H   0  0  0  0  0  0
  -28.2647  -14.1979   21.6946 H   0  0  0  0  0  0
  -25.2780   -9.5685   22.4770 H   0  0  0  0  0  0
  -24.0011   -7.4638   22.7478 H   0  0  0  0  0  0
  -21.0864   -8.8787   19.8951 H   0  0  0  0  0  0
  -22.3727  -10.9679   19.6170 H   0  0  0  0  0  0
  -21.2010   -7.6152   23.9715 H   0  0  0  0  0  0
  -21.1478   -6.0526   25.9075 H   0  0  0  0  0  0
  -22.0599   -2.7613   23.2841 H   0  0  0  0  0  0
  -22.4044  -11.9829   22.4843 H   0  0  0  0  0  0
  -21.1025  -13.1171   22.2672 H   0  0  0  0  0  0
  -24.6269  -15.8480   20.5223 H   0  0  0  0  0  0
  -26.2360  -15.6385   20.0536 H   0  0  0  0  0  0
  -26.7394  -32.5088   23.0856 H   0  0  0  0  0  0
  -25.0081  -33.9453   25.0169 H   0  0  0  0  0  0
  -22.7998  -31.2618   21.3402 H   0  0  0  0  0  0
  -23.3767  -35.9501   23.3289 H   0  0  0  0  0  0
  -24.3558  -36.8857   22.2070 H   0  0  0  0  0  0
  -23.7221  -37.6362   23.6720 H   0  0  0  0  0  0
  -26.2430  -31.3467   20.6241 H   0  0  0  0  0  0
  -26.9134  -30.6668   22.0634 H   0  0  0  0  0  0
  -28.1375  -28.5401   21.3172 H   0  0  0  0  0  0
  -25.8782  -25.7253   18.9703 H   0  0  0  0  0  0
  -24.0196  -27.2683   18.9234 H   0  0  0  0  0  0
  -23.8877  -30.5098   19.3843 H   0  0  0  0  0  0
  -22.8363  -29.1999   19.8212 H   0  0  0  0  0  0
  -25.1329  -36.1747   25.0792 H   0  0  0  0  0  0
  -21.0043  -28.3379   24.1300 H   0  0  0  0  0  0
  -20.5671  -26.2387   23.3654 H   0  0  0  0  0  0
  -21.6663  -26.7409   22.1216 H   0  0  0  0  0  0
  -19.6933  -25.6280   21.1283 H   0  0  0  0  0  0
  -19.6714  -27.3166   20.6725 H   0  0  0  0  0  0
  -17.4224  -26.6698   21.4025 H   0  0  0  0  0  0
  -18.0339  -26.0109   22.9031 H   0  0  0  0  0  0
  -19.7980  -30.7325   24.2201 H   0  0  0  0  0  0
  -17.5054  -31.6286   24.5169 H   0  0  0  0  0  0
  -15.5385  -30.2992   23.7702 H   0  0  0  0  0  0
  -15.8703  -28.0823   22.7116 H   0  0  0  0  0  0
  -24.5896  -30.7098   25.7655 H   0  0  0  0  0  0
  -24.8823  -32.3004   26.4594 H   0  0  0  0  0  0
  -25.7903  -30.9092   27.0226 H   0  0  0  0  0  0
  -26.3158  -29.6550   24.1448 H   0  0  0  0  0  0
  -27.3958  -29.7275   25.5146 H   0  0  0  0  0  0
  -27.9113  -30.4062   23.9925 H   0  0  0  0  0  0
  -27.2627  -33.3720   26.1895 H   0  0  0  0  0  0
  -28.3954  -32.6789   25.0382 H   0  0  0  0  0  0
  -28.0610  -31.8587   26.5556 H   0  0  0  0  0  0
  -28.2569  -38.0057   24.7519 H   0  0  0  0  0  0
  -28.1063  -36.2587   24.6302 H   0  0  0  0  0  0
  -27.2278  -37.1400   25.8874 H   0  0  0  0  0  0
  -20.9613  -29.8729   21.6637 H   0  0  0  0  0  0
  -26.0113  -38.2755   24.1430 H   0  0  0  0  0  0
  -28.4762  -23.3663   22.5156 H   0  0  0  0  0  0
  -28.9909  -21.2963   23.6850 H   0  0  0  0  0  0
  -28.8762  -21.1537   18.8289 H   0  0  0  0  0  0
  -30.8116  -18.3620   19.8222 H   0  0  0  0  0  0
  -29.3266  -18.2109   18.9835 H   0  0  0  0  0  0
  -26.9717  -23.9813   19.8156 H   0  0  0  0  0  0
  -28.3692  -24.1274   18.8276 H   0  0  0  0  0  0
  -28.6982  -16.3991   20.7789 H   0  0  0  0  0  0
  1 25  1  0  0  0
  1 30  2  0  0  0
  1 79  1  0  0  0
  2  3  1  0  0  0
  2 25  1  0  0  0
  2 81  1  0  0  0
  2 82  1  0  0  0
  3  4  1  0  0  0
  3 83  1  0  0  0
  3 84  1  0  0  0
  4  5  1  0  0  0
  4 85  1  0  0  0
  4 86  1  0  0  0
  5  6  1  0  0  0
  5 26  1  0  0  0
  5 87  1  0  0  0
  6 25  1  0  0  0
  6 88  1  0  0  0
  6 89  1  0  0  0
  7  8  2  0  0  0
  7 26  1  0  0  0
  7 29  1  0  0  0
  8  9  1  0  0  0
  8 22  1  0  0  0
  9 10  1  0  0  0
  9 27  2  0  0  0
 10 11  2  0  0  0
 10 15  1  0  0  0
 11 12  1  0  0  0
 11 90  1  0  0  0
 12 13  2  0  0  0
 12 91  1  0  0  0
 13 14  1  0  0  0
 13 31  1  0  0  0
 14 15  2  0  0  0
 14 92  1  0  0  0
 15 93  1  0  0  0
 16 17  2  0  0  0
 16 21  1  0  0  0
 16 31  1  0  0  0
 17 18  1  0  0  0
 17 94  1  0  0  0
 18 19  2  0  0  0
 18 95  1  0  0  0
 19 20  1  0  0  0
 19 24  1  0  0  0
 20 21  2  0  0  0
 20 96  1  0  0  0
 21 23  1  0  0  0
 22 28  1  0  0  0
 22 32  2  0  0  0
 26 27  1  0  0  0
 28 97  1  0  0  0
 28 98  1  0  0  0
 29 99  1  0  0  0
 29100  1  0  0  0
 33 34  1  0  0  0
 33 66  1  0  0  0
 33 70  2  0  0  0
 34 36  1  0  0  0
 34 59  1  0  0  0
 34101  1  0  0  0
 35 44  2  0  0  0
 35 45  1  0  0  0
 35 68  1  0  0  0
 36 56  1  0  0  0
 36102  1  0  0  0
 37 39  1  0  0  0
 37 47  1  0  0  0
 37 66  1  0  0  0
 37103  1  0  0  0
 38 43  2  0  0  0
 38 46  1  0  0  0
 38 47  1  0  0  0
 39 64  1  0  0  0
 39 67  2  0  0  0
 40 52  1  0  0  0
 40 53  2  0  0  0
 40 58  1  0  0  0
 41104  1  0  0  0
 41105  1  0  0  0
 41106  1  0  0  0
 41 48  1  0  0  0
 42 43  1  0  0  0
 42 66  1  0  0  0
 42107  1  0  0  0
 42108  1  0  0  0
 43 44  1  0  0  0
 44109  1  0  0  0
 45 46  2  0  0  0
 45110  1  0  0  0
 46111  1  0  0  0
 47112  1  0  0  0
 47113  1  0  0  0
 48 56  1  0  0  0
 48 65  1  0  0  0
 48114  1  0  0  0
 49 50  1  0  0  0
 49 53  1  0  0  0
 49 64  1  0  0  0
 49115  1  0  0  0
 50 51  1  0  0  0
 50116  1  0  0  0
 50117  1  0  0  0
 51 52  1  0  0  0
 51118  1  0  0  0
 51119  1  0  0  0
 52120  1  0  0  0
 52121  1  0  0  0
 53 54  1  0  0  0
 54 55  2  0  0  0
 54122  1  0  0  0
 55 57  1  0  0  0
 55123  1  0  0  0
 56 69  2  0  0  0
 57 58  2  0  0  0
 57124  1  0  0  0
 58125  1  0  0  0
 59 60  1  0  0  0
 59 61  1  0  0  0
 59 62  1  0  0  0
 60126  1  0  0  0
 60127  1  0  0  0
 60128  1  0  0  0
 61129  1  0  0  0
 61130  1  0  0  0
 61131  1  0  0  0
 62132  1  0  0  0
 62133  1  0  0  0
 62134  1  0  0  0
 63 65  1  0  0  0
 63135  1  0  0  0
 63136  1  0  0  0
 63137  1  0  0  0
 64138  1  0  0  0
 65139  1  0  0  0
 68 78  1  0  0  0
 71 72  2  0  0  0
 71 74  1  0  0  0
 71140  1  0  0  0
 72 76  1  0  0  0
 72141  1  0  0  0
 73 74  2  0  0  0
 73 75  1  0  0  0
 73142  1  0  0  0
 74 78  1  0  0  0
 75 76  2  0  0  0
 75 77  1  0  0  0
 76 80  1  0  0  0
 77 79  1  0  0  0
 77143  1  0  0  0
 77144  1  0  0  0
 78145  1  0  0  0
 78146  1  0  0  0
 79147  1  0  0  0
M  ISO  4   1 100  68 101  78 101  79 100
M  END
> <chiral flag>
0

> <version>
0

> <s_m_source_file>
/data/baiqing/PycharmProjects/Reinvent-master-3.2/result/LINK_invent/BTK/process_docking_weight1_custom_product_contain_oxygen_bond_distance_aromatic_linkinvent_7_9_3/rearranged_h_0008.sdf

> <i_m_source_file_index>
54

> <r_mmod_Potential_Energy-OPLS-2005>
1389.82165527344

> <r_mmod_Stretch_Energy-OPLS-2005>
645.459045410156

> <r_mmod_Bend_Energy-OPLS-2005>
441.431457519531

> <r_mmod_Torsional_Energy-OPLS-2005>
217.45866394043

> <r_mmod_Improper_Torsional_Energy-OPLS-2005>
5.90848684310913

> <r_mmod_Van_der_Waal_Energy-OPLS-2005>
124.506240844727

> <r_mmod_Electrostatic_Energy-OPLS-2005>
-366.078857421875

> <r_mmod_Solvation_Energy-OPLS-2005>
-210.552825927734

> <b_mmod_Minimization_Converged-OPLS-2005>
0

> <r_mmod_RMS_Derivative-OPLS-2005>
0.704046964645386

$$$$
55
                    3D
 Structure written by MMmdl.
144152  0  0  1  0            999 V2000
  -30.3059  -15.6103   20.3226 C   0  0  0  0  0  0
  -30.4390  -13.0647   19.5267 C   0  0  0  0  0  0
  -29.5582  -12.6447   18.3150 C   0  0  0  0  0  0
  -28.1252  -12.3034   18.7575 C   0  0  0  0  0  0
  -27.6013  -13.3092   19.8100 C   0  0  2  0  0  0
  -28.6248  -13.6229   20.9242 C   0  0  0  0  0  0
  -25.2348  -13.8289   20.5787 C   0  0  0  0  0  0
  -24.1742  -13.0434   20.9293 C   0  0  0  0  0  0
  -24.6450  -11.6952   20.8778 C   0  0  0  0  0  0
  -23.9150  -10.4299   21.0402 C   0  0  0  0  0  0
  -24.3679   -9.4209   21.9188 C   0  0  0  0  0  0
  -23.6316   -8.2263   22.0770 C   0  0  0  0  0  0
  -22.4289   -8.0316   21.3568 C   0  0  0  0  0  0
  -21.9950   -9.0302   20.4670 C   0  0  0  0  0  0
  -22.7317  -10.2156   20.3060 C   0  0  0  0  0  0
  -21.6861   -6.0759   22.5284 C   0  0  0  0  0  0
  -21.4027   -6.5648   23.8228 C   0  0  0  0  0  0
  -21.3668   -5.6795   24.9182 C   0  0  0  0  0  0
  -21.6033   -4.3057   24.7225 C   0  0  0  0  0  0
  -21.8814   -3.8159   23.4342 C   0  0  0  0  0  0
  -21.9189   -4.6983   22.3404 C   0  0  0  0  0  0
  -22.7746  -13.5169   21.1931 C   0  0  0  0  0  0
  -22.1653   -4.2173   21.0983 F   0  0  0  0  0  0
  -21.5620   -3.4532   25.7732 F   0  0  0  0  0  0
  -29.7995  -14.2417   20.2655 N   0  0  0  0  0  0
  -26.2810  -12.9635   20.3219 N   0  0  0  0  0  0
  -25.9390  -11.6705   20.5685 N   0  0  0  0  0  0
  -22.0380  -12.8172   22.0484 N   0  0  0  0  0  0
  -25.3844  -15.2044   20.4235 N   0  0  0  0  0  0
  -31.5434  -15.5761   20.1947 O   0  0  0  0  0  0
  -21.6637   -6.8912   21.4256 O   0  0  0  0  0  0
  -22.3417  -14.5466   20.6757 O   0  0  0  0  0  0
  -24.6823  -31.8032   23.1525 C   0  0  0  0  0  0
  -25.9405  -32.4492   23.8079 C   0  0  1  0  0  0
  -27.2340  -26.7255   20.2019 C   0  0  0  0  0  0
  -25.5981  -33.8314   24.1955 N   0  0  0  0  0  0
  -23.5087  -30.4051   21.5058 C   0  0  2  0  0  0
  -24.9683  -28.7519   20.1144 C   0  0  0  0  0  0
  -22.7769  -29.4337   22.4709 C   0  0  0  0  0  0
  -18.0334  -28.1427   22.8443 C   0  0  0  0  0  0
  -24.1509  -36.7198   23.2655 C   0  0  0  0  0  0
  -26.0888  -30.5442   21.4128 C   0  0  0  0  0  0
  -26.1578  -29.1110   20.7605 C   0  0  0  0  0  0
  -27.2770  -28.1247   20.7723 C   0  0  0  0  0  0
  -26.0106  -26.5735   19.5012 C   0  0  0  0  0  0
  -24.9325  -27.5077   19.4624 C   0  0  0  0  0  0
  -23.7613  -29.7031   20.1403 C   0  0  0  0  0  0
  -25.4157  -36.2918   24.0276 C   0  0  1  0  0  0
  -20.5976  -28.3791   23.1136 C   0  0  2  0  0  0
  -20.6809  -26.9447   22.5408 C   0  0  0  0  0  0
  -19.5785  -26.6366   21.5223 C   0  0  0  0  0  0
  -18.1967  -26.7950   22.1622 C   0  0  0  0  0  0
  -19.1602  -28.8930   23.2767 C   0  0  0  0  0  0
  -18.9509  -30.1512   23.8820 C   0  0  0  0  0  0
  -17.6498  -30.6607   24.0550 C   0  0  0  0  0  0
  -25.9118  -34.9297   23.4950 C   0  0  0  0  0  0
  -16.5386  -29.9092   23.6340 C   0  0  0  0  0  0
  -16.7313  -28.6513   23.0354 C   0  0  0  0  0  0
  -26.4554  -31.6523   25.0706 C   0  0  0  0  0  0
  -25.3607  -31.3863   26.1317 C   0  0  0  0  0  0
  -27.0463  -30.2851   24.6604 C   0  0  0  0  0  0
  -27.6003  -32.4378   25.7534 C   0  0  0  0  0  0
  -27.5568  -37.1775   24.8460 C   0  0  0  0  0  0
  -21.4419  -29.3041   22.3465 N   0  0  0  0  0  0
  -26.4299  -37.3662   23.9370 N   0  0  0  0  0  0
  -24.7834  -30.9496   22.0770 N   0  0  0  0  0  0
  -23.4210  -28.7941   23.3060 O   0  0  0  0  0  0
  -28.1916  -25.5066   20.2741 O   0  0  0  0  0  0
  -26.5769  -34.8865   22.4574 O   0  0  0  0  0  0
  -23.5846  -32.1097   23.6487 O   0  0  0  0  0  0
  -29.5116  -21.2897   21.0686 C   0  0  0  0  0  0
  -29.8535  -19.7859   21.0988 C   0  0  0  0  0  0
  -28.1785  -20.9281   19.3248 C   0  0  0  0  0  0
  -28.6141  -22.0803   20.1641 C   0  0  0  0  0  0
  -29.3790  -18.6437   20.2464 C   0  0  0  0  0  0
  -28.4925  -19.4377   19.3536 C   0  0  0  0  0  0
  -27.8767  -23.7989   20.0925 C   0  0  0  0  0  0
  -29.4763  -16.9244   20.3044 N   0  0  0  0  0  0
  -27.8323  -18.7045   18.4215 F   0  0  0  0  0  0
  -31.4292  -13.3390   19.1588 H   0  0  0  0  0  0
  -30.6087  -12.2215   20.1977 H   0  0  0  0  0  0
  -30.0065  -11.7945   17.7959 H   0  0  0  0  0  0
  -29.5329  -13.4624   17.5943 H   0  0  0  0  0  0
  -28.1412  -11.3035   19.1898 H   0  0  0  0  0  0
  -27.4589  -12.2609   17.8955 H   0  0  0  0  0  0
  -27.4670  -14.2386   19.2542 H   0  0  0  0  0  0
  -28.8822  -12.7307   21.4975 H   0  0  0  0  0  0
  -28.2048  -14.3361   21.6346 H   0  0  0  0  0  0
  -25.2830   -9.5646   22.4763 H   0  0  0  0  0  0
  -24.0008   -7.4639   22.7480 H   0  0  0  0  0  0
  -21.0881   -8.8873   19.8966 H   0  0  0  0  0  0
  -22.3822  -10.9713   19.6169 H   0  0  0  0  0  0
  -21.2035   -7.6159   23.9742 H   0  0  0  0  0  0
  -21.1484   -6.0516   25.9089 H   0  0  0  0  0  0
  -22.0576   -2.7617   23.2836 H   0  0  0  0  0  0
  -22.3998  -11.9878   22.4952 H   0  0  0  0  0  0
  -21.0998  -13.1215   22.2662 H   0  0  0  0  0  0
  -24.5958  -15.8319   20.5358 H   0  0  0  0  0  0
  -26.2063  -15.6680   20.0600 H   0  0  0  0  0  0
  -26.7504  -32.4966   23.0811 H   0  0  0  0  0  0
  -24.9979  -33.9353   25.0007 H   0  0  0  0  0  0
  -22.8321  -31.2419   21.3180 H   0  0  0  0  0  0
  -23.3749  -35.9554   23.3315 H   0  0  0  0  0  0
  -24.3568  -36.8867   22.2069 H   0  0  0  0  0  0
  -23.7310  -37.6397   23.6738 H   0  0  0  0  0  0
  -26.2851  -31.2740   20.6255 H   0  0  0  0  0  0
  -26.9415  -30.6136   22.0767 H   0  0  0  0  0  0
  -28.1732  -28.4058   21.3078 H   0  0  0  0  0  0
  -25.8437  -25.6333   18.9959 H   0  0  0  0  0  0
  -24.0349  -27.2241   18.9296 H   0  0  0  0  0  0
  -23.9318  -30.4654   19.3797 H   0  0  0  0  0  0
  -22.8658  -29.1697   19.8165 H   0  0  0  0  0  0
  -25.1373  -36.1697   25.0773 H   0  0  0  0  0  0
  -21.0033  -28.3418   24.1271 H   0  0  0  0  0  0
  -20.5684  -26.2409   23.3672 H   0  0  0  0  0  0
  -21.6675  -26.7406   22.1227 H   0  0  0  0  0  0
  -19.6954  -25.6254   21.1313 H   0  0  0  0  0  0
  -19.6734  -27.3118   20.6705 H   0  0  0  0  0  0
  -17.4236  -26.6657   21.4031 H   0  0  0  0  0  0
  -18.0376  -26.0123   22.9051 H   0  0  0  0  0  0
  -19.7981  -30.7357   24.2156 H   0  0  0  0  0  0
  -17.5042  -31.6272   24.5178 H   0  0  0  0  0  0
  -15.5380  -30.2974   23.7718 H   0  0  0  0  0  0
  -15.8707  -28.0819   22.7108 H   0  0  0  0  0  0
  -24.5767  -30.7253   25.7601 H   0  0  0  0  0  0
  -24.8825  -32.3105   26.4577 H   0  0  0  0  0  0
  -25.7750  -30.9107   27.0212 H   0  0  0  0  0  0
  -26.3149  -29.6482   24.1617 H   0  0  0  0  0  0
  -27.3882  -29.7301   25.5347 H   0  0  0  0  0  0
  -27.9145  -30.3953   24.0111 H   0  0  0  0  0  0
  -27.2515  -33.3714   26.1961 H   0  0  0  0  0  0
  -28.3892  -32.6892   25.0437 H   0  0  0  0  0  0
  -28.0580  -31.8620   26.5585 H   0  0  0  0  0  0
  -28.2593  -38.0057   24.7429 H   0  0  0  0  0  0
  -28.1057  -36.2575   24.6388 H   0  0  0  0  0  0
  -27.2270  -37.1536   25.8862 H   0  0  0  0  0  0
  -20.9728  -29.8678   21.6520 H   0  0  0  0  0  0
  -26.0135  -38.2733   24.1299 H   0  0  0  0  0  0
  -29.9758  -21.8647   21.8626 H   0  0  0  0  0  0
  -30.5146  -19.5057   21.9092 H   0  0  0  0  0  0
  -27.4631  -21.1926   18.5576 H   0  0  0  0  0  0
  -26.9936  -23.6758   20.7185 H   0  0  0  0  0  0
  -27.4739  -23.7919   19.0789 H   0  0  0  0  0  0
  -28.5325  -16.5856   20.1986 H   0  0  0  0  0  0
  1 25  1  0  0  0
  1 30  2  0  0  0
  1 78  1  0  0  0
  2  3  1  0  0  0
  2 25  1  0  0  0
  2 80  1  0  0  0
  2 81  1  0  0  0
  3  4  1  0  0  0
  3 82  1  0  0  0
  3 83  1  0  0  0
  4  5  1  0  0  0
  4 84  1  0  0  0
  4 85  1  0  0  0
  5  6  1  0  0  0
  5 26  1  0  0  0
  5 86  1  0  0  0
  6 25  1  0  0  0
  6 87  1  0  0  0
  6 88  1  0  0  0
  7  8  2  0  0  0
  7 26  1  0  0  0
  7 29  1  0  0  0
  8  9  1  0  0  0
  8 22  1  0  0  0
  9 10  1  0  0  0
  9 27  2  0  0  0
 10 11  2  0  0  0
 10 15  1  0  0  0
 11 12  1  0  0  0
 11 89  1  0  0  0
 12 13  2  0  0  0
 12 90  1  0  0  0
 13 14  1  0  0  0
 13 31  1  0  0  0
 14 15  2  0  0  0
 14 91  1  0  0  0
 15 92  1  0  0  0
 16 17  2  0  0  0
 16 21  1  0  0  0
 16 31  1  0  0  0
 17 18  1  0  0  0
 17 93  1  0  0  0
 18 19  2  0  0  0
 18 94  1  0  0  0
 19 20  1  0  0  0
 19 24  1  0  0  0
 20 21  2  0  0  0
 20 95  1  0  0  0
 21 23  1  0  0  0
 22 28  1  0  0  0
 22 32  2  0  0  0
 26 27  1  0  0  0
 28 96  1  0  0  0
 28 97  1  0  0  0
 29 98  1  0  0  0
 29 99  1  0  0  0
 33 34  1  0  0  0
 33 66  1  0  0  0
 33 70  2  0  0  0
 34 36  1  0  0  0
 34 59  1  0  0  0
 34100  1  0  0  0
 35 44  2  0  0  0
 35 45  1  0  0  0
 35 68  1  0  0  0
 36 56  1  0  0  0
 36101  1  0  0  0
 37 39  1  0  0  0
 37 47  1  0  0  0
 37 66  1  0  0  0
 37102  1  0  0  0
 38 43  2  0  0  0
 38 46  1  0  0  0
 38 47  1  0  0  0
 39 64  1  0  0  0
 39 67  2  0  0  0
 40 52  1  0  0  0
 40 53  2  0  0  0
 40 58  1  0  0  0
 41103  1  0  0  0
 41104  1  0  0  0
 41105  1  0  0  0
 41 48  1  0  0  0
 42 43  1  0  0  0
 42 66  1  0  0  0
 42106  1  0  0  0
 42107  1  0  0  0
 43 44  1  0  0  0
 44108  1  0  0  0
 45 46  2  0  0  0
 45109  1  0  0  0
 46110  1  0  0  0
 47111  1  0  0  0
 47112  1  0  0  0
 48 56  1  0  0  0
 48 65  1  0  0  0
 48113  1  0  0  0
 49 50  1  0  0  0
 49 53  1  0  0  0
 49 64  1  0  0  0
 49114  1  0  0  0
 50 51  1  0  0  0
 50115  1  0  0  0
 50116  1  0  0  0
 51 52  1  0  0  0
 51117  1  0  0  0
 51118  1  0  0  0
 52119  1  0  0  0
 52120  1  0  0  0
 53 54  1  0  0  0
 54 55  2  0  0  0
 54121  1  0  0  0
 55 57  1  0  0  0
 55122  1  0  0  0
 56 69  2  0  0  0
 57 58  2  0  0  0
 57123  1  0  0  0
 58124  1  0  0  0
 59 60  1  0  0  0
 59 61  1  0  0  0
 59 62  1  0  0  0
 60125  1  0  0  0
 60126  1  0  0  0
 60127  1  0  0  0
 61128  1  0  0  0
 61129  1  0  0  0
 61130  1  0  0  0
 62131  1  0  0  0
 62132  1  0  0  0
 62133  1  0  0  0
 63 65  1  0  0  0
 63134  1  0  0  0
 63135  1  0  0  0
 63136  1  0  0  0
 64137  1  0  0  0
 65138  1  0  0  0
 68 77  1  0  0  0
 71 72  2  0  0  0
 71 74  1  0  0  0
 71139  1  0  0  0
 72 75  1  0  0  0
 72140  1  0  0  0
 73 74  2  0  0  0
 73 76  1  0  0  0
 73141  1  0  0  0
 74 77  1  0  0  0
 75 76  2  0  0  0
 75 78  1  0  0  0
 76 79  1  0  0  0
 77142  1  0  0  0
 77143  1  0  0  0
 78144  1  0  0  0
M  ISO  4   1 100  68 101  77 101  78 100
M  END
> <chiral flag>
0

> <version>
0

> <s_m_source_file>
/data/baiqing/PycharmProjects/Reinvent-master-3.2/result/LINK_invent/BTK/process_docking_weight1_custom_product_contain_oxygen_bond_distance_aromatic_linkinvent_7_9_3/rearranged_h_0008.sdf

> <i_m_source_file_index>
55

> <r_mmod_Potential_Energy-OPLS-2005>
2238.98388671875

> <r_mmod_Stretch_Energy-OPLS-2005>
911.963439941406

> <r_mmod_Bend_Energy-OPLS-2005>
669.165771484375

> <r_mmod_Torsional_Energy-OPLS-2005>
245.97248840332

> <r_mmod_Improper_Torsional_Energy-OPLS-2005>
8.55356979370117

> <r_mmod_Van_der_Waal_Energy-OPLS-2005>
130.033126831055

> <r_mmod_Electrostatic_Energy-OPLS-2005>
-385.120422363281

> <r_mmod_Solvation_Energy-OPLS-2005>
-208.395370483398

> <b_mmod_Minimization_Converged-OPLS-2005>
0

> <r_mmod_RMS_Derivative-OPLS-2005>
2.91585087776184

$$$$
56
                    3D
 Structure written by MMmdl.
158167  0  0  1  0            999 V2000
  -30.6056  -14.6849   20.5098 C   0  0  0  0  0  0
  -30.4631  -12.4419   19.4356 C   0  0  0  0  0  0
  -29.5104  -12.5284   18.2208 C   0  0  0  0  0  0
  -28.0391  -12.3439   18.6460 C   0  0  0  0  0  0
  -27.6608  -13.2169   19.8703 C   0  0  2  0  0  0
  -28.7146  -13.0714   20.9925 C   0  0  0  0  0  0
  -25.2585  -13.8145   20.5680 C   0  0  0  0  0  0
  -24.1852  -13.0429   20.9185 C   0  0  0  0  0  0
  -24.6425  -11.6904   20.8771 C   0  0  0  0  0  0
  -23.9076  -10.4307   21.0434 C   0  0  0  0  0  0
  -24.3620   -9.4220   21.9218 C   0  0  0  0  0  0
  -23.6295   -8.2251   22.0781 C   0  0  0  0  0  0
  -22.4274   -8.0290   21.3565 C   0  0  0  0  0  0
  -21.9917   -9.0273   20.4667 C   0  0  0  0  0  0
  -22.7243  -10.2160   20.3091 C   0  0  0  0  0  0
  -21.6856   -6.0741   22.5276 C   0  0  0  0  0  0
  -21.4012   -6.5644   23.8204 C   0  0  0  0  0  0
  -21.3655   -5.6796   24.9172 C   0  0  0  0  0  0
  -21.6051   -4.3055   24.7224 C   0  0  0  0  0  0
  -21.8811   -3.8152   23.4338 C   0  0  0  0  0  0
  -21.9183   -4.6972   22.3400 C   0  0  0  0  0  0
  -22.7860  -13.5231   21.1808 C   0  0  0  0  0  0
  -22.1654   -4.2147   21.0980 F   0  0  0  0  0  0
  -21.5638   -3.4543   25.7743 F   0  0  0  0  0  0
  -30.0238  -13.4447   20.4305 N   0  0  0  0  0  0
  -26.3042  -12.9348   20.3372 N   0  0  0  0  0  0
  -25.9358  -11.6503   20.5805 N   0  0  0  0  0  0
  -22.0456  -12.8283   22.0378 N   0  0  0  0  0  0
  -25.4269  -15.1862   20.4014 N   0  0  0  0  0  0
  -31.7582  -14.8745   20.1076 O   0  0  0  0  0  0
  -21.6632   -6.8885   21.4246 O   0  0  0  0  0  0
  -22.3575  -14.5531   20.6596 O   0  0  0  0  0  0
  -24.6343  -31.8587   23.2014 C   0  0  0  0  0  0
  -25.9194  -32.4762   23.8384 C   0  0  1  0  0  0
  -27.2314  -27.2965   20.1302 C   0  0  0  0  0  0
  -25.6014  -33.8583   24.2292 N   0  0  0  0  0  0
  -23.4292  -30.4770   21.5476 C   0  0  2  0  0  0
  -24.8714  -28.9199   20.1219 C   0  0  0  0  0  0
  -22.7548  -29.4591   22.4965 C   0  0  0  0  0  0
  -18.0312  -28.1409   22.8450 C   0  0  0  0  0  0
  -24.1512  -36.7292   23.2636 C   0  0  0  0  0  0
  -25.9739  -30.7707   21.3888 C   0  0  0  0  0  0
  -26.0411  -29.4000   20.7236 C   0  0  0  0  0  0
  -27.2229  -28.6023   20.7153 C   0  0  0  0  0  0
  -26.0364  -26.8644   19.5114 C   0  0  0  0  0  0
  -24.8707  -27.6548   19.5102 C   0  0  0  0  0  0
  -23.6467  -29.8115   20.1627 C   0  0  0  0  0  0
  -25.4152  -36.3088   24.0310 C   0  0  1  0  0  0
  -20.5916  -28.3737   23.1266 C   0  0  2  0  0  0
  -20.6810  -26.9456   22.5438 C   0  0  0  0  0  0
  -19.5797  -26.6373   21.5233 C   0  0  0  0  0  0
  -18.1963  -26.7938   22.1598 C   0  0  0  0  0  0
  -19.1570  -28.8890   23.2832 C   0  0  0  0  0  0
  -18.9468  -30.1479   23.8861 C   0  0  0  0  0  0
  -17.6464  -30.6586   24.0564 C   0  0  0  0  0  0
  -25.9101  -34.9441   23.5094 C   0  0  0  0  0  0
  -16.5360  -29.9099   23.6320 C   0  0  0  0  0  0
  -16.7285  -28.6531   23.0316 C   0  0  0  0  0  0
  -26.4495  -31.6632   25.0834 C   0  0  0  0  0  0
  -25.3636  -31.3918   26.1520 C   0  0  0  0  0  0
  -27.0437  -30.3029   24.6479 C   0  0  0  0  0  0
  -27.6027  -32.4430   25.7600 C   0  0  0  0  0  0
  -27.5621  -37.1844   24.8449 C   0  0  0  0  0  0
  -21.4270  -29.3067   22.3682 N   0  0  0  0  0  0
  -26.4335  -37.3767   23.9362 N   0  0  0  0  0  0
  -24.6963  -31.0575   22.0978 N   0  0  0  0  0  0
  -23.4236  -28.8133   23.3065 O   0  0  0  0  0  0
  -28.3585  -26.4579   20.1334 O   0  0  0  0  0  0
  -26.5664  -34.8895   22.4660 O   0  0  0  0  0  0
  -23.5502  -32.1434   23.7322 O   0  0  0  0  0  0
  -30.8155  -19.4252   20.4924 C   0  0  0  0  0  0
  -30.9221  -17.9966   20.5357 C   0  0  0  0  0  0
  -28.5579  -17.8720   20.9390 C   0  0  0  0  0  0
  -29.5810  -20.1219   20.6551 C   0  0  0  0  0  0
  -29.7869  -17.1719   20.7738 C   0  0  0  0  0  0
  -28.4450  -19.2975   20.8713 C   0  0  0  0  0  0
  -29.5268  -21.6704   20.7449 C   0  0  0  0  0  0
  -29.0762  -22.8162   17.4688 C   0  0  0  0  0  0
  -28.9191  -24.1938   18.1014 C   0  0  0  0  0  0
  -28.4704  -21.8881   18.5137 C   0  0  0  0  0  0
  -29.0918  -23.9624   19.6140 C   0  0  1  0  0  0
  -28.1983  -25.0026   20.4289 C   0  0  0  0  0  0
  -28.9007  -22.4555   19.7976 N   0  0  0  0  0  0
  -29.7797  -15.7051   20.9152 N   0  0  0  0  0  0
  -30.1140  -22.2019   21.6925 O   0  0  0  0  0  0
  -27.2328  -19.8706   21.0662 F   0  0  0  0  0  0
  -31.4881  -12.6227   19.1036 H   0  0  0  0  0  0
  -30.4641  -11.4421   19.8658 H   0  0  0  0  0  0
  -29.7827  -11.7873   17.4666 H   0  0  0  0  0  0
  -29.6267  -13.5009   17.7429 H   0  0  0  0  0  0
  -27.8916  -11.2919   18.8889 H   0  0  0  0  0  0
  -27.3726  -12.5599   17.8104 H   0  0  0  0  0  0
  -27.6743  -14.2525   19.5279 H   0  0  0  0  0  0
  -28.7443  -12.0439   21.3564 H   0  0  0  0  0  0
  -28.4558  -13.6837   21.8565 H   0  0  0  0  0  0
  -25.2768   -9.5686   22.4783 H   0  0  0  0  0  0
  -23.9987   -7.4652   22.7515 H   0  0  0  0  0  0
  -21.0821   -8.8802   19.8978 H   0  0  0  0  0  0
  -22.3698  -10.9704   19.6201 H   0  0  0  0  0  0
  -21.2002   -7.6147   23.9707 H   0  0  0  0  0  0
  -21.1489   -6.0531   25.9072 H   0  0  0  0  0  0
  -22.0592   -2.7610   23.2841 H   0  0  0  0  0  0
  -22.4032  -11.9955   22.4797 H   0  0  0  0  0  0
  -21.1095  -13.1377   22.2521 H   0  0  0  0  0  0
  -24.6410  -15.8228   20.4751 H   0  0  0  0  0  0
  -26.2426  -15.6164   19.9854 H   0  0  0  0  0  0
  -26.7333  -32.5353   23.1200 H   0  0  0  0  0  0
  -25.0293  -33.9773   25.0528 H   0  0  0  0  0  0
  -22.7218  -31.2949   21.4063 H   0  0  0  0  0  0
  -23.3786  -35.9632   23.3293 H   0  0  0  0  0  0
  -24.3589  -36.8935   22.2061 H   0  0  0  0  0  0
  -23.7279  -37.6481   23.6677 H   0  0  0  0  0  0
  -26.1521  -31.5402   20.6359 H   0  0  0  0  0  0
  -26.8339  -30.7874   22.0492 H   0  0  0  0  0  0
  -28.1200  -28.9684   21.1976 H   0  0  0  0  0  0
  -25.9979  -25.9002   19.0247 H   0  0  0  0  0  0
  -23.9723  -27.2726   19.0452 H   0  0  0  0  0  0
  -23.7876  -30.5926   19.4156 H   0  0  0  0  0  0
  -22.7625  -29.2578   19.8432 H   0  0  0  0  0  0
  -25.1349  -36.1947   25.0814 H   0  0  0  0  0  0
  -20.9957  -28.3339   24.1397 H   0  0  0  0  0  0
  -20.5740  -26.2380   23.3670 H   0  0  0  0  0  0
  -21.6690  -26.7505   22.1240 H   0  0  0  0  0  0
  -19.6994  -25.6271   21.1314 H   0  0  0  0  0  0
  -19.6738  -27.3143   20.6729 H   0  0  0  0  0  0
  -17.4268  -26.6700   21.3956 H   0  0  0  0  0  0
  -18.0310  -26.0087   22.8990 H   0  0  0  0  0  0
  -19.7949  -30.7302   24.2207 H   0  0  0  0  0  0
  -17.5020  -31.6218   24.5238 H   0  0  0  0  0  0
  -15.5372  -30.2982   23.7619 H   0  0  0  0  0  0
  -15.8695  -28.0814   22.7029 H   0  0  0  0  0  0
  -24.5717  -30.7390   25.7825 H   0  0  0  0  0  0
  -24.8938  -32.3180   26.4849 H   0  0  0  0  0  0
  -25.7795  -30.9099   27.0381 H   0  0  0  0  0  0
  -26.3146  -29.6677   24.1456 H   0  0  0  0  0  0
  -27.4021  -29.7377   25.5098 H   0  0  0  0  0  0
  -27.9005  -30.4260   23.9858 H   0  0  0  0  0  0
  -27.2591  -33.3706   26.2175 H   0  0  0  0  0  0
  -28.3791  -32.7084   25.0425 H   0  0  0  0  0  0
  -28.0763  -31.8628   26.5526 H   0  0  0  0  0  0
  -28.2615  -38.0158   24.7513 H   0  0  0  0  0  0
  -28.1136  -36.2698   24.6252 H   0  0  0  0  0  0
  -27.2333  -37.1451   25.8844 H   0  0  0  0  0  0
  -20.9530  -29.8804   21.6852 H   0  0  0  0  0  0
  -26.0218  -38.2867   24.1267 H   0  0  0  0  0  0
  -31.7164  -20.0093   20.3503 H   0  0  0  0  0  0
  -31.9007  -17.5507   20.4183 H   0  0  0  0  0  0
  -27.6575  -17.3080   21.1418 H   0  0  0  0  0  0
  -30.1368  -22.5788   17.3461 H   0  0  0  0  0  0
  -28.5976  -22.7269   16.4922 H   0  0  0  0  0  0
  -27.9182  -24.5754   17.8856 H   0  0  0  0  0  0
  -29.6392  -24.9186   17.7167 H   0  0  0  0  0  0
  -28.7940  -20.8638   18.3201 H   0  0  0  0  0  0
  -27.3799  -21.9032   18.4581 H   0  0  0  0  0  0
  -30.1352  -24.1691   19.8560 H   0  0  0  0  0  0
  -28.4597  -24.8814   21.4799 H   0  0  0  0  0  0
  -27.1603  -24.6776   20.3758 H   0  0  0  0  0  0
  -28.9059  -15.3389   21.2609 H   0  0  0  0  0  0
  1 25  1  0  0  0
  1 30  2  0  0  0
  1 84  1  0  0  0
  2  3  1  0  0  0
  2 25  1  0  0  0
  2 87  1  0  0  0
  2 88  1  0  0  0
  3  4  1  0  0  0
  3 89  1  0  0  0
  3 90  1  0  0  0
  4  5  1  0  0  0
  4 91  1  0  0  0
  4 92  1  0  0  0
  5  6  1  0  0  0
  5 26  1  0  0  0
  5 93  1  0  0  0
  6 25  1  0  0  0
  6 94  1  0  0  0
  6 95  1  0  0  0
  7  8  2  0  0  0
  7 26  1  0  0  0
  7 29  1  0  0  0
  8  9  1  0  0  0
  8 22  1  0  0  0
  9 10  1  0  0  0
  9 27  2  0  0  0
 10 11  2  0  0  0
 10 15  1  0  0  0
 11 12  1  0  0  0
 11 96  1  0  0  0
 12 13  2  0  0  0
 12 97  1  0  0  0
 13 14  1  0  0  0
 13 31  1  0  0  0
 14 15  2  0  0  0
 14 98  1  0  0  0
 15 99  1  0  0  0
 16 17  2  0  0  0
 16 21  1  0  0  0
 16 31  1  0  0  0
 17 18  1  0  0  0
 17100  1  0  0  0
 18 19  2  0  0  0
 18101  1  0  0  0
 19 20  1  0  0  0
 19 24  1  0  0  0
 20 21  2  0  0  0
 20102  1  0  0  0
 21 23  1  0  0  0
 22 28  1  0  0  0
 22 32  2  0  0  0
 26 27  1  0  0  0
 28103  1  0  0  0
 28104  1  0  0  0
 29105  1  0  0  0
 29106  1  0  0  0
 33 34  1  0  0  0
 33 66  1  0  0  0
 33 70  2  0  0  0
 34 36  1  0  0  0
 34 59  1  0  0  0
 34107  1  0  0  0
 35 44  2  0  0  0
 35 45  1  0  0  0
 35 68  1  0  0  0
 36 56  1  0  0  0
 36108  1  0  0  0
 37 39  1  0  0  0
 37 47  1  0  0  0
 37 66  1  0  0  0
 37109  1  0  0  0
 38 43  2  0  0  0
 38 46  1  0  0  0
 38 47  1  0  0  0
 39 64  1  0  0  0
 39 67  2  0  0  0
 40 52  1  0  0  0
 40 53  2  0  0  0
 40 58  1  0  0  0
 41110  1  0  0  0
 41111  1  0  0  0
 41112  1  0  0  0
 41 48  1  0  0  0
 42 43  1  0  0  0
 42 66  1  0  0  0
 42113  1  0  0  0
 42114  1  0  0  0
 43 44  1  0  0  0
 44115  1  0  0  0
 45 46  2  0  0  0
 45116  1  0  0  0
 46117  1  0  0  0
 47118  1  0  0  0
 47119  1  0  0  0
 48 56  1  0  0  0
 48 65  1  0  0  0
 48120  1  0  0  0
 49 50  1  0  0  0
 49 53  1  0  0  0
 49 64  1  0  0  0
 49121  1  0  0  0
 50 51  1  0  0  0
 50122  1  0  0  0
 50123  1  0  0  0
 51 52  1  0  0  0
 51124  1  0  0  0
 51125  1  0  0  0
 52126  1  0  0  0
 52127  1  0  0  0
 53 54  1  0  0  0
 54 55  2  0  0  0
 54128  1  0  0  0
 55 57  1  0  0  0
 55129  1  0  0  0
 56 69  2  0  0  0
 57 58  2  0  0  0
 57130  1  0  0  0
 58131  1  0  0  0
 59 60  1  0  0  0
 59 61  1  0  0  0
 59 62  1  0  0  0
 60132  1  0  0  0
 60133  1  0  0  0
 60134  1  0  0  0
 61135  1  0  0  0
 61136  1  0  0  0
 61137  1  0  0  0
 62138  1  0  0  0
 62139  1  0  0  0
 62140  1  0  0  0
 63 65  1  0  0  0
 63141  1  0  0  0
 63142  1  0  0  0
 63143  1  0  0  0
 64144  1  0  0  0
 65145  1  0  0  0
 68 82  1  0  0  0
 71 72  2  0  0  0
 71 74  1  0  0  0
 71146  1  0  0  0
 72 75  1  0  0  0
 72147  1  0  0  0
 73 75  2  0  0  0
 73 76  1  0  0  0
 73148  1  0  0  0
 74 76  2  0  0  0
 74 77  1  0  0  0
 75 84  1  0  0  0
 76 86  1  0  0  0
 77 83  1  0  0  0
 77 85  2  0  0  0
 78 79  1  0  0  0
 78 80  1  0  0  0
 78149  1  0  0  0
 78150  1  0  0  0
 79 81  1  0  0  0
 79151  1  0  0  0
 79152  1  0  0  0
 80 83  1  0  0  0
 80153  1  0  0  0
 80154  1  0  0  0
 81 82  1  0  0  0
 81 83  1  0  0  0
 81155  1  0  0  0
 82156  1  0  0  0
 82157  1  0  0  0
 84158  1  0  0  0
M  ISO  4   1 100  68 101  82 101  84 100
M  END
> <chiral flag>
0

> <version>
0

> <s_m_source_file>
/data/baiqing/PycharmProjects/Reinvent-master-3.2/result/LINK_invent/BTK/process_docking_weight1_custom_product_contain_oxygen_bond_distance_aromatic_linkinvent_7_9_3/rearranged_h_0008.sdf

> <i_m_source_file_index>
56

> <r_mmod_Potential_Energy-OPLS-2005>
263.043121337891

> <r_mmod_Stretch_Energy-OPLS-2005>
92.7796936035156

> <r_mmod_Bend_Energy-OPLS-2005>
175.212615966797

> <r_mmod_Torsional_Energy-OPLS-2005>
333.754791259766

> <r_mmod_Improper_Torsional_Energy-OPLS-2005>
6.91773796081543

> <r_mmod_Van_der_Waal_Energy-OPLS-2005>
134.162963867188

> <r_mmod_Electrostatic_Energy-OPLS-2005>
-323.217132568359

> <r_mmod_Solvation_Energy-OPLS-2005>
-217.273590087891

> <b_mmod_Minimization_Converged-OPLS-2005>
0

> <r_mmod_RMS_Derivative-OPLS-2005>
4.58407735824585

$$$$
57
                    3D
 Structure written by MMmdl.
148156  0  0  1  0            999 V2000
  -30.5228  -14.9167   20.4313 C   0  0  0  0  0  0
  -30.4527  -12.5651   19.4877 C   0  0  0  0  0  0
  -29.5223  -12.5321   18.2510 C   0  0  0  0  0  0
  -28.0527  -12.3252   18.6684 C   0  0  0  0  0  0
  -27.6371  -13.2417   19.8490 C   0  0  2  0  0  0
  -28.6854  -13.2233   20.9832 C   0  0  0  0  0  0
  -25.2448  -13.8158   20.5686 C   0  0  0  0  0  0
  -24.1761  -13.0385   20.9174 C   0  0  0  0  0  0
  -24.6398  -11.6886   20.8731 C   0  0  0  0  0  0
  -23.9080  -10.4267   21.0394 C   0  0  0  0  0  0
  -24.3625   -9.4188   21.9179 C   0  0  0  0  0  0
  -23.6292   -8.2230   22.0755 C   0  0  0  0  0  0
  -22.4274   -8.0271   21.3544 C   0  0  0  0  0  0
  -21.9911   -9.0243   20.4644 C   0  0  0  0  0  0
  -22.7248  -10.2114   20.3049 C   0  0  0  0  0  0
  -21.6850   -6.0728   22.5280 C   0  0  0  0  0  0
  -21.4012   -6.5634   23.8212 C   0  0  0  0  0  0
  -21.3660   -5.6789   24.9174 C   0  0  0  0  0  0
  -21.6045   -4.3052   24.7226 C   0  0  0  0  0  0
  -21.8819   -3.8143   23.4348 C   0  0  0  0  0  0
  -21.9192   -4.6957   22.3403 C   0  0  0  0  0  0
  -22.7788  -13.5170   21.1852 C   0  0  0  0  0  0
  -22.1660   -4.2142   21.0982 F   0  0  0  0  0  0
  -21.5629   -3.4538   25.7740 F   0  0  0  0  0  0
  -29.9694  -13.6394   20.3971 N   0  0  0  0  0  0
  -26.2925  -12.9417   20.3307 N   0  0  0  0  0  0
  -25.9345  -11.6543   20.5765 N   0  0  0  0  0  0
  -22.0456  -12.8166   22.0431 N   0  0  0  0  0  0
  -25.3980  -15.1883   20.4162 N   0  0  0  0  0  0
  -31.7121  -15.0435   20.1228 O   0  0  0  0  0  0
  -21.6635   -6.8872   21.4244 O   0  0  0  0  0  0
  -22.3462  -14.5480   20.6716 O   0  0  0  0  0  0
  -24.6428  -31.8455   23.1893 C   0  0  0  0  0  0
  -25.9209  -32.4700   23.8276 C   0  0  1  0  0  0
  -27.2212  -27.1510   20.1471 C   0  0  0  0  0  0
  -25.5964  -33.8504   24.2195 N   0  0  0  0  0  0
  -23.4449  -30.4655   21.5359 C   0  0  2  0  0  0
  -24.8944  -28.8950   20.1116 C   0  0  0  0  0  0
  -22.7562  -29.4554   22.4876 C   0  0  0  0  0  0
  -18.0303  -28.1391   22.8474 C   0  0  0  0  0  0
  -24.1491  -36.7254   23.2643 C   0  0  0  0  0  0
  -26.0006  -30.7234   21.3865 C   0  0  0  0  0  0
  -26.0726  -29.3366   20.7270 C   0  0  0  0  0  0
  -27.2368  -28.4816   20.7267 C   0  0  0  0  0  0
  -26.0137  -26.8076   19.4968 C   0  0  0  0  0  0
  -24.8771  -27.6429   19.4817 C   0  0  0  0  0  0
  -23.6701  -29.7953   20.1550 C   0  0  0  0  0  0
  -25.4124  -36.3031   24.0314 C   0  0  1  0  0  0
  -20.5913  -28.3716   23.1235 C   0  0  2  0  0  0
  -20.6789  -26.9421   22.5402 C   0  0  0  0  0  0
  -19.5763  -26.6379   21.5207 C   0  0  0  0  0  0
  -18.1943  -26.7929   22.1619 C   0  0  0  0  0  0
  -19.1560  -28.8871   23.2842 C   0  0  0  0  0  0
  -18.9482  -30.1469   23.8864 C   0  0  0  0  0  0
  -17.6481  -30.6589   24.0555 C   0  0  0  0  0  0
  -25.9077  -34.9407   23.5060 C   0  0  0  0  0  0
  -16.5369  -29.9083   23.6336 C   0  0  0  0  0  0
  -16.7289  -28.6501   23.0355 C   0  0  0  0  0  0
  -26.4531  -31.6565   25.0715 C   0  0  0  0  0  0
  -25.3716  -31.3757   26.1412 C   0  0  0  0  0  0
  -27.0405  -30.2964   24.6293 C   0  0  0  0  0  0
  -27.6058  -32.4335   25.7502 C   0  0  0  0  0  0
  -27.5572  -37.1784   24.8468 C   0  0  0  0  0  0
  -21.4257  -29.3048   22.3615 N   0  0  0  0  0  0
  -26.4286  -37.3746   23.9406 N   0  0  0  0  0  0
  -24.7159  -31.0322   22.0923 N   0  0  0  0  0  0
  -23.4206  -28.8102   23.3024 O   0  0  0  0  0  0
  -28.2815  -26.1757   20.2129 O   0  0  0  0  0  0
  -26.5659  -34.8900   22.4636 O   0  0  0  0  0  0
  -23.5548  -32.1335   23.7117 O   0  0  0  0  0  0
  -27.9545  -19.4976   20.6062 C   0  0  0  0  0  0
  -30.2294  -19.9959   20.2757 C   0  0  0  0  0  0
  -29.5582  -17.5258   20.5345 C   0  0  0  0  0  0
  -28.9008  -20.5481   20.4056 C   0  0  0  0  0  0
  -28.2565  -18.0910   20.6717 C   0  0  0  0  0  0
  -30.5473  -18.5603   20.3325 C   0  0  0  0  0  0
  -27.9825  -24.6539   20.1089 C   0  0  0  0  0  0
  -28.9862  -23.3142   20.3044 C   0  0  0  0  0  0
  -29.6483  -16.0013   20.6502 N   0  0  0  0  0  0
  -28.3697  -21.9133   20.3406 O   0  0  0  0  0  0
  -27.2305  -17.2317   20.8750 F   0  0  0  0  0  0
  -31.8433  -18.1912   20.1953 F   0  0  0  0  0  0
  -31.4836  -12.7360   19.1734 H   0  0  0  0  0  0
  -30.4520  -11.6013   19.9993 H   0  0  0  0  0  0
  -29.8312  -11.7411   17.5661 H   0  0  0  0  0  0
  -29.6158  -13.4680   17.6981 H   0  0  0  0  0  0
  -27.9382  -11.2801   18.9580 H   0  0  0  0  0  0
  -27.3899  -12.4788   17.8159 H   0  0  0  0  0  0
  -27.6087  -14.2533   19.4431 H   0  0  0  0  0  0
  -28.7637  -12.2292   21.4259 H   0  0  0  0  0  0
  -28.3912  -13.8934   21.7926 H   0  0  0  0  0  0
  -25.2769   -9.5662   22.4755 H   0  0  0  0  0  0
  -23.9993   -7.4622   22.7481 H   0  0  0  0  0  0
  -21.0840   -8.8767   19.8953 H   0  0  0  0  0  0
  -22.3712  -10.9652   19.6157 H   0  0  0  0  0  0
  -21.2007   -7.6142   23.9711 H   0  0  0  0  0  0
  -21.1481   -6.0521   25.9077 H   0  0  0  0  0  0
  -22.0600   -2.7605   23.2852 H   0  0  0  0  0  0
  -22.4085  -11.9830   22.4812 H   0  0  0  0  0  0
  -21.1083  -13.1194   22.2663 H   0  0  0  0  0  0
  -24.6245  -15.8238   20.5731 H   0  0  0  0  0  0
  -26.2675  -15.6807   20.2466 H   0  0  0  0  0  0
  -26.7276  -32.5313   23.1006 H   0  0  0  0  0  0
  -25.0101  -33.9624   25.0335 H   0  0  0  0  0  0
  -22.7461  -31.2907   21.3828 H   0  0  0  0  0  0
  -23.3755  -35.9585   23.3307 H   0  0  0  0  0  0
  -24.3578  -36.8885   22.2058 H   0  0  0  0  0  0
  -23.7241  -37.6446   23.6684 H   0  0  0  0  0  0
  -26.1550  -31.4790   20.6151 H   0  0  0  0  0  0
  -26.8708  -30.7721   22.0293 H   0  0  0  0  0  0
  -28.1343  -28.8162   21.2277 H   0  0  0  0  0  0
  -25.9066  -25.8535   19.0054 H   0  0  0  0  0  0
  -23.9780  -27.2978   18.9900 H   0  0  0  0  0  0
  -23.8054  -30.5707   19.4003 H   0  0  0  0  0  0
  -22.7848  -29.2374   19.8444 H   0  0  0  0  0  0
  -25.1307  -36.1863   25.0806 H   0  0  0  0  0  0
  -20.9996  -28.3311   24.1359 H   0  0  0  0  0  0
  -20.5682  -26.2333   23.3623 H   0  0  0  0  0  0
  -21.6656  -26.7433   22.1198 H   0  0  0  0  0  0
  -19.6928  -25.6283   21.1256 H   0  0  0  0  0  0
  -19.6700  -27.3170   20.6719 H   0  0  0  0  0  0
  -17.4211  -26.6668   21.4024 H   0  0  0  0  0  0
  -18.0345  -26.0073   22.9017 H   0  0  0  0  0  0
  -19.7961  -30.7288   24.2218 H   0  0  0  0  0  0
  -17.5039  -31.6268   24.5163 H   0  0  0  0  0  0
  -15.5367  -30.2973   23.7687 H   0  0  0  0  0  0
  -15.8688  -28.0812   22.7085 H   0  0  0  0  0  0
  -24.5897  -30.7101   25.7737 H   0  0  0  0  0  0
  -24.8902  -32.2942   26.4781 H   0  0  0  0  0  0
  -25.7994  -30.8970   27.0229 H   0  0  0  0  0  0
  -26.3028  -29.6681   24.1289 H   0  0  0  0  0  0
  -27.4016  -29.7264   25.4865 H   0  0  0  0  0  0
  -27.8932  -30.4208   23.9614 H   0  0  0  0  0  0
  -27.2650  -33.3660   26.2015 H   0  0  0  0  0  0
  -28.3902  -32.6859   25.0355 H   0  0  0  0  0  0
  -28.0692  -31.8506   26.5474 H   0  0  0  0  0  0
  -28.2587  -38.0082   24.7503 H   0  0  0  0  0  0
  -28.1068  -36.2608   24.6312 H   0  0  0  0  0  0
  -27.2290  -37.1447   25.8873 H   0  0  0  0  0  0
  -20.9472  -29.8764   21.6795 H   0  0  0  0  0  0
  -26.0153  -38.2813   24.1409 H   0  0  0  0  0  0
  -26.9177  -19.7781   20.7194 H   0  0  0  0  0  0
  -31.0484  -20.6814   20.1165 H   0  0  0  0  0  0
  -27.1596  -24.4925   20.8063 H   0  0  0  0  0  0
  -27.5501  -24.5063   19.1205 H   0  0  0  0  0  0
  -29.5391  -23.4368   21.2357 H   0  0  0  0  0  0
  -29.7356  -23.3258   19.5129 H   0  0  0  0  0  0
  -28.7382  -15.6339   20.8804 H   0  0  0  0  0  0
  1 25  1  0  0  0
  1 30  2  0  0  0
  1 79  1  0  0  0
  2  3  1  0  0  0
  2 25  1  0  0  0
  2 83  1  0  0  0
  2 84  1  0  0  0
  3  4  1  0  0  0
  3 85  1  0  0  0
  3 86  1  0  0  0
  4  5  1  0  0  0
  4 87  1  0  0  0
  4 88  1  0  0  0
  5  6  1  0  0  0
  5 26  1  0  0  0
  5 89  1  0  0  0
  6 25  1  0  0  0
  6 90  1  0  0  0
  6 91  1  0  0  0
  7  8  2  0  0  0
  7 26  1  0  0  0
  7 29  1  0  0  0
  8  9  1  0  0  0
  8 22  1  0  0  0
  9 10  1  0  0  0
  9 27  2  0  0  0
 10 11  2  0  0  0
 10 15  1  0  0  0
 11 12  1  0  0  0
 11 92  1  0  0  0
 12 13  2  0  0  0
 12 93  1  0  0  0
 13 14  1  0  0  0
 13 31  1  0  0  0
 14 15  2  0  0  0
 14 94  1  0  0  0
 15 95  1  0  0  0
 16 17  2  0  0  0
 16 21  1  0  0  0
 16 31  1  0  0  0
 17 18  1  0  0  0
 17 96  1  0  0  0
 18 19  2  0  0  0
 18 97  1  0  0  0
 19 20  1  0  0  0
 19 24  1  0  0  0
 20 21  2  0  0  0
 20 98  1  0  0  0
 21 23  1  0  0  0
 22 28  1  0  0  0
 22 32  2  0  0  0
 26 27  1  0  0  0
 28 99  1  0  0  0
 28100  1  0  0  0
 29101  1  0  0  0
 29102  1  0  0  0
 33 34  1  0  0  0
 33 66  1  0  0  0
 33 70  2  0  0  0
 34 36  1  0  0  0
 34 59  1  0  0  0
 34103  1  0  0  0
 35 44  2  0  0  0
 35 45  1  0  0  0
 35 68  1  0  0  0
 36 56  1  0  0  0
 36104  1  0  0  0
 37 39  1  0  0  0
 37 47  1  0  0  0
 37 66  1  0  0  0
 37105  1  0  0  0
 38 43  2  0  0  0
 38 46  1  0  0  0
 38 47  1  0  0  0
 39 64  1  0  0  0
 39 67  2  0  0  0
 40 52  1  0  0  0
 40 53  2  0  0  0
 40 58  1  0  0  0
 41106  1  0  0  0
 41107  1  0  0  0
 41108  1  0  0  0
 41 48  1  0  0  0
 42 43  1  0  0  0
 42 66  1  0  0  0
 42109  1  0  0  0
 42110  1  0  0  0
 43 44  1  0  0  0
 44111  1  0  0  0
 45 46  2  0  0  0
 45112  1  0  0  0
 46113  1  0  0  0
 47114  1  0  0  0
 47115  1  0  0  0
 48 56  1  0  0  0
 48 65  1  0  0  0
 48116  1  0  0  0
 49 50  1  0  0  0
 49 53  1  0  0  0
 49 64  1  0  0  0
 49117  1  0  0  0
 50 51  1  0  0  0
 50118  1  0  0  0
 50119  1  0  0  0
 51 52  1  0  0  0
 51120  1  0  0  0
 51121  1  0  0  0
 52122  1  0  0  0
 52123  1  0  0  0
 53 54  1  0  0  0
 54 55  2  0  0  0
 54124  1  0  0  0
 55 57  1  0  0  0
 55125  1  0  0  0
 56 69  2  0  0  0
 57 58  2  0  0  0
 57126  1  0  0  0
 58127  1  0  0  0
 59 60  1  0  0  0
 59 61  1  0  0  0
 59 62  1  0  0  0
 60128  1  0  0  0
 60129  1  0  0  0
 60130  1  0  0  0
 61131  1  0  0  0
 61132  1  0  0  0
 61133  1  0  0  0
 62134  1  0  0  0
 62135  1  0  0  0
 62136  1  0  0  0
 63 65  1  0  0  0
 63137  1  0  0  0
 63138  1  0  0  0
 63139  1  0  0  0
 64140  1  0  0  0
 65141  1  0  0  0
 68 77  1  0  0  0
 71 74  2  0  0  0
 71 75  1  0  0  0
 71142  1  0  0  0
 72 74  1  0  0  0
 72 76  2  0  0  0
 72143  1  0  0  0
 73 75  2  0  0  0
 73 76  1  0  0  0
 73 79  1  0  0  0
 74 80  1  0  0  0
 75 81  1  0  0  0
 76 82  1  0  0  0
 77 78  1  0  0  0
 77144  1  0  0  0
 77145  1  0  0  0
 78 80  1  0  0  0
 78146  1  0  0  0
 78147  1  0  0  0
 79148  1  0  0  0
M  ISO  4   1 100  68 101  77 101  79 100
M  END
> <chiral flag>
0

> <version>
0

> <s_m_source_file>
/data/baiqing/PycharmProjects/Reinvent-master-3.2/result/LINK_invent/BTK/process_docking_weight1_custom_product_contain_oxygen_bond_distance_aromatic_linkinvent_7_9_3/rearranged_h_0008.sdf

> <i_m_source_file_index>
57

> <r_mmod_Potential_Energy-OPLS-2005>
399.469116210938

> <r_mmod_Stretch_Energy-OPLS-2005>
214.641143798828

> <r_mmod_Bend_Energy-OPLS-2005>
307.445495605469

> <r_mmod_Torsional_Energy-OPLS-2005>
210.494476318359

> <r_mmod_Improper_Torsional_Energy-OPLS-2005>
3.88823580741882

> <r_mmod_Van_der_Waal_Energy-OPLS-2005>
132.977157592773

> <r_mmod_Electrostatic_Energy-OPLS-2005>
-434.508483886719

> <r_mmod_Solvation_Energy-OPLS-2005>
-210.045440673828

> <b_mmod_Minimization_Converged-OPLS-2005>
0

> <r_mmod_RMS_Derivative-OPLS-2005>
0.629383087158203

$$$$
58
                    3D
 Structure written by MMmdl.
163172  0  0  1  0            999 V2000
  -30.5561  -14.8373   20.4493 C   0  0  0  0  0  0
  -30.4459  -12.5193   19.4651 C   0  0  0  0  0  0
  -29.5145  -12.5111   18.2321 C   0  0  0  0  0  0
  -28.0441  -12.3134   18.6545 C   0  0  0  0  0  0
  -27.6346  -13.2305   19.8373 C   0  0  2  0  0  0
  -28.6825  -13.2047   20.9688 C   0  0  0  0  0  0
  -25.2489  -13.8178   20.5688 C   0  0  0  0  0  0
  -24.1792  -13.0424   20.9214 C   0  0  0  0  0  0
  -24.6386  -11.6908   20.8745 C   0  0  0  0  0  0
  -23.9060  -10.4288   21.0406 C   0  0  0  0  0  0
  -24.3609   -9.4204   21.9186 C   0  0  0  0  0  0
  -23.6289   -8.2234   22.0752 C   0  0  0  0  0  0
  -22.4270   -8.0276   21.3545 C   0  0  0  0  0  0
  -21.9905   -9.0246   20.4647 C   0  0  0  0  0  0
  -22.7230  -10.2127   20.3057 C   0  0  0  0  0  0
  -21.6851   -6.0731   22.5281 C   0  0  0  0  0  0
  -21.4012   -6.5635   23.8214 C   0  0  0  0  0  0
  -21.3659   -5.6788   24.9174 C   0  0  0  0  0  0
  -21.6039   -4.3051   24.7226 C   0  0  0  0  0  0
  -21.8820   -3.8143   23.4348 C   0  0  0  0  0  0
  -21.9190   -4.6956   22.3404 C   0  0  0  0  0  0
  -22.7812  -13.5210   21.1876 C   0  0  0  0  0  0
  -22.1663   -4.2142   21.0982 F   0  0  0  0  0  0
  -21.5627   -3.4539   25.7739 F   0  0  0  0  0  0
  -29.9660  -13.5906   20.3694 N   0  0  0  0  0  0
  -26.2904  -12.9382   20.3226 N   0  0  0  0  0  0
  -25.9311  -11.6529   20.5720 N   0  0  0  0  0  0
  -22.0455  -12.8209   22.0435 N   0  0  0  0  0  0
  -25.4153  -15.1906   20.4113 N   0  0  0  0  0  0
  -31.7710  -14.9401   20.2524 O   0  0  0  0  0  0
  -21.6638   -6.8872   21.4244 O   0  0  0  0  0  0
  -22.3503  -14.5515   20.6715 O   0  0  0  0  0  0
  -24.6352  -31.8509   23.1932 C   0  0  0  0  0  0
  -25.9155  -32.4732   23.8301 C   0  0  1  0  0  0
  -27.2220  -27.2085   20.1617 C   0  0  0  0  0  0
  -25.5937  -33.8535   24.2228 N   0  0  0  0  0  0
  -23.4350  -30.4692   21.5385 C   0  0  2  0  0  0
  -24.8834  -28.8930   20.1285 C   0  0  0  0  0  0
  -22.7521  -29.4579   22.4915 C   0  0  0  0  0  0
  -18.0295  -28.1388   22.8484 C   0  0  0  0  0  0
  -24.1490  -36.7274   23.2642 C   0  0  0  0  0  0
  -25.9830  -30.7477   21.3797 C   0  0  0  0  0  0
  -26.0566  -29.3579   20.7378 C   0  0  0  0  0  0
  -27.2320  -28.5319   20.7343 C   0  0  0  0  0  0
  -26.0244  -26.8116   19.5360 C   0  0  0  0  0  0
  -24.8731  -27.6281   19.5180 C   0  0  0  0  0  0
  -23.6591  -29.7912   20.1605 C   0  0  0  0  0  0
  -25.4118  -36.3055   24.0323 C   0  0  1  0  0  0
  -20.5900  -28.3702   23.1266 C   0  0  2  0  0  0
  -20.6782  -26.9418   22.5411 C   0  0  0  0  0  0
  -19.5757  -26.6382   21.5217 C   0  0  0  0  0  0
  -18.1937  -26.7929   22.1625 C   0  0  0  0  0  0
  -19.1549  -28.8863   23.2867 C   0  0  0  0  0  0
  -18.9468  -30.1463   23.8887 C   0  0  0  0  0  0
  -17.6465  -30.6588   24.0559 C   0  0  0  0  0  0
  -25.9062  -34.9428   23.5082 C   0  0  0  0  0  0
  -16.5356  -29.9084   23.6331 C   0  0  0  0  0  0
  -16.7281  -28.6501   23.0355 C   0  0  0  0  0  0
  -26.4504  -31.6570   25.0709 C   0  0  0  0  0  0
  -25.3708  -31.3744   26.1421 C   0  0  0  0  0  0
  -27.0362  -30.2981   24.6229 C   0  0  0  0  0  0
  -27.6048  -32.4321   25.7490 C   0  0  0  0  0  0
  -27.5578  -37.1792   24.8465 C   0  0  0  0  0  0
  -21.4224  -29.3040   22.3653 N   0  0  0  0  0  0
  -26.4289  -37.3758   23.9408 N   0  0  0  0  0  0
  -24.7038  -31.0428   22.0932 N   0  0  0  0  0  0
  -23.4198  -28.8130   23.3041 O   0  0  0  0  0  0
  -28.3376  -26.3441   20.0244 O   0  0  0  0  0  0
  -26.5641  -34.8913   22.4656 O   0  0  0  0  0  0
  -23.5492  -32.1352   23.7197 O   0  0  0  0  0  0
  -29.5217  -18.5873   20.0163 C   0  0  0  0  0  0
  -29.8473  -20.1165   21.8726 C   0  0  0  0  0  0
  -30.1470  -17.6760   22.1705 C   0  0  0  0  0  0
  -29.5596  -19.9867   20.4976 C   0  0  0  0  0  0
  -29.8416  -17.4008   20.8205 C   0  0  0  0  0  0
  -30.1322  -18.9942   22.6846 C   0  0  0  0  0  0
  -29.0926  -22.8105   17.0146 C   0  0  0  0  0  0
  -29.9593  -20.8079   18.1576 C   0  0  0  0  0  0
  -28.9032  -23.4906   18.3679 C   0  0  0  0  0  0
  -29.6436  -21.3385   19.5877 C   0  0  1  0  0  0
  -30.2678  -21.8543   17.0960 C   0  0  2  0  0  0
  -28.2108  -23.4949   20.6810 C   0  0  0  0  0  0
  -28.6184  -25.0979   20.8431 C   0  0  0  0  0  0
  -29.7140  -15.9599   20.4049 N   0  0  0  0  0  0
  -28.6371  -22.5667   19.5144 N   0  3  1  0  0  0
  -30.4250  -19.1907   23.9920 F   0  0  0  0  0  0
  -31.3909  -22.5092   17.3969 F   0  0  0  0  0  0
  -31.4789  -12.6844   19.1545 H   0  0  0  0  0  0
  -30.4321  -11.5531   19.9721 H   0  0  0  0  0  0
  -29.8142  -11.7250   17.5375 H   0  0  0  0  0  0
  -29.6167  -13.4522   17.6903 H   0  0  0  0  0  0
  -27.9237  -11.2689   18.9439 H   0  0  0  0  0  0
  -27.3802  -12.4712   17.8038 H   0  0  0  0  0  0
  -27.6127  -14.2415   19.4310 H   0  0  0  0  0  0
  -28.7467  -12.2158   21.4242 H   0  0  0  0  0  0
  -28.4057  -13.8966   21.7666 H   0  0  0  0  0  0
  -25.2756   -9.5679   22.4761 H   0  0  0  0  0  0
  -23.9995   -7.4625   22.7470 H   0  0  0  0  0  0
  -21.0834   -8.8766   19.8961 H   0  0  0  0  0  0
  -22.3686  -10.9663   19.6167 H   0  0  0  0  0  0
  -21.2015   -7.6144   23.9715 H   0  0  0  0  0  0
  -21.1477   -6.0521   25.9076 H   0  0  0  0  0  0
  -22.0601   -2.7606   23.2851 H   0  0  0  0  0  0
  -22.4063  -11.9879   22.4839 H   0  0  0  0  0  0
  -21.1070  -13.1239   22.2627 H   0  0  0  0  0  0
  -24.6418  -15.8371   20.5249 H   0  0  0  0  0  0
  -26.2528  -15.6385   20.0644 H   0  0  0  0  0  0
  -26.7220  -32.5371   23.1040 H   0  0  0  0  0  0
  -25.0061  -33.9661   25.0360 H   0  0  0  0  0  0
  -22.7336  -31.2920   21.3843 H   0  0  0  0  0  0
  -23.3754  -35.9604   23.3292 H   0  0  0  0  0  0
  -24.3580  -36.8913   22.2059 H   0  0  0  0  0  0
  -23.7240  -37.6470   23.6677 H   0  0  0  0  0  0
  -26.1222  -31.4978   20.6001 H   0  0  0  0  0  0
  -26.8604  -30.8068   22.0120 H   0  0  0  0  0  0
  -28.1427  -28.9003   21.1850 H   0  0  0  0  0  0
  -25.9802  -25.8479   19.0485 H   0  0  0  0  0  0
  -23.9763  -27.2681   19.0325 H   0  0  0  0  0  0
  -23.7948  -30.5612   19.4002 H   0  0  0  0  0  0
  -22.7754  -29.2291   19.8526 H   0  0  0  0  0  0
  -25.1300  -36.1892   25.0815 H   0  0  0  0  0  0
  -20.9989  -28.3281   24.1389 H   0  0  0  0  0  0
  -20.5686  -26.2312   23.3618 H   0  0  0  0  0  0
  -21.6649  -26.7440   22.1204 H   0  0  0  0  0  0
  -19.6919  -25.6291   21.1253 H   0  0  0  0  0  0
  -19.6693  -27.3187   20.6743 H   0  0  0  0  0  0
  -17.4208  -26.6679   21.4026 H   0  0  0  0  0  0
  -18.0334  -26.0074   22.9024 H   0  0  0  0  0  0
  -19.7942  -30.7283   24.2256 H   0  0  0  0  0  0
  -17.5016  -31.6266   24.5160 H   0  0  0  0  0  0
  -15.5355  -30.2980   23.7657 H   0  0  0  0  0  0
  -15.8683  -28.0813   22.7076 H   0  0  0  0  0  0
  -24.5878  -30.7106   25.7739 H   0  0  0  0  0  0
  -24.8911  -32.2928   26.4816 H   0  0  0  0  0  0
  -25.8004  -30.8929   27.0215 H   0  0  0  0  0  0
  -26.2962  -29.6716   24.1239 H   0  0  0  0  0  0
  -27.4013  -29.7259   25.4768 H   0  0  0  0  0  0
  -27.8849  -30.4246   23.9503 H   0  0  0  0  0  0
  -27.2649  -33.3633   26.2035 H   0  0  0  0  0  0
  -28.3876  -32.6863   25.0330 H   0  0  0  0  0  0
  -28.0696  -31.8468   26.5435 H   0  0  0  0  0  0
  -28.2586  -38.0096   24.7511 H   0  0  0  0  0  0
  -28.1080  -36.2625   24.6286 H   0  0  0  0  0  0
  -27.2298  -37.1436   25.8869 H   0  0  0  0  0  0
  -20.9426  -29.8750   21.6835 H   0  0  0  0  0  0
  -26.0161  -38.2830   24.1411 H   0  0  0  0  0  0
  -29.3011  -18.3983   18.9768 H   0  0  0  0  0  0
  -29.9243  -21.0995   22.3132 H   0  0  0  0  0  0
  -30.3661  -16.8657   22.8497 H   0  0  0  0  0  0
  -29.2747  -23.5604   16.2439 H   0  0  0  0  0  0
  -28.1845  -22.2820   16.7205 H   0  0  0  0  0  0
  -29.1121  -20.2245   17.7972 H   0  0  0  0  0  0
  -30.8119  -20.1282   18.1985 H   0  0  0  0  0  0
  -28.0748  -24.1936   18.2662 H   0  0  0  0  0  0
  -29.7896  -24.0881   18.5859 H   0  0  0  0  0  0
  -30.5657  -21.8122   19.9280 H   0  0  0  0  0  0
  -30.4339  -21.3761   16.1289 H   0  0  0  0  0  0
  -27.1216  -23.4574   20.6989 H   0  0  0  0  0  0
  -28.5129  -22.9883   21.5973 H   0  0  0  0  0  0
  -29.7051  -25.1020   20.9295 H   0  0  0  0  0  0
  -28.2845  -25.3716   21.8446 H   0  0  0  0  0  0
  -28.7640  -15.6940   20.1986 H   0  0  0  0  0  0
  -27.7720  -22.1054   19.2744 H   0  0  0  0  0  0
  1 25  1  0  0  0
  1 30  2  0  0  0
  1 84  1  0  0  0
  2  3  1  0  0  0
  2 25  1  0  0  0
  2 88  1  0  0  0
  2 89  1  0  0  0
  3  4  1  0  0  0
  3 90  1  0  0  0
  3 91  1  0  0  0
  4  5  1  0  0  0
  4 92  1  0  0  0
  4 93  1  0  0  0
  5  6  1  0  0  0
  5 26  1  0  0  0
  5 94  1  0  0  0
  6 25  1  0  0  0
  6 95  1  0  0  0
  6 96  1  0  0  0
  7  8  2  0  0  0
  7 26  1  0  0  0
  7 29  1  0  0  0
  8  9  1  0  0  0
  8 22  1  0  0  0
  9 10  1  0  0  0
  9 27  2  0  0  0
 10 11  2  0  0  0
 10 15  1  0  0  0
 11 12  1  0  0  0
 11 97  1  0  0  0
 12 13  2  0  0  0
 12 98  1  0  0  0
 13 14  1  0  0  0
 13 31  1  0  0  0
 14 15  2  0  0  0
 14 99  1  0  0  0
 15100  1  0  0  0
 16 17  2  0  0  0
 16 21  1  0  0  0
 16 31  1  0  0  0
 17 18  1  0  0  0
 17101  1  0  0  0
 18 19  2  0  0  0
 18102  1  0  0  0
 19 20  1  0  0  0
 19 24  1  0  0  0
 20 21  2  0  0  0
 20103  1  0  0  0
 21 23  1  0  0  0
 22 28  1  0  0  0
 22 32  2  0  0  0
 26 27  1  0  0  0
 28104  1  0  0  0
 28105  1  0  0  0
 29106  1  0  0  0
 29107  1  0  0  0
 33 34  1  0  0  0
 33 66  1  0  0  0
 33 70  2  0  0  0
 34 36  1  0  0  0
 34 59  1  0  0  0
 34108  1  0  0  0
 35 44  2  0  0  0
 35 45  1  0  0  0
 35 68  1  0  0  0
 36 56  1  0  0  0
 36109  1  0  0  0
 37 39  1  0  0  0
 37 47  1  0  0  0
 37 66  1  0  0  0
 37110  1  0  0  0
 38 43  2  0  0  0
 38 46  1  0  0  0
 38 47  1  0  0  0
 39 64  1  0  0  0
 39 67  2  0  0  0
 40 52  1  0  0  0
 40 53  2  0  0  0
 40 58  1  0  0  0
 41111  1  0  0  0
 41112  1  0  0  0
 41113  1  0  0  0
 41 48  1  0  0  0
 42 43  1  0  0  0
 42 66  1  0  0  0
 42114  1  0  0  0
 42115  1  0  0  0
 43 44  1  0  0  0
 44116  1  0  0  0
 45 46  2  0  0  0
 45117  1  0  0  0
 46118  1  0  0  0
 47119  1  0  0  0
 47120  1  0  0  0
 48 56  1  0  0  0
 48 65  1  0  0  0
 48121  1  0  0  0
 49 50  1  0  0  0
 49 53  1  0  0  0
 49 64  1  0  0  0
 49122  1  0  0  0
 50 51  1  0  0  0
 50123  1  0  0  0
 50124  1  0  0  0
 51 52  1  0  0  0
 51125  1  0  0  0
 51126  1  0  0  0
 52127  1  0  0  0
 52128  1  0  0  0
 53 54  1  0  0  0
 54 55  2  0  0  0
 54129  1  0  0  0
 55 57  1  0  0  0
 55130  1  0  0  0
 56 69  2  0  0  0
 57 58  2  0  0  0
 57131  1  0  0  0
 58132  1  0  0  0
 59 60  1  0  0  0
 59 61  1  0  0  0
 59 62  1  0  0  0
 60133  1  0  0  0
 60134  1  0  0  0
 60135  1  0  0  0
 61136  1  0  0  0
 61137  1  0  0  0
 61138  1  0  0  0
 62139  1  0  0  0
 62140  1  0  0  0
 62141  1  0  0  0
 63 65  1  0  0  0
 63142  1  0  0  0
 63143  1  0  0  0
 63144  1  0  0  0
 64145  1  0  0  0
 65146  1  0  0  0
 68 83  1  0  0  0
 71 74  2  0  0  0
 71 75  1  0  0  0
 71147  1  0  0  0
 72 74  1  0  0  0
 72 76  2  0  0  0
 72148  1  0  0  0
 73 75  2  0  0  0
 73 76  1  0  0  0
 73149  1  0  0  0
 74 80  1  0  0  0
 75 84  1  0  0  0
 76 86  1  0  0  0
 77 79  1  0  0  0
 77 81  1  0  0  0
 77150  1  0  0  0
 77151  1  0  0  0
 78 80  1  0  0  0
 78 81  1  0  0  0
 78152  1  0  0  0
 78153  1  0  0  0
 79 85  1  0  0  0
 79154  1  0  0  0
 79155  1  0  0  0
 80 85  1  0  0  0
 80156  1  0  0  0
 81 87  1  0  0  0
 81157  1  0  0  0
 82 83  1  0  0  0
 82158  1  0  0  0
 82159  1  0  0  0
 82 85  1  0  0  0
 83160  1  0  0  0
 83161  1  0  0  0
 84162  1  0  0  0
 85163  1  0  0  0
M  CHG  1  85   1
M  ISO  4   1 100  68 101  83 101  84 100
M  END
> <chiral flag>
0

> <version>
0

> <s_m_source_file>
/data/baiqing/PycharmProjects/Reinvent-master-3.2/result/LINK_invent/BTK/process_docking_weight1_custom_product_contain_oxygen_bond_distance_aromatic_linkinvent_7_9_3/rearranged_h_0008.sdf

> <i_m_source_file_index>
58

> <r_mmod_Potential_Energy-OPLS-2005>
359.957672119141

> <r_mmod_Stretch_Energy-OPLS-2005>
182.995468139648

> <r_mmod_Bend_Energy-OPLS-2005>
305.481170654297

> <r_mmod_Torsional_Energy-OPLS-2005>
321.270660400391

> <r_mmod_Improper_Torsional_Energy-OPLS-2005>
12.9430618286133

> <r_mmod_Van_der_Waal_Energy-OPLS-2005>
134.276321411133

> <r_mmod_Electrostatic_Energy-OPLS-2005>
-279.637847900391

> <r_mmod_Solvation_Energy-OPLS-2005>
-439.287933349609

> <b_mmod_Minimization_Converged-OPLS-2005>
0

> <r_mmod_RMS_Derivative-OPLS-2005>
1.02017796039581

$$$$
59
                    3D
 Structure written by MMmdl.
165175  0  0  1  0            999 V2000
  -30.5904  -15.0994   20.4073 C   0  0  0  0  0  0
  -30.4483  -12.7011   19.5385 C   0  0  0  0  0  0
  -29.5367  -12.5721   18.2960 C   0  0  0  0  0  0
  -28.0755  -12.3414   18.7129 C   0  0  0  0  0  0
  -27.6356  -13.2865   19.8559 C   0  0  2  0  0  0
  -28.6752  -13.4205   20.9948 C   0  0  0  0  0  0
  -25.2507  -13.8345   20.5807 C   0  0  0  0  0  0
  -24.1793  -13.0533   20.9282 C   0  0  0  0  0  0
  -24.6470  -11.7052   20.8870 C   0  0  0  0  0  0
  -23.9149  -10.4409   21.0544 C   0  0  0  0  0  0
  -24.3707   -9.4294   21.9287 C   0  0  0  0  0  0
  -23.6403   -8.2302   22.0781 C   0  0  0  0  0  0
  -22.4362   -8.0358   21.3564 C   0  0  0  0  0  0
  -22.0040   -9.0353   20.4651 C   0  0  0  0  0  0
  -22.7365  -10.2246   20.3139 C   0  0  0  0  0  0
  -21.6876   -6.0838   22.5315 C   0  0  0  0  0  0
  -21.4000   -6.5714   23.8250 C   0  0  0  0  0  0
  -21.3689   -5.6829   24.9209 C   0  0  0  0  0  0
  -21.6043   -4.3109   24.7215 C   0  0  0  0  0  0
  -21.8827   -3.8219   23.4350 C   0  0  0  0  0  0
  -21.9202   -4.7071   22.3406 C   0  0  0  0  0  0
  -22.7821  -13.5294   21.1986 C   0  0  0  0  0  0
  -22.1697   -4.2270   21.1000 F   0  0  0  0  0  0
  -21.5656   -3.4577   25.7730 F   0  0  0  0  0  0
  -29.9535  -13.8379   20.3911 N   0  0  0  0  0  0
  -26.2963  -12.9645   20.3416 N   0  0  0  0  0  0
  -25.9422  -11.6752   20.5867 N   0  0  0  0  0  0
  -22.0428  -12.8174   22.0485 N   0  0  0  0  0  0
  -25.4167  -15.2044   20.4261 N   0  0  0  0  0  0
  -31.7314  -15.0952   19.9248 O   0  0  0  0  0  0
  -21.6693   -6.8986   21.4260 O   0  0  0  0  0  0
  -22.3519  -14.5642   20.6949 O   0  0  0  0  0  0
  -24.6488  -31.8341   23.1916 C   0  0  0  0  0  0
  -25.9284  -32.4583   23.8258 C   0  0  1  0  0  0
  -27.2051  -27.0736   20.1691 C   0  0  0  0  0  0
  -25.6008  -33.8423   24.2112 N   0  0  0  0  0  0
  -23.4561  -30.4523   21.5380 C   0  0  2  0  0  0
  -24.9100  -28.8783   20.1078 C   0  0  0  0  0  0
  -22.7562  -29.4469   22.4870 C   0  0  0  0  0  0
  -18.0292  -28.1426   22.8468 C   0  0  0  0  0  0
  -24.1527  -36.7227   23.2626 C   0  0  0  0  0  0
  -26.0148  -30.6887   21.4010 C   0  0  0  0  0  0
  -26.0856  -29.2979   20.7398 C   0  0  0  0  0  0
  -27.2364  -28.4126   20.7504 C   0  0  0  0  0  0
  -26.0059  -26.7753   19.4907 C   0  0  0  0  0  0
  -24.8885  -27.6391   19.4547 C   0  0  0  0  0  0
  -23.6898  -29.7870   20.1572 C   0  0  0  0  0  0
  -25.4155  -36.2916   24.0227 C   0  0  1  0  0  0
  -20.5898  -28.3757   23.1229 C   0  0  2  0  0  0
  -20.6791  -26.9465   22.5437 C   0  0  0  0  0  0
  -19.5784  -26.6418   21.5231 C   0  0  0  0  0  0
  -18.1942  -26.7963   22.1621 C   0  0  0  0  0  0
  -19.1532  -28.8908   23.2831 C   0  0  0  0  0  0
  -18.9456  -30.1508   23.8867 C   0  0  0  0  0  0
  -17.6445  -30.6618   24.0561 C   0  0  0  0  0  0
  -25.9117  -34.9313   23.4948 C   0  0  0  0  0  0
  -16.5346  -29.9096   23.6384 C   0  0  0  0  0  0
  -16.7266  -28.6530   23.0357 C   0  0  0  0  0  0
  -26.4658  -31.6475   25.0707 C   0  0  0  0  0  0
  -25.3840  -31.3712   26.1383 C   0  0  0  0  0  0
  -27.0523  -30.2797   24.6393 C   0  0  0  0  0  0
  -27.6120  -32.4316   25.7526 C   0  0  0  0  0  0
  -27.5565  -37.1737   24.8436 C   0  0  0  0  0  0
  -21.4243  -29.2993   22.3541 N   0  0  0  0  0  0
  -26.4286  -37.3649   23.9362 N   0  0  0  0  0  0
  -24.7257  -31.0127   22.0997 N   0  0  0  0  0  0
  -23.4118  -28.7939   23.3028 O   0  0  0  0  0  0
  -28.2322  -26.0442   20.2261 O   0  0  0  0  0  0
  -26.5731  -34.8831   22.4548 O   0  0  0  0  0  0
  -23.5614  -32.1301   23.7091 O   0  0  0  0  0  0
  -31.8161  -19.7923   19.4445 C   0  0  0  0  0  0
  -32.3748  -19.1121   20.5532 C   0  0  0  0  0  0
  -30.4446  -19.6331   19.1259 C   0  0  0  0  0  0
  -31.5843  -18.1374   21.1900 C   0  0  0  0  0  0
  -29.6172  -19.0689   20.1216 C   0  0  0  0  0  0
  -30.3053  -17.8383   20.7239 C   0  0  0  0  0  0
  -31.9994  -17.2122   22.2955 C   0  0  0  0  0  0
  -27.9132  -21.0955   22.6353 C   0  0  0  0  0  0
  -27.1969  -21.4056   21.3074 C   0  0  0  0  0  0
  -29.2602  -20.4561   22.2359 C   0  0  0  0  0  0
  -30.7979  -16.2268   22.3796 C   0  0  1  0  0  0
  -28.3437  -21.6162   20.3190 C   0  0  1  0  0  0
  -29.8183  -16.5287   23.5267 C   0  0  0  0  0  0
  -28.7573  -23.3080   20.4358 C   0  0  0  0  0  0
  -30.0978  -16.3101   21.0588 N   0  0  0  0  0  0
  -29.2063  -20.3667   20.7832 N   0  0  0  0  0  0
  -27.7614  -24.4893   20.1100 N   0  0  0  0  0  0
  -31.4785  -12.8551   19.2189 H   0  0  0  0  0  0
  -30.4716  -11.7762   20.1145 H   0  0  0  0  0  0
  -29.8724  -11.7596   17.6504 H   0  0  0  0  0  0
  -29.6066  -13.4872   17.7058 H   0  0  0  0  0  0
  -27.9811  -11.3037   19.0332 H   0  0  0  0  0  0
  -27.4172  -12.4690   17.8569 H   0  0  0  0  0  0
  -27.5723  -14.2720   19.3893 H   0  0  0  0  0  0
  -28.7756  -12.4905   21.5604 H   0  0  0  0  0  0
  -28.3514  -14.1885   21.7007 H   0  0  0  0  0  0
  -25.2870   -9.5813   22.4874 H   0  0  0  0  0  0
  -24.0179   -7.4689   22.7483 H   0  0  0  0  0  0
  -21.1001   -8.8869   19.8923 H   0  0  0  0  0  0
  -22.3856  -10.9812   19.6268 H   0  0  0  0  0  0
  -21.1942   -7.6203   23.9779 H   0  0  0  0  0  0
  -21.1510   -6.0572   25.9109 H   0  0  0  0  0  0
  -22.0558   -2.7693   23.2790 H   0  0  0  0  0  0
  -22.4038  -11.9770   22.4711 H   0  0  0  0  0  0
  -21.1068  -13.1210   22.2766 H   0  0  0  0  0  0
  -24.6643  -15.8707   20.5525 H   0  0  0  0  0  0
  -26.2818  -15.6361   20.1269 H   0  0  0  0  0  0
  -26.7266  -32.5160   23.0924 H   0  0  0  0  0  0
  -25.0085  -33.9535   25.0191 H   0  0  0  0  0  0
  -22.7623  -31.2785   21.3778 H   0  0  0  0  0  0
  -23.3740  -35.9603   23.3240 H   0  0  0  0  0  0
  -24.3610  -36.9012   22.2073 H   0  0  0  0  0  0
  -23.7442  -37.6426   23.6794 H   0  0  0  0  0  0
  -26.1801  -31.4430   20.6321 H   0  0  0  0  0  0
  -26.8836  -30.7367   22.0447 H   0  0  0  0  0  0
  -28.1357  -28.7303   21.2569 H   0  0  0  0  0  0
  -25.8953  -25.8187   19.0033 H   0  0  0  0  0  0
  -24.0012  -27.3257   18.9220 H   0  0  0  0  0  0
  -23.8204  -30.5680   19.4069 H   0  0  0  0  0  0
  -22.8107  -29.2192   19.8483 H   0  0  0  0  0  0
  -25.1367  -36.1661   25.0708 H   0  0  0  0  0  0
  -20.9977  -28.3425   24.1350 H   0  0  0  0  0  0
  -20.5801  -26.2345   23.3637 H   0  0  0  0  0  0
  -21.6629  -26.7532   22.1143 H   0  0  0  0  0  0
  -19.6970  -25.6318   21.1285 H   0  0  0  0  0  0
  -19.6763  -27.3203   20.6728 H   0  0  0  0  0  0
  -17.4235  -26.6709   21.4010 H   0  0  0  0  0  0
  -18.0342  -26.0100   22.9009 H   0  0  0  0  0  0
  -19.7904  -30.7349   24.2230 H   0  0  0  0  0  0
  -17.4984  -31.6305   24.5155 H   0  0  0  0  0  0
  -15.5347  -30.2972   23.7770 H   0  0  0  0  0  0
  -15.8646  -28.0876   22.7068 H   0  0  0  0  0  0
  -24.5961  -30.7128   25.7714 H   0  0  0  0  0  0
  -24.9116  -32.2920   26.4785 H   0  0  0  0  0  0
  -25.8119  -30.8885   27.0172 H   0  0  0  0  0  0
  -26.3146  -29.6430   24.1467 H   0  0  0  0  0  0
  -27.4104  -29.7185   25.5051 H   0  0  0  0  0  0
  -27.9082  -30.3889   23.9719 H   0  0  0  0  0  0
  -27.2604  -33.3614   26.2009 H   0  0  0  0  0  0
  -28.4009  -32.6911   25.0448 H   0  0  0  0  0  0
  -28.0672  -31.8535   26.5581 H   0  0  0  0  0  0
  -28.2483  -38.0110   24.7464 H   0  0  0  0  0  0
  -28.1152  -36.2623   24.6253 H   0  0  0  0  0  0
  -27.2248  -37.1368   25.8827 H   0  0  0  0  0  0
  -20.9492  -29.8621   21.6618 H   0  0  0  0  0  0
  -26.0079  -38.2658   24.1437 H   0  0  0  0  0  0
  -32.4041  -20.5285   18.9112 H   0  0  0  0  0  0
  -33.4033  -19.2851   20.8414 H   0  0  0  0  0  0
  -30.0578  -20.4082   18.4798 H   0  0  0  0  0  0
  -32.1705  -17.7486   23.2290 H   0  0  0  0  0  0
  -32.9371  -16.7171   22.0385 H   0  0  0  0  0  0
  -27.3098  -20.4202   23.2418 H   0  0  0  0  0  0
  -28.0793  -22.0251   23.1878 H   0  0  0  0  0  0
  -26.5199  -22.2568   21.3553 H   0  0  0  0  0  0
  -26.5912  -20.5431   21.0223 H   0  0  0  0  0  0
  -29.4626  -19.5070   22.7306 H   0  0  0  0  0  0
  -30.0818  -21.1161   22.5302 H   0  0  0  0  0  0
  -31.2175  -15.2500   22.6509 H   0  0  0  0  0  0
  -27.9608  -21.4356   19.3110 H   0  0  0  0  0  0
  -29.1440  -17.3409   23.2580 H   0  0  0  0  0  0
  -30.3374  -16.8266   24.4378 H   0  0  0  0  0  0
  -29.2294  -15.6442   23.7750 H   0  0  0  0  0  0
  -29.6373  -23.5119   19.8236 H   0  0  0  0  0  0
  -29.0861  -23.4830   21.4580 H   0  0  0  0  0  0
  -27.4217  -24.3778   19.1561 H   0  0  0  0  0  0
  1 25  1  0  0  0
  1 30  2  0  0  0
  1 85  1  0  0  0
  2  3  1  0  0  0
  2 25  1  0  0  0
  2 88  1  0  0  0
  2 89  1  0  0  0
  3  4  1  0  0  0
  3 90  1  0  0  0
  3 91  1  0  0  0
  4  5  1  0  0  0
  4 92  1  0  0  0
  4 93  1  0  0  0
  5  6  1  0  0  0
  5 26  1  0  0  0
  5 94  1  0  0  0
  6 25  1  0  0  0
  6 95  1  0  0  0
  6 96  1  0  0  0
  7  8  2  0  0  0
  7 26  1  0  0  0
  7 29  1  0  0  0
  8  9  1  0  0  0
  8 22  1  0  0  0
  9 10  1  0  0  0
  9 27  2  0  0  0
 10 11  2  0  0  0
 10 15  1  0  0  0
 11 12  1  0  0  0
 11 97  1  0  0  0
 12 13  2  0  0  0
 12 98  1  0  0  0
 13 14  1  0  0  0
 13 31  1  0  0  0
 14 15  2  0  0  0
 14 99  1  0  0  0
 15100  1  0  0  0
 16 17  2  0  0  0
 16 21  1  0  0  0
 16 31  1  0  0  0
 17 18  1  0  0  0
 17101  1  0  0  0
 18 19  2  0  0  0
 18102  1  0  0  0
 19 20  1  0  0  0
 19 24  1  0  0  0
 20 21  2  0  0  0
 20103  1  0  0  0
 21 23  1  0  0  0
 22 28  1  0  0  0
 22 32  2  0  0  0
 26 27  1  0  0  0
 28104  1  0  0  0
 28105  1  0  0  0
 29106  1  0  0  0
 29107  1  0  0  0
 33 34  1  0  0  0
 33 66  1  0  0  0
 33 70  2  0  0  0
 34 36  1  0  0  0
 34 59  1  0  0  0
 34108  1  0  0  0
 35 44  2  0  0  0
 35 45  1  0  0  0
 35 68  1  0  0  0
 36 56  1  0  0  0
 36109  1  0  0  0
 37 39  1  0  0  0
 37 47  1  0  0  0
 37 66  1  0  0  0
 37110  1  0  0  0
 38 43  2  0  0  0
 38 46  1  0  0  0
 38 47  1  0  0  0
 39 64  1  0  0  0
 39 67  2  0  0  0
 40 52  1  0  0  0
 40 53  2  0  0  0
 40 58  1  0  0  0
 41111  1  0  0  0
 41112  1  0  0  0
 41113  1  0  0  0
 41 48  1  0  0  0
 42 43  1  0  0  0
 42 66  1  0  0  0
 42114  1  0  0  0
 42115  1  0  0  0
 43 44  1  0  0  0
 44116  1  0  0  0
 45 46  2  0  0  0
 45117  1  0  0  0
 46118  1  0  0  0
 47119  1  0  0  0
 47120  1  0  0  0
 48 56  1  0  0  0
 48 65  1  0  0  0
 48121  1  0  0  0
 49 50  1  0  0  0
 49 53  1  0  0  0
 49 64  1  0  0  0
 49122  1  0  0  0
 50 51  1  0  0  0
 50123  1  0  0  0
 50124  1  0  0  0
 51 52  1  0  0  0
 51125  1  0  0  0
 51126  1  0  0  0
 52127  1  0  0  0
 52128  1  0  0  0
 53 54  1  0  0  0
 54 55  2  0  0  0
 54129  1  0  0  0
 55 57  1  0  0  0
 55130  1  0  0  0
 56 69  2  0  0  0
 57 58  2  0  0  0
 57131  1  0  0  0
 58132  1  0  0  0
 59 60  1  0  0  0
 59 61  1  0  0  0
 59 62  1  0  0  0
 60133  1  0  0  0
 60134  1  0  0  0
 60135  1  0  0  0
 61136  1  0  0  0
 61137  1  0  0  0
 61138  1  0  0  0
 62139  1  0  0  0
 62140  1  0  0  0
 62141  1  0  0  0
 63 65  1  0  0  0
 63142  1  0  0  0
 63143  1  0  0  0
 63144  1  0  0  0
 64145  1  0  0  0
 65146  1  0  0  0
 68 87  1  0  0  0
 71 72  2  0  0  0
 71 73  1  0  0  0
 71147  1  0  0  0
 72 74  1  0  0  0
 72148  1  0  0  0
 73 75  2  0  0  0
 73149  1  0  0  0
 74 76  2  0  0  0
 74 77  1  0  0  0
 75 76  1  0  0  0
 75 86  1  0  0  0
 76 85  1  0  0  0
 77 81  1  0  0  0
 77150  1  0  0  0
 77151  1  0  0  0
 78 79  1  0  0  0
 78 80  1  0  0  0
 78152  1  0  0  0
 78153  1  0  0  0
 79 82  1  0  0  0
 79154  1  0  0  0
 79155  1  0  0  0
 80 86  1  0  0  0
 80156  1  0  0  0
 80157  1  0  0  0
 81 83  1  0  0  0
 81 85  1  0  0  0
 81158  1  0  0  0
 82 84  1  0  0  0
 82 86  1  0  0  0
 82159  1  0  0  0
 83160  1  0  0  0
 83161  1  0  0  0
 83162  1  0  0  0
 84 87  1  0  0  0
 84163  1  0  0  0
 84164  1  0  0  0
 87165  1  0  0  0
M  ISO  4   1 100  68 101  85 100  87 101
M  END
> <chiral flag>
0

> <version>
0

> <s_m_source_file>
/data/baiqing/PycharmProjects/Reinvent-master-3.2/result/LINK_invent/BTK/process_docking_weight1_custom_product_contain_oxygen_bond_distance_aromatic_linkinvent_7_9_3/rearranged_h_0008.sdf

> <i_m_source_file_index>
59

> <r_mmod_Potential_Energy-OPLS-2005>
1469.66564941406

> <r_mmod_Stretch_Energy-OPLS-2005>
381.978149414062

> <r_mmod_Bend_Energy-OPLS-2005>
566.003112792969

> <r_mmod_Torsional_Energy-OPLS-2005>
562.878540039062

> <r_mmod_Improper_Torsional_Energy-OPLS-2005>
38.1499481201172

> <r_mmod_Van_der_Waal_Energy-OPLS-2005>
144.255126953125

> <r_mmod_Electrostatic_Energy-OPLS-2005>
-303.495880126953

> <r_mmod_Solvation_Energy-OPLS-2005>
-208.53776550293

> <b_mmod_Minimization_Converged-OPLS-2005>
0

> <r_mmod_RMS_Derivative-OPLS-2005>
10.1843166351318

$$$$
60
                    3D
 Structure written by MMmdl.
138146  0  0  1  0            999 V2000
  -29.8051  -16.9595   20.2477 C   0  0  0  0  0  0
  -30.2461  -14.1008   19.5041 C   0  0  0  0  0  0
  -29.5711  -13.1050   18.4468 C   0  0  0  0  0  0
  -28.2871  -12.4564   18.9610 C   0  0  0  0  0  0
  -27.5722  -13.4964   19.8284 C   0  0  2  0  0  0
  -28.4732  -14.3461   20.8312 C   0  0  0  0  0  0
  -25.2100  -13.8613   20.6011 C   0  0  0  0  0  0
  -24.1675  -13.0501   20.9362 C   0  0  0  0  0  0
  -24.6640  -11.7101   20.8728 C   0  0  0  0  0  0
  -23.9356  -10.4350   21.0304 C   0  0  0  0  0  0
  -24.3801   -9.4250   21.9129 C   0  0  0  0  0  0
  -23.6402   -8.2315   22.0742 C   0  0  0  0  0  0
  -22.4375   -8.0352   21.3543 C   0  0  0  0  0  0
  -22.0069   -9.0338   20.4629 C   0  0  0  0  0  0
  -22.7476  -10.2181   20.2999 C   0  0  0  0  0  0
  -21.6893   -6.0782   22.5276 C   0  0  0  0  0  0
  -21.4045   -6.5667   23.8215 C   0  0  0  0  0  0
  -21.3669   -5.6808   24.9169 C   0  0  0  0  0  0
  -21.6043   -4.3070   24.7212 C   0  0  0  0  0  0
  -21.8815   -3.8173   23.4329 C   0  0  0  0  0  0
  -21.9204   -4.7001   22.3391 C   0  0  0  0  0  0
  -22.7624  -13.5055   21.1940 C   0  0  0  0  0  0
  -22.1665   -4.2183   21.0968 F   0  0  0  0  0  0
  -21.5622   -3.4546   25.7720 F   0  0  0  0  0  0
  -29.3991  -15.3698   20.1009 N   0  0  0  0  0  0
  -26.2868  -13.0372   20.3618 N   0  0  0  0  0  0
  -25.9687  -11.7211   20.5671 N   0  0  0  0  0  0
  -22.0347  -12.7983   22.0493 N   0  0  0  0  0  0
  -25.3304  -15.2384   20.4395 N   0  0  0  0  0  0
  -31.0465  -16.6289   20.2864 O   0  0  0  0  0  0
  -21.6700   -6.8959   21.4252 O   0  0  0  0  0  0
  -22.3224  -14.5326   20.6775 O   0  0  0  0  0  0
  -24.7718  -31.6839   23.0749 C   0  0  0  0  0  0
  -25.9828  -32.3923   23.7645 C   0  0  1  0  0  0
  -27.2825  -25.7825   20.2865 C   0  0  0  0  0  0
  -25.6009  -33.7802   24.1420 N   0  0  0  0  0  0
  -23.6374  -30.2392   21.4534 C   0  0  2  0  0  0
  -25.0996  -28.3758   20.1531 C   0  0  0  0  0  0
  -22.8144  -29.3692   22.4498 C   0  0  0  0  0  0
  -18.0390  -28.1468   22.8406 C   0  0  0  0  0  0
  -24.1498  -36.6927   23.2683 C   0  0  0  0  0  0
  -26.2416  -30.1110   21.4762 C   0  0  0  0  0  0
  -26.3000  -28.5701   20.8440 C   0  0  0  0  0  0
  -27.3271  -27.3402   20.8483 C   0  0  0  0  0  0
  -26.0427  -26.0291   19.5360 C   0  0  0  0  0  0
  -25.0634  -27.1327   19.4731 C   0  0  0  0  0  0
  -23.9372  -29.4402   20.1340 C   0  0  0  0  0  0
  -25.4181  -36.2583   24.0220 C   0  0  1  0  0  0
  -20.6061  -28.3850   23.0990 C   0  0  2  0  0  0
  -20.6801  -26.9427   22.5431 C   0  0  0  0  0  0
  -19.5801  -26.6335   21.5229 C   0  0  0  0  0  0
  -18.1980  -26.7977   22.1599 C   0  0  0  0  0  0
  -19.1677  -28.9006   23.2648 C   0  0  0  0  0  0
  -18.9571  -30.1567   23.8732 C   0  0  0  0  0  0
  -17.6552  -30.6625   24.0531 C   0  0  0  0  0  0
  -25.9206  -34.8994   23.4736 C   0  0  0  0  0  0
  -16.5435  -29.9093   23.6372 C   0  0  0  0  0  0
  -16.7365  -28.6523   23.0379 C   0  0  0  0  0  0
  -26.4734  -31.6369   25.0636 C   0  0  0  0  0  0
  -25.3574  -31.3922   26.1086 C   0  0  0  0  0  0
  -27.0819  -30.2640   24.7160 C   0  0  0  0  0  0
  -27.6004  -32.4458   25.7494 C   0  0  0  0  0  0
  -27.5532  -37.1617   24.8469 C   0  0  0  0  0  0
  -21.4718  -29.2901   22.3212 N   0  0  0  0  0  0
  -26.4234  -37.3440   23.9402 N   0  0  0  0  0  0
  -24.9204  -30.7337   22.0540 N   0  0  0  0  0  0
  -23.4148  -28.7480   23.3283 O   0  0  0  0  0  0
  -28.1856  -24.1845   20.2859 O   0  0  0  0  0  0
  -26.5991  -34.8757   22.4453 O   0  0  0  0  0  0
  -23.6552  -32.0335   23.5114 O   0  0  0  0  0  0
  -29.6326  -20.4448   20.7467 C   0  0  0  0  0  0
  -28.2169  -20.1175   19.6328 C   0  0  0  0  0  0
  -28.3989  -21.9340   20.3870 C   0  0  0  0  0  0
  -29.1959  -18.7478   20.3043 N   0  0  0  0  0  0
  -31.1001  -14.5297   18.9785 H   0  0  0  0  0  0
  -30.7211  -13.5314   20.3063 H   0  0  0  0  0  0
  -30.2817  -12.3375   18.1372 H   0  0  0  0  0  0
  -29.3358  -13.6758   17.5474 H   0  0  0  0  0  0
  -28.5410  -11.5887   19.5712 H   0  0  0  0  0  0
  -27.6594  -12.1038   18.1414 H   0  0  0  0  0  0
  -27.2776  -14.2337   19.0793 H   0  0  0  0  0  0
  -28.9924  -13.7077   21.5489 H   0  0  0  0  0  0
  -27.8216  -14.9534   21.4589 H   0  0  0  0  0  0
  -25.2929   -9.5704   22.4738 H   0  0  0  0  0  0
  -24.0073   -7.4719   22.7497 H   0  0  0  0  0  0
  -21.0990   -8.8899   19.8941 H   0  0  0  0  0  0
  -22.3936  -10.9718   19.6105 H   0  0  0  0  0  0
  -21.2050   -7.6176   23.9730 H   0  0  0  0  0  0
  -21.1490   -6.0533   25.9073 H   0  0  0  0  0  0
  -22.0579   -2.7634   23.2819 H   0  0  0  0  0  0
  -22.4064  -11.9701   22.4905 H   0  0  0  0  0  0
  -21.0920  -13.0888   22.2670 H   0  0  0  0  0  0
  -24.5401  -15.8658   20.5428 H   0  0  0  0  0  0
  -26.1722  -15.7055   20.1280 H   0  0  0  0  0  0
  -26.8045  -32.4265   23.0474 H   0  0  0  0  0  0
  -24.9897  -33.8679   24.9404 H   0  0  0  0  0  0
  -23.0187  -31.0967   21.1806 H   0  0  0  0  0  0
  -23.3788  -35.9223   23.3235 H   0  0  0  0  0  0
  -24.3528  -36.8755   22.2119 H   0  0  0  0  0  0
  -23.7246  -37.6035   23.6910 H   0  0  0  0  0  0
  -26.5344  -30.7726   20.6600 H   0  0  0  0  0  0
  -27.0641  -30.2010   22.1709 H   0  0  0  0  0  0
  -28.2197  -27.5479   21.4214 H   0  0  0  0  0  0
  -25.7394  -25.1733   18.9495 H   0  0  0  0  0  0
  -24.1892  -26.9469   18.8641 H   0  0  0  0  0  0
  -24.1824  -30.1556   19.3483 H   0  0  0  0  0  0
  -23.0251  -28.9482   19.7927 H   0  0  0  0  0  0
  -25.1440  -36.1218   25.0707 H   0  0  0  0  0  0
  -21.0100  -28.3541   24.1135 H   0  0  0  0  0  0
  -20.5570  -26.2501   23.3771 H   0  0  0  0  0  0
  -21.6658  -26.7222   22.1313 H   0  0  0  0  0  0
  -19.6938  -25.6203   21.1362 H   0  0  0  0  0  0
  -19.6781  -27.3059   20.6695 H   0  0  0  0  0  0
  -17.4260  -26.6731   21.3990 H   0  0  0  0  0  0
  -18.0326  -26.0157   22.9025 H   0  0  0  0  0  0
  -19.8050  -30.7416   24.2036 H   0  0  0  0  0  0
  -17.5103  -31.6287   24.5170 H   0  0  0  0  0  0
  -15.5430  -30.2949   23.7791 H   0  0  0  0  0  0
  -15.8764  -28.0792   22.7184 H   0  0  0  0  0  0
  -24.5838  -30.7206   25.7348 H   0  0  0  0  0  0
  -24.8694  -32.3214   26.4036 H   0  0  0  0  0  0
  -25.7549  -30.9382   27.0172 H   0  0  0  0  0  0
  -26.3669  -29.5943   24.2379 H   0  0  0  0  0  0
  -27.4133  -29.7486   25.6186 H   0  0  0  0  0  0
  -27.9679  -30.3606   24.0886 H   0  0  0  0  0  0
  -27.2432  -33.3944   26.1515 H   0  0  0  0  0  0
  -28.4080  -32.6722   25.0519 H   0  0  0  0  0  0
  -28.0379  -31.8981   26.5852 H   0  0  0  0  0  0
  -28.2474  -37.9975   24.7492 H   0  0  0  0  0  0
  -28.1100  -36.2480   24.6329 H   0  0  0  0  0  0
  -27.2239  -37.1269   25.8869 H   0  0  0  0  0  0
  -21.0252  -29.8391   21.5998 H   0  0  0  0  0  0
  -25.9983  -38.2451   24.1409 H   0  0  0  0  0  0
  -30.5809  -20.6996   20.2673 H   0  0  0  0  0  0
  -29.8742  -20.4880   21.8096 H   0  0  0  0  0  0
  -28.4125  -20.1991   18.5610 H   0  0  0  0  0  0
  -27.1573  -19.8611   19.6737 H   0  0  0  0  0  0
  -27.7074  -21.8612   21.2264 H   0  0  0  0  0  0
  1 25  1  0  0  0
  1 30  2  0  0  0
  1 74  1  0  0  0
  2  3  1  0  0  0
  2 25  1  0  0  0
  2 75  1  0  0  0
  2 76  1  0  0  0
  3  4  1  0  0  0
  3 77  1  0  0  0
  3 78  1  0  0  0
  4  5  1  0  0  0
  4 79  1  0  0  0
  4 80  1  0  0  0
  5  6  1  0  0  0
  5 26  1  0  0  0
  5 81  1  0  0  0
  6 25  1  0  0  0
  6 82  1  0  0  0
  6 83  1  0  0  0
  7  8  2  0  0  0
  7 26  1  0  0  0
  7 29  1  0  0  0
  8  9  1  0  0  0
  8 22  1  0  0  0
  9 10  1  0  0  0
  9 27  2  0  0  0
 10 11  2  0  0  0
 10 15  1  0  0  0
 11 12  1  0  0  0
 11 84  1  0  0  0
 12 13  2  0  0  0
 12 85  1  0  0  0
 13 14  1  0  0  0
 13 31  1  0  0  0
 14 15  2  0  0  0
 14 86  1  0  0  0
 15 87  1  0  0  0
 16 17  2  0  0  0
 16 21  1  0  0  0
 16 31  1  0  0  0
 17 18  1  0  0  0
 17 88  1  0  0  0
 18 19  2  0  0  0
 18 89  1  0  0  0
 19 20  1  0  0  0
 19 24  1  0  0  0
 20 21  2  0  0  0
 20 90  1  0  0  0
 21 23  1  0  0  0
 22 28  1  0  0  0
 22 32  2  0  0  0
 26 27  1  0  0  0
 28 91  1  0  0  0
 28 92  1  0  0  0
 29 93  1  0  0  0
 29 94  1  0  0  0
 33 34  1  0  0  0
 33 66  1  0  0  0
 33 70  2  0  0  0
 34 36  1  0  0  0
 34 59  1  0  0  0
 34 95  1  0  0  0
 35 44  2  0  0  0
 35 45  1  0  0  0
 35 68  1  0  0  0
 36 56  1  0  0  0
 36 96  1  0  0  0
 37 39  1  0  0  0
 37 47  1  0  0  0
 37 66  1  0  0  0
 37 97  1  0  0  0
 38 43  2  0  0  0
 38 46  1  0  0  0
 38 47  1  0  0  0
 39 64  1  0  0  0
 39 67  2  0  0  0
 40 52  1  0  0  0
 40 53  2  0  0  0
 40 58  1  0  0  0
 41 98  1  0  0  0
 41 99  1  0  0  0
 41100  1  0  0  0
 41 48  1  0  0  0
 42 43  1  0  0  0
 42 66  1  0  0  0
 42101  1  0  0  0
 42102  1  0  0  0
 43 44  1  0  0  0
 44103  1  0  0  0
 45 46  2  0  0  0
 45104  1  0  0  0
 46105  1  0  0  0
 47106  1  0  0  0
 47107  1  0  0  0
 48 56  1  0  0  0
 48 65  1  0  0  0
 48108  1  0  0  0
 49 50  1  0  0  0
 49 53  1  0  0  0
 49 64  1  0  0  0
 49109  1  0  0  0
 50 51  1  0  0  0
 50110  1  0  0  0
 50111  1  0  0  0
 51 52  1  0  0  0
 51112  1  0  0  0
 51113  1  0  0  0
 52114  1  0  0  0
 52115  1  0  0  0
 53 54  1  0  0  0
 54 55  2  0  0  0
 54116  1  0  0  0
 55 57  1  0  0  0
 55117  1  0  0  0
 56 69  2  0  0  0
 57 58  2  0  0  0
 57118  1  0  0  0
 58119  1  0  0  0
 59 60  1  0  0  0
 59 61  1  0  0  0
 59 62  1  0  0  0
 60120  1  0  0  0
 60121  1  0  0  0
 60122  1  0  0  0
 61123  1  0  0  0
 61124  1  0  0  0
 61125  1  0  0  0
 62126  1  0  0  0
 62127  1  0  0  0
 62128  1  0  0  0
 63 65  1  0  0  0
 63129  1  0  0  0
 63130  1  0  0  0
 63131  1  0  0  0
 64132  1  0  0  0
 65133  1  0  0  0
 68 73  1  0  0  0
 71 73  1  0  0  0
 71 74  1  0  0  0
 71134  1  0  0  0
 71135  1  0  0  0
 72 73  1  0  0  0
 72 74  1  0  0  0
 72136  1  0  0  0
 72137  1  0  0  0
 73138  1  0  0  0
M  ISO  4   1 100  68 101  73 101  74 100
M  END
> <chiral flag>
0

> <version>
0

> <s_m_source_file>
/data/baiqing/PycharmProjects/Reinvent-master-3.2/result/LINK_invent/BTK/process_docking_weight1_custom_product_contain_oxygen_bond_distance_aromatic_linkinvent_7_9_3/rearranged_h_0008.sdf

> <i_m_source_file_index>
60

> <r_mmod_Potential_Energy-OPLS-2005>
8914.1044921875

> <r_mmod_Stretch_Energy-OPLS-2005>
3446.62890625

> <r_mmod_Bend_Energy-OPLS-2005>
1642.61499023438

> <r_mmod_Torsional_Energy-OPLS-2005>
286.431579589844

> <r_mmod_Improper_Torsional_Energy-OPLS-2005>
6.61277437210083

> <r_mmod_Van_der_Waal_Energy-OPLS-2005>
127.447486877441

> <r_mmod_Electrostatic_Energy-OPLS-2005>
-325.626068115234

> <r_mmod_Solvation_Energy-OPLS-2005>
-239.840286254883

> <b_mmod_Minimization_Converged-OPLS-2005>
0

> <r_mmod_RMS_Derivative-OPLS-2005>
0.144163534045219

$$$$
61
                    3D
 Structure written by MMmdl.
148156  0  0  1  0            999 V2000
  -30.5071  -14.9091   20.4349 C   0  0  0  0  0  0
  -30.4551  -12.5589   19.4897 C   0  0  0  0  0  0
  -29.5270  -12.5329   18.2509 C   0  0  0  0  0  0
  -28.0557  -12.3244   18.6627 C   0  0  0  0  0  0
  -27.6390  -13.2360   19.8459 C   0  0  2  0  0  0
  -28.6832  -13.2069   20.9838 C   0  0  0  0  0  0
  -25.2502  -13.8186   20.5684 C   0  0  0  0  0  0
  -24.1806  -13.0433   20.9232 C   0  0  0  0  0  0
  -24.6399  -11.6912   20.8753 C   0  0  0  0  0  0
  -23.9071  -10.4291   21.0410 C   0  0  0  0  0  0
  -24.3620   -9.4205   21.9187 C   0  0  0  0  0  0
  -23.6295   -8.2241   22.0753 C   0  0  0  0  0  0
  -22.4276   -8.0280   21.3543 C   0  0  0  0  0  0
  -21.9914   -9.0255   20.4646 C   0  0  0  0  0  0
  -22.7243  -10.2134   20.3057 C   0  0  0  0  0  0
  -21.6853   -6.0734   22.5279 C   0  0  0  0  0  0
  -21.4013   -6.5638   23.8214 C   0  0  0  0  0  0
  -21.3660   -5.6790   24.9176 C   0  0  0  0  0  0
  -21.6045   -4.3053   24.7225 C   0  0  0  0  0  0
  -21.8818   -3.8145   23.4345 C   0  0  0  0  0  0
  -21.9191   -4.6962   22.3402 C   0  0  0  0  0  0
  -22.7826  -13.5219   21.1885 C   0  0  0  0  0  0
  -22.1662   -4.2148   21.0979 F   0  0  0  0  0  0
  -21.5630   -3.4536   25.7737 F   0  0  0  0  0  0
  -29.9682  -13.6267   20.4039 N   0  0  0  0  0  0
  -26.2924  -12.9395   20.3236 N   0  0  0  0  0  0
  -25.9328  -11.6538   20.5724 N   0  0  0  0  0  0
  -22.0463  -12.8212   22.0436 N   0  0  0  0  0  0
  -25.4168  -15.1908   20.4052 N   0  0  0  0  0  0
  -31.6932  -15.0555   20.1170 O   0  0  0  0  0  0
  -21.6640   -6.8878   21.4242 O   0  0  0  0  0  0
  -22.3512  -14.5521   20.6720 O   0  0  0  0  0  0
  -24.6427  -31.8451   23.1897 C   0  0  0  0  0  0
  -25.9205  -32.4700   23.8281 C   0  0  1  0  0  0
  -27.2211  -27.1506   20.1461 C   0  0  0  0  0  0
  -25.5958  -33.8506   24.2201 N   0  0  0  0  0  0
  -23.4454  -30.4659   21.5347 C   0  0  2  0  0  0
  -24.8955  -28.8960   20.1110 C   0  0  0  0  0  0
  -22.7560  -29.4556   22.4859 C   0  0  0  0  0  0
  -18.0305  -28.1392   22.8473 C   0  0  0  0  0  0
  -24.1492  -36.7257   23.2641 C   0  0  0  0  0  0
  -26.0010  -30.7240   21.3865 C   0  0  0  0  0  0
  -26.0733  -29.3369   20.7275 C   0  0  0  0  0  0
  -27.2373  -28.4810   20.7275 C   0  0  0  0  0  0
  -26.0143  -26.8093   19.4938 C   0  0  0  0  0  0
  -24.8783  -27.6448   19.4791 C   0  0  0  0  0  0
  -23.6714  -29.7964   20.1537 C   0  0  0  0  0  0
  -25.4124  -36.3036   24.0316 C   0  0  1  0  0  0
  -20.5916  -28.3719   23.1233 C   0  0  2  0  0  0
  -20.6787  -26.9423   22.5398 C   0  0  0  0  0  0
  -19.5764  -26.6379   21.5204 C   0  0  0  0  0  0
  -18.1946  -26.7930   22.1618 C   0  0  0  0  0  0
  -19.1560  -28.8873   23.2846 C   0  0  0  0  0  0
  -18.9477  -30.1467   23.8874 C   0  0  0  0  0  0
  -17.6474  -30.6589   24.0556 C   0  0  0  0  0  0
  -25.9072  -34.9410   23.5066 C   0  0  0  0  0  0
  -16.5365  -29.9081   23.6334 C   0  0  0  0  0  0
  -16.7289  -28.6499   23.0357 C   0  0  0  0  0  0
  -26.4531  -31.6563   25.0717 C   0  0  0  0  0  0
  -25.3717  -31.3745   26.1411 C   0  0  0  0  0  0
  -27.0396  -30.2960   24.6292 C   0  0  0  0  0  0
  -27.6065  -32.4323   25.7504 C   0  0  0  0  0  0
  -27.5579  -37.1786   24.8465 C   0  0  0  0  0  0
  -21.4253  -29.3051   22.3608 N   0  0  0  0  0  0
  -26.4289  -37.3747   23.9408 N   0  0  0  0  0  0
  -24.7161  -31.0323   22.0923 N   0  0  0  0  0  0
  -23.4208  -28.8100   23.3004 O   0  0  0  0  0  0
  -28.2792  -26.1727   20.2114 O   0  0  0  0  0  0
  -26.5651  -34.8906   22.4640 O   0  0  0  0  0  0
  -23.5549  -32.1320   23.7127 O   0  0  0  0  0  0
  -30.4719  -18.5370   20.2646 C   0  0  0  0  0  0
  -30.1644  -19.9740   20.2051 C   0  0  0  0  0  0
  -28.2164  -18.0931   20.7744 C   0  0  0  0  0  0
  -29.5017  -17.5070   20.5544 C   0  0  0  0  0  0
  -28.8514  -20.5382   20.4159 C   0  0  0  0  0  0
  -27.9066  -19.5000   20.7045 C   0  0  0  0  0  0
  -27.9775  -24.6521   20.0891 C   0  0  0  0  0  0
  -28.9681  -23.3038   20.2982 C   0  0  0  0  0  0
  -29.6172  -15.9822   20.6695 N   0  0  0  0  0  0
  -28.3374  -21.9104   20.3404 O   0  0  0  0  0  0
  -26.2644  -19.9568   20.9920 Cl  0  0  0  0  0  0
  -31.4868  -12.7333   19.1802 H   0  0  0  0  0  0
  -30.4553  -11.5919   19.9954 H   0  0  0  0  0  0
  -29.8387  -11.7480   17.5605 H   0  0  0  0  0  0
  -29.6220  -13.4736   17.7059 H   0  0  0  0  0  0
  -27.9377  -11.2779   18.9466 H   0  0  0  0  0  0
  -27.3965  -12.4844   17.8087 H   0  0  0  0  0  0
  -27.6179  -14.2490   19.4436 H   0  0  0  0  0  0
  -28.7590  -12.2083   21.4173 H   0  0  0  0  0  0
  -28.3869  -13.8687   21.7991 H   0  0  0  0  0  0
  -25.2765   -9.5684   22.4762 H   0  0  0  0  0  0
  -24.0004   -7.4631   22.7471 H   0  0  0  0  0  0
  -21.0844   -8.8776   19.8950 H   0  0  0  0  0  0
  -22.3702  -10.9674   19.6166 H   0  0  0  0  0  0
  -21.2007   -7.6146   23.9718 H   0  0  0  0  0  0
  -21.1485   -6.0519   25.9079 H   0  0  0  0  0  0
  -22.0597   -2.7607   23.2844 H   0  0  0  0  0  0
  -22.4077  -11.9879   22.4836 H   0  0  0  0  0  0
  -21.1076  -13.1236   22.2628 H   0  0  0  0  0  0
  -24.6329  -15.8287   20.4895 H   0  0  0  0  0  0
  -26.2222  -15.6127   19.9633 H   0  0  0  0  0  0
  -26.7269  -32.5314   23.1010 H   0  0  0  0  0  0
  -25.0095  -33.9622   25.0341 H   0  0  0  0  0  0
  -22.7474  -31.2916   21.3814 H   0  0  0  0  0  0
  -23.3761  -35.9582   23.3290 H   0  0  0  0  0  0
  -24.3577  -36.8901   22.2057 H   0  0  0  0  0  0
  -23.7242  -37.6449   23.6683 H   0  0  0  0  0  0
  -26.1555  -31.4802   20.6157 H   0  0  0  0  0  0
  -26.8714  -30.7730   22.0290 H   0  0  0  0  0  0
  -28.1345  -28.8149   21.2296 H   0  0  0  0  0  0
  -25.9080  -25.8560   19.0002 H   0  0  0  0  0  0
  -23.9797  -27.3020   18.9850 H   0  0  0  0  0  0
  -23.8069  -30.5712   19.3981 H   0  0  0  0  0  0
  -22.7866  -29.2376   19.8433 H   0  0  0  0  0  0
  -25.1312  -36.1864   25.0808 H   0  0  0  0  0  0
  -21.0009  -28.3308   24.1353 H   0  0  0  0  0  0
  -20.5673  -26.2334   23.3616 H   0  0  0  0  0  0
  -21.6656  -26.7424   22.1205 H   0  0  0  0  0  0
  -19.6926  -25.6282   21.1254 H   0  0  0  0  0  0
  -19.6705  -27.3169   20.6718 H   0  0  0  0  0  0
  -17.4212  -26.6666   21.4026 H   0  0  0  0  0  0
  -18.0357  -26.0079   22.9024 H   0  0  0  0  0  0
  -19.7952  -30.7286   24.2241 H   0  0  0  0  0  0
  -17.5028  -31.6269   24.5158 H   0  0  0  0  0  0
  -15.5364  -30.2977   23.7670 H   0  0  0  0  0  0
  -15.8689  -28.0807   22.7092 H   0  0  0  0  0  0
  -24.5909  -30.7080   25.7730 H   0  0  0  0  0  0
  -24.8891  -32.2923   26.4779 H   0  0  0  0  0  0
  -25.8003  -30.8958   27.0225 H   0  0  0  0  0  0
  -26.3011  -29.6681   24.1295 H   0  0  0  0  0  0
  -27.4009  -29.7262   25.4863 H   0  0  0  0  0  0
  -27.8921  -30.4200   23.9609 H   0  0  0  0  0  0
  -27.2663  -33.3643   26.2031 H   0  0  0  0  0  0
  -28.3907  -32.6848   25.0355 H   0  0  0  0  0  0
  -28.0697  -31.8478   26.5465 H   0  0  0  0  0  0
  -28.2585  -38.0093   24.7516 H   0  0  0  0  0  0
  -28.1087  -36.2622   24.6287 H   0  0  0  0  0  0
  -27.2294  -37.1426   25.8868 H   0  0  0  0  0  0
  -20.9457  -29.8772   21.6797 H   0  0  0  0  0  0
  -26.0157  -38.2816   24.1412 H   0  0  0  0  0  0
  -31.4923  -18.2325   20.0783 H   0  0  0  0  0  0
  -30.9718  -20.6519   19.9696 H   0  0  0  0  0  0
  -27.3943  -17.4334   21.0096 H   0  0  0  0  0  0
  -27.1372  -24.4888   20.7650 H   0  0  0  0  0  0
  -27.5687  -24.5160   19.0889 H   0  0  0  0  0  0
  -29.5122  -23.4257   21.2349 H   0  0  0  0  0  0
  -29.7261  -23.3020   19.5146 H   0  0  0  0  0  0
  -28.7326  -15.5754   20.9318 H   0  0  0  0  0  0
  1 25  1  0  0  0
  1 30  2  0  0  0
  1 79  1  0  0  0
  2  3  1  0  0  0
  2 25  1  0  0  0
  2 82  1  0  0  0
  2 83  1  0  0  0
  3  4  1  0  0  0
  3 84  1  0  0  0
  3 85  1  0  0  0
  4  5  1  0  0  0
  4 86  1  0  0  0
  4 87  1  0  0  0
  5  6  1  0  0  0
  5 26  1  0  0  0
  5 88  1  0  0  0
  6 25  1  0  0  0
  6 89  1  0  0  0
  6 90  1  0  0  0
  7  8  2  0  0  0
  7 26  1  0  0  0
  7 29  1  0  0  0
  8  9  1  0  0  0
  8 22  1  0  0  0
  9 10  1  0  0  0
  9 27  2  0  0  0
 10 11  2  0  0  0
 10 15  1  0  0  0
 11 12  1  0  0  0
 11 91  1  0  0  0
 12 13  2  0  0  0
 12 92  1  0  0  0
 13 14  1  0  0  0
 13 31  1  0  0  0
 14 15  2  0  0  0
 14 93  1  0  0  0
 15 94  1  0  0  0
 16 17  2  0  0  0
 16 21  1  0  0  0
 16 31  1  0  0  0
 17 18  1  0  0  0
 17 95  1  0  0  0
 18 19  2  0  0  0
 18 96  1  0  0  0
 19 20  1  0  0  0
 19 24  1  0  0  0
 20 21  2  0  0  0
 20 97  1  0  0  0
 21 23  1  0  0  0
 22 28  1  0  0  0
 22 32  2  0  0  0
 26 27  1  0  0  0
 28 98  1  0  0  0
 28 99  1  0  0  0
 29100  1  0  0  0
 29101  1  0  0  0
 33 34  1  0  0  0
 33 66  1  0  0  0
 33 70  2  0  0  0
 34 36  1  0  0  0
 34 59  1  0  0  0
 34102  1  0  0  0
 35 44  2  0  0  0
 35 45  1  0  0  0
 35 68  1  0  0  0
 36 56  1  0  0  0
 36103  1  0  0  0
 37 39  1  0  0  0
 37 47  1  0  0  0
 37 66  1  0  0  0
 37104  1  0  0  0
 38 43  2  0  0  0
 38 46  1  0  0  0
 38 47  1  0  0  0
 39 64  1  0  0  0
 39 67  2  0  0  0
 40 52  1  0  0  0
 40 53  2  0  0  0
 40 58  1  0  0  0
 41105  1  0  0  0
 41106  1  0  0  0
 41107  1  0  0  0
 41 48  1  0  0  0
 42 43  1  0  0  0
 42 66  1  0  0  0
 42108  1  0  0  0
 42109  1  0  0  0
 43 44  1  0  0  0
 44110  1  0  0  0
 45 46  2  0  0  0
 45111  1  0  0  0
 46112  1  0  0  0
 47113  1  0  0  0
 47114  1  0  0  0
 48 56  1  0  0  0
 48 65  1  0  0  0
 48115  1  0  0  0
 49 50  1  0  0  0
 49 53  1  0  0  0
 49 64  1  0  0  0
 49116  1  0  0  0
 50 51  1  0  0  0
 50117  1  0  0  0
 50118  1  0  0  0
 51 52  1  0  0  0
 51119  1  0  0  0
 51120  1  0  0  0
 52121  1  0  0  0
 52122  1  0  0  0
 53 54  1  0  0  0
 54 55  2  0  0  0
 54123  1  0  0  0
 55 57  1  0  0  0
 55124  1  0  0  0
 56 69  2  0  0  0
 57 58  2  0  0  0
 57125  1  0  0  0
 58126  1  0  0  0
 59 60  1  0  0  0
 59 61  1  0  0  0
 59 62  1  0  0  0
 60127  1  0  0  0
 60128  1  0  0  0
 60129  1  0  0  0
 61130  1  0  0  0
 61131  1  0  0  0
 61132  1  0  0  0
 62133  1  0  0  0
 62134  1  0  0  0
 62135  1  0  0  0
 63 65  1  0  0  0
 63136  1  0  0  0
 63137  1  0  0  0
 63138  1  0  0  0
 64139  1  0  0  0
 65140  1  0  0  0
 68 77  1  0  0  0
 71 72  2  0  0  0
 71 74  1  0  0  0
 71141  1  0  0  0
 72 75  1  0  0  0
 72142  1  0  0  0
 73 74  2  0  0  0
 73 76  1  0  0  0
 73143  1  0  0  0
 74 79  1  0  0  0
 75 76  2  0  0  0
 75 80  1  0  0  0
 76 81  1  0  0  0
 77 78  1  0  0  0
 77144  1  0  0  0
 77145  1  0  0  0
 78 80  1  0  0  0
 78146  1  0  0  0
 78147  1  0  0  0
 79148  1  0  0  0
M  ISO  4   1 100  68 101  77 101  79 100
M  END
> <chiral flag>
0

> <version>
0

> <s_m_source_file>
/data/baiqing/PycharmProjects/Reinvent-master-3.2/result/LINK_invent/BTK/process_docking_weight1_custom_product_contain_oxygen_bond_distance_aromatic_linkinvent_7_9_3/rearranged_h_0008.sdf

> <i_m_source_file_index>
61

> <r_mmod_Potential_Energy-OPLS-2005>
484.967193603516

> <r_mmod_Stretch_Energy-OPLS-2005>
218.050033569336

> <r_mmod_Bend_Energy-OPLS-2005>
303.205078125

> <r_mmod_Torsional_Energy-OPLS-2005>
211.642440795898

> <r_mmod_Improper_Torsional_Energy-OPLS-2005>
4.45681285858154

> <r_mmod_Van_der_Waal_Energy-OPLS-2005>
129.603378295898

> <r_mmod_Electrostatic_Energy-OPLS-2005>
-342.015991210938

> <r_mmod_Solvation_Energy-OPLS-2005>
-213.363555908203

> <b_mmod_Minimization_Converged-OPLS-2005>
0

> <r_mmod_RMS_Derivative-OPLS-2005>
0.425622463226318

$$$$
62
                    3D
 Structure written by MMmdl.
162170  0  0  1  0            999 V2000
  -30.7142  -14.4558   20.5318 C   0  0  0  0  0  0
  -30.4202  -12.2863   19.4361 C   0  0  0  0  0  0
  -29.5011  -12.4953   18.2144 C   0  0  0  0  0  0
  -28.0201  -12.3634   18.6227 C   0  0  0  0  0  0
  -27.6643  -13.2060   19.8769 C   0  0  2  0  0  0
  -28.7042  -13.0069   21.0055 C   0  0  0  0  0  0
  -25.2619  -13.8166   20.5673 C   0  0  0  0  0  0
  -24.1861  -13.0446   20.9194 C   0  0  0  0  0  0
  -24.6412  -11.6917   20.8741 C   0  0  0  0  0  0
  -23.9064  -10.4318   21.0418 C   0  0  0  0  0  0
  -24.3620   -9.4233   21.9198 C   0  0  0  0  0  0
  -23.6302   -8.2261   22.0757 C   0  0  0  0  0  0
  -22.4281   -8.0308   21.3548 C   0  0  0  0  0  0
  -21.9922   -9.0285   20.4648 C   0  0  0  0  0  0
  -22.7240  -10.2170   20.3061 C   0  0  0  0  0  0
  -21.6855   -6.0755   22.5283 C   0  0  0  0  0  0
  -21.4013   -6.5650   23.8223 C   0  0  0  0  0  0
  -21.3658   -5.6794   24.9179 C   0  0  0  0  0  0
  -21.6037   -4.3059   24.7218 C   0  0  0  0  0  0
  -21.8817   -3.8162   23.4337 C   0  0  0  0  0  0
  -21.9198   -4.6986   22.3399 C   0  0  0  0  0  0
  -22.7893  -13.5269   21.1856 C   0  0  0  0  0  0
  -22.1660   -4.2176   21.0977 F   0  0  0  0  0  0
  -21.5638   -3.4537   25.7729 F   0  0  0  0  0  0
  -30.0389  -13.2806   20.4491 N   0  0  0  0  0  0
  -26.3048  -12.9321   20.3374 N   0  0  0  0  0  0
  -25.9336  -11.6483   20.5767 N   0  0  0  0  0  0
  -22.0499  -12.8267   22.0399 N   0  0  0  0  0  0
  -25.4356  -15.1874   20.4066 N   0  0  0  0  0  0
  -31.8647  -14.5973   20.1101 O   0  0  0  0  0  0
  -21.6637   -6.8904   21.4246 O   0  0  0  0  0  0
  -22.3593  -14.5590   20.6730 O   0  0  0  0  0  0
  -24.6152  -31.8705   23.2116 C   0  0  0  0  0  0
  -25.9058  -32.4818   23.8407 C   0  0  1  0  0  0
  -27.2380  -27.4540   20.0987 C   0  0  0  0  0  0
  -25.5932  -33.8618   24.2376 N   0  0  0  0  0  0
  -23.3987  -30.4943   21.5504 C   0  0  2  0  0  0
  -24.8449  -28.9610   20.1146 C   0  0  0  0  0  0
  -22.7410  -29.4687   22.4999 C   0  0  0  0  0  0
  -18.0283  -28.1381   22.8511 C   0  0  0  0  0  0
  -24.1477  -36.7307   23.2628 C   0  0  0  0  0  0
  -25.9224  -30.8463   21.3534 C   0  0  0  0  0  0
  -26.0028  -29.4793   20.7061 C   0  0  0  0  0  0
  -27.2025  -28.7352   20.6901 C   0  0  0  0  0  0
  -26.0617  -26.9451   19.5009 C   0  0  0  0  0  0
  -24.8691  -27.6936   19.5061 C   0  0  0  0  0  0
  -23.6046  -29.8249   20.1644 C   0  0  0  0  0  0
  -25.4078  -36.3100   24.0363 C   0  0  1  0  0  0
  -20.5868  -28.3661   23.1335 C   0  0  2  0  0  0
  -20.6766  -26.9406   22.5413 C   0  0  0  0  0  0
  -19.5737  -26.6402   21.5216 C   0  0  0  0  0  0
  -18.1921  -26.7932   22.1640 C   0  0  0  0  0  0
  -19.1530  -28.8844   23.2920 C   0  0  0  0  0  0
  -18.9455  -30.1457   23.8918 C   0  0  0  0  0  0
  -17.6454  -30.6580   24.0575 C   0  0  0  0  0  0
  -25.9030  -34.9471   23.5156 C   0  0  0  0  0  0
  -16.5351  -29.9086   23.6316 C   0  0  0  0  0  0
  -16.7275  -28.6509   23.0334 C   0  0  0  0  0  0
  -26.4489  -31.6566   25.0719 C   0  0  0  0  0  0
  -25.3762  -31.3648   26.1476 C   0  0  0  0  0  0
  -27.0296  -30.3011   24.6043 C   0  0  0  0  0  0
  -27.6094  -32.4233   25.7483 C   0  0  0  0  0  0
  -27.5568  -37.1798   24.8479 C   0  0  0  0  0  0
  -21.4141  -29.3042   22.3752 N   0  0  0  0  0  0
  -26.4264  -37.3787   23.9445 N   0  0  0  0  0  0
  -24.6638  -31.0839   22.0982 N   0  0  0  0  0  0
  -23.4199  -28.8225   23.3024 O   0  0  0  0  0  0
  -28.4243  -26.7550   20.0822 O   0  0  0  0  0  0
  -26.5565  -34.8928   22.4704 O   0  0  0  0  0  0
  -23.5360  -32.1445   23.7544 O   0  0  0  0  0  0
  -28.9599  -19.1894   23.0851 C   0  0  0  0  0  0
  -29.1377  -18.0365   22.2921 C   0  0  0  0  0  0
  -29.7053  -20.3578   22.8209 C   0  0  0  0  0  0
  -30.8141  -19.2165   20.9768 C   0  0  0  0  0  0
  -30.0595  -18.0476   21.2243 C   0  0  0  0  0  0
  -30.6454  -20.3750   21.7671 C   0  0  0  0  0  0
  -30.9151  -21.9591   19.1353 C   0  0  0  0  0  0
  -30.2257  -16.8580   20.2853 C   0  0  0  0  0  0
  -31.5192  -21.6078   21.5193 C   0  0  0  0  0  0
  -29.7395  -24.7291   20.3128 C   0  0  0  0  0  0
  -29.7787  -23.2935   20.8837 C   0  0  0  0  0  0
  -28.3594  -25.3853   20.4798 C   0  0  0  0  0  0
  -29.9624  -15.5239   20.8404 N   0  0  0  0  0  0
  -31.0080  -22.5553   20.4901 N   0  3  1  0  0  0
  -31.4678  -12.3692   19.1390 H   0  0  0  0  0  0
  -30.3048  -11.2787   19.8399 H   0  0  0  0  0  0
  -29.7398  -11.7670   17.4389 H   0  0  0  0  0  0
  -29.6829  -13.4769   17.7723 H   0  0  0  0  0  0
  -27.8260  -11.3081   18.8158 H   0  0  0  0  0  0
  -27.3731  -12.6410   17.7909 H   0  0  0  0  0  0
  -27.7034  -14.2511   19.5713 H   0  0  0  0  0  0
  -28.6699  -11.9845   21.3855 H   0  0  0  0  0  0
  -28.4778  -13.6469   21.8606 H   0  0  0  0  0  0
  -25.2769   -9.5701   22.4763 H   0  0  0  0  0  0
  -24.0021   -7.4635   22.7461 H   0  0  0  0  0  0
  -21.0863   -8.8797   19.8939 H   0  0  0  0  0  0
  -22.3710  -10.9709   19.6165 H   0  0  0  0  0  0
  -21.1996   -7.6158   23.9734 H   0  0  0  0  0  0
  -21.1475   -6.0521   25.9084 H   0  0  0  0  0  0
  -22.0598   -2.7624   23.2822 H   0  0  0  0  0  0
  -22.4093  -11.9902   22.4744 H   0  0  0  0  0  0
  -21.1116  -13.1311   22.2596 H   0  0  0  0  0  0
  -24.6699  -15.8442   20.5176 H   0  0  0  0  0  0
  -26.2878  -15.6243   20.0766 H   0  0  0  0  0  0
  -26.7154  -32.5543   23.1191 H   0  0  0  0  0  0
  -25.0110  -33.9800   25.0541 H   0  0  0  0  0  0
  -22.6853  -31.3091   21.4103 H   0  0  0  0  0  0
  -23.3731  -35.9654   23.3288 H   0  0  0  0  0  0
  -24.3552  -36.8910   22.2040 H   0  0  0  0  0  0
  -23.7267  -37.6534   23.6623 H   0  0  0  0  0  0
  -26.0176  -31.6127   20.5822 H   0  0  0  0  0  0
  -26.8159  -30.9070   21.9624 H   0  0  0  0  0  0
  -28.1003  -29.1372   21.1382 H   0  0  0  0  0  0
  -26.0598  -25.9841   19.0065 H   0  0  0  0  0  0
  -23.9822  -27.2926   19.0352 H   0  0  0  0  0  0
  -23.7053  -30.5988   19.4025 H   0  0  0  0  0  0
  -22.7291  -29.2427   19.8701 H   0  0  0  0  0  0
  -25.1240  -36.1936   25.0854 H   0  0  0  0  0  0
  -20.9965  -28.3206   24.1454 H   0  0  0  0  0  0
  -20.5651  -26.2276   23.3591 H   0  0  0  0  0  0
  -21.6635  -26.7441   22.1209 H   0  0  0  0  0  0
  -19.6883  -25.6319   21.1233 H   0  0  0  0  0  0
  -19.6660  -27.3231   20.6758 H   0  0  0  0  0  0
  -17.4189  -26.6713   21.4045 H   0  0  0  0  0  0
  -18.0301  -26.0058   22.9022 H   0  0  0  0  0  0
  -19.7927  -30.7278   24.2280 H   0  0  0  0  0  0
  -17.5004  -31.6248   24.5192 H   0  0  0  0  0  0
  -15.5350  -30.2988   23.7619 H   0  0  0  0  0  0
  -15.8685  -28.0836   22.7008 H   0  0  0  0  0  0
  -24.6008  -30.6888   25.7846 H   0  0  0  0  0  0
  -24.8851  -32.2774   26.4863 H   0  0  0  0  0  0
  -25.8144  -30.8913   27.0275 H   0  0  0  0  0  0
  -26.2820  -29.6784   24.1119 H   0  0  0  0  0  0
  -27.4105  -29.7219   25.4472 H   0  0  0  0  0  0
  -27.8641  -30.4330   23.9147 H   0  0  0  0  0  0
  -27.2779  -33.3567   26.2038 H   0  0  0  0  0  0
  -28.3933  -32.6716   25.0311 H   0  0  0  0  0  0
  -28.0718  -31.8333   26.5409 H   0  0  0  0  0  0
  -28.2592  -38.0086   24.7487 H   0  0  0  0  0  0
  -28.1058  -36.2622   24.6313 H   0  0  0  0  0  0
  -27.2291  -37.1449   25.8884 H   0  0  0  0  0  0
  -20.9288  -29.8794   21.7008 H   0  0  0  0  0  0
  -26.0155  -38.2875   24.1410 H   0  0  0  0  0  0
  -28.2508  -19.1709   23.9029 H   0  0  0  0  0  0
  -28.5534  -17.1513   22.5020 H   0  0  0  0  0  0
  -29.5659  -21.2319   23.4441 H   0  0  0  0  0  0
  -31.5318  -19.2228   20.1663 H   0  0  0  0  0  0
  -30.0913  -21.2473   19.0713 H   0  0  0  0  0  0
  -31.8343  -21.4339   18.8747 H   0  0  0  0  0  0
  -30.7520  -22.7236   18.3755 H   0  0  0  0  0  0
  -29.5289  -17.0016   19.4568 H   0  0  0  0  0  0
  -31.2209  -16.9199   19.8389 H   0  0  0  0  0  0
  -32.5147  -21.2700   21.2268 H   0  0  0  0  0  0
  -31.6737  -22.1399   22.4587 H   0  0  0  0  0  0
  -29.9915  -24.7334   19.2519 H   0  0  0  0  0  0
  -30.5001  -25.3365   20.8072 H   0  0  0  0  0  0
  -28.8983  -22.7279   20.5733 H   0  0  0  0  0  0
  -29.7157  -23.3699   21.9704 H   0  0  0  0  0  0
  -27.6367  -24.8256   19.8871 H   0  0  0  0  0  0
  -28.0424  -25.3304   21.5237 H   0  0  0  0  0  0
  -29.0277  -15.3363   21.1653 H   0  0  0  0  0  0
  -31.7331  -23.2535   20.4300 H   0  0  0  0  0  0
  1 25  1  0  0  0
  1 30  2  0  0  0
  1 83  1  0  0  0
  2  3  1  0  0  0
  2 25  1  0  0  0
  2 85  1  0  0  0
  2 86  1  0  0  0
  3  4  1  0  0  0
  3 87  1  0  0  0
  3 88  1  0  0  0
  4  5  1  0  0  0
  4 89  1  0  0  0
  4 90  1  0  0  0
  5  6  1  0  0  0
  5 26  1  0  0  0
  5 91  1  0  0  0
  6 25  1  0  0  0
  6 92  1  0  0  0
  6 93  1  0  0  0
  7  8  2  0  0  0
  7 26  1  0  0  0
  7 29  1  0  0  0
  8  9  1  0  0  0
  8 22  1  0  0  0
  9 10  1  0  0  0
  9 27  2  0  0  0
 10 11  2  0  0  0
 10 15  1  0  0  0
 11 12  1  0  0  0
 11 94  1  0  0  0
 12 13  2  0  0  0
 12 95  1  0  0  0
 13 14  1  0  0  0
 13 31  1  0  0  0
 14 15  2  0  0  0
 14 96  1  0  0  0
 15 97  1  0  0  0
 16 17  2  0  0  0
 16 21  1  0  0  0
 16 31  1  0  0  0
 17 18  1  0  0  0
 17 98  1  0  0  0
 18 19  2  0  0  0
 18 99  1  0  0  0
 19 20  1  0  0  0
 19 24  1  0  0  0
 20 21  2  0  0  0
 20100  1  0  0  0
 21 23  1  0  0  0
 22 28  1  0  0  0
 22 32  2  0  0  0
 26 27  1  0  0  0
 28101  1  0  0  0
 28102  1  0  0  0
 29103  1  0  0  0
 29104  1  0  0  0
 33 34  1  0  0  0
 33 66  1  0  0  0
 33 70  2  0  0  0
 34 36  1  0  0  0
 34 59  1  0  0  0
 34105  1  0  0  0
 35 44  2  0  0  0
 35 45  1  0  0  0
 35 68  1  0  0  0
 36 56  1  0  0  0
 36106  1  0  0  0
 37 39  1  0  0  0
 37 47  1  0  0  0
 37 66  1  0  0  0
 37107  1  0  0  0
 38 43  2  0  0  0
 38 46  1  0  0  0
 38 47  1  0  0  0
 39 64  1  0  0  0
 39 67  2  0  0  0
 40 52  1  0  0  0
 40 53  2  0  0  0
 40 58  1  0  0  0
 41108  1  0  0  0
 41109  1  0  0  0
 41110  1  0  0  0
 41 48  1  0  0  0
 42 43  1  0  0  0
 42 66  1  0  0  0
 42111  1  0  0  0
 42112  1  0  0  0
 43 44  1  0  0  0
 44113  1  0  0  0
 45 46  2  0  0  0
 45114  1  0  0  0
 46115  1  0  0  0
 47116  1  0  0  0
 47117  1  0  0  0
 48 56  1  0  0  0
 48 65  1  0  0  0
 48118  1  0  0  0
 49 50  1  0  0  0
 49 53  1  0  0  0
 49 64  1  0  0  0
 49119  1  0  0  0
 50 51  1  0  0  0
 50120  1  0  0  0
 50121  1  0  0  0
 51 52  1  0  0  0
 51122  1  0  0  0
 51123  1  0  0  0
 52124  1  0  0  0
 52125  1  0  0  0
 53 54  1  0  0  0
 54 55  2  0  0  0
 54126  1  0  0  0
 55 57  1  0  0  0
 55127  1  0  0  0
 56 69  2  0  0  0
 57 58  2  0  0  0
 57128  1  0  0  0
 58129  1  0  0  0
 59 60  1  0  0  0
 59 61  1  0  0  0
 59 62  1  0  0  0
 60130  1  0  0  0
 60131  1  0  0  0
 60132  1  0  0  0
 61133  1  0  0  0
 61134  1  0  0  0
 61135  1  0  0  0
 62136  1  0  0  0
 62137  1  0  0  0
 62138  1  0  0  0
 63 65  1  0  0  0
 63139  1  0  0  0
 63140  1  0  0  0
 63141  1  0  0  0
 64142  1  0  0  0
 65143  1  0  0  0
 68 82  1  0  0  0
 71 72  2  0  0  0
 71 73  1  0  0  0
 71144  1  0  0  0
 72 75  1  0  0  0
 72145  1  0  0  0
 73 76  2  0  0  0
 73146  1  0  0  0
 74 75  2  0  0  0
 74 76  1  0  0  0
 74147  1  0  0  0
 75 78  1  0  0  0
 76 79  1  0  0  0
 77148  1  0  0  0
 77149  1  0  0  0
 77150  1  0  0  0
 77 84  1  0  0  0
 78 83  1  0  0  0
 78151  1  0  0  0
 78152  1  0  0  0
 79 84  1  0  0  0
 79153  1  0  0  0
 79154  1  0  0  0
 80 81  1  0  0  0
 80 82  1  0  0  0
 80155  1  0  0  0
 80156  1  0  0  0
 81 84  1  0  0  0
 81157  1  0  0  0
 81158  1  0  0  0
 82159  1  0  0  0
 82160  1  0  0  0
 83161  1  0  0  0
 84162  1  0  0  0
M  CHG  1  84   1
M  ISO  4   1 100  68 101  82 101  83 100
M  END
> <chiral flag>
0

> <version>
0

> <s_m_source_file>
/data/baiqing/PycharmProjects/Reinvent-master-3.2/result/LINK_invent/BTK/process_docking_weight1_custom_product_contain_oxygen_bond_distance_aromatic_linkinvent_7_9_3/rearranged_h_0008.sdf

> <i_m_source_file_index>
62

> <r_mmod_Potential_Energy-OPLS-2005>
-245.641830444336

> <r_mmod_Stretch_Energy-OPLS-2005>
34.2123069763184

> <r_mmod_Bend_Energy-OPLS-2005>
92.7159423828125

> <r_mmod_Torsional_Energy-OPLS-2005>
217.112335205078

> <r_mmod_Improper_Torsional_Energy-OPLS-2005>
8.15159320831299

> <r_mmod_Van_der_Waal_Energy-OPLS-2005>
153.778106689453

> <r_mmod_Electrostatic_Energy-OPLS-2005>
-314.186828613281

> <r_mmod_Solvation_Energy-OPLS-2005>
-450.222930908203

> <b_mmod_Minimization_Converged-OPLS-2005>
0

> <r_mmod_RMS_Derivative-OPLS-2005>
2.5086817741394

$$$$
63
                    3D
 Structure written by MMmdl.
144152  0  0  1  0            999 V2000
  -30.0432  -16.4052   20.2827 C   0  0  0  0  0  0
  -30.3328  -13.6745   19.5273 C   0  0  0  0  0  0
  -29.5635  -12.8868   18.3984 C   0  0  0  0  0  0
  -28.2146  -12.3581   18.8870 C   0  0  0  0  0  0
  -27.5749  -13.4024   19.8153 C   0  0  2  0  0  0
  -28.5306  -14.0583   20.8723 C   0  0  0  0  0  0
  -25.2194  -13.8442   20.5934 C   0  0  0  0  0  0
  -24.1673  -13.0461   20.9340 C   0  0  0  0  0  0
  -24.6506  -11.7014   20.8757 C   0  0  0  0  0  0
  -23.9221  -10.4315   21.0357 C   0  0  0  0  0  0
  -24.3718   -9.4222   21.9157 C   0  0  0  0  0  0
  -23.6352   -8.2274   22.0748 C   0  0  0  0  0  0
  -22.4329   -8.0314   21.3544 C   0  0  0  0  0  0
  -21.9997   -9.0294   20.4636 C   0  0  0  0  0  0
  -22.7368  -10.2153   20.3027 C   0  0  0  0  0  0
  -21.6873   -6.0759   22.5278 C   0  0  0  0  0  0
  -21.4030   -6.5654   23.8214 C   0  0  0  0  0  0
  -21.3664   -5.6800   24.9171 C   0  0  0  0  0  0
  -21.6043   -4.3063   24.7218 C   0  0  0  0  0  0
  -21.8817   -3.8160   23.4337 C   0  0  0  0  0  0
  -21.9198   -4.6982   22.3397 C   0  0  0  0  0  0
  -22.7657  -13.5108   21.1939 C   0  0  0  0  0  0
  -22.1663   -4.2166   21.0974 F   0  0  0  0  0  0
  -21.5625   -3.4543   25.7729 F   0  0  0  0  0  0
  -29.5625  -14.9202   20.1610 N   0  0  0  0  0  0
  -26.2780  -12.9970   20.3437 N   0  0  0  0  0  0
  -25.9499  -11.6926   20.5691 N   0  0  0  0  0  0
  -22.0349  -12.8061   22.0489 N   0  0  0  0  0  0
  -25.3629  -15.2201   20.4371 N   0  0  0  0  0  0
  -31.2837  -16.1500   20.2068 O   0  0  0  0  0  0
  -21.6670   -6.8919   21.4247 O   0  0  0  0  0  0
  -22.3302  -14.5394   20.6771 O   0  0  0  0  0  0
  -24.7337  -31.7360   23.1071 C   0  0  0  0  0  0
  -25.9660  -32.4156   23.7816 C   0  0  1  0  0  0
  -27.2533  -26.1722   20.2583 C   0  0  0  0  0  0
  -25.6016  -33.8012   24.1643 N   0  0  0  0  0  0
  -23.5836  -30.3123   21.4738 C   0  0  2  0  0  0
  -25.0458  -28.5390   20.1327 C   0  0  0  0  0  0
  -22.7987  -29.3971   22.4572 C   0  0  0  0  0  0
  -18.0369  -28.1449   22.8427 C   0  0  0  0  0  0
  -24.1497  -36.7020   23.2668 C   0  0  0  0  0  0
  -26.1811  -30.2920   21.4521 C   0  0  0  0  0  0
  -26.2407  -28.7970   20.8120 C   0  0  0  0  0  0
  -27.2991  -27.6603   20.8283 C   0  0  0  0  0  0
  -26.0228  -26.2599   19.5094 C   0  0  0  0  0  0
  -25.0077  -27.3008   19.4556 C   0  0  0  0  0  0
  -23.8658  -29.5576   20.1329 C   0  0  0  0  0  0
  -25.4167  -36.2715   24.0243 C   0  0  1  0  0  0
  -20.6027  -28.3827   23.1049 C   0  0  2  0  0  0
  -20.6806  -26.9437   22.5416 C   0  0  0  0  0  0
  -19.5793  -26.6351   21.5223 C   0  0  0  0  0  0
  -18.1975  -26.7965   22.1609 C   0  0  0  0  0  0
  -19.1648  -28.8974   23.2702 C   0  0  0  0  0  0
  -18.9546  -30.1545   23.8770 C   0  0  0  0  0  0
  -17.6530  -30.6616   24.0539 C   0  0  0  0  0  0
  -25.9178  -34.9119   23.4823 C   0  0  0  0  0  0
  -16.5416  -29.9089   23.6364 C   0  0  0  0  0  0
  -16.7346  -28.6516   23.0375 C   0  0  0  0  0  0
  -26.4675  -31.6424   25.0657 C   0  0  0  0  0  0
  -25.3605  -31.3886   26.1175 C   0  0  0  0  0  0
  -27.0695  -30.2712   24.6936 C   0  0  0  0  0  0
  -27.6020  -32.4416   25.7502 C   0  0  0  0  0  0
  -27.5547  -37.1663   24.8466 C   0  0  0  0  0  0
  -21.4589  -29.2965   22.3310 N   0  0  0  0  0  0
  -26.4248  -37.3535   23.9408 N   0  0  0  0  0  0
  -24.8631  -30.8267   22.0625 N   0  0  0  0  0  0
  -23.4182  -28.7667   23.3165 O   0  0  0  0  0  0
  -28.1685  -24.7277   20.3394 O   0  0  0  0  0  0
  -26.5899  -34.8803   22.4497 O   0  0  0  0  0  0
  -23.6246  -32.0682   23.5688 O   0  0  0  0  0  0
  -29.5306  -21.4153   19.6259 C   0  0  0  0  0  0
  -28.0287  -21.0583   20.9515 C   0  0  0  0  0  0
  -30.1095  -19.6269   20.0339 C   0  0  0  0  0  0
  -28.2031  -19.1804   20.5447 C   0  0  0  0  0  0
  -28.2937  -22.6955   20.1302 C   0  0  0  0  0  0
  -29.4651  -18.0625   20.2508 N   0  0  0  0  0  0
  -31.2536  -14.0308   19.0647 H   0  0  0  0  0  0
  -30.6845  -12.9884   20.3004 H   0  0  0  0  0  0
  -30.1743  -12.0681   18.0157 H   0  0  0  0  0  0
  -29.3965  -13.5615   17.5575 H   0  0  0  0  0  0
  -28.3830  -11.4352   19.4435 H   0  0  0  0  0  0
  -27.5608  -12.1095   18.0499 H   0  0  0  0  0  0
  -27.3367  -14.2130   19.1242 H   0  0  0  0  0  0
  -28.9599  -13.3197   21.5515 H   0  0  0  0  0  0
  -27.9554  -14.7278   21.5127 H   0  0  0  0  0  0
  -25.2851   -9.5688   22.4754 H   0  0  0  0  0  0
  -24.0040   -7.4672   22.7487 H   0  0  0  0  0  0
  -21.0922   -8.8836   19.8946 H   0  0  0  0  0  0
  -22.3827  -10.9694   19.6138 H   0  0  0  0  0  0
  -21.2030   -7.6162   23.9723 H   0  0  0  0  0  0
  -21.1485   -6.0528   25.9075 H   0  0  0  0  0  0
  -22.0589   -2.7622   23.2832 H   0  0  0  0  0  0
  -22.4027  -11.9758   22.4893 H   0  0  0  0  0  0
  -21.0938  -13.1011   22.2674 H   0  0  0  0  0  0
  -24.5850  -15.8608   20.5509 H   0  0  0  0  0  0
  -26.2102  -15.6756   20.1233 H   0  0  0  0  0  0
  -26.7805  -32.4519   23.0572 H   0  0  0  0  0  0
  -24.9979  -33.8958   24.9676 H   0  0  0  0  0  0
  -22.9400  -31.1622   21.2373 H   0  0  0  0  0  0
  -23.3791  -35.9312   23.3228 H   0  0  0  0  0  0
  -24.3546  -36.8819   22.2103 H   0  0  0  0  0  0
  -23.7229  -37.6137   23.6858 H   0  0  0  0  0  0
  -26.4373  -30.9798   20.6452 H   0  0  0  0  0  0
  -27.0140  -30.3772   22.1361 H   0  0  0  0  0  0
  -28.1860  -27.8880   21.4026 H   0  0  0  0  0  0
  -25.7725  -25.3647   18.9577 H   0  0  0  0  0  0
  -24.1237  -27.0826   18.8722 H   0  0  0  0  0  0
  -24.0823  -30.2940   19.3583 H   0  0  0  0  0  0
  -22.9605  -29.0490   19.7977 H   0  0  0  0  0  0
  -25.1403  -36.1399   25.0730 H   0  0  0  0  0  0
  -21.0088  -28.3492   24.1185 H   0  0  0  0  0  0
  -20.5618  -26.2466   23.3725 H   0  0  0  0  0  0
  -21.6664  -26.7296   22.1269 H   0  0  0  0  0  0
  -19.6940  -25.6229   21.1334 H   0  0  0  0  0  0
  -19.6756  -27.3093   20.6701 H   0  0  0  0  0  0
  -17.4249  -26.6712   21.4007 H   0  0  0  0  0  0
  -18.0341  -26.0137   22.9030 H   0  0  0  0  0  0
  -19.8023  -30.7389   24.2086 H   0  0  0  0  0  0
  -17.5080  -31.6283   24.5168 H   0  0  0  0  0  0
  -15.5412  -30.2953   23.7761 H   0  0  0  0  0  0
  -15.8746  -28.0794   22.7162 H   0  0  0  0  0  0
  -24.5847  -30.7184   25.7454 H   0  0  0  0  0  0
  -24.8741  -32.3151   26.4233 H   0  0  0  0  0  0
  -25.7661  -30.9282   27.0193 H   0  0  0  0  0  0
  -26.3502  -29.6152   24.2028 H   0  0  0  0  0  0
  -27.4013  -29.7384   25.5858 H   0  0  0  0  0  0
  -27.9518  -30.3729   24.0618 H   0  0  0  0  0  0
  -27.2492  -33.3852   26.1675 H   0  0  0  0  0  0
  -28.4027  -32.6761   25.0475 H   0  0  0  0  0  0
  -28.0472  -31.8828   26.5744 H   0  0  0  0  0  0
  -28.2499  -38.0015   24.7516 H   0  0  0  0  0  0
  -28.1106  -36.2529   24.6292 H   0  0  0  0  0  0
  -27.2259  -37.1282   25.8867 H   0  0  0  0  0  0
  -21.0021  -29.8534   21.6222 H   0  0  0  0  0  0
  -26.0026  -38.2557   24.1433 H   0  0  0  0  0  0
  -29.3838  -21.3719   18.5458 H   0  0  0  0  0  0
  -30.4649  -21.9714   19.7094 H   0  0  0  0  0  0
  -28.5459  -21.1607   21.9084 H   0  0  0  0  0  0
  -26.9818  -21.1294   21.2480 H   0  0  0  0  0  0
  -30.6904  -19.7524   20.9501 H   0  0  0  0  0  0
  -30.8822  -19.4393   19.2874 H   0  0  0  0  0  0
  -27.5373  -19.0245   19.6940 H   0  0  0  0  0  0
  -27.6727  -18.6946   21.3646 H   0  0  0  0  0  0
  -27.5538  -22.6481   19.3308 H   0  0  0  0  0  0
  1 25  1  0  0  0
  1 30  2  0  0  0
  1 76  1  0  0  0
  2  3  1  0  0  0
  2 25  1  0  0  0
  2 77  1  0  0  0
  2 78  1  0  0  0
  3  4  1  0  0  0
  3 79  1  0  0  0
  3 80  1  0  0  0
  4  5  1  0  0  0
  4 81  1  0  0  0
  4 82  1  0  0  0
  5  6  1  0  0  0
  5 26  1  0  0  0
  5 83  1  0  0  0
  6 25  1  0  0  0
  6 84  1  0  0  0
  6 85  1  0  0  0
  7  8  2  0  0  0
  7 26  1  0  0  0
  7 29  1  0  0  0
  8  9  1  0  0  0
  8 22  1  0  0  0
  9 10  1  0  0  0
  9 27  2  0  0  0
 10 11  2  0  0  0
 10 15  1  0  0  0
 11 12  1  0  0  0
 11 86  1  0  0  0
 12 13  2  0  0  0
 12 87  1  0  0  0
 13 14  1  0  0  0
 13 31  1  0  0  0
 14 15  2  0  0  0
 14 88  1  0  0  0
 15 89  1  0  0  0
 16 17  2  0  0  0
 16 21  1  0  0  0
 16 31  1  0  0  0
 17 18  1  0  0  0
 17 90  1  0  0  0
 18 19  2  0  0  0
 18 91  1  0  0  0
 19 20  1  0  0  0
 19 24  1  0  0  0
 20 21  2  0  0  0
 20 92  1  0  0  0
 21 23  1  0  0  0
 22 28  1  0  0  0
 22 32  2  0  0  0
 26 27  1  0  0  0
 28 93  1  0  0  0
 28 94  1  0  0  0
 29 95  1  0  0  0
 29 96  1  0  0  0
 33 34  1  0  0  0
 33 66  1  0  0  0
 33 70  2  0  0  0
 34 36  1  0  0  0
 34 59  1  0  0  0
 34 97  1  0  0  0
 35 44  2  0  0  0
 35 45  1  0  0  0
 35 68  1  0  0  0
 36 56  1  0  0  0
 36 98  1  0  0  0
 37 39  1  0  0  0
 37 47  1  0  0  0
 37 66  1  0  0  0
 37 99  1  0  0  0
 38 43  2  0  0  0
 38 46  1  0  0  0
 38 47  1  0  0  0
 39 64  1  0  0  0
 39 67  2  0  0  0
 40 52  1  0  0  0
 40 53  2  0  0  0
 40 58  1  0  0  0
 41100  1  0  0  0
 41101  1  0  0  0
 41102  1  0  0  0
 41 48  1  0  0  0
 42 43  1  0  0  0
 42 66  1  0  0  0
 42103  1  0  0  0
 42104  1  0  0  0
 43 44  1  0  0  0
 44105  1  0  0  0
 45 46  2  0  0  0
 45106  1  0  0  0
 46107  1  0  0  0
 47108  1  0  0  0
 47109  1  0  0  0
 48 56  1  0  0  0
 48 65  1  0  0  0
 48110  1  0  0  0
 49 50  1  0  0  0
 49 53  1  0  0  0
 49 64  1  0  0  0
 49111  1  0  0  0
 50 51  1  0  0  0
 50112  1  0  0  0
 50113  1  0  0  0
 51 52  1  0  0  0
 51114  1  0  0  0
 51115  1  0  0  0
 52116  1  0  0  0
 52117  1  0  0  0
 53 54  1  0  0  0
 54 55  2  0  0  0
 54118  1  0  0  0
 55 57  1  0  0  0
 55119  1  0  0  0
 56 69  2  0  0  0
 57 58  2  0  0  0
 57120  1  0  0  0
 58121  1  0  0  0
 59 60  1  0  0  0
 59 61  1  0  0  0
 59 62  1  0  0  0
 60122  1  0  0  0
 60123  1  0  0  0
 60124  1  0  0  0
 61125  1  0  0  0
 61126  1  0  0  0
 61127  1  0  0  0
 62128  1  0  0  0
 62129  1  0  0  0
 62130  1  0  0  0
 63 65  1  0  0  0
 63131  1  0  0  0
 63132  1  0  0  0
 63133  1  0  0  0
 64134  1  0  0  0
 65135  1  0  0  0
 68 75  1  0  0  0
 71 73  1  0  0  0
 71 75  1  0  0  0
 71136  1  0  0  0
 71137  1  0  0  0
 72 74  1  0  0  0
 72 75  1  0  0  0
 72138  1  0  0  0
 72139  1  0  0  0
 73 76  1  0  0  0
 73140  1  0  0  0
 73141  1  0  0  0
 74 76  1  0  0  0
 74142  1  0  0  0
 74143  1  0  0  0
 75144  1  0  0  0
M  ISO  4   1 100  68 101  75 101  76 100
M  END
> <chiral flag>
0

> <version>
0

> <s_m_source_file>
/data/baiqing/PycharmProjects/Reinvent-master-3.2/result/LINK_invent/BTK/process_docking_weight1_custom_product_contain_oxygen_bond_distance_aromatic_linkinvent_7_9_3/rearranged_h_0008.sdf

> <i_m_source_file_index>
63

> <r_mmod_Potential_Energy-OPLS-2005>
6036.759765625

> <r_mmod_Stretch_Energy-OPLS-2005>
2262.14306640625

> <r_mmod_Bend_Energy-OPLS-2005>
1417.26342773438

> <r_mmod_Torsional_Energy-OPLS-2005>
317.620666503906

> <r_mmod_Improper_Torsional_Energy-OPLS-2005>
7.64459848403931

> <r_mmod_Van_der_Waal_Energy-OPLS-2005>
135.864761352539

> <r_mmod_Electrostatic_Energy-OPLS-2005>
-276.497619628906

> <r_mmod_Solvation_Energy-OPLS-2005>
-220.902389526367

> <b_mmod_Minimization_Converged-OPLS-2005>
1

> <r_mmod_RMS_Derivative-OPLS-2005>
0.0281536560505629

$$$$
64
                    3D
 Structure written by MMmdl.
157166  0  0  1  0            999 V2000
  -30.5492  -14.6959   20.4265 C   0  0  0  0  0  0
  -30.4577  -12.4236   19.4296 C   0  0  0  0  0  0
  -29.5157  -12.4945   18.2072 C   0  0  0  0  0  0
  -28.0280  -12.3620   18.6105 C   0  0  0  0  0  0
  -27.6469  -13.2238   19.8467 C   0  0  2  0  0  0
  -28.6978  -13.0653   20.9654 C   0  0  0  0  0  0
  -25.2447  -13.8161   20.5616 C   0  0  0  0  0  0
  -24.1774  -13.0375   20.9173 C   0  0  0  0  0  0
  -24.6386  -11.6873   20.8703 C   0  0  0  0  0  0
  -23.9039  -10.4258   21.0338 C   0  0  0  0  0  0
  -24.3591   -9.4193   21.9132 C   0  0  0  0  0  0
  -23.6288   -8.2232   22.0711 C   0  0  0  0  0  0
  -22.4268   -8.0254   21.3517 C   0  0  0  0  0  0
  -21.9907   -9.0176   20.4601 C   0  0  0  0  0  0
  -22.7208  -10.2071   20.2980 C   0  0  0  0  0  0
  -21.6840   -6.0724   22.5286 C   0  0  0  0  0  0
  -21.4010   -6.5622   23.8226 C   0  0  0  0  0  0
  -21.3664   -5.6768   24.9178 C   0  0  0  0  0  0
  -21.6036   -4.3035   24.7223 C   0  0  0  0  0  0
  -21.8824   -3.8128   23.4346 C   0  0  0  0  0  0
  -21.9216   -4.6963   22.3402 C   0  0  0  0  0  0
  -22.7781  -13.5108   21.1861 C   0  0  0  0  0  0
  -22.1684   -4.2161   21.0981 F   0  0  0  0  0  0
  -21.5630   -3.4509   25.7730 F   0  0  0  0  0  0
  -30.0038  -13.4391   20.3974 N   0  0  0  0  0  0
  -26.2923  -12.9414   20.3228 N   0  0  0  0  0  0
  -25.9324  -11.6535   20.5686 N   0  0  0  0  0  0
  -22.0465  -12.8029   22.0429 N   0  0  0  0  0  0
  -25.3774  -15.1920   20.3923 N   0  0  0  0  0  0
  -31.7293  -14.8925   20.1101 O   0  0  0  0  0  0
  -21.6619   -6.8856   21.4244 O   0  0  0  0  0  0
  -22.3407  -14.5367   20.6698 O   0  0  0  0  0  0
  -24.6197  -31.8585   23.1928 C   0  0  0  0  0  0
  -25.8996  -32.4793   23.8307 C   0  0  1  0  0  0
  -27.2381  -27.3238   20.1230 C   0  0  0  0  0  0
  -25.5713  -33.8578   24.2212 N   0  0  0  0  0  0
  -23.4160  -30.4769   21.5264 C   0  0  2  0  0  0
  -24.8678  -28.9237   20.0969 C   0  0  0  0  0  0
  -22.7456  -29.4632   22.4859 C   0  0  0  0  0  0
  -18.0305  -28.1487   22.8598 C   0  0  0  0  0  0
  -24.1351  -36.7271   23.2666 C   0  0  0  0  0  0
  -25.9487  -30.8020   21.3534 C   0  0  0  0  0  0
  -26.0263  -29.4218   20.7077 C   0  0  0  0  0  0
  -27.2050  -28.6244   20.7139 C   0  0  0  0  0  0
  -26.0712  -26.8853   19.4648 C   0  0  0  0  0  0
  -24.8972  -27.6725   19.4624 C   0  0  0  0  0  0
  -23.6283  -29.7931   20.1439 C   0  0  0  0  0  0
  -25.4005  -36.3108   24.0356 C   0  0  1  0  0  0
  -20.5929  -28.3696   23.1279 C   0  0  2  0  0  0
  -20.6623  -26.9401   22.5428 C   0  0  0  0  0  0
  -19.5563  -26.6493   21.5215 C   0  0  0  0  0  0
  -18.1814  -26.8029   22.1740 C   0  0  0  0  0  0
  -19.1585  -28.8932   23.2929 C   0  0  0  0  0  0
  -18.9547  -30.1536   23.8949 C   0  0  0  0  0  0
  -17.6537  -30.6667   24.0671 C   0  0  0  0  0  0
  -25.8983  -34.9469   23.5145 C   0  0  0  0  0  0
  -16.5418  -29.9190   23.6415 C   0  0  0  0  0  0
  -16.7310  -28.6606   23.0463 C   0  0  0  0  0  0
  -26.4303  -31.6661   25.0733 C   0  0  0  0  0  0
  -25.3486  -31.3901   26.1466 C   0  0  0  0  0  0
  -27.0105  -30.3096   24.6189 C   0  0  0  0  0  0
  -27.5888  -32.4348   25.7458 C   0  0  0  0  0  0
  -27.5513  -37.1776   24.8496 C   0  0  0  0  0  0
  -21.4182  -29.3003   22.3583 N   0  0  0  0  0  0
  -26.4181  -37.3846   23.9482 N   0  0  0  0  0  0
  -24.6795  -31.0636   22.0856 N   0  0  0  0  0  0
  -23.4223  -28.8266   23.2960 O   0  0  0  0  0  0
  -28.3867  -26.5288   20.2463 O   0  0  0  0  0  0
  -26.5678  -34.8956   22.4776 O   0  0  0  0  0  0
  -23.5309  -32.1348   23.7253 O   0  0  0  0  0  0
  -28.8111  -19.1080   19.1071 C   0  0  0  0  0  0
  -29.6944  -18.0412   21.5452 C   0  0  0  0  0  0
  -28.7908  -19.9701   20.2490 C   0  0  0  0  0  0
  -29.6286  -17.1555   20.4388 C   0  0  0  0  0  0
  -29.2113  -17.7350   19.2025 C   0  0  0  0  0  0
  -29.2880  -19.4056   21.4509 C   0  0  0  0  0  0
  -29.9644  -24.6498   20.2338 C   0  0  0  0  0  0
  -29.8947  -23.1010   20.3869 C   0  0  0  0  0  0
  -27.6955  -23.9045   20.0567 C   0  0  0  0  0  0
  -28.5850  -25.1580   19.7143 C   0  0  1  0  0  0
  -28.0003  -21.3411   20.3046 C   0  0  0  0  0  0
  -29.6459  -15.7031   20.6521 N   0  0  0  0  0  0
  -28.5726  -22.6811   19.8652 N   0  3  2  0  0  0
  -29.1078  -16.9477   18.1033 F   0  0  0  0  0  0
  -29.2870  -20.1603   22.5784 F   0  0  0  0  0  0
  -31.4876  -12.6007   19.1079 H   0  0  0  0  0  0
  -30.4484  -11.4330   19.8839 H   0  0  0  0  0  0
  -29.7792  -11.7204   17.4854 H   0  0  0  0  0  0
  -29.6743  -13.4456   17.6974 H   0  0  0  0  0  0
  -27.8214  -11.3094   18.8134 H   0  0  0  0  0  0
  -27.3953  -12.6302   17.7632 H   0  0  0  0  0  0
  -27.6582  -14.2581   19.5042 H   0  0  0  0  0  0
  -28.7260  -12.0312   21.3145 H   0  0  0  0  0  0
  -28.4434  -13.6696   21.8368 H   0  0  0  0  0  0
  -25.2728   -9.5708   22.4697 H   0  0  0  0  0  0
  -24.0025   -7.4622   22.7405 H   0  0  0  0  0  0
  -21.0858   -8.8620   19.8875 H   0  0  0  0  0  0
  -22.3630  -10.9564   19.6061 H   0  0  0  0  0  0
  -21.1963   -7.6122   23.9742 H   0  0  0  0  0  0
  -21.1489   -6.0472   25.9093 H   0  0  0  0  0  0
  -22.0602   -2.7600   23.2822 H   0  0  0  0  0  0
  -22.4118  -11.9690   22.4758 H   0  0  0  0  0  0
  -21.1051  -13.0978   22.2590 H   0  0  0  0  0  0
  -24.5266  -15.7476   20.3881 H   0  0  0  0  0  0
  -26.1426  -15.6519   19.9165 H   0  0  0  0  0  0
  -26.7097  -32.5503   23.1091 H   0  0  0  0  0  0
  -24.9501  -33.9649   25.0093 H   0  0  0  0  0  0
  -22.7091  -31.2948   21.3676 H   0  0  0  0  0  0
  -23.3655  -35.9572   23.3366 H   0  0  0  0  0  0
  -24.3429  -36.8883   22.2095 H   0  0  0  0  0  0
  -23.7034  -37.6433   23.6666 H   0  0  0  0  0  0
  -26.0541  -31.5564   20.5696 H   0  0  0  0  0  0
  -26.8386  -30.8889   21.9665 H   0  0  0  0  0  0
  -28.0971  -28.9996   21.1986 H   0  0  0  0  0  0
  -26.0408  -25.9345   18.9574 H   0  0  0  0  0  0
  -24.0190  -27.3026   18.9582 H   0  0  0  0  0  0
  -23.7422  -30.5487   19.3647 H   0  0  0  0  0  0
  -22.7518  -29.2037   19.8579 H   0  0  0  0  0  0
  -25.1174  -36.1928   25.0849 H   0  0  0  0  0  0
  -21.0144  -28.3246   24.1365 H   0  0  0  0  0  0
  -20.5345  -26.2330   23.3644 H   0  0  0  0  0  0
  -21.6481  -26.7217   22.1358 H   0  0  0  0  0  0
  -19.6544  -25.6423   21.1194 H   0  0  0  0  0  0
  -19.6448  -27.3331   20.6763 H   0  0  0  0  0  0
  -17.4035  -26.6955   21.4190 H   0  0  0  0  0  0
  -18.0159  -26.0134   22.9102 H   0  0  0  0  0  0
  -19.8010  -30.7366   24.2302 H   0  0  0  0  0  0
  -17.5111  -31.6347   24.5247 H   0  0  0  0  0  0
  -15.5440  -30.3120   23.7668 H   0  0  0  0  0  0
  -15.8713  -28.0883   22.7236 H   0  0  0  0  0  0
  -24.5653  -30.7188   25.7900 H   0  0  0  0  0  0
  -24.8608  -32.3106   26.4743 H   0  0  0  0  0  0
  -25.7838  -30.9262   27.0347 H   0  0  0  0  0  0
  -26.2695  -29.6937   24.1107 H   0  0  0  0  0  0
  -27.3653  -29.7316   25.4734 H   0  0  0  0  0  0
  -27.8612  -30.4408   23.9496 H   0  0  0  0  0  0
  -27.2619  -33.3776   26.1877 H   0  0  0  0  0  0
  -28.3810  -32.6741   25.0334 H   0  0  0  0  0  0
  -28.0383  -31.8500   26.5500 H   0  0  0  0  0  0
  -28.2637  -37.9978   24.7572 H   0  0  0  0  0  0
  -28.0902  -36.2571   24.6276 H   0  0  0  0  0  0
  -27.2273  -37.1411   25.8904 H   0  0  0  0  0  0
  -20.9305  -29.8795   21.6883 H   0  0  0  0  0  0
  -26.0062  -38.2885   24.1597 H   0  0  0  0  0  0
  -28.4190  -19.4578   18.1596 H   0  0  0  0  0  0
  -29.9646  -17.6600   22.5211 H   0  0  0  0  0  0
  -30.7876  -24.9467   19.5742 H   0  0  0  0  0  0
  -30.1993  -25.0909   21.2058 H   0  0  0  0  0  0
  -29.9926  -22.8396   21.4450 H   0  0  0  0  0  0
  -30.7068  -22.6165   19.8402 H   0  0  0  0  0  0
  -26.8057  -23.8371   19.4281 H   0  0  0  0  0  0
  -27.3538  -23.9543   21.0940 H   0  0  0  0  0  0
  -28.6266  -25.2398   18.6250 H   0  0  0  0  0  0
  -27.6616  -21.4529   21.3360 H   0  0  0  0  0  0
  -27.0790  -21.1762   19.7353 H   0  0  0  0  0  0
  -28.7334  -15.3327   20.8637 H   0  0  0  0  0  0
  -28.6927  -22.5973   18.8640 H   0  0  0  0  0  0
  1 25  1  0  0  0
  1 30  2  0  0  0
  1 82  1  0  0  0
  2  3  1  0  0  0
  2 25  1  0  0  0
  2 86  1  0  0  0
  2 87  1  0  0  0
  3  4  1  0  0  0
  3 88  1  0  0  0
  3 89  1  0  0  0
  4  5  1  0  0  0
  4 90  1  0  0  0
  4 91  1  0  0  0
  5  6  1  0  0  0
  5 26  1  0  0  0
  5 92  1  0  0  0
  6 25  1  0  0  0
  6 93  1  0  0  0
  6 94  1  0  0  0
  7  8  2  0  0  0
  7 26  1  0  0  0
  7 29  1  0  0  0
  8  9  1  0  0  0
  8 22  1  0  0  0
  9 10  1  0  0  0
  9 27  2  0  0  0
 10 11  2  0  0  0
 10 15  1  0  0  0
 11 12  1  0  0  0
 11 95  1  0  0  0
 12 13  2  0  0  0
 12 96  1  0  0  0
 13 14  1  0  0  0
 13 31  1  0  0  0
 14 15  2  0  0  0
 14 97  1  0  0  0
 15 98  1  0  0  0
 16 17  2  0  0  0
 16 21  1  0  0  0
 16 31  1  0  0  0
 17 18  1  0  0  0
 17 99  1  0  0  0
 18 19  2  0  0  0
 18100  1  0  0  0
 19 20  1  0  0  0
 19 24  1  0  0  0
 20 21  2  0  0  0
 20101  1  0  0  0
 21 23  1  0  0  0
 22 28  1  0  0  0
 22 32  2  0  0  0
 26 27  1  0  0  0
 28102  1  0  0  0
 28103  1  0  0  0
 29104  1  0  0  0
 29105  1  0  0  0
 33 34  1  0  0  0
 33 66  1  0  0  0
 33 70  2  0  0  0
 34 36  1  0  0  0
 34 59  1  0  0  0
 34106  1  0  0  0
 35 44  2  0  0  0
 35 45  1  0  0  0
 35 68  1  0  0  0
 36 56  1  0  0  0
 36107  1  0  0  0
 37 39  1  0  0  0
 37 47  1  0  0  0
 37 66  1  0  0  0
 37108  1  0  0  0
 38 43  2  0  0  0
 38 46  1  0  0  0
 38 47  1  0  0  0
 39 64  1  0  0  0
 39 67  2  0  0  0
 40 52  1  0  0  0
 40 53  2  0  0  0
 40 58  1  0  0  0
 41109  1  0  0  0
 41110  1  0  0  0
 41111  1  0  0  0
 41 48  1  0  0  0
 42 43  1  0  0  0
 42 66  1  0  0  0
 42112  1  0  0  0
 42113  1  0  0  0
 43 44  1  0  0  0
 44114  1  0  0  0
 45 46  2  0  0  0
 45115  1  0  0  0
 46116  1  0  0  0
 47117  1  0  0  0
 47118  1  0  0  0
 48 56  1  0  0  0
 48 65  1  0  0  0
 48119  1  0  0  0
 49 50  1  0  0  0
 49 53  1  0  0  0
 49 64  1  0  0  0
 49120  1  0  0  0
 50 51  1  0  0  0
 50121  1  0  0  0
 50122  1  0  0  0
 51 52  1  0  0  0
 51123  1  0  0  0
 51124  1  0  0  0
 52125  1  0  0  0
 52126  1  0  0  0
 53 54  1  0  0  0
 54 55  2  0  0  0
 54127  1  0  0  0
 55 57  1  0  0  0
 55128  1  0  0  0
 56 69  2  0  0  0
 57 58  2  0  0  0
 57129  1  0  0  0
 58130  1  0  0  0
 59 60  1  0  0  0
 59 61  1  0  0  0
 59 62  1  0  0  0
 60131  1  0  0  0
 60132  1  0  0  0
 60133  1  0  0  0
 61134  1  0  0  0
 61135  1  0  0  0
 61136  1  0  0  0
 62137  1  0  0  0
 62138  1  0  0  0
 62139  1  0  0  0
 63 65  1  0  0  0
 63140  1  0  0  0
 63141  1  0  0  0
 63142  1  0  0  0
 64143  1  0  0  0
 65144  1  0  0  0
 68 80  1  0  0  0
 71 73  2  0  0  0
 71 75  1  0  0  0
 71145  1  0  0  0
 72 74  1  0  0  0
 72 76  2  0  0  0
 72146  1  0  0  0
 73 76  1  0  0  0
 73 81  1  0  0  0
 74 75  2  0  0  0
 74 82  1  0  0  0
 75 84  1  0  0  0
 76 85  1  0  0  0
 77 78  1  0  0  0
 77 80  1  0  0  0
 77147  1  0  0  0
 77148  1  0  0  0
 78 83  1  0  0  0
 78149  1  0  0  0
 78150  1  0  0  0
 79 80  1  0  0  0
 79 83  1  0  0  0
 79151  1  0  0  0
 79152  1  0  0  0
 80153  1  0  0  0
 81154  1  0  0  0
 81155  1  0  0  0
 81 83  1  0  0  0
 82156  1  0  0  0
 83157  1  0  0  0
M  CHG  1  83   1
M  ISO  4   1 100  68 101  80 101  82 100
M  END
> <chiral flag>
0

> <version>
0

> <s_m_source_file>
/data/baiqing/PycharmProjects/Reinvent-master-3.2/result/LINK_invent/BTK/process_docking_weight1_custom_product_contain_oxygen_bond_distance_aromatic_linkinvent_7_9_3/rearranged_h_0008.sdf

> <i_m_source_file_index>
64

> <r_mmod_Potential_Energy-OPLS-2005>
18.6869373321533

> <r_mmod_Stretch_Energy-OPLS-2005>
81.6290817260742

> <r_mmod_Bend_Energy-OPLS-2005>
200.92268371582

> <r_mmod_Torsional_Energy-OPLS-2005>
306.088012695312

> <r_mmod_Improper_Torsional_Energy-OPLS-2005>
11.26491355896

> <r_mmod_Van_der_Waal_Energy-OPLS-2005>
128.047073364258

> <r_mmod_Electrostatic_Energy-OPLS-2005>
-324.416931152344

> <r_mmod_Solvation_Energy-OPLS-2005>
-449.128784179688

> <b_mmod_Minimization_Converged-OPLS-2005>
0

> <r_mmod_RMS_Derivative-OPLS-2005>
9.07461929321289

$$$$
65
                    3D
 Structure written by MMmdl.
151159  0  0  1  0            999 V2000
  -30.5189  -14.9203   20.4310 C   0  0  0  0  0  0
  -30.4489  -12.5652   19.5002 C   0  0  0  0  0  0
  -29.5257  -12.5342   18.2582 C   0  0  0  0  0  0
  -28.0561  -12.3243   18.6711 C   0  0  0  0  0  0
  -27.6379  -13.2419   19.8494 C   0  0  2  0  0  0
  -28.6798  -13.2282   20.9895 C   0  0  0  0  0  0
  -25.2494  -13.8207   20.5704 C   0  0  0  0  0  0
  -24.1798  -13.0441   20.9222 C   0  0  0  0  0  0
  -24.6402  -11.6922   20.8752 C   0  0  0  0  0  0
  -23.9080  -10.4295   21.0407 C   0  0  0  0  0  0
  -24.3627   -9.4208   21.9185 C   0  0  0  0  0  0
  -23.6298   -8.2245   22.0754 C   0  0  0  0  0  0
  -22.4280   -8.0284   21.3545 C   0  0  0  0  0  0
  -21.9919   -9.0259   20.4646 C   0  0  0  0  0  0
  -22.7251  -10.2137   20.3057 C   0  0  0  0  0  0
  -21.6855   -6.0737   22.5279 C   0  0  0  0  0  0
  -21.4015   -6.5640   23.8212 C   0  0  0  0  0  0
  -21.3660   -5.6793   24.9174 C   0  0  0  0  0  0
  -21.6044   -4.3055   24.7224 C   0  0  0  0  0  0
  -21.8819   -3.8148   23.4345 C   0  0  0  0  0  0
  -21.9193   -4.6965   22.3402 C   0  0  0  0  0  0
  -22.7817  -13.5217   21.1876 C   0  0  0  0  0  0
  -22.1661   -4.2151   21.0980 F   0  0  0  0  0  0
  -21.5629   -3.4539   25.7736 F   0  0  0  0  0  0
  -29.9651  -13.6426   20.4085 N   0  0  0  0  0  0
  -26.2922  -12.9427   20.3273 N   0  0  0  0  0  0
  -25.9337  -11.6562   20.5748 N   0  0  0  0  0  0
  -22.0465  -12.8205   22.0430 N   0  0  0  0  0  0
  -25.4169  -15.1931   20.4104 N   0  0  0  0  0  0
  -31.6984  -15.0436   20.0811 O   0  0  0  0  0  0
  -21.6642   -6.8882   21.4241 O   0  0  0  0  0  0
  -22.3500  -14.5520   20.6719 O   0  0  0  0  0  0
  -24.6427  -31.8440   23.1885 C   0  0  0  0  0  0
  -25.9202  -32.4693   23.8271 C   0  0  1  0  0  0
  -27.2199  -27.1376   20.1420 C   0  0  0  0  0  0
  -25.5953  -33.8501   24.2187 N   0  0  0  0  0  0
  -23.4460  -30.4636   21.5339 C   0  0  2  0  0  0
  -24.8952  -28.8920   20.1072 C   0  0  0  0  0  0
  -22.7564  -29.4545   22.4859 C   0  0  0  0  0  0
  -18.0304  -28.1396   22.8478 C   0  0  0  0  0  0
  -24.1492  -36.7253   23.2643 C   0  0  0  0  0  0
  -26.0017  -30.7164   21.3886 C   0  0  0  0  0  0
  -26.0707  -29.3285   20.7289 C   0  0  0  0  0  0
  -27.2288  -28.4651   20.7340 C   0  0  0  0  0  0
  -26.0170  -26.8057   19.4769 C   0  0  0  0  0  0
  -24.8814  -27.6442   19.4677 C   0  0  0  0  0  0
  -23.6716  -29.7935   20.1524 C   0  0  0  0  0  0
  -25.4124  -36.3031   24.0316 C   0  0  1  0  0  0
  -20.5915  -28.3720   23.1237 C   0  0  2  0  0  0
  -20.6788  -26.9424   22.5405 C   0  0  0  0  0  0
  -19.5762  -26.6381   21.5213 C   0  0  0  0  0  0
  -18.1943  -26.7935   22.1624 C   0  0  0  0  0  0
  -19.1560  -28.8876   23.2849 C   0  0  0  0  0  0
  -18.9477  -30.1473   23.8874 C   0  0  0  0  0  0
  -17.6474  -30.6593   24.0560 C   0  0  0  0  0  0
  -25.9075  -34.9407   23.5061 C   0  0  0  0  0  0
  -16.5364  -29.9086   23.6338 C   0  0  0  0  0  0
  -16.7288  -28.6505   23.0357 C   0  0  0  0  0  0
  -26.4525  -31.6565   25.0716 C   0  0  0  0  0  0
  -25.3709  -31.3756   26.1409 C   0  0  0  0  0  0
  -27.0395  -30.2962   24.6303 C   0  0  0  0  0  0
  -27.6053  -32.4336   25.7500 C   0  0  0  0  0  0
  -27.5575  -37.1784   24.8466 C   0  0  0  0  0  0
  -21.4257  -29.3045   22.3609 N   0  0  0  0  0  0
  -26.4287  -37.3745   23.9409 N   0  0  0  0  0  0
  -24.7166  -31.0295   22.0920 N   0  0  0  0  0  0
  -23.4209  -28.8095   23.3009 O   0  0  0  0  0  0
  -28.2914  -26.1755   20.2509 O   0  0  0  0  0  0
  -26.5661  -34.8905   22.4640 O   0  0  0  0  0  0
  -23.5548  -32.1319   23.7106 O   0  0  0  0  0  0
  -28.6464  -19.8495   21.1383 C   0  0  0  0  0  0
  -30.3885  -18.3254   19.5844 C   0  0  0  0  0  0
  -28.7926  -18.4068   21.3251 C   0  0  0  0  0  0
  -29.6720  -17.5538   20.5537 C   0  0  0  0  0  0
  -29.3380  -20.6117   20.1416 C   0  0  0  0  0  0
  -30.2214  -19.7569   19.3862 C   0  0  0  0  0  0
  -27.9421  -17.7560   22.4024 C   0  0  0  0  0  0
  -28.2846  -24.7008   19.7400 C   0  0  0  0  0  0
  -28.6431  -23.2520   20.5335 C   0  0  0  0  0  0
  -29.6861  -16.0271   20.7295 N   0  0  0  0  0  0
  -29.1995  -22.0299   19.7845 O   0  0  0  0  0  0
  -30.9463  -20.3324   18.3961 F   0  0  0  0  0  0
  -31.4827  -12.7286   19.1918 H   0  0  0  0  0  0
  -30.4414  -11.6016   20.0122 H   0  0  0  0  0  0
  -29.8389  -11.7456   17.5727 H   0  0  0  0  0  0
  -29.6203  -13.4725   17.7094 H   0  0  0  0  0  0
  -27.9426  -11.2792   18.9618 H   0  0  0  0  0  0
  -27.3952  -12.4759   17.8168 H   0  0  0  0  0  0
  -27.6143  -14.2531   19.4423 H   0  0  0  0  0  0
  -28.7561  -12.2362   21.4374 H   0  0  0  0  0  0
  -28.3806  -13.9023   21.7936 H   0  0  0  0  0  0
  -25.2770   -9.5683   22.4761 H   0  0  0  0  0  0
  -24.0005   -7.4635   22.7474 H   0  0  0  0  0  0
  -21.0850   -8.8781   19.8952 H   0  0  0  0  0  0
  -22.3710  -10.9677   19.6167 H   0  0  0  0  0  0
  -21.2008   -7.6149   23.9716 H   0  0  0  0  0  0
  -21.1482   -6.0523   25.9077 H   0  0  0  0  0  0
  -22.0597   -2.7610   23.2845 H   0  0  0  0  0  0
  -22.4085  -11.9869   22.4819 H   0  0  0  0  0  0
  -21.1081  -13.1225   22.2634 H   0  0  0  0  0  0
  -24.6409  -15.8391   20.5053 H   0  0  0  0  0  0
  -26.2479  -15.6284   20.0320 H   0  0  0  0  0  0
  -26.7265  -32.5295   23.0996 H   0  0  0  0  0  0
  -25.0079  -33.9616   25.0321 H   0  0  0  0  0  0
  -22.7485  -31.2896   21.3802 H   0  0  0  0  0  0
  -23.3760  -35.9579   23.3293 H   0  0  0  0  0  0
  -24.3576  -36.8898   22.2060 H   0  0  0  0  0  0
  -23.7241  -37.6444   23.6688 H   0  0  0  0  0  0
  -26.1597  -31.4714   20.6171 H   0  0  0  0  0  0
  -26.8715  -30.7645   22.0321 H   0  0  0  0  0  0
  -28.1217  -28.7928   21.2478 H   0  0  0  0  0  0
  -25.8958  -25.8607   18.9755 H   0  0  0  0  0  0
  -23.9836  -27.3055   18.9688 H   0  0  0  0  0  0
  -23.8073  -30.5685   19.3972 H   0  0  0  0  0  0
  -22.7864  -29.2353   19.8422 H   0  0  0  0  0  0
  -25.1313  -36.1858   25.0808 H   0  0  0  0  0  0
  -21.0008  -28.3309   24.1359 H   0  0  0  0  0  0
  -20.5680  -26.2334   23.3624 H   0  0  0  0  0  0
  -21.6653  -26.7430   22.1202 H   0  0  0  0  0  0
  -19.6923  -25.6287   21.1256 H   0  0  0  0  0  0
  -19.6699  -27.3180   20.6733 H   0  0  0  0  0  0
  -17.4212  -26.6679   21.4027 H   0  0  0  0  0  0
  -18.0342  -26.0083   22.9026 H   0  0  0  0  0  0
  -19.7953  -30.7296   24.2231 H   0  0  0  0  0  0
  -17.5027  -31.6270   24.5167 H   0  0  0  0  0  0
  -15.5364  -30.2981   23.7676 H   0  0  0  0  0  0
  -15.8688  -28.0817   22.7084 H   0  0  0  0  0  0
  -24.5895  -30.7096   25.7730 H   0  0  0  0  0  0
  -24.8889  -32.2938   26.4776 H   0  0  0  0  0  0
  -25.7990  -30.8968   27.0225 H   0  0  0  0  0  0
  -26.3016  -29.6679   24.1302 H   0  0  0  0  0  0
  -27.3999  -29.7268   25.4880 H   0  0  0  0  0  0
  -27.8928  -30.4199   23.9631 H   0  0  0  0  0  0
  -27.2644  -33.3658   26.2017 H   0  0  0  0  0  0
  -28.3895  -32.6861   25.0351 H   0  0  0  0  0  0
  -28.0686  -31.8502   26.5466 H   0  0  0  0  0  0
  -28.2585  -38.0087   24.7512 H   0  0  0  0  0  0
  -28.1078  -36.2616   24.6294 H   0  0  0  0  0  0
  -27.2292  -37.1431   25.8869 H   0  0  0  0  0  0
  -20.9466  -29.8757   21.6787 H   0  0  0  0  0  0
  -26.0152  -38.2812   24.1411 H   0  0  0  0  0  0
  -27.9438  -20.3804   21.7642 H   0  0  0  0  0  0
  -31.0723  -17.8087   18.9274 H   0  0  0  0  0  0
  -27.4256  -18.4972   23.0127 H   0  0  0  0  0  0
  -28.5603  -17.1543   23.0695 H   0  0  0  0  0  0
  -27.1881  -17.1085   21.9545 H   0  0  0  0  0  0
  -27.3737  -24.4971   19.1877 H   0  0  0  0  0  0
  -29.0345  -24.7497   18.9505 H   0  0  0  0  0  0
  -27.7582  -22.9347   21.0854 H   0  0  0  0  0  0
  -29.3868  -23.4815   21.2966 H   0  0  0  0  0  0
  -28.8265  -15.6895   21.1342 H   0  0  0  0  0  0
  1 25  1  0  0  0
  1 30  2  0  0  0
  1 80  1  0  0  0
  2  3  1  0  0  0
  2 25  1  0  0  0
  2 83  1  0  0  0
  2 84  1  0  0  0
  3  4  1  0  0  0
  3 85  1  0  0  0
  3 86  1  0  0  0
  4  5  1  0  0  0
  4 87  1  0  0  0
  4 88  1  0  0  0
  5  6  1  0  0  0
  5 26  1  0  0  0
  5 89  1  0  0  0
  6 25  1  0  0  0
  6 90  1  0  0  0
  6 91  1  0  0  0
  7  8  2  0  0  0
  7 26  1  0  0  0
  7 29  1  0  0  0
  8  9  1  0  0  0
  8 22  1  0  0  0
  9 10  1  0  0  0
  9 27  2  0  0  0
 10 11  2  0  0  0
 10 15  1  0  0  0
 11 12  1  0  0  0
 11 92  1  0  0  0
 12 13  2  0  0  0
 12 93  1  0  0  0
 13 14  1  0  0  0
 13 31  1  0  0  0
 14 15  2  0  0  0
 14 94  1  0  0  0
 15 95  1  0  0  0
 16 17  2  0  0  0
 16 21  1  0  0  0
 16 31  1  0  0  0
 17 18  1  0  0  0
 17 96  1  0  0  0
 18 19  2  0  0  0
 18 97  1  0  0  0
 19 20  1  0  0  0
 19 24  1  0  0  0
 20 21  2  0  0  0
 20 98  1  0  0  0
 21 23  1  0  0  0
 22 28  1  0  0  0
 22 32  2  0  0  0
 26 27  1  0  0  0
 28 99  1  0  0  0
 28100  1  0  0  0
 29101  1  0  0  0
 29102  1  0  0  0
 33 34  1  0  0  0
 33 66  1  0  0  0
 33 70  2  0  0  0
 34 36  1  0  0  0
 34 59  1  0  0  0
 34103  1  0  0  0
 35 44  2  0  0  0
 35 45  1  0  0  0
 35 68  1  0  0  0
 36 56  1  0  0  0
 36104  1  0  0  0
 37 39  1  0  0  0
 37 47  1  0  0  0
 37 66  1  0  0  0
 37105  1  0  0  0
 38 43  2  0  0  0
 38 46  1  0  0  0
 38 47  1  0  0  0
 39 64  1  0  0  0
 39 67  2  0  0  0
 40 52  1  0  0  0
 40 53  2  0  0  0
 40 58  1  0  0  0
 41106  1  0  0  0
 41107  1  0  0  0
 41108  1  0  0  0
 41 48  1  0  0  0
 42 43  1  0  0  0
 42 66  1  0  0  0
 42109  1  0  0  0
 42110  1  0  0  0
 43 44  1  0  0  0
 44111  1  0  0  0
 45 46  2  0  0  0
 45112  1  0  0  0
 46113  1  0  0  0
 47114  1  0  0  0
 47115  1  0  0  0
 48 56  1  0  0  0
 48 65  1  0  0  0
 48116  1  0  0  0
 49 50  1  0  0  0
 49 53  1  0  0  0
 49 64  1  0  0  0
 49117  1  0  0  0
 50 51  1  0  0  0
 50118  1  0  0  0
 50119  1  0  0  0
 51 52  1  0  0  0
 51120  1  0  0  0
 51121  1  0  0  0
 52122  1  0  0  0
 52123  1  0  0  0
 53 54  1  0  0  0
 54 55  2  0  0  0
 54124  1  0  0  0
 55 57  1  0  0  0
 55125  1  0  0  0
 56 69  2  0  0  0
 57 58  2  0  0  0
 57126  1  0  0  0
 58127  1  0  0  0
 59 60  1  0  0  0
 59 61  1  0  0  0
 59 62  1  0  0  0
 60128  1  0  0  0
 60129  1  0  0  0
 60130  1  0  0  0
 61131  1  0  0  0
 61132  1  0  0  0
 61133  1  0  0  0
 62134  1  0  0  0
 62135  1  0  0  0
 62136  1  0  0  0
 63 65  1  0  0  0
 63137  1  0  0  0
 63138  1  0  0  0
 63139  1  0  0  0
 64140  1  0  0  0
 65141  1  0  0  0
 68 78  1  0  0  0
 71 73  2  0  0  0
 71 75  1  0  0  0
 71142  1  0  0  0
 72 74  2  0  0  0
 72 76  1  0  0  0
 72143  1  0  0  0
 73 74  1  0  0  0
 73 77  1  0  0  0
 74 80  1  0  0  0
 75 76  2  0  0  0
 75 81  1  0  0  0
 76 82  1  0  0  0
 77144  1  0  0  0
 77145  1  0  0  0
 77146  1  0  0  0
 78 79  1  0  0  0
 78147  1  0  0  0
 78148  1  0  0  0
 79 81  1  0  0  0
 79149  1  0  0  0
 79150  1  0  0  0
 80151  1  0  0  0
M  ISO  4   1 100  68 101  78 101  80 100
M  END
> <chiral flag>
0

> <version>
0

> <s_m_source_file>
/data/baiqing/PycharmProjects/Reinvent-master-3.2/result/LINK_invent/BTK/process_docking_weight1_custom_product_contain_oxygen_bond_distance_aromatic_linkinvent_7_9_3/rearranged_h_0008.sdf

> <i_m_source_file_index>
65

> <r_mmod_Potential_Energy-OPLS-2005>
484.711517333984

> <r_mmod_Stretch_Energy-OPLS-2005>
229.623840332031

> <r_mmod_Bend_Energy-OPLS-2005>
291.094299316406

> <r_mmod_Torsional_Energy-OPLS-2005>
215.976287841797

> <r_mmod_Improper_Torsional_Energy-OPLS-2005>
3.72254514694214

> <r_mmod_Van_der_Waal_Energy-OPLS-2005>
130.644683837891

> <r_mmod_Electrostatic_Energy-OPLS-2005>
-352.952209472656

> <r_mmod_Solvation_Energy-OPLS-2005>
-213.522888183594

> <b_mmod_Minimization_Converged-OPLS-2005>
0

> <r_mmod_RMS_Derivative-OPLS-2005>
0.15544182062149

$$$$
66
                    3D
 Structure written by MMmdl.
163172  0  0  1  0            999 V2000
  -30.7379  -14.4617   20.5963 C   0  0  0  0  0  0
  -30.4147  -12.3182   19.4143 C   0  0  0  0  0  0
  -29.4854  -12.5069   18.2000 C   0  0  0  0  0  0
  -28.0109  -12.3522   18.6187 C   0  0  0  0  0  0
  -27.6554  -13.1987   19.8685 C   0  0  2  0  0  0
  -28.7017  -13.0044   20.9913 C   0  0  0  0  0  0
  -25.2574  -13.8126   20.5678 C   0  0  0  0  0  0
  -24.1828  -13.0411   20.9208 C   0  0  0  0  0  0
  -24.6378  -11.6882   20.8753 C   0  0  0  0  0  0
  -23.9048  -10.4273   21.0414 C   0  0  0  0  0  0
  -24.3609   -9.4191   21.9188 C   0  0  0  0  0  0
  -23.6288   -8.2229   22.0754 C   0  0  0  0  0  0
  -22.4271   -8.0269   21.3547 C   0  0  0  0  0  0
  -21.9901   -9.0240   20.4651 C   0  0  0  0  0  0
  -22.7224  -10.2121   20.3063 C   0  0  0  0  0  0
  -21.6847   -6.0730   22.5281 C   0  0  0  0  0  0
  -21.4004   -6.5637   23.8213 C   0  0  0  0  0  0
  -21.3649   -5.6791   24.9177 C   0  0  0  0  0  0
  -21.6042   -4.3056   24.7229 C   0  0  0  0  0  0
  -21.8820   -3.8146   23.4351 C   0  0  0  0  0  0
  -21.9189   -4.6958   22.3403 C   0  0  0  0  0  0
  -22.7853  -13.5228   21.1854 C   0  0  0  0  0  0
  -22.1662   -4.2143   21.0980 F   0  0  0  0  0  0
  -21.5629   -3.4541   25.7744 F   0  0  0  0  0  0
  -30.0289  -13.3092   20.4333 N   0  0  0  0  0  0
  -26.2995  -12.9278   20.3354 N   0  0  0  0  0  0
  -25.9299  -11.6451   20.5780 N   0  0  0  0  0  0
  -22.0477  -12.8227   22.0397 N   0  0  0  0  0  0
  -25.4258  -15.1837   20.4020 N   0  0  0  0  0  0
  -31.8552  -14.6282   20.1077 O   0  0  0  0  0  0
  -21.6637   -6.8872   21.4244 O   0  0  0  0  0  0
  -22.3551  -14.5534   20.6693 O   0  0  0  0  0  0
  -24.6146  -31.8675   23.2104 C   0  0  0  0  0  0
  -25.9040  -32.4819   23.8385 C   0  0  1  0  0  0
  -27.2334  -27.4242   20.0885 C   0  0  0  0  0  0
  -25.5893  -33.8618   24.2312 N   0  0  0  0  0  0
  -23.4023  -30.4932   21.5524 C   0  0  2  0  0  0
  -24.8458  -28.9603   20.1160 C   0  0  0  0  0  0
  -22.7407  -29.4663   22.4998 C   0  0  0  0  0  0
  -18.0266  -28.1381   22.8486 C   0  0  0  0  0  0
  -24.1484  -36.7313   23.2638 C   0  0  0  0  0  0
  -25.9326  -30.8311   21.3643 C   0  0  0  0  0  0
  -26.0079  -29.4655   20.7100 C   0  0  0  0  0  0
  -27.2012  -28.7059   20.6912 C   0  0  0  0  0  0
  -26.0474  -26.9437   19.4816 C   0  0  0  0  0  0
  -24.8620  -27.6994   19.5004 C   0  0  0  0  0  0
  -23.6088  -29.8276   20.1665 C   0  0  0  0  0  0
  -25.4107  -36.3114   24.0337 C   0  0  1  0  0  0
  -20.5862  -28.3662   23.1326 C   0  0  2  0  0  0
  -20.6762  -26.9397   22.5425 C   0  0  0  0  0  0
  -19.5740  -26.6382   21.5221 C   0  0  0  0  0  0
  -18.1916  -26.7925   22.1628 C   0  0  0  0  0  0
  -19.1520  -28.8835   23.2898 C   0  0  0  0  0  0
  -18.9450  -30.1441   23.8906 C   0  0  0  0  0  0
  -17.6457  -30.6587   24.0561 C   0  0  0  0  0  0
  -25.9036  -34.9479   23.5125 C   0  0  0  0  0  0
  -16.5343  -29.9093   23.6325 C   0  0  0  0  0  0
  -16.7259  -28.6512   23.0342 C   0  0  0  0  0  0
  -26.4457  -31.6603   25.0718 C   0  0  0  0  0  0
  -25.3718  -31.3717   26.1465 C   0  0  0  0  0  0
  -27.0276  -30.3043   24.6095 C   0  0  0  0  0  0
  -27.6032  -32.4322   25.7481 C   0  0  0  0  0  0
  -27.5578  -37.1811   24.8466 C   0  0  0  0  0  0
  -21.4138  -29.3028   22.3730 N   0  0  0  0  0  0
  -26.4294  -37.3799   23.9408 N   0  0  0  0  0  0
  -24.6687  -31.0774   22.1010 N   0  0  0  0  0  0
  -23.4178  -28.8198   23.3034 O   0  0  0  0  0  0
  -28.4203  -26.7077   20.1176 O   0  0  0  0  0  0
  -26.5609  -34.8938   22.4695 O   0  0  0  0  0  0
  -23.5340  -32.1427   23.7503 O   0  0  0  0  0  0
  -27.8643  -19.8682   21.3801 C   0  0  0  0  0  0
  -27.8975  -18.4756   21.1597 C   0  0  0  0  0  0
  -30.2825  -19.9031   21.4461 C   0  0  0  0  0  0
  -29.0595  -20.6152   21.5268 C   0  0  0  0  0  0
  -29.1164  -17.7678   21.1031 C   0  0  0  0  0  0
  -30.3175  -18.5030   21.2447 C   0  0  0  0  0  0
  -26.1118  -24.2039   21.9586 C   0  0  0  0  0  0
  -27.3406  -25.0087   22.3406 C   0  0  0  0  0  0
  -26.7037  -22.8360   21.6221 C   0  0  0  0  0  0
  -28.4124  -24.5036   21.3602 C   0  0  2  0  0  0
  -29.0610  -16.2526   20.8507 C   0  0  0  0  0  0
  -29.0916  -22.1266   21.8679 C   0  0  0  0  0  0
  -28.4207  -25.2658   19.9960 C   0  0  0  0  0  0
  -30.1914  -15.4472   21.3282 N   0  0  0  0  0  0
  -28.1147  -23.0379   21.1845 N   0  3  1  0  0  0
  -31.5153  -17.8730   21.1994 F   0  0  0  0  0  0
  -31.4571  -12.4128   19.1054 H   0  0  0  0  0  0
  -30.3183  -11.3101   19.8197 H   0  0  0  0  0  0
  -29.7294  -11.7834   17.4207 H   0  0  0  0  0  0
  -29.6455  -13.4935   17.7615 H   0  0  0  0  0  0
  -27.8338  -11.2960   18.8257 H   0  0  0  0  0  0
  -27.3536  -12.6129   17.7880 H   0  0  0  0  0  0
  -27.6823  -14.2361   19.5439 H   0  0  0  0  0  0
  -28.6878  -11.9742   21.3498 H   0  0  0  0  0  0
  -28.4632  -13.6152   21.8626 H   0  0  0  0  0  0
  -25.2750   -9.5669   22.4766 H   0  0  0  0  0  0
  -23.9988   -7.4615   22.7472 H   0  0  0  0  0  0
  -21.0829   -8.8764   19.8959 H   0  0  0  0  0  0
  -22.3682  -10.9667   19.6183 H   0  0  0  0  0  0
  -21.1995   -7.6144   23.9719 H   0  0  0  0  0  0
  -21.1470   -6.0520   25.9079 H   0  0  0  0  0  0
  -22.0608   -2.7608   23.2858 H   0  0  0  0  0  0
  -22.4103  -11.9901   22.4798 H   0  0  0  0  0  0
  -21.1092  -13.1260   22.2587 H   0  0  0  0  0  0
  -24.6469  -15.8267   20.4964 H   0  0  0  0  0  0
  -26.2544  -15.6167   20.0180 H   0  0  0  0  0  0
  -26.7113  -32.5531   23.1151 H   0  0  0  0  0  0
  -25.0027  -33.9763   25.0447 H   0  0  0  0  0  0
  -22.6933  -31.3126   21.4160 H   0  0  0  0  0  0
  -23.3750  -35.9643   23.3316 H   0  0  0  0  0  0
  -24.3571  -36.8916   22.2048 H   0  0  0  0  0  0
  -23.7237  -37.6526   23.6641 H   0  0  0  0  0  0
  -26.0462  -31.5982   20.5968 H   0  0  0  0  0  0
  -26.8202  -30.8822   21.9827 H   0  0  0  0  0  0
  -28.0980  -29.0962   21.1525 H   0  0  0  0  0  0
  -25.9935  -25.9963   18.9711 H   0  0  0  0  0  0
  -23.9704  -27.3075   19.0306 H   0  0  0  0  0  0
  -23.7180  -30.6036   19.4079 H   0  0  0  0  0  0
  -22.7315  -29.2492   19.8701 H   0  0  0  0  0  0
  -25.1284  -36.1979   25.0830 H   0  0  0  0  0  0
  -20.9936  -28.3232   24.1457 H   0  0  0  0  0  0
  -20.5682  -26.2261   23.3607 H   0  0  0  0  0  0
  -21.6630  -26.7458   22.1205 H   0  0  0  0  0  0
  -19.6901  -25.6297   21.1240 H   0  0  0  0  0  0
  -19.6686  -27.3203   20.6759 H   0  0  0  0  0  0
  -17.4180  -26.6665   21.4031 H   0  0  0  0  0  0
  -18.0315  -26.0073   22.9030 H   0  0  0  0  0  0
  -19.7933  -30.7243   24.2284 H   0  0  0  0  0  0
  -17.5021  -31.6272   24.5155 H   0  0  0  0  0  0
  -15.5347  -30.2999   23.7654 H   0  0  0  0  0  0
  -15.8656  -28.0843   22.7052 H   0  0  0  0  0  0
  -24.5889  -30.7066   25.7800 H   0  0  0  0  0  0
  -24.8906  -32.2875   26.4911 H   0  0  0  0  0  0
  -25.8062  -30.8884   27.0224 H   0  0  0  0  0  0
  -26.2813  -29.6829   24.1129 H   0  0  0  0  0  0
  -27.4022  -29.7259   25.4552 H   0  0  0  0  0  0
  -27.8664  -30.4360   23.9255 H   0  0  0  0  0  0
  -27.2648  -33.3614   26.2080 H   0  0  0  0  0  0
  -28.3828  -32.6896   25.0297 H   0  0  0  0  0  0
  -28.0708  -31.8428   26.5379 H   0  0  0  0  0  0
  -28.2605  -38.0099   24.7506 H   0  0  0  0  0  0
  -28.1063  -36.2632   24.6299 H   0  0  0  0  0  0
  -27.2287  -37.1470   25.8867 H   0  0  0  0  0  0
  -20.9297  -29.8751   21.6958 H   0  0  0  0  0  0
  -26.0189  -38.2879   24.1420 H   0  0  0  0  0  0
  -26.8889  -20.3189   21.4442 H   0  0  0  0  0  0
  -26.9631  -17.9444   21.0450 H   0  0  0  0  0  0
  -31.2205  -20.4255   21.5696 H   0  0  0  0  0  0
  -25.6254  -24.6332   21.0825 H   0  0  0  0  0  0
  -25.3708  -24.1567   22.7579 H   0  0  0  0  0  0
  -27.6340  -24.7541   23.3602 H   0  0  0  0  0  0
  -27.1753  -26.0850   22.3300 H   0  0  0  0  0  0
  -26.1185  -22.3342   20.8506 H   0  0  0  0  0  0
  -26.6644  -22.2243   22.5248 H   0  0  0  0  0  0
  -29.3919  -24.6557   21.8167 H   0  0  0  0  0  0
  -28.9398  -16.1211   19.7737 H   0  0  0  0  0  0
  -28.1563  -15.8646   21.3195 H   0  0  0  0  0  0
  -30.0939  -22.4840   21.6261 H   0  0  0  0  0  0
  -28.9993  -22.2390   22.9490 H   0  0  0  0  0  0
  -27.6459  -24.8856   19.3370 H   0  0  0  0  0  0
  -29.3446  -25.0065   19.4784 H   0  0  0  0  0  0
  -30.9125  -16.0564   21.6907 H   0  0  0  0  0  0
  -28.1757  -22.8220   20.1997 H   0  0  0  0  0  0
  1 25  1  0  0  0
  1 30  2  0  0  0
  1 84  1  0  0  0
  2  3  1  0  0  0
  2 25  1  0  0  0
  2 87  1  0  0  0
  2 88  1  0  0  0
  3  4  1  0  0  0
  3 89  1  0  0  0
  3 90  1  0  0  0
  4  5  1  0  0  0
  4 91  1  0  0  0
  4 92  1  0  0  0
  5  6  1  0  0  0
  5 26  1  0  0  0
  5 93  1  0  0  0
  6 25  1  0  0  0
  6 94  1  0  0  0
  6 95  1  0  0  0
  7  8  2  0  0  0
  7 26  1  0  0  0
  7 29  1  0  0  0
  8  9  1  0  0  0
  8 22  1  0  0  0
  9 10  1  0  0  0
  9 27  2  0  0  0
 10 11  2  0  0  0
 10 15  1  0  0  0
 11 12  1  0  0  0
 11 96  1  0  0  0
 12 13  2  0  0  0
 12 97  1  0  0  0
 13 14  1  0  0  0
 13 31  1  0  0  0
 14 15  2  0  0  0
 14 98  1  0  0  0
 15 99  1  0  0  0
 16 17  2  0  0  0
 16 21  1  0  0  0
 16 31  1  0  0  0
 17 18  1  0  0  0
 17100  1  0  0  0
 18 19  2  0  0  0
 18101  1  0  0  0
 19 20  1  0  0  0
 19 24  1  0  0  0
 20 21  2  0  0  0
 20102  1  0  0  0
 21 23  1  0  0  0
 22 28  1  0  0  0
 22 32  2  0  0  0
 26 27  1  0  0  0
 28103  1  0  0  0
 28104  1  0  0  0
 29105  1  0  0  0
 29106  1  0  0  0
 33 34  1  0  0  0
 33 66  1  0  0  0
 33 70  2  0  0  0
 34 36  1  0  0  0
 34 59  1  0  0  0
 34107  1  0  0  0
 35 44  2  0  0  0
 35 45  1  0  0  0
 35 68  1  0  0  0
 36 56  1  0  0  0
 36108  1  0  0  0
 37 39  1  0  0  0
 37 47  1  0  0  0
 37 66  1  0  0  0
 37109  1  0  0  0
 38 43  2  0  0  0
 38 46  1  0  0  0
 38 47  1  0  0  0
 39 64  1  0  0  0
 39 67  2  0  0  0
 40 52  1  0  0  0
 40 53  2  0  0  0
 40 58  1  0  0  0
 41110  1  0  0  0
 41111  1  0  0  0
 41112  1  0  0  0
 41 48  1  0  0  0
 42 43  1  0  0  0
 42 66  1  0  0  0
 42113  1  0  0  0
 42114  1  0  0  0
 43 44  1  0  0  0
 44115  1  0  0  0
 45 46  2  0  0  0
 45116  1  0  0  0
 46117  1  0  0  0
 47118  1  0  0  0
 47119  1  0  0  0
 48 56  1  0  0  0
 48 65  1  0  0  0
 48120  1  0  0  0
 49 50  1  0  0  0
 49 53  1  0  0  0
 49 64  1  0  0  0
 49121  1  0  0  0
 50 51  1  0  0  0
 50122  1  0  0  0
 50123  1  0  0  0
 51 52  1  0  0  0
 51124  1  0  0  0
 51125  1  0  0  0
 52126  1  0  0  0
 52127  1  0  0  0
 53 54  1  0  0  0
 54 55  2  0  0  0
 54128  1  0  0  0
 55 57  1  0  0  0
 55129  1  0  0  0
 56 69  2  0  0  0
 57 58  2  0  0  0
 57130  1  0  0  0
 58131  1  0  0  0
 59 60  1  0  0  0
 59 61  1  0  0  0
 59 62  1  0  0  0
 60132  1  0  0  0
 60133  1  0  0  0
 60134  1  0  0  0
 61135  1  0  0  0
 61136  1  0  0  0
 61137  1  0  0  0
 62138  1  0  0  0
 62139  1  0  0  0
 62140  1  0  0  0
 63 65  1  0  0  0
 63141  1  0  0  0
 63142  1  0  0  0
 63143  1  0  0  0
 64144  1  0  0  0
 65145  1  0  0  0
 68 83  1  0  0  0
 71 72  2  0  0  0
 71 74  1  0  0  0
 71146  1  0  0  0
 72 75  1  0  0  0
 72147  1  0  0  0
 73 74  2  0  0  0
 73 76  1  0  0  0
 73148  1  0  0  0
 74 82  1  0  0  0
 75 76  2  0  0  0
 75 81  1  0  0  0
 76 86  1  0  0  0
 77 78  1  0  0  0
 77 79  1  0  0  0
 77149  1  0  0  0
 77150  1  0  0  0
 78 80  1  0  0  0
 78151  1  0  0  0
 78152  1  0  0  0
 79 85  1  0  0  0
 79153  1  0  0  0
 79154  1  0  0  0
 80 83  1  0  0  0
 80 85  1  0  0  0
 80155  1  0  0  0
 81 84  1  0  0  0
 81156  1  0  0  0
 81157  1  0  0  0
 82158  1  0  0  0
 82159  1  0  0  0
 82 85  1  0  0  0
 83160  1  0  0  0
 83161  1  0  0  0
 84162  1  0  0  0
 85163  1  0  0  0
M  CHG  1  85   1
M  ISO  4   1 100  68 101  83 101  84 100
M  END
> <chiral flag>
0

> <version>
0

> <s_m_source_file>
/data/baiqing/PycharmProjects/Reinvent-master-3.2/result/LINK_invent/BTK/process_docking_weight1_custom_product_contain_oxygen_bond_distance_aromatic_linkinvent_7_9_3/rearranged_h_0008.sdf

> <i_m_source_file_index>
66

> <r_mmod_Potential_Energy-OPLS-2005>
-4.857008934021

> <r_mmod_Stretch_Energy-OPLS-2005>
43.6614456176758

> <r_mmod_Bend_Energy-OPLS-2005>
148.304473876953

> <r_mmod_Torsional_Energy-OPLS-2005>
311.501861572266

> <r_mmod_Improper_Torsional_Energy-OPLS-2005>
6.90507555007935

> <r_mmod_Van_der_Waal_Energy-OPLS-2005>
150.333877563477

> <r_mmod_Electrostatic_Energy-OPLS-2005>
-244.378524780273

> <r_mmod_Solvation_Energy-OPLS-2005>
-434.820861816406

> <b_mmod_Minimization_Converged-OPLS-2005>
0

> <r_mmod_RMS_Derivative-OPLS-2005>
1.16252768039703

$$$$
67
                    3D
 Structure written by MMmdl.
157166  0  0  1  0            999 V2000
  -30.4206  -15.3852   20.3256 C   0  0  0  0  0  0
  -30.4181  -12.9008   19.4968 C   0  0  0  0  0  0
  -29.5273  -12.5923   18.2676 C   0  0  0  0  0  0
  -28.0795  -12.2959   18.6951 C   0  0  0  0  0  0
  -27.5907  -13.2786   19.7879 C   0  0  2  0  0  0
  -28.6266  -13.5346   20.9050 C   0  0  0  0  0  0
  -25.2326  -13.8186   20.5722 C   0  0  0  0  0  0
  -24.1705  -13.0372   20.9257 C   0  0  0  0  0  0
  -24.6387  -11.6880   20.8720 C   0  0  0  0  0  0
  -23.9089  -10.4260   21.0357 C   0  0  0  0  0  0
  -24.3659   -9.4196   21.9138 C   0  0  0  0  0  0
  -23.6337   -8.2244   22.0723 C   0  0  0  0  0  0
  -22.4304   -8.0266   21.3521 C   0  0  0  0  0  0
  -21.9940   -9.0229   20.4613 C   0  0  0  0  0  0
  -22.7267  -10.2101   20.3021 C   0  0  0  0  0  0
  -21.6865   -6.0747   22.5280 C   0  0  0  0  0  0
  -21.4019   -6.5641   23.8204 C   0  0  0  0  0  0
  -21.3677   -5.6782   24.9170 C   0  0  0  0  0  0
  -21.6057   -4.3053   24.7214 C   0  0  0  0  0  0
  -21.8828   -3.8147   23.4336 C   0  0  0  0  0  0
  -21.9210   -4.6982   22.3396 C   0  0  0  0  0  0
  -22.7744  -13.5126   21.1922 C   0  0  0  0  0  0
  -22.1673   -4.2175   21.0973 F   0  0  0  0  0  0
  -21.5651   -3.4528   25.7726 F   0  0  0  0  0  0
  -29.8271  -14.0787   20.2446 N   0  0  0  0  0  0
  -26.2731  -12.9476   20.3082 N   0  0  0  0  0  0
  -25.9314  -11.6565   20.5613 N   0  0  0  0  0  0
  -22.0444  -12.8098   22.0475 N   0  0  0  0  0  0
  -25.3847  -15.1924   20.4221 N   0  0  0  0  0  0
  -31.6587  -15.3000   20.2636 O   0  0  0  0  0  0
  -21.6649   -6.8893   21.4226 O   0  0  0  0  0  0
  -22.3404  -14.5428   20.6768 O   0  0  0  0  0  0
  -24.6674  -31.8158   23.1646 C   0  0  0  0  0  0
  -25.9381  -32.4507   23.8078 C   0  0  1  0  0  0
  -27.2123  -26.8668   20.1811 C   0  0  0  0  0  0
  -25.6032  -33.8320   24.1990 N   0  0  0  0  0  0
  -23.4772  -30.4352   21.5103 C   0  0  2  0  0  0
  -24.9288  -28.7985   20.1144 C   0  0  0  0  0  0
  -22.7624  -29.4483   22.4685 C   0  0  0  0  0  0
  -18.0324  -28.1371   22.8447 C   0  0  0  0  0  0
  -24.1485  -36.7203   23.2641 C   0  0  0  0  0  0
  -26.0498  -30.6072   21.3955 C   0  0  0  0  0  0
  -26.1176  -29.1883   20.7425 C   0  0  0  0  0  0
  -27.2517  -28.2457   20.7495 C   0  0  0  0  0  0
  -25.9969  -26.6519   19.4938 C   0  0  0  0  0  0
  -24.8955  -27.5491   19.4735 C   0  0  0  0  0  0
  -23.7203  -29.7371   20.1417 C   0  0  0  0  0  0
  -25.4125  -36.2898   24.0271 C   0  0  1  0  0  0
  -20.5928  -28.3769   23.1097 C   0  0  2  0  0  0
  -20.6754  -26.9427   22.5365 C   0  0  0  0  0  0
  -19.5759  -26.6355   21.5142 C   0  0  0  0  0  0
  -18.1954  -26.7909   22.1579 C   0  0  0  0  0  0
  -19.1581  -28.8892   23.2785 C   0  0  0  0  0  0
  -18.9511  -30.1465   23.8843 C   0  0  0  0  0  0
  -17.6513  -30.6571   24.0544 C   0  0  0  0  0  0
  -25.9125  -34.9298   23.4945 C   0  0  0  0  0  0
  -16.5402  -29.9057   23.6321 C   0  0  0  0  0  0
  -16.7321  -28.6467   23.0363 C   0  0  0  0  0  0
  -26.4614  -31.6461   25.0639 C   0  0  0  0  0  0
  -25.3775  -31.3779   26.1329 C   0  0  0  0  0  0
  -27.0511  -30.2775   24.6478 C   0  0  0  0  0  0
  -27.6025  -32.4323   25.7528 C   0  0  0  0  0  0
  -27.5558  -37.1753   24.8466 C   0  0  0  0  0  0
  -21.4294  -29.3092   22.3452 N   0  0  0  0  0  0
  -26.4246  -37.3662   23.9421 N   0  0  0  0  0  0
  -24.7534  -30.9805   22.0771 N   0  0  0  0  0  0
  -23.4164  -28.8039   23.2930 O   0  0  0  0  0  0
  -28.2124  -25.7337   20.2201 O   0  0  0  0  0  0
  -26.5733  -34.8867   22.4545 O   0  0  0  0  0  0
  -23.5771  -32.1117   23.6796 O   0  0  0  0  0  0
  -28.3258  -19.8904   18.2556 C   0  0  0  0  0  0
  -29.8342  -19.6735   18.4497 C   0  0  0  0  0  0
  -27.6292  -18.5137   20.3260 C   0  0  0  0  0  0
  -28.3644  -17.1173   19.8601 C   0  0  0  0  0  0
  -30.3324  -18.2228   20.6686 C   0  0  0  0  0  0
  -27.8281  -20.0207   19.7005 C   0  0  1  0  0  0
  -30.0313  -19.8156   19.9757 C   0  0  2  0  0  0
  -29.0153  -22.5549   20.0384 C   0  0  0  0  0  0
  -27.9755  -24.0594   20.2587 C   0  0  0  0  0  0
  -29.7573  -16.7542   20.3163 N   0  0  0  0  0  0
  -28.8846  -20.8774   20.3729 N   0  3  1  0  0  0
  -31.4285  -13.1211   19.1481 H   0  0  0  0  0  0
  -30.5085  -12.0258   20.1450 H   0  0  0  0  0  0
  -29.9304  -11.7577   17.6936 H   0  0  0  0  0  0
  -29.5330  -13.4524   17.5945 H   0  0  0  0  0  0
  -28.0389  -11.2696   19.0612 H   0  0  0  0  0  0
  -27.4196  -12.3346   17.8265 H   0  0  0  0  0  0
  -27.4677  -14.2173   19.2467 H   0  0  0  0  0  0
  -28.8418  -12.6298   21.4763 H   0  0  0  0  0  0
  -28.2363  -14.2696   21.6105 H   0  0  0  0  0  0
  -25.2818   -9.5691   22.4686 H   0  0  0  0  0  0
  -24.0082   -7.4625   22.7422 H   0  0  0  0  0  0
  -21.0899   -8.8721   19.8885 H   0  0  0  0  0  0
  -22.3723  -10.9633   19.6130 H   0  0  0  0  0  0
  -21.1969   -7.6138   23.9715 H   0  0  0  0  0  0
  -21.1505   -6.0504   25.9070 H   0  0  0  0  0  0
  -22.0593   -2.7614   23.2808 H   0  0  0  0  0  0
  -22.4148  -11.9812   22.4907 H   0  0  0  0  0  0
  -21.1003  -13.0979   22.2615 H   0  0  0  0  0  0
  -24.6109  -15.8331   20.5533 H   0  0  0  0  0  0
  -26.2350  -15.6469   20.1205 H   0  0  0  0  0  0
  -26.7469  -32.5025   23.0804 H   0  0  0  0  0  0
  -25.0087  -33.9337   25.0078 H   0  0  0  0  0  0
  -22.7993  -31.2731   21.3317 H   0  0  0  0  0  0
  -23.3706  -35.9573   23.3231 H   0  0  0  0  0  0
  -24.3570  -36.8945   22.2077 H   0  0  0  0  0  0
  -23.7289  -37.6385   23.6760 H   0  0  0  0  0  0
  -26.2314  -31.3455   20.6113 H   0  0  0  0  0  0
  -26.9074  -30.6648   22.0546 H   0  0  0  0  0  0
  -28.1482  -28.5448   21.2719 H   0  0  0  0  0  0
  -25.8647  -25.7131   18.9744 H   0  0  0  0  0  0
  -23.9901  -27.2406   18.9688 H   0  0  0  0  0  0
  -23.8881  -30.4966   19.3771 H   0  0  0  0  0  0
  -22.8236  -29.2063   19.8177 H   0  0  0  0  0  0
  -25.1317  -36.1620   25.0752 H   0  0  0  0  0  0
  -21.0074  -28.3392   24.1194 H   0  0  0  0  0  0
  -20.5459  -26.2437   23.3646 H   0  0  0  0  0  0
  -21.6635  -26.7293   22.1284 H   0  0  0  0  0  0
  -19.6902  -25.6238   21.1244 H   0  0  0  0  0  0
  -19.6651  -27.3089   20.6605 H   0  0  0  0  0  0
  -17.4181  -26.6622   21.4027 H   0  0  0  0  0  0
  -18.0424  -26.0038   22.8978 H   0  0  0  0  0  0
  -19.8010  -30.7279   24.2174 H   0  0  0  0  0  0
  -17.5087  -31.6243   24.5162 H   0  0  0  0  0  0
  -15.5409  -30.2964   23.7668 H   0  0  0  0  0  0
  -15.8713  -28.0787   22.7102 H   0  0  0  0  0  0
  -24.5949  -30.7098   25.7716 H   0  0  0  0  0  0
  -24.9022  -32.3031   26.4589 H   0  0  0  0  0  0
  -25.8058  -30.9101   27.0203 H   0  0  0  0  0  0
  -26.3203  -29.6410   24.1474 H   0  0  0  0  0  0
  -27.3921  -29.7174   25.5197 H   0  0  0  0  0  0
  -27.9186  -30.3810   23.9954 H   0  0  0  0  0  0
  -27.2444  -33.3617   26.1960 H   0  0  0  0  0  0
  -28.3957  -32.6896   25.0505 H   0  0  0  0  0  0
  -28.0542  -31.8571   26.5620 H   0  0  0  0  0  0
  -28.2507  -38.0105   24.7490 H   0  0  0  0  0  0
  -28.1095  -36.2618   24.6248 H   0  0  0  0  0  0
  -27.2309  -37.1383   25.8880 H   0  0  0  0  0  0
  -20.9505  -29.8915   21.6716 H   0  0  0  0  0  0
  -26.0041  -38.2700   24.1406 H   0  0  0  0  0  0
  -27.8329  -19.0862   17.7060 H   0  0  0  0  0  0
  -28.1440  -20.8131   17.6979 H   0  0  0  0  0  0
  -30.3894  -20.4433   17.9075 H   0  0  0  0  0  0
  -30.1708  -18.7029   18.0824 H   0  0  0  0  0  0
  -27.6482  -18.5717   21.4152 H   0  0  0  0  0  0
  -26.5810  -18.2979   20.1110 H   0  0  0  0  0  0
  -28.3295  -17.0256   18.7728 H   0  0  0  0  0  0
  -27.7454  -16.3063   20.2279 H   0  0  0  0  0  0
  -30.2359  -18.3269   21.7494 H   0  0  0  0  0  0
  -31.4042  -18.0801   20.5277 H   0  0  0  0  0  0
  -26.8706  -20.5460   19.7357 H   0  0  0  0  0  0
  -30.9582  -20.3598   20.1536 H   0  0  0  0  0  0
  -29.9244  -22.8202   20.5801 H   0  0  0  0  0  0
  -29.3195  -22.5904   18.9939 H   0  0  0  0  0  0
  -27.5109  -23.9105   21.2322 H   0  0  0  0  0  0
  -27.1456  -23.9019   19.5697 H   0  0  0  0  0  0
  -28.7418  -20.8135   21.3720 H   0  0  0  0  0  0
  1 25  1  0  0  0
  1 30  2  0  0  0
  1 80  1  0  0  0
  2  3  1  0  0  0
  2 25  1  0  0  0
  2 82  1  0  0  0
  2 83  1  0  0  0
  3  4  1  0  0  0
  3 84  1  0  0  0
  3 85  1  0  0  0
  4  5  1  0  0  0
  4 86  1  0  0  0
  4 87  1  0  0  0
  5  6  1  0  0  0
  5 26  1  0  0  0
  5 88  1  0  0  0
  6 25  1  0  0  0
  6 89  1  0  0  0
  6 90  1  0  0  0
  7  8  2  0  0  0
  7 26  1  0  0  0
  7 29  1  0  0  0
  8  9  1  0  0  0
  8 22  1  0  0  0
  9 10  1  0  0  0
  9 27  2  0  0  0
 10 11  2  0  0  0
 10 15  1  0  0  0
 11 12  1  0  0  0
 11 91  1  0  0  0
 12 13  2  0  0  0
 12 92  1  0  0  0
 13 14  1  0  0  0
 13 31  1  0  0  0
 14 15  2  0  0  0
 14 93  1  0  0  0
 15 94  1  0  0  0
 16 17  2  0  0  0
 16 21  1  0  0  0
 16 31  1  0  0  0
 17 18  1  0  0  0
 17 95  1  0  0  0
 18 19  2  0  0  0
 18 96  1  0  0  0
 19 20  1  0  0  0
 19 24  1  0  0  0
 20 21  2  0  0  0
 20 97  1  0  0  0
 21 23  1  0  0  0
 22 28  1  0  0  0
 22 32  2  0  0  0
 26 27  1  0  0  0
 28 98  1  0  0  0
 28 99  1  0  0  0
 29100  1  0  0  0
 29101  1  0  0  0
 33 34  1  0  0  0
 33 66  1  0  0  0
 33 70  2  0  0  0
 34 36  1  0  0  0
 34 59  1  0  0  0
 34102  1  0  0  0
 35 44  2  0  0  0
 35 45  1  0  0  0
 35 68  1  0  0  0
 36 56  1  0  0  0
 36103  1  0  0  0
 37 39  1  0  0  0
 37 47  1  0  0  0
 37 66  1  0  0  0
 37104  1  0  0  0
 38 43  2  0  0  0
 38 46  1  0  0  0
 38 47  1  0  0  0
 39 64  1  0  0  0
 39 67  2  0  0  0
 40 52  1  0  0  0
 40 53  2  0  0  0
 40 58  1  0  0  0
 41105  1  0  0  0
 41106  1  0  0  0
 41107  1  0  0  0
 41 48  1  0  0  0
 42 43  1  0  0  0
 42 66  1  0  0  0
 42108  1  0  0  0
 42109  1  0  0  0
 43 44  1  0  0  0
 44110  1  0  0  0
 45 46  2  0  0  0
 45111  1  0  0  0
 46112  1  0  0  0
 47113  1  0  0  0
 47114  1  0  0  0
 48 56  1  0  0  0
 48 65  1  0  0  0
 48115  1  0  0  0
 49 50  1  0  0  0
 49 53  1  0  0  0
 49 64  1  0  0  0
 49116  1  0  0  0
 50 51  1  0  0  0
 50117  1  0  0  0
 50118  1  0  0  0
 51 52  1  0  0  0
 51119  1  0  0  0
 51120  1  0  0  0
 52121  1  0  0  0
 52122  1  0  0  0
 53 54  1  0  0  0
 54 55  2  0  0  0
 54123  1  0  0  0
 55 57  1  0  0  0
 55124  1  0  0  0
 56 69  2  0  0  0
 57 58  2  0  0  0
 57125  1  0  0  0
 58126  1  0  0  0
 59 60  1  0  0  0
 59 61  1  0  0  0
 59 62  1  0  0  0
 60127  1  0  0  0
 60128  1  0  0  0
 60129  1  0  0  0
 61130  1  0  0  0
 61131  1  0  0  0
 61132  1  0  0  0
 62133  1  0  0  0
 62134  1  0  0  0
 62135  1  0  0  0
 63 65  1  0  0  0
 63136  1  0  0  0
 63137  1  0  0  0
 63138  1  0  0  0
 64139  1  0  0  0
 65140  1  0  0  0
 68 79  1  0  0  0
 71 72  1  0  0  0
 71141  1  0  0  0
 71142  1  0  0  0
 71 76  1  0  0  0
 72143  1  0  0  0
 72144  1  0  0  0
 72 77  1  0  0  0
 73 74  1  0  0  0
 73 76  1  0  0  0
 73145  1  0  0  0
 73146  1  0  0  0
 74 80  1  0  0  0
 74147  1  0  0  0
 74148  1  0  0  0
 75 77  1  0  0  0
 75 80  1  0  0  0
 75149  1  0  0  0
 75150  1  0  0  0
 76 81  1  0  0  0
 76151  1  0  0  0
 77 81  1  0  0  0
 77152  1  0  0  0
 78 79  1  0  0  0
 78153  1  0  0  0
 78154  1  0  0  0
 78 81  1  0  0  0
 79155  1  0  0  0
 79156  1  0  0  0
 81157  1  0  0  0
M  CHG  1  81   1
M  ISO  4   1 100  68 101  79 101  80 100
M  END
> <chiral flag>
0

> <version>
0

> <s_m_source_file>
/data/baiqing/PycharmProjects/Reinvent-master-3.2/result/LINK_invent/BTK/process_docking_weight1_custom_product_contain_oxygen_bond_distance_aromatic_linkinvent_7_9_3/rearranged_h_0008.sdf

> <i_m_source_file_index>
67

> <r_mmod_Potential_Energy-OPLS-2005>
1805.61254882812

> <r_mmod_Stretch_Energy-OPLS-2005>
684.123901367188

> <r_mmod_Bend_Energy-OPLS-2005>
598.33154296875

> <r_mmod_Torsional_Energy-OPLS-2005>
433.691101074219

> <r_mmod_Improper_Torsional_Energy-OPLS-2005>
3.13549900054932

> <r_mmod_Van_der_Waal_Energy-OPLS-2005>
115.616912841797

> <r_mmod_Electrostatic_Energy-OPLS-2005>
-174.938079833984

> <r_mmod_Solvation_Energy-OPLS-2005>
-428.301300048828

> <b_mmod_Minimization_Converged-OPLS-2005>
0

> <r_mmod_RMS_Derivative-OPLS-2005>
4.52170515060425

$$$$
68
                    3D
 Structure written by MMmdl.
144152  0  0  1  0            999 V2000
  -30.3122  -15.6130   20.3322 C   0  0  0  0  0  0
  -30.4225  -13.0650   19.5397 C   0  0  0  0  0  0
  -29.5483  -12.6502   18.3222 C   0  0  0  0  0  0
  -28.1200  -12.2990   18.7644 C   0  0  0  0  0  0
  -27.5950  -13.3060   19.8128 C   0  0  2  0  0  0
  -28.6111  -13.6328   20.9323 C   0  0  0  0  0  0
  -25.2318  -13.8282   20.5794 C   0  0  0  0  0  0
  -24.1707  -13.0432   20.9289 C   0  0  0  0  0  0
  -24.6407  -11.6943   20.8766 C   0  0  0  0  0  0
  -23.9112  -10.4291   21.0398 C   0  0  0  0  0  0
  -24.3649   -9.4205   21.9180 C   0  0  0  0  0  0
  -23.6311   -8.2245   22.0753 C   0  0  0  0  0  0
  -22.4292   -8.0285   21.3544 C   0  0  0  0  0  0
  -21.9937   -9.0261   20.4643 C   0  0  0  0  0  0
  -22.7279  -10.2133   20.3049 C   0  0  0  0  0  0
  -21.6858   -6.0740   22.5279 C   0  0  0  0  0  0
  -21.4019   -6.5642   23.8212 C   0  0  0  0  0  0
  -21.3661   -5.6794   24.9174 C   0  0  0  0  0  0
  -21.6043   -4.3056   24.7223 C   0  0  0  0  0  0
  -21.8818   -3.8149   23.4344 C   0  0  0  0  0  0
  -21.9194   -4.6967   22.3401 C   0  0  0  0  0  0
  -22.7720  -13.5164   21.1924 C   0  0  0  0  0  0
  -22.1661   -4.2152   21.0978 F   0  0  0  0  0  0
  -21.5628   -3.4539   25.7735 F   0  0  0  0  0  0
  -29.7875  -14.2493   20.2772 N   0  0  0  0  0  0
  -26.2763  -12.9609   20.3231 N   0  0  0  0  0  0
  -25.9352  -11.6683   20.5702 N   0  0  0  0  0  0
  -22.0386  -12.8140   22.0476 N   0  0  0  0  0  0
  -25.3912  -15.2024   20.4240 N   0  0  0  0  0  0
  -31.5462  -15.5483   20.1720 O   0  0  0  0  0  0
  -21.6647   -6.8887   21.4242 O   0  0  0  0  0  0
  -22.3395  -14.5462   20.6760 O   0  0  0  0  0  0
  -24.6827  -31.7995   23.1513 C   0  0  0  0  0  0
  -25.9411  -32.4462   23.8058 C   0  0  1  0  0  0
  -27.2252  -26.6992   20.2217 C   0  0  0  0  0  0
  -25.5993  -33.8289   24.1945 N   0  0  0  0  0  0
  -23.5084  -30.4003   21.5050 C   0  0  2  0  0  0
  -24.9642  -28.7357   20.1216 C   0  0  0  0  0  0
  -22.7757  -29.4311   22.4716 C   0  0  0  0  0  0
  -18.0336  -28.1420   22.8455 C   0  0  0  0  0  0
  -24.1496  -36.7152   23.2653 C   0  0  0  0  0  0
  -26.0875  -30.5300   21.4171 C   0  0  0  0  0  0
  -26.1504  -29.0923   20.7731 C   0  0  0  0  0  0
  -27.2628  -28.1006   20.7922 C   0  0  0  0  0  0
  -26.0087  -26.5514   19.5081 C   0  0  0  0  0  0
  -24.9313  -27.4904   19.4675 C   0  0  0  0  0  0
  -23.7622  -29.6935   20.1414 C   0  0  0  0  0  0
  -25.4146  -36.2893   24.0281 C   0  0  1  0  0  0
  -20.5970  -28.3777   23.1146 C   0  0  2  0  0  0
  -20.6803  -26.9438   22.5405 C   0  0  0  0  0  0
  -19.5780  -26.6369   21.5217 C   0  0  0  0  0  0
  -18.1962  -26.7948   22.1619 C   0  0  0  0  0  0
  -19.1602  -28.8924   23.2782 C   0  0  0  0  0  0
  -18.9508  -30.1507   23.8827 C   0  0  0  0  0  0
  -17.6498  -30.6603   24.0551 C   0  0  0  0  0  0
  -25.9125  -34.9282   23.4951 C   0  0  0  0  0  0
  -16.5388  -29.9085   23.6349 C   0  0  0  0  0  0
  -16.7316  -28.6508   23.0365 C   0  0  0  0  0  0
  -26.4593  -31.6500   25.0681 C   0  0  0  0  0  0
  -25.3661  -31.3818   26.1298 C   0  0  0  0  0  0
  -27.0527  -30.2838   24.6584 C   0  0  0  0  0  0
  -27.6040  -32.4364   25.7499 C   0  0  0  0  0  0
  -27.5564  -37.1733   24.8466 C   0  0  0  0  0  0
  -21.4406  -29.3024   22.3466 N   0  0  0  0  0  0
  -26.4272  -37.3654   23.9407 N   0  0  0  0  0  0
  -24.7829  -30.9438   22.0769 N   0  0  0  0  0  0
  -23.4203  -28.7917   23.3063 O   0  0  0  0  0  0
  -28.2395  -25.5250   20.2514 O   0  0  0  0  0  0
  -26.5768  -34.8861   22.4569 O   0  0  0  0  0  0
  -23.5848  -32.1073   23.6468 O   0  0  0  0  0  0
  -28.7603  -21.3955   19.1948 C   0  0  0  0  0  0
  -28.4274  -22.8926   19.1788 C   0  0  0  0  0  0
  -29.0794  -20.4530   20.3082 C   0  0  0  0  0  0
  -28.3025  -23.9021   20.2711 C   0  0  0  0  0  0
  -28.9598  -21.4597   21.4079 C   0  0  0  0  0  0
  -28.6240  -22.9620   21.3906 C   0  0  0  0  0  0
  -29.8393  -18.7355   20.2956 C   0  0  0  0  0  0
  -29.5642  -16.9817   20.3774 N   0  0  0  0  0  0
  -29.2580  -20.9688   22.6348 F   0  0  0  0  0  0
  -28.6758  -23.5572   22.6067 F   0  0  0  0  0  0
  -31.4178  -13.3223   19.1760 H   0  0  0  0  0  0
  -30.5775  -12.2191   20.2117 H   0  0  0  0  0  0
  -29.9990  -11.8081   17.7954 H   0  0  0  0  0  0
  -29.5138  -13.4758   17.6098 H   0  0  0  0  0  0
  -28.1424  -11.2995   19.2005 H   0  0  0  0  0  0
  -27.4508  -12.2465   17.9047 H   0  0  0  0  0  0
  -27.4595  -14.2292   19.2475 H   0  0  0  0  0  0
  -28.8666  -12.7497   21.5200 H   0  0  0  0  0  0
  -28.1810  -14.3528   21.6302 H   0  0  0  0  0  0
  -25.2787   -9.5680   22.4766 H   0  0  0  0  0  0
  -24.0013   -7.4638   22.7478 H   0  0  0  0  0  0
  -21.0867   -8.8787   19.8950 H   0  0  0  0  0  0
  -22.3736  -10.9675   19.6163 H   0  0  0  0  0  0
  -21.2013   -7.6150   23.9717 H   0  0  0  0  0  0
  -21.1484   -6.0523   25.9077 H   0  0  0  0  0  0
  -22.0596   -2.7611   23.2843 H   0  0  0  0  0  0
  -22.4029  -11.9815   22.4870 H   0  0  0  0  0  0
  -21.0993  -13.1134   22.2676 H   0  0  0  0  0  0
  -24.6188  -15.8498   20.5380 H   0  0  0  0  0  0
  -26.2300  -15.6453   20.0735 H   0  0  0  0  0  0
  -26.7491  -32.4933   23.0767 H   0  0  0  0  0  0
  -25.0050  -33.9328   25.0037 H   0  0  0  0  0  0
  -22.8338  -31.2374   21.3138 H   0  0  0  0  0  0
  -23.3775  -35.9464   23.3264 H   0  0  0  0  0  0
  -24.3563  -36.8866   22.2077 H   0  0  0  0  0  0
  -23.7239  -37.6311   23.6763 H   0  0  0  0  0  0
  -26.2901  -31.2518   20.6249 H   0  0  0  0  0  0
  -26.9391  -30.5997   22.0814 H   0  0  0  0  0  0
  -28.1612  -28.3827   21.3228 H   0  0  0  0  0  0
  -25.8560  -25.6125   18.9948 H   0  0  0  0  0  0
  -24.0370  -27.2109   18.9275 H   0  0  0  0  0  0
  -23.9394  -30.4515   19.3776 H   0  0  0  0  0  0
  -22.8666  -29.1606   19.8175 H   0  0  0  0  0  0
  -25.1357  -36.1655   25.0771 H   0  0  0  0  0  0
  -21.0052  -28.3402   24.1273 H   0  0  0  0  0  0
  -20.5666  -26.2401   23.3666 H   0  0  0  0  0  0
  -21.6665  -26.7381   22.1224 H   0  0  0  0  0  0
  -19.6935  -25.6260   21.1296 H   0  0  0  0  0  0
  -19.6725  -27.3138   20.6715 H   0  0  0  0  0  0
  -17.4233  -26.6691   21.4021 H   0  0  0  0  0  0
  -18.0348  -26.0108   22.9031 H   0  0  0  0  0  0
  -19.7983  -30.7341   24.2166 H   0  0  0  0  0  0
  -17.5048  -31.6275   24.5168 H   0  0  0  0  0  0
  -15.5385  -30.2964   23.7713 H   0  0  0  0  0  0
  -15.8718  -28.0802   22.7119 H   0  0  0  0  0  0
  -24.5871  -30.7140   25.7599 H   0  0  0  0  0  0
  -24.8822  -32.3039   26.4525 H   0  0  0  0  0  0
  -25.7839  -30.9112   27.0206 H   0  0  0  0  0  0
  -26.3243  -29.6448   24.1583 H   0  0  0  0  0  0
  -27.3959  -29.7289   25.5326 H   0  0  0  0  0  0
  -27.9221  -30.3962   24.0105 H   0  0  0  0  0  0
  -27.2579  -33.3736   26.1870 H   0  0  0  0  0  0
  -28.3956  -32.6813   25.0405 H   0  0  0  0  0  0
  -28.0594  -31.8633   26.5586 H   0  0  0  0  0  0
  -28.2549  -38.0058   24.7513 H   0  0  0  0  0  0
  -28.1092  -36.2580   24.6296 H   0  0  0  0  0  0
  -27.2278  -37.1372   25.8867 H   0  0  0  0  0  0
  -20.9711  -29.8676   21.6530 H   0  0  0  0  0  0
  -26.0098  -38.2702   24.1419 H   0  0  0  0  0  0
  -28.8367  -20.9529   18.2113 H   0  0  0  0  0  0
  -28.3094  -23.3075   18.1878 H   0  0  0  0  0  0
  -30.5828  -18.8500   21.0848 H   0  0  0  0  0  0
  -30.4364  -18.7950   19.3855 H   0  0  0  0  0  0
  -28.5748  -16.8000   20.4664 H   0  0  0  0  0  0
  1 25  1  0  0  0
  1 30  2  0  0  0
  1 78  1  0  0  0
  2  3  1  0  0  0
  2 25  1  0  0  0
  2 81  1  0  0  0
  2 82  1  0  0  0
  3  4  1  0  0  0
  3 83  1  0  0  0
  3 84  1  0  0  0
  4  5  1  0  0  0
  4 85  1  0  0  0
  4 86  1  0  0  0
  5  6  1  0  0  0
  5 26  1  0  0  0
  5 87  1  0  0  0
  6 25  1  0  0  0
  6 88  1  0  0  0
  6 89  1  0  0  0
  7  8  2  0  0  0
  7 26  1  0  0  0
  7 29  1  0  0  0
  8  9  1  0  0  0
  8 22  1  0  0  0
  9 10  1  0  0  0
  9 27  2  0  0  0
 10 11  2  0  0  0
 10 15  1  0  0  0
 11 12  1  0  0  0
 11 90  1  0  0  0
 12 13  2  0  0  0
 12 91  1  0  0  0
 13 14  1  0  0  0
 13 31  1  0  0  0
 14 15  2  0  0  0
 14 92  1  0  0  0
 15 93  1  0  0  0
 16 17  2  0  0  0
 16 21  1  0  0  0
 16 31  1  0  0  0
 17 18  1  0  0  0
 17 94  1  0  0  0
 18 19  2  0  0  0
 18 95  1  0  0  0
 19 20  1  0  0  0
 19 24  1  0  0  0
 20 21  2  0  0  0
 20 96  1  0  0  0
 21 23  1  0  0  0
 22 28  1  0  0  0
 22 32  2  0  0  0
 26 27  1  0  0  0
 28 97  1  0  0  0
 28 98  1  0  0  0
 29 99  1  0  0  0
 29100  1  0  0  0
 33 34  1  0  0  0
 33 66  1  0  0  0
 33 70  2  0  0  0
 34 36  1  0  0  0
 34 59  1  0  0  0
 34101  1  0  0  0
 35 44  2  0  0  0
 35 45  1  0  0  0
 35 68  1  0  0  0
 36 56  1  0  0  0
 36102  1  0  0  0
 37 39  1  0  0  0
 37 47  1  0  0  0
 37 66  1  0  0  0
 37103  1  0  0  0
 38 43  2  0  0  0
 38 46  1  0  0  0
 38 47  1  0  0  0
 39 64  1  0  0  0
 39 67  2  0  0  0
 40 52  1  0  0  0
 40 53  2  0  0  0
 40 58  1  0  0  0
 41104  1  0  0  0
 41105  1  0  0  0
 41106  1  0  0  0
 41 48  1  0  0  0
 42 43  1  0  0  0
 42 66  1  0  0  0
 42107  1  0  0  0
 42108  1  0  0  0
 43 44  1  0  0  0
 44109  1  0  0  0
 45 46  2  0  0  0
 45110  1  0  0  0
 46111  1  0  0  0
 47112  1  0  0  0
 47113  1  0  0  0
 48 56  1  0  0  0
 48 65  1  0  0  0
 48114  1  0  0  0
 49 50  1  0  0  0
 49 53  1  0  0  0
 49 64  1  0  0  0
 49115  1  0  0  0
 50 51  1  0  0  0
 50116  1  0  0  0
 50117  1  0  0  0
 51 52  1  0  0  0
 51118  1  0  0  0
 51119  1  0  0  0
 52120  1  0  0  0
 52121  1  0  0  0
 53 54  1  0  0  0
 54 55  2  0  0  0
 54122  1  0  0  0
 55 57  1  0  0  0
 55123  1  0  0  0
 56 69  2  0  0  0
 57 58  2  0  0  0
 57124  1  0  0  0
 58125  1  0  0  0
 59 60  1  0  0  0
 59 61  1  0  0  0
 59 62  1  0  0  0
 60126  1  0  0  0
 60127  1  0  0  0
 60128  1  0  0  0
 61129  1  0  0  0
 61130  1  0  0  0
 61131  1  0  0  0
 62132  1  0  0  0
 62133  1  0  0  0
 62134  1  0  0  0
 63 65  1  0  0  0
 63135  1  0  0  0
 63136  1  0  0  0
 63137  1  0  0  0
 64138  1  0  0  0
 65139  1  0  0  0
 68 74  1  0  0  0
 71 72  2  0  0  0
 71 73  1  0  0  0
 71140  1  0  0  0
 72 74  1  0  0  0
 72141  1  0  0  0
 73 75  2  0  0  0
 73 77  1  0  0  0
 74 76  2  0  0  0
 75 76  1  0  0  0
 75 79  1  0  0  0
 76 80  1  0  0  0
 77 78  1  0  0  0
 77142  1  0  0  0
 77143  1  0  0  0
 78144  1  0  0  0
M  ISO  4   1 100  68 101  74 101  78 100
M  END
> <chiral flag>
0

> <version>
0

> <s_m_source_file>
/data/baiqing/PycharmProjects/Reinvent-master-3.2/result/LINK_invent/BTK/process_docking_weight1_custom_product_contain_oxygen_bond_distance_aromatic_linkinvent_7_9_3/rearranged_h_0008.sdf

> <i_m_source_file_index>
68

> <r_mmod_Potential_Energy-OPLS-2005>
2244.1728515625

> <r_mmod_Stretch_Energy-OPLS-2005>
904.048583984375

> <r_mmod_Bend_Energy-OPLS-2005>
657.577575683594

> <r_mmod_Torsional_Energy-OPLS-2005>
227.655715942383

> <r_mmod_Improper_Torsional_Energy-OPLS-2005>
9.67010879516602

> <r_mmod_Van_der_Waal_Energy-OPLS-2005>
132.160095214844

> <r_mmod_Electrostatic_Energy-OPLS-2005>
-346.657165527344

> <r_mmod_Solvation_Energy-OPLS-2005>
-211.080780029297

> <b_mmod_Minimization_Converged-OPLS-2005>
0

> <r_mmod_RMS_Derivative-OPLS-2005>
0.0976083353161812

$$$$
69
                    3D
 Structure written by MMmdl.
162171  0  0  1  0            999 V2000
  -30.6286  -14.6581   20.4895 C   0  0  0  0  0  0
  -30.4359  -12.4083   19.4398 C   0  0  0  0  0  0
  -29.4997  -12.4942   18.2154 C   0  0  0  0  0  0
  -28.0283  -12.3279   18.6402 C   0  0  0  0  0  0
  -27.6488  -13.2155   19.8547 C   0  0  2  0  0  0
  -28.6987  -13.1001   20.9814 C   0  0  0  0  0  0
  -25.2554  -13.8156   20.5697 C   0  0  0  0  0  0
  -24.1825  -13.0422   20.9205 C   0  0  0  0  0  0
  -24.6389  -11.6894   20.8752 C   0  0  0  0  0  0
  -23.9053  -10.4288   21.0418 C   0  0  0  0  0  0
  -24.3612   -9.4199   21.9186 C   0  0  0  0  0  0
  -23.6292   -8.2231   22.0752 C   0  0  0  0  0  0
  -22.4279   -8.0275   21.3539 C   0  0  0  0  0  0
  -21.9911   -9.0243   20.4639 C   0  0  0  0  0  0
  -22.7232  -10.2122   20.3055 C   0  0  0  0  0  0
  -21.6848   -6.0719   22.5270 C   0  0  0  0  0  0
  -21.4013   -6.5636   23.8201 C   0  0  0  0  0  0
  -21.3658   -5.6792   24.9173 C   0  0  0  0  0  0
  -21.6051   -4.3052   24.7232 C   0  0  0  0  0  0
  -21.8819   -3.8141   23.4355 C   0  0  0  0  0  0
  -21.9197   -4.6950   22.3403 C   0  0  0  0  0  0
  -22.7856  -13.5224   21.1869 C   0  0  0  0  0  0
  -22.1666   -4.2129   21.0975 F   0  0  0  0  0  0
  -21.5632   -3.4543   25.7746 F   0  0  0  0  0  0
  -30.0036  -13.4424   20.3982 N   0  0  0  0  0  0
  -26.2975  -12.9337   20.3320 N   0  0  0  0  0  0
  -25.9311  -11.6503   20.5766 N   0  0  0  0  0  0
  -22.0504  -12.8191   22.0416 N   0  0  0  0  0  0
  -25.4288  -15.1869   20.4102 N   0  0  0  0  0  0
  -31.8131  -14.7970   20.1889 O   0  0  0  0  0  0
  -21.6642   -6.8866   21.4232 O   0  0  0  0  0  0
  -22.3551  -14.5546   20.6732 O   0  0  0  0  0  0
  -24.6236  -31.8627   23.2050 C   0  0  0  0  0  0
  -25.9087  -32.4798   23.8391 C   0  0  1  0  0  0
  -27.2239  -27.3172   20.1248 C   0  0  0  0  0  0
  -25.5926  -33.8589   24.2306 N   0  0  0  0  0  0
  -23.4201  -30.4838   21.5477 C   0  0  2  0  0  0
  -24.8673  -28.9336   20.1177 C   0  0  0  0  0  0
  -22.7480  -29.4631   22.4958 C   0  0  0  0  0  0
  -18.0285  -28.1366   22.8502 C   0  0  0  0  0  0
  -24.1481  -36.7287   23.2647 C   0  0  0  0  0  0
  -25.9591  -30.7851   21.3838 C   0  0  0  0  0  0
  -26.0348  -29.4084   20.7336 C   0  0  0  0  0  0
  -27.2127  -28.6049   20.7382 C   0  0  0  0  0  0
  -26.0406  -26.8929   19.4793 C   0  0  0  0  0  0
  -24.8686  -27.6777   19.4887 C   0  0  0  0  0  0
  -23.6360  -29.8153   20.1642 C   0  0  0  0  0  0
  -25.4116  -36.3086   24.0322 C   0  0  1  0  0  0
  -20.5883  -28.3692   23.1267 C   0  0  2  0  0  0
  -20.6776  -26.9421   22.5397 C   0  0  0  0  0  0
  -19.5755  -26.6389   21.5193 C   0  0  0  0  0  0
  -18.1929  -26.7918   22.1607 C   0  0  0  0  0  0
  -19.1549  -28.8847   23.2882 C   0  0  0  0  0  0
  -18.9467  -30.1428   23.8922 C   0  0  0  0  0  0
  -17.6476  -30.6590   24.0561 C   0  0  0  0  0  0
  -25.9059  -34.9443   23.5119 C   0  0  0  0  0  0
  -16.5361  -29.9083   23.6329 C   0  0  0  0  0  0
  -16.7277  -28.6477   23.0398 C   0  0  0  0  0  0
  -26.4461  -31.6623   25.0759 C   0  0  0  0  0  0
  -25.3679  -31.3711   26.1474 C   0  0  0  0  0  0
  -27.0360  -30.3075   24.6236 C   0  0  0  0  0  0
  -27.6074  -32.4344   25.7490 C   0  0  0  0  0  0
  -27.5592  -37.1773   24.8469 C   0  0  0  0  0  0
  -21.4200  -29.3054   22.3653 N   0  0  0  0  0  0
  -26.4309  -37.3772   23.9399 N   0  0  0  0  0  0
  -24.6847  -31.0604   22.1028 N   0  0  0  0  0  0
  -23.4187  -28.8183   23.3061 O   0  0  0  0  0  0
  -28.3485  -26.4846   20.1039 O   0  0  0  0  0  0
  -26.5650  -34.8916   22.4698 O   0  0  0  0  0  0
  -23.5392  -32.1487   23.7335 O   0  0  0  0  0  0
  -29.5021  -21.9475   21.2795 C   0  0  0  0  0  0
  -29.8019  -20.5467   21.3055 C   0  0  0  0  0  0
  -29.0248  -21.7974   18.9304 C   0  0  0  0  0  0
  -29.1600  -22.6236   20.0775 C   0  0  0  0  0  0
  -29.7959  -19.7443   20.1273 C   0  0  0  0  0  0
  -29.3401  -20.4044   18.9493 C   0  0  0  0  0  0
  -33.8531  -18.7422   19.3930 C   0  0  0  0  0  0
  -32.5529  -19.5052   19.1611 C   0  0  0  0  0  0
  -32.9212  -17.5770   19.7223 C   0  0  0  0  0  0
  -29.1664  -24.1951   19.9390 C   0  0  0  0  0  0
  -30.0764  -17.1893   21.1099 C   0  0  0  0  0  0
  -30.4820  -18.3109   20.0354 C   0  0  2  0  0  0
  -29.8232  -15.7388   20.7358 N   0  0  0  0  0  0
  -28.0548  -25.0448   20.4511 N   0  0  0  0  0  0
  -31.9485  -18.5903   20.1382 N   0  3  0  0  0  0
  -29.2920  -19.7190   17.7814 F   0  0  0  0  0  0
  -31.4748  -12.5385   19.1318 H   0  0  0  0  0  0
  -30.3787  -11.4185   19.8959 H   0  0  0  0  0  0
  -29.7589  -11.7256   17.4851 H   0  0  0  0  0  0
  -29.6323  -13.4514   17.7089 H   0  0  0  0  0  0
  -27.8778  -11.2800   18.8974 H   0  0  0  0  0  0
  -27.3607  -12.5300   17.8022 H   0  0  0  0  0  0
  -27.6575  -14.2436   19.4949 H   0  0  0  0  0  0
  -28.7174  -12.0891   21.3909 H   0  0  0  0  0  0
  -28.4503  -13.7554   21.8178 H   0  0  0  0  0  0
  -25.2748   -9.5675   22.4771 H   0  0  0  0  0  0
  -23.9993   -7.4627   22.7477 H   0  0  0  0  0  0
  -21.0845   -8.8776   19.8943 H   0  0  0  0  0  0
  -22.3702  -10.9671   19.6177 H   0  0  0  0  0  0
  -21.2001   -7.6146   23.9698 H   0  0  0  0  0  0
  -21.1480   -6.0526   25.9068 H   0  0  0  0  0  0
  -22.0602   -2.7600   23.2866 H   0  0  0  0  0  0
  -22.4146  -11.9835   22.4760 H   0  0  0  0  0  0
  -21.1118  -13.1190   22.2645 H   0  0  0  0  0  0
  -24.6599  -15.8398   20.5133 H   0  0  0  0  0  0
  -26.2698  -15.6220   20.0539 H   0  0  0  0  0  0
  -26.7152  -32.5464   23.1156 H   0  0  0  0  0  0
  -25.0011  -33.9749   25.0403 H   0  0  0  0  0  0
  -22.7164  -31.3048   21.4026 H   0  0  0  0  0  0
  -23.3766  -35.9585   23.3294 H   0  0  0  0  0  0
  -24.3574  -36.8944   22.2073 H   0  0  0  0  0  0
  -23.7210  -37.6470   23.6696 H   0  0  0  0  0  0
  -26.0933  -31.5444   20.6109 H   0  0  0  0  0  0
  -26.8370  -30.8400   22.0144 H   0  0  0  0  0  0
  -28.1105  -28.9637   21.2255 H   0  0  0  0  0  0
  -26.0160  -25.9429   18.9670 H   0  0  0  0  0  0
  -23.9706  -27.3101   19.0105 H   0  0  0  0  0  0
  -23.7549  -30.5918   19.4068 H   0  0  0  0  0  0
  -22.7570  -29.2414   19.8677 H   0  0  0  0  0  0
  -25.1271  -36.1976   25.0811 H   0  0  0  0  0  0
  -20.9960  -28.3283   24.1393 H   0  0  0  0  0  0
  -20.5669  -26.2316   23.3598 H   0  0  0  0  0  0
  -21.6643  -26.7453   22.1195 H   0  0  0  0  0  0
  -19.6925  -25.6292   21.1248 H   0  0  0  0  0  0
  -19.6697  -27.3175   20.6693 H   0  0  0  0  0  0
  -17.4210  -26.6684   21.4014 H   0  0  0  0  0  0
  -18.0335  -26.0037   22.8979 H   0  0  0  0  0  0
  -19.7944  -30.7217   24.2346 H   0  0  0  0  0  0
  -17.5037  -31.6293   24.5130 H   0  0  0  0  0  0
  -15.5351  -30.2999   23.7650 H   0  0  0  0  0  0
  -15.8664  -28.0778   22.7147 H   0  0  0  0  0  0
  -24.5919  -30.7010   25.7763 H   0  0  0  0  0  0
  -24.8740  -32.2816   26.4882 H   0  0  0  0  0  0
  -25.7952  -30.8926   27.0294 H   0  0  0  0  0  0
  -26.2967  -29.6773   24.1296 H   0  0  0  0  0  0
  -27.4149  -29.7401   25.4738 H   0  0  0  0  0  0
  -27.8762  -30.4423   23.9418 H   0  0  0  0  0  0
  -27.2846  -33.3768   26.1946 H   0  0  0  0  0  0
  -28.3928  -32.6712   25.0286 H   0  0  0  0  0  0
  -28.0708  -31.8539   26.5498 H   0  0  0  0  0  0
  -28.2570  -38.0119   24.7584 H   0  0  0  0  0  0
  -28.1133  -36.2645   24.6213 H   0  0  0  0  0  0
  -27.2310  -37.1334   25.8876 H   0  0  0  0  0  0
  -20.9390  -29.8789   21.6850 H   0  0  0  0  0  0
  -26.0202  -38.2830   24.1458 H   0  0  0  0  0  0
  -29.6238  -22.5216   22.1895 H   0  0  0  0  0  0
  -30.1295  -20.1118   22.2392 H   0  0  0  0  0  0
  -28.7607  -22.2468   17.9844 H   0  0  0  0  0  0
  -34.4181  -19.1059   20.2558 H   0  0  0  0  0  0
  -34.4869  -18.6117   18.5152 H   0  0  0  0  0  0
  -32.1611  -19.3871   18.1472 H   0  0  0  0  0  0
  -32.5623  -20.5521   19.4691 H   0  0  0  0  0  0
  -33.2775  -16.9367   20.5286 H   0  0  0  0  0  0
  -32.6243  -17.0081   18.8375 H   0  0  0  0  0  0
  -29.2974  -24.4359   18.8814 H   0  0  0  0  0  0
  -30.0783  -24.5442   20.4284 H   0  0  0  0  0  0
  -29.1177  -17.5059   21.5190 H   0  0  0  0  0  0
  -30.7458  -17.2192   21.9722 H   0  0  0  0  0  0
  -30.2804  -17.9128   19.0420 H   0  0  0  0  0  0
  -28.8562  -15.4695   20.8417 H   0  0  0  0  0  0
  -27.2091  -24.8166   19.9366 H   0  0  0  0  0  0
  -32.1768  -18.9071   21.0664 H   0  0  0  0  0  0
  1 25  1  0  0  0
  1 30  2  0  0  0
  1 83  1  0  0  0
  2  3  1  0  0  0
  2 25  1  0  0  0
  2 87  1  0  0  0
  2 88  1  0  0  0
  3  4  1  0  0  0
  3 89  1  0  0  0
  3 90  1  0  0  0
  4  5  1  0  0  0
  4 91  1  0  0  0
  4 92  1  0  0  0
  5  6  1  0  0  0
  5 26  1  0  0  0
  5 93  1  0  0  0
  6 25  1  0  0  0
  6 94  1  0  0  0
  6 95  1  0  0  0
  7  8  2  0  0  0
  7 26  1  0  0  0
  7 29  1  0  0  0
  8  9  1  0  0  0
  8 22  1  0  0  0
  9 10  1  0  0  0
  9 27  2  0  0  0
 10 11  2  0  0  0
 10 15  1  0  0  0
 11 12  1  0  0  0
 11 96  1  0  0  0
 12 13  2  0  0  0
 12 97  1  0  0  0
 13 14  1  0  0  0
 13 31  1  0  0  0
 14 15  2  0  0  0
 14 98  1  0  0  0
 15 99  1  0  0  0
 16 17  2  0  0  0
 16 21  1  0  0  0
 16 31  1  0  0  0
 17 18  1  0  0  0
 17100  1  0  0  0
 18 19  2  0  0  0
 18101  1  0  0  0
 19 20  1  0  0  0
 19 24  1  0  0  0
 20 21  2  0  0  0
 20102  1  0  0  0
 21 23  1  0  0  0
 22 28  1  0  0  0
 22 32  2  0  0  0
 26 27  1  0  0  0
 28103  1  0  0  0
 28104  1  0  0  0
 29105  1  0  0  0
 29106  1  0  0  0
 33 34  1  0  0  0
 33 66  1  0  0  0
 33 70  2  0  0  0
 34 36  1  0  0  0
 34 59  1  0  0  0
 34107  1  0  0  0
 35 44  2  0  0  0
 35 45  1  0  0  0
 35 68  1  0  0  0
 36 56  1  0  0  0
 36108  1  0  0  0
 37 39  1  0  0  0
 37 47  1  0  0  0
 37 66  1  0  0  0
 37109  1  0  0  0
 38 43  2  0  0  0
 38 46  1  0  0  0
 38 47  1  0  0  0
 39 64  1  0  0  0
 39 67  2  0  0  0
 40 52  1  0  0  0
 40 53  2  0  0  0
 40 58  1  0  0  0
 41110  1  0  0  0
 41111  1  0  0  0
 41112  1  0  0  0
 41 48  1  0  0  0
 42 43  1  0  0  0
 42 66  1  0  0  0
 42113  1  0  0  0
 42114  1  0  0  0
 43 44  1  0  0  0
 44115  1  0  0  0
 45 46  2  0  0  0
 45116  1  0  0  0
 46117  1  0  0  0
 47118  1  0  0  0
 47119  1  0  0  0
 48 56  1  0  0  0
 48 65  1  0  0  0
 48120  1  0  0  0
 49 50  1  0  0  0
 49 53  1  0  0  0
 49 64  1  0  0  0
 49121  1  0  0  0
 50 51  1  0  0  0
 50122  1  0  0  0
 50123  1  0  0  0
 51 52  1  0  0  0
 51124  1  0  0  0
 51125  1  0  0  0
 52126  1  0  0  0
 52127  1  0  0  0
 53 54  1  0  0  0
 54 55  2  0  0  0
 54128  1  0  0  0
 55 57  1  0  0  0
 55129  1  0  0  0
 56 69  2  0  0  0
 57 58  2  0  0  0
 57130  1  0  0  0
 58131  1  0  0  0
 59 60  1  0  0  0
 59 61  1  0  0  0
 59 62  1  0  0  0
 60132  1  0  0  0
 60133  1  0  0  0
 60134  1  0  0  0
 61135  1  0  0  0
 61136  1  0  0  0
 61137  1  0  0  0
 62138  1  0  0  0
 62139  1  0  0  0
 62140  1  0  0  0
 63 65  1  0  0  0
 63141  1  0  0  0
 63142  1  0  0  0
 63143  1  0  0  0
 64144  1  0  0  0
 65145  1  0  0  0
 68 84  1  0  0  0
 71 72  2  0  0  0
 71 74  1  0  0  0
 71146  1  0  0  0
 72 75  1  0  0  0
 72147  1  0  0  0
 73 74  2  0  0  0
 73 76  1  0  0  0
 73148  1  0  0  0
 74 80  1  0  0  0
 75 76  2  0  0  0
 75 82  1  0  0  0
 76 86  1  0  0  0
 77 78  1  0  0  0
 77 79  1  0  0  0
 77149  1  0  0  0
 77150  1  0  0  0
 78151  1  0  0  0
 78152  1  0  0  0
 78 85  1  0  0  0
 79 85  1  0  0  0
 79153  1  0  0  0
 79154  1  0  0  0
 80 84  1  0  0  0
 80155  1  0  0  0
 80156  1  0  0  0
 81 83  1  0  0  0
 81157  1  0  0  0
 81158  1  0  0  0
 81 82  1  0  0  0
 82 85  1  0  0  0
 82159  1  0  0  0
 83160  1  0  0  0
 84161  1  0  0  0
 85162  1  0  0  0
M  CHG  1  85   1
M  ISO  4   1 100  68 101  83 100  84 101
M  END
> <chiral flag>
0

> <version>
0

> <s_m_source_file>
/data/baiqing/PycharmProjects/Reinvent-master-3.2/result/LINK_invent/BTK/process_docking_weight1_custom_product_contain_oxygen_bond_distance_aromatic_linkinvent_7_9_3/rearranged_h_0008.sdf

> <i_m_source_file_index>
69

> <r_mmod_Potential_Energy-OPLS-2005>
-61.8148307800293

> <r_mmod_Stretch_Energy-OPLS-2005>
86.4930725097656

> <r_mmod_Bend_Energy-OPLS-2005>
172.865310668945

> <r_mmod_Torsional_Energy-OPLS-2005>
280.677703857422

> <r_mmod_Improper_Torsional_Energy-OPLS-2005>
7.50715303421021

> <r_mmod_Van_der_Waal_Energy-OPLS-2005>
135.583160400391

> <r_mmod_Electrostatic_Energy-OPLS-2005>
-357.610137939453

> <r_mmod_Solvation_Energy-OPLS-2005>
-439.9541015625

> <b_mmod_Minimization_Converged-OPLS-2005>
0

> <r_mmod_RMS_Derivative-OPLS-2005>
4.35328006744385

$$$$
70
                    3D
 Structure written by MMmdl.
144152  0  0  1  0            999 V2000
  -30.3016  -15.5936   20.3330 C   0  0  0  0  0  0
  -30.4322  -13.0478   19.5381 C   0  0  0  0  0  0
  -29.5516  -12.6463   18.3199 C   0  0  0  0  0  0
  -28.1208  -12.2989   18.7605 C   0  0  0  0  0  0
  -27.5993  -13.3022   19.8143 C   0  0  2  0  0  0
  -28.6188  -13.6099   20.9357 C   0  0  0  0  0  0
  -25.2336  -13.8274   20.5781 C   0  0  0  0  0  0
  -24.1721  -13.0430   20.9286 C   0  0  0  0  0  0
  -24.6416  -11.6940   20.8765 C   0  0  0  0  0  0
  -23.9116  -10.4290   21.0399 C   0  0  0  0  0  0
  -24.3651   -9.4203   21.9181 C   0  0  0  0  0  0
  -23.6312   -8.2245   22.0754 C   0  0  0  0  0  0
  -22.4293   -8.0286   21.3544 C   0  0  0  0  0  0
  -21.9939   -9.0262   20.4644 C   0  0  0  0  0  0
  -22.7282  -10.2133   20.3051 C   0  0  0  0  0  0
  -21.6858   -6.0741   22.5279 C   0  0  0  0  0  0
  -21.4018   -6.5643   23.8213 C   0  0  0  0  0  0
  -21.3660   -5.6794   24.9174 C   0  0  0  0  0  0
  -21.6044   -4.3057   24.7224 C   0  0  0  0  0  0
  -21.8818   -3.8150   23.4345 C   0  0  0  0  0  0
  -21.9194   -4.6967   22.3401 C   0  0  0  0  0  0
  -22.7733  -13.5164   21.1921 C   0  0  0  0  0  0
  -22.1662   -4.2153   21.0979 F   0  0  0  0  0  0
  -21.5627   -3.4540   25.7736 F   0  0  0  0  0  0
  -29.8004  -14.2228   20.2866 N   0  0  0  0  0  0
  -26.2783  -12.9596   20.3225 N   0  0  0  0  0  0
  -25.9361  -11.6673   20.5701 N   0  0  0  0  0  0
  -22.0398  -12.8141   22.0473 N   0  0  0  0  0  0
  -25.3917  -15.2015   20.4210 N   0  0  0  0  0  0
  -31.5362  -15.5649   20.1660 O   0  0  0  0  0  0
  -21.6648   -6.8888   21.4243 O   0  0  0  0  0  0
  -22.3408  -14.5463   20.6757 O   0  0  0  0  0  0
  -24.6832  -31.8009   23.1526 C   0  0  0  0  0  0
  -25.9416  -32.4473   23.8069 C   0  0  1  0  0  0
  -27.2273  -26.7145   20.2123 C   0  0  0  0  0  0
  -25.5997  -33.8297   24.1956 N   0  0  0  0  0  0
  -23.5090  -30.4034   21.5063 C   0  0  2  0  0  0
  -24.9669  -28.7474   20.1184 C   0  0  0  0  0  0
  -22.7765  -29.4320   22.4714 C   0  0  0  0  0  0
  -18.0339  -28.1421   22.8455 C   0  0  0  0  0  0
  -24.1495  -36.7156   23.2652 C   0  0  0  0  0  0
  -26.0896  -30.5379   21.4156 C   0  0  0  0  0  0
  -26.1563  -29.1041   20.7652 C   0  0  0  0  0  0
  -27.2729  -28.1157   20.7794 C   0  0  0  0  0  0
  -26.0047  -26.5656   19.5093 C   0  0  0  0  0  0
  -24.9295  -27.5032   19.4668 C   0  0  0  0  0  0
  -23.7627  -29.7013   20.1415 C   0  0  0  0  0  0
  -25.4145  -36.2898   24.0282 C   0  0  1  0  0  0
  -20.5975  -28.3780   23.1142 C   0  0  2  0  0  0
  -20.6805  -26.9440   22.5402 C   0  0  0  0  0  0
  -19.5781  -26.6371   21.5216 C   0  0  0  0  0  0
  -18.1964  -26.7949   22.1619 C   0  0  0  0  0  0
  -19.1605  -28.8925   23.2780 C   0  0  0  0  0  0
  -18.9510  -30.1509   23.8825 C   0  0  0  0  0  0
  -17.6500  -30.6603   24.0550 C   0  0  0  0  0  0
  -25.9124  -34.9288   23.4955 C   0  0  0  0  0  0
  -16.5390  -29.9085   23.6350 C   0  0  0  0  0  0
  -16.7319  -28.6507   23.0367 C   0  0  0  0  0  0
  -26.4596  -31.6504   25.0688 C   0  0  0  0  0  0
  -25.3663  -31.3819   26.1303 C   0  0  0  0  0  0
  -27.0528  -30.2843   24.6583 C   0  0  0  0  0  0
  -27.6043  -32.4365   25.7507 C   0  0  0  0  0  0
  -27.5564  -37.1735   24.8466 C   0  0  0  0  0  0
  -21.4413  -29.3029   22.3463 N   0  0  0  0  0  0
  -26.4271  -37.3658   23.9408 N   0  0  0  0  0  0
  -24.7840  -30.9466   22.0774 N   0  0  0  0  0  0
  -23.4212  -28.7920   23.3055 O   0  0  0  0  0  0
  -28.1830  -25.4928   20.2817 O   0  0  0  0  0  0
  -26.5764  -34.8864   22.4571 O   0  0  0  0  0  0
  -23.5853  -32.1078   23.6485 O   0  0  0  0  0  0
  -29.1864  -21.2038   21.2961 C   0  0  0  0  0  0
  -29.5251  -19.7038   21.3322 C   0  0  0  0  0  0
  -28.8232  -19.5007   19.2400 C   0  0  0  0  0  0
  -28.6201  -22.0687   20.2158 C   0  0  0  0  0  0
  -29.3947  -18.6266   20.3023 C   0  0  0  0  0  0
  -28.4875  -20.9923   19.1905 C   0  0  0  0  0  0
  -27.8600  -23.7779   20.1605 C   0  0  0  0  0  0
  -29.4723  -16.9061   20.3788 N   0  0  0  0  0  0
  -27.9202  -21.3953   18.0282 F   0  0  0  0  0  0
  -31.4267  -13.3114   19.1763 H   0  0  0  0  0  0
  -30.5873  -12.1958   20.2021 H   0  0  0  0  0  0
  -29.9968  -11.8060   17.7856 H   0  0  0  0  0  0
  -29.5201  -13.4772   17.6136 H   0  0  0  0  0  0
  -28.1388  -11.2969   19.1910 H   0  0  0  0  0  0
  -27.4515  -12.2539   17.9005 H   0  0  0  0  0  0
  -27.4695  -14.2305   19.2563 H   0  0  0  0  0  0
  -28.8684  -12.7182   21.5127 H   0  0  0  0  0  0
  -28.1944  -14.3244   21.6427 H   0  0  0  0  0  0
  -25.2790   -9.5677   22.4766 H   0  0  0  0  0  0
  -24.0012   -7.4637   22.7479 H   0  0  0  0  0  0
  -21.0868   -8.8790   19.8951 H   0  0  0  0  0  0
  -22.3741  -10.9675   19.6163 H   0  0  0  0  0  0
  -21.2013   -7.6151   23.9718 H   0  0  0  0  0  0
  -21.1482   -6.0524   25.9077 H   0  0  0  0  0  0
  -22.0596   -2.7612   23.2844 H   0  0  0  0  0  0
  -22.4039  -11.9816   22.4867 H   0  0  0  0  0  0
  -21.1004  -13.1136   22.2673 H   0  0  0  0  0  0
  -24.6150  -15.8449   20.5294 H   0  0  0  0  0  0
  -26.2212  -15.6436   20.0494 H   0  0  0  0  0  0
  -26.7498  -32.4949   23.0783 H   0  0  0  0  0  0
  -25.0057  -33.9338   25.0050 H   0  0  0  0  0  0
  -22.8338  -31.2406   21.3171 H   0  0  0  0  0  0
  -23.3775  -35.9466   23.3264 H   0  0  0  0  0  0
  -24.3563  -36.8867   22.2077 H   0  0  0  0  0  0
  -23.7237  -37.6314   23.6761 H   0  0  0  0  0  0
  -26.2919  -31.2640   20.6272 H   0  0  0  0  0  0
  -26.9406  -30.6049   22.0810 H   0  0  0  0  0  0
  -28.1677  -28.3947   21.3177 H   0  0  0  0  0  0
  -25.8373  -25.6241   19.0064 H   0  0  0  0  0  0
  -24.0320  -27.2211   18.9336 H   0  0  0  0  0  0
  -23.9373  -30.4617   19.3795 H   0  0  0  0  0  0
  -22.8679  -29.1672   19.8173 H   0  0  0  0  0  0
  -25.1354  -36.1662   25.0772 H   0  0  0  0  0  0
  -21.0057  -28.3405   24.1268 H   0  0  0  0  0  0
  -20.5668  -26.2405   23.3664 H   0  0  0  0  0  0
  -21.6666  -26.7382   22.1221 H   0  0  0  0  0  0
  -19.6937  -25.6262   21.1293 H   0  0  0  0  0  0
  -19.6724  -27.3141   20.6714 H   0  0  0  0  0  0
  -17.4233  -26.6691   21.4023 H   0  0  0  0  0  0
  -18.0353  -26.0108   22.9032 H   0  0  0  0  0  0
  -19.7985  -30.7344   24.2163 H   0  0  0  0  0  0
  -17.5050  -31.6276   24.5167 H   0  0  0  0  0  0
  -15.5387  -30.2963   23.7715 H   0  0  0  0  0  0
  -15.8720  -28.0801   22.7123 H   0  0  0  0  0  0
  -24.5873  -30.7141   25.7603 H   0  0  0  0  0  0
  -24.8823  -32.3039   26.4532 H   0  0  0  0  0  0
  -25.7841  -30.9111   27.0211 H   0  0  0  0  0  0
  -26.3245  -29.6457   24.1575 H   0  0  0  0  0  0
  -27.3957  -29.7289   25.5323 H   0  0  0  0  0  0
  -27.9224  -30.3970   24.0107 H   0  0  0  0  0  0
  -27.2582  -33.3736   26.1880 H   0  0  0  0  0  0
  -28.3959  -32.6815   25.0413 H   0  0  0  0  0  0
  -28.0596  -31.8632   26.5593 H   0  0  0  0  0  0
  -28.2549  -38.0060   24.7515 H   0  0  0  0  0  0
  -28.1092  -36.2582   24.6293 H   0  0  0  0  0  0
  -27.2278  -37.1370   25.8868 H   0  0  0  0  0  0
  -20.9716  -29.8687   21.6532 H   0  0  0  0  0  0
  -26.0099  -38.2706   24.1421 H   0  0  0  0  0  0
  -29.3322  -21.7147   22.2371 H   0  0  0  0  0  0
  -29.8713  -19.3546   22.2951 H   0  0  0  0  0  0
  -28.5530  -18.9719   18.3380 H   0  0  0  0  0  0
  -27.0570  -23.6664   20.8890 H   0  0  0  0  0  0
  -27.3400  -23.7344   19.2039 H   0  0  0  0  0  0
  -28.5227  -16.5674   20.4289 H   0  0  0  0  0  0
  1 25  1  0  0  0
  1 30  2  0  0  0
  1 78  1  0  0  0
  2  3  1  0  0  0
  2 25  1  0  0  0
  2 80  1  0  0  0
  2 81  1  0  0  0
  3  4  1  0  0  0
  3 82  1  0  0  0
  3 83  1  0  0  0
  4  5  1  0  0  0
  4 84  1  0  0  0
  4 85  1  0  0  0
  5  6  1  0  0  0
  5 26  1  0  0  0
  5 86  1  0  0  0
  6 25  1  0  0  0
  6 87  1  0  0  0
  6 88  1  0  0  0
  7  8  2  0  0  0
  7 26  1  0  0  0
  7 29  1  0  0  0
  8  9  1  0  0  0
  8 22  1  0  0  0
  9 10  1  0  0  0
  9 27  2  0  0  0
 10 11  2  0  0  0
 10 15  1  0  0  0
 11 12  1  0  0  0
 11 89  1  0  0  0
 12 13  2  0  0  0
 12 90  1  0  0  0
 13 14  1  0  0  0
 13 31  1  0  0  0
 14 15  2  0  0  0
 14 91  1  0  0  0
 15 92  1  0  0  0
 16 17  2  0  0  0
 16 21  1  0  0  0
 16 31  1  0  0  0
 17 18  1  0  0  0
 17 93  1  0  0  0
 18 19  2  0  0  0
 18 94  1  0  0  0
 19 20  1  0  0  0
 19 24  1  0  0  0
 20 21  2  0  0  0
 20 95  1  0  0  0
 21 23  1  0  0  0
 22 28  1  0  0  0
 22 32  2  0  0  0
 26 27  1  0  0  0
 28 96  1  0  0  0
 28 97  1  0  0  0
 29 98  1  0  0  0
 29 99  1  0  0  0
 33 34  1  0  0  0
 33 66  1  0  0  0
 33 70  2  0  0  0
 34 36  1  0  0  0
 34 59  1  0  0  0
 34100  1  0  0  0
 35 44  2  0  0  0
 35 45  1  0  0  0
 35 68  1  0  0  0
 36 56  1  0  0  0
 36101  1  0  0  0
 37 39  1  0  0  0
 37 47  1  0  0  0
 37 66  1  0  0  0
 37102  1  0  0  0
 38 43  2  0  0  0
 38 46  1  0  0  0
 38 47  1  0  0  0
 39 64  1  0  0  0
 39 67  2  0  0  0
 40 52  1  0  0  0
 40 53  2  0  0  0
 40 58  1  0  0  0
 41103  1  0  0  0
 41104  1  0  0  0
 41105  1  0  0  0
 41 48  1  0  0  0
 42 43  1  0  0  0
 42 66  1  0  0  0
 42106  1  0  0  0
 42107  1  0  0  0
 43 44  1  0  0  0
 44108  1  0  0  0
 45 46  2  0  0  0
 45109  1  0  0  0
 46110  1  0  0  0
 47111  1  0  0  0
 47112  1  0  0  0
 48 56  1  0  0  0
 48 65  1  0  0  0
 48113  1  0  0  0
 49 50  1  0  0  0
 49 53  1  0  0  0
 49 64  1  0  0  0
 49114  1  0  0  0
 50 51  1  0  0  0
 50115  1  0  0  0
 50116  1  0  0  0
 51 52  1  0  0  0
 51117  1  0  0  0
 51118  1  0  0  0
 52119  1  0  0  0
 52120  1  0  0  0
 53 54  1  0  0  0
 54 55  2  0  0  0
 54121  1  0  0  0
 55 57  1  0  0  0
 55122  1  0  0  0
 56 69  2  0  0  0
 57 58  2  0  0  0
 57123  1  0  0  0
 58124  1  0  0  0
 59 60  1  0  0  0
 59 61  1  0  0  0
 59 62  1  0  0  0
 60125  1  0  0  0
 60126  1  0  0  0
 60127  1  0  0  0
 61128  1  0  0  0
 61129  1  0  0  0
 61130  1  0  0  0
 62131  1  0  0  0
 62132  1  0  0  0
 62133  1  0  0  0
 63 65  1  0  0  0
 63134  1  0  0  0
 63135  1  0  0  0
 63136  1  0  0  0
 64137  1  0  0  0
 65138  1  0  0  0
 68 77  1  0  0  0
 71 72  2  0  0  0
 71 74  1  0  0  0
 71139  1  0  0  0
 72 75  1  0  0  0
 72140  1  0  0  0
 73 75  2  0  0  0
 73 76  1  0  0  0
 73141  1  0  0  0
 74 76  2  0  0  0
 74 77  1  0  0  0
 75 78  1  0  0  0
 76 79  1  0  0  0
 77142  1  0  0  0
 77143  1  0  0  0
 78144  1  0  0  0
M  ISO  4   1 100  68 101  77 101  78 100
M  END
> <chiral flag>
0

> <version>
0

> <s_m_source_file>
/data/baiqing/PycharmProjects/Reinvent-master-3.2/result/LINK_invent/BTK/process_docking_weight1_custom_product_contain_oxygen_bond_distance_aromatic_linkinvent_7_9_3/rearranged_h_0008.sdf

> <i_m_source_file_index>
70

> <r_mmod_Potential_Energy-OPLS-2005>
2286.2490234375

> <r_mmod_Stretch_Energy-OPLS-2005>
913.313842773438

> <r_mmod_Bend_Energy-OPLS-2005>
656.142639160156

> <r_mmod_Torsional_Energy-OPLS-2005>
260.506713867188

> <r_mmod_Improper_Torsional_Energy-OPLS-2005>
10.7463884353638

> <r_mmod_Van_der_Waal_Energy-OPLS-2005>
131.789093017578

> <r_mmod_Electrostatic_Energy-OPLS-2005>
-333.589508056641

> <r_mmod_Solvation_Energy-OPLS-2005>
-213.130996704102

> <b_mmod_Minimization_Converged-OPLS-2005>
1

> <r_mmod_RMS_Derivative-OPLS-2005>
0.0413532331585884

$$$$
71
                    3D
 Structure written by MMmdl.
140147  0  0  1  0            999 V2000
  -30.1611  -16.0041   20.3080 C   0  0  0  0  0  0
  -30.3940  -13.3709   19.5193 C   0  0  0  0  0  0
  -29.5602  -12.7495   18.3505 C   0  0  0  0  0  0
  -28.1679  -12.3098   18.8207 C   0  0  0  0  0  0
  -27.5837  -13.3431   19.8035 C   0  0  2  0  0  0
  -28.5794  -13.8362   20.8889 C   0  0  0  0  0  0
  -25.2278  -13.8329   20.5856 C   0  0  0  0  0  0
  -24.1700  -13.0433   20.9315 C   0  0  0  0  0  0
  -24.6450  -11.6960   20.8763 C   0  0  0  0  0  0
  -23.9156  -10.4295   21.0384 C   0  0  0  0  0  0
  -24.3676   -9.4207   21.9173 C   0  0  0  0  0  0
  -23.6326   -8.2253   22.0753 C   0  0  0  0  0  0
  -22.4305   -8.0296   21.3544 C   0  0  0  0  0  0
  -21.9960   -9.0273   20.4641 C   0  0  0  0  0  0
  -22.7315  -10.2138   20.3042 C   0  0  0  0  0  0
  -21.6863   -6.0747   22.5279 C   0  0  0  0  0  0
  -21.4022   -6.5646   23.8213 C   0  0  0  0  0  0
  -21.3661   -5.6796   24.9173 C   0  0  0  0  0  0
  -21.6044   -4.3059   24.7222 C   0  0  0  0  0  0
  -21.8818   -3.8153   23.4342 C   0  0  0  0  0  0
  -21.9196   -4.6972   22.3400 C   0  0  0  0  0  0
  -22.7702  -13.5137   21.1934 C   0  0  0  0  0  0
  -22.1662   -4.2158   21.0977 F   0  0  0  0  0  0
  -21.5626   -3.4540   25.7734 F   0  0  0  0  0  0
  -29.6775  -14.5802   20.1919 N   0  0  0  0  0  0
  -26.2769  -12.9729   20.3291 N   0  0  0  0  0  0
  -25.9412  -11.6758   20.5682 N   0  0  0  0  0  0
  -22.0374  -12.8106   22.0483 N   0  0  0  0  0  0
  -25.3817  -15.2078   20.4306 N   0  0  0  0  0  0
  -31.4087  -15.8722   20.2822 O   0  0  0  0  0  0
  -21.6655   -6.8899   21.4244 O   0  0  0  0  0  0
  -22.3368  -14.5432   20.6768 O   0  0  0  0  0  0
  -24.7122  -31.7741   23.1306 C   0  0  0  0  0  0
  -25.9575  -32.4339   23.7956 C   0  0  1  0  0  0
  -27.2357  -26.4414   20.2493 C   0  0  0  0  0  0
  -25.6043  -33.8173   24.1821 N   0  0  0  0  0  0
  -23.5502  -30.3697   21.4913 C   0  0  2  0  0  0
  -25.0042  -28.6446   20.1367 C   0  0  0  0  0  0
  -22.7896  -29.4343   22.4700 C   0  0  0  0  0  0
  -18.0162  -28.1569   22.8214 C   0  0  0  0  0  0
  -24.1498  -36.7093   23.2657 C   0  0  0  0  0  0
  -26.1405  -30.4200   21.4324 C   0  0  0  0  0  0
  -26.2010  -28.9529   20.7936 C   0  0  0  0  0  0
  -27.2917  -27.8910   20.8024 C   0  0  0  0  0  0
  -25.9991  -26.4075   19.5352 C   0  0  0  0  0  0
  -24.9575  -27.3998   19.4818 C   0  0  0  0  0  0
  -23.8153  -29.6344   20.1422 C   0  0  0  0  0  0
  -25.4158  -36.2817   24.0263 C   0  0  1  0  0  0
  -20.6073  -28.3875   23.0881 C   0  0  2  0  0  0
  -20.7786  -26.9756   22.4608 C   0  0  0  0  0  0
  -19.5498  -26.4216   21.7088 C   0  0  0  0  0  0
  -18.1097  -26.8638   22.0237 C   0  0  0  0  0  0
  -19.1588  -28.8842   23.2637 C   0  0  0  0  0  0
  -18.9570  -30.1345   23.8911 C   0  0  0  0  0  0
  -17.6624  -30.6560   24.0765 C   0  0  0  0  0  0
  -25.9160  -34.9216   23.4892 C   0  0  0  0  0  0
  -16.5419  -29.9202   23.6574 C   0  0  0  0  0  0
  -16.7219  -28.6723   23.0397 C   0  0  0  0  0  0
  -26.4648  -31.6466   25.0680 C   0  0  0  0  0  0
  -25.3637  -31.3855   26.1238 C   0  0  0  0  0  0
  -27.0614  -30.2776   24.6755 C   0  0  0  0  0  0
  -27.6047  -32.4377   25.7524 C   0  0  0  0  0  0
  -27.5558  -37.1705   24.8467 C   0  0  0  0  0  0
  -21.4495  -29.3435   22.3578 N   0  0  0  0  0  0
  -26.4262  -37.3606   23.9409 N   0  0  0  0  0  0
  -24.8283  -30.8941   22.0696 N   0  0  0  0  0  0
  -23.4210  -28.7802   23.3033 O   0  0  0  0  0  0
  -28.1967  -25.1262   20.2226 O   0  0  0  0  0  0
  -26.5824  -34.8842   22.4527 O   0  0  0  0  0  0
  -23.6085  -32.0940   23.6097 O   0  0  0  0  0  0
  -28.7705  -21.2825   19.9969 C   0  0  0  0  0  0
  -29.3625  -19.3536   20.6014 C   0  0  0  0  0  0
  -28.2110  -23.2498   20.5175 C   0  0  0  0  0  0
  -29.4079  -17.4693   20.2741 N   0  0  0  0  0  0
  -31.3466  -13.7011   19.1035 H   0  0  0  0  0  0
  -30.6640  -12.6081   20.2520 H   0  0  0  0  0  0
  -30.0920  -11.9085   17.9034 H   0  0  0  0  0  0
  -29.4512  -13.4961   17.5625 H   0  0  0  0  0  0
  -28.2677  -11.3481   19.3257 H   0  0  0  0  0  0
  -27.5014  -12.1499   17.9722 H   0  0  0  0  0  0
  -27.3925  -14.2099   19.1687 H   0  0  0  0  0  0
  -28.9347  -13.0208   21.5211 H   0  0  0  0  0  0
  -28.0774  -14.5353   21.5592 H   0  0  0  0  0  0
  -25.2813   -9.5677   22.4762 H   0  0  0  0  0  0
  -24.0020   -7.4647   22.7483 H   0  0  0  0  0  0
  -21.0888   -8.8807   19.8948 H   0  0  0  0  0  0
  -22.3776  -10.9680   19.6153 H   0  0  0  0  0  0
  -21.2018   -7.6155   23.9719 H   0  0  0  0  0  0
  -21.1482   -6.0525   25.9077 H   0  0  0  0  0  0
  -22.0594   -2.7615   23.2840 H   0  0  0  0  0  0
  -22.4027  -11.9789   22.4882 H   0  0  0  0  0  0
  -21.0974  -13.1085   22.2674 H   0  0  0  0  0  0
  -24.6092  -15.8546   20.5480 H   0  0  0  0  0  0
  -26.2271  -15.6547   20.1017 H   0  0  0  0  0  0
  -26.7689  -32.4750   23.0689 H   0  0  0  0  0  0
  -25.0068  -33.9166   24.9896 H   0  0  0  0  0  0
  -22.8946  -31.2157   21.2742 H   0  0  0  0  0  0
  -23.3788  -35.9392   23.3244 H   0  0  0  0  0  0
  -24.3558  -36.8846   22.2087 H   0  0  0  0  0  0
  -23.7232  -37.6231   23.6804 H   0  0  0  0  0  0
  -26.3681  -31.1235   20.6306 H   0  0  0  0  0  0
  -26.9832  -30.5006   22.1060 H   0  0  0  0  0  0
  -28.1975  -28.1537   21.3305 H   0  0  0  0  0  0
  -25.7911  -25.4872   19.0076 H   0  0  0  0  0  0
  -24.0632  -27.1495   18.9276 H   0  0  0  0  0  0
  -24.0136  -30.3783   19.3698 H   0  0  0  0  0  0
  -22.9130  -29.1146   19.8155 H   0  0  0  0  0  0
  -25.1379  -36.1542   25.0751 H   0  0  0  0  0  0
  -20.9993  -28.3319   24.1064 H   0  0  0  0  0  0
  -21.1583  -26.3040   23.2422 H   0  0  0  0  0  0
  -21.6163  -26.9721   21.7601 H   0  0  0  0  0  0
  -19.3880  -26.0269   22.7114 H   0  0  0  0  0  0
  -19.6128  -27.3462   21.1307 H   0  0  0  0  0  0
  -17.5815  -27.0283   21.0810 H   0  0  0  0  0  0
  -17.5017  -26.0951   22.5175 H   0  0  0  0  0  0
  -19.8097  -30.7074   24.2302 H   0  0  0  0  0  0
  -17.5302  -31.6181   24.5523 H   0  0  0  0  0  0
  -15.5460  -30.3152   23.8048 H   0  0  0  0  0  0
  -15.8546  -28.1225   22.6995 H   0  0  0  0  0  0
  -24.5858  -30.7178   25.7514 H   0  0  0  0  0  0
  -24.8793  -32.3100   26.4389 H   0  0  0  0  0  0
  -25.7743  -30.9184   27.0198 H   0  0  0  0  0  0
  -26.3378  -29.6321   24.1770 H   0  0  0  0  0  0
  -27.3966  -29.7315   25.5583 H   0  0  0  0  0  0
  -27.9387  -30.3845   24.0374 H   0  0  0  0  0  0
  -27.2557  -33.3779   26.1808 H   0  0  0  0  0  0
  -28.4013  -32.6778   25.0469 H   0  0  0  0  0  0
  -28.0543  -31.8704   26.5683 H   0  0  0  0  0  0
  -28.2525  -38.0046   24.7520 H   0  0  0  0  0  0
  -28.1104  -36.2565   24.6288 H   0  0  0  0  0  0
  -27.2271  -37.1326   25.8867 H   0  0  0  0  0  0
  -20.9859  -29.9264   21.6745 H   0  0  0  0  0  0
  -26.0065  -38.2641   24.1431 H   0  0  0  0  0  0
  -27.9479  -21.0312   19.3274 H   0  0  0  0  0  0
  -29.5799  -21.5046   19.3014 H   0  0  0  0  0  0
  -28.8623  -19.3135   21.5693 H   0  0  0  0  0  0
  -30.4044  -19.5229   20.8749 H   0  0  0  0  0  0
  -28.6621  -23.2870   21.5090 H   0  0  0  0  0  0
  -27.1534  -23.1048   20.7380 H   0  0  0  0  0  0
  -28.4467  -17.2150   20.0887 H   0  0  0  0  0  0
  1 25  1  0  0  0
  1 30  2  0  0  0
  1 74  1  0  0  0
  2  3  1  0  0  0
  2 25  1  0  0  0
  2 75  1  0  0  0
  2 76  1  0  0  0
  3  4  1  0  0  0
  3 77  1  0  0  0
  3 78  1  0  0  0
  4  5  1  0  0  0
  4 79  1  0  0  0
  4 80  1  0  0  0
  5  6  1  0  0  0
  5 26  1  0  0  0
  5 81  1  0  0  0
  6 25  1  0  0  0
  6 82  1  0  0  0
  6 83  1  0  0  0
  7  8  2  0  0  0
  7 26  1  0  0  0
  7 29  1  0  0  0
  8  9  1  0  0  0
  8 22  1  0  0  0
  9 10  1  0  0  0
  9 27  2  0  0  0
 10 11  2  0  0  0
 10 15  1  0  0  0
 11 12  1  0  0  0
 11 84  1  0  0  0
 12 13  2  0  0  0
 12 85  1  0  0  0
 13 14  1  0  0  0
 13 31  1  0  0  0
 14 15  2  0  0  0
 14 86  1  0  0  0
 15 87  1  0  0  0
 16 17  2  0  0  0
 16 21  1  0  0  0
 16 31  1  0  0  0
 17 18  1  0  0  0
 17 88  1  0  0  0
 18 19  2  0  0  0
 18 89  1  0  0  0
 19 20  1  0  0  0
 19 24  1  0  0  0
 20 21  2  0  0  0
 20 90  1  0  0  0
 21 23  1  0  0  0
 22 28  1  0  0  0
 22 32  2  0  0  0
 26 27  1  0  0  0
 28 91  1  0  0  0
 28 92  1  0  0  0
 29 93  1  0  0  0
 29 94  1  0  0  0
 33 34  1  0  0  0
 33 66  1  0  0  0
 33 70  2  0  0  0
 34 36  1  0  0  0
 34 59  1  0  0  0
 34 95  1  0  0  0
 35 44  2  0  0  0
 35 45  1  0  0  0
 35 68  1  0  0  0
 36 56  1  0  0  0
 36 96  1  0  0  0
 37 39  1  0  0  0
 37 47  1  0  0  0
 37 66  1  0  0  0
 37 97  1  0  0  0
 38 43  2  0  0  0
 38 46  1  0  0  0
 38 47  1  0  0  0
 39 64  1  0  0  0
 39 67  2  0  0  0
 40 52  1  0  0  0
 40 53  2  0  0  0
 40 58  1  0  0  0
 41 98  1  0  0  0
 41 99  1  0  0  0
 41100  1  0  0  0
 41 48  1  0  0  0
 42 43  1  0  0  0
 42 66  1  0  0  0
 42101  1  0  0  0
 42102  1  0  0  0
 43 44  1  0  0  0
 44103  1  0  0  0
 45 46  2  0  0  0
 45104  1  0  0  0
 46105  1  0  0  0
 47106  1  0  0  0
 47107  1  0  0  0
 48 56  1  0  0  0
 48 65  1  0  0  0
 48108  1  0  0  0
 49 50  1  0  0  0
 49 53  1  0  0  0
 49 64  1  0  0  0
 49109  1  0  0  0
 50 51  1  0  0  0
 50110  1  0  0  0
 50111  1  0  0  0
 51 52  1  0  0  0
 51112  1  0  0  0
 51113  1  0  0  0
 52114  1  0  0  0
 52115  1  0  0  0
 53 54  1  0  0  0
 54 55  2  0  0  0
 54116  1  0  0  0
 55 57  1  0  0  0
 55117  1  0  0  0
 56 69  2  0  0  0
 57 58  2  0  0  0
 57118  1  0  0  0
 58119  1  0  0  0
 59 60  1  0  0  0
 59 61  1  0  0  0
 59 62  1  0  0  0
 60120  1  0  0  0
 60121  1  0  0  0
 60122  1  0  0  0
 61123  1  0  0  0
 61124  1  0  0  0
 61125  1  0  0  0
 62126  1  0  0  0
 62127  1  0  0  0
 62128  1  0  0  0
 63 65  1  0  0  0
 63129  1  0  0  0
 63130  1  0  0  0
 63131  1  0  0  0
 64132  1  0  0  0
 65133  1  0  0  0
 68 73  1  0  0  0
 71 72  1  0  0  0
 71 73  1  0  0  0
 71134  1  0  0  0
 71135  1  0  0  0
 72 74  1  0  0  0
 72136  1  0  0  0
 72137  1  0  0  0
 73138  1  0  0  0
 73139  1  0  0  0
 74140  1  0  0  0
M  ISO  4   1 100  68 101  73 101  74 100
M  END
> <chiral flag>
0

> <version>
0

> <s_m_source_file>
/data/baiqing/PycharmProjects/Reinvent-master-3.2/result/LINK_invent/BTK/process_docking_weight1_custom_product_contain_oxygen_bond_distance_aromatic_linkinvent_7_9_3/rearranged_h_0008.sdf

> <i_m_source_file_index>
71

> <r_mmod_Potential_Energy-OPLS-2005>
4439.1796875

> <r_mmod_Stretch_Energy-OPLS-2005>
1928.78686523438

> <r_mmod_Bend_Energy-OPLS-2005>
1134.07287597656

> <r_mmod_Torsional_Energy-OPLS-2005>
253.740341186523

> <r_mmod_Improper_Torsional_Energy-OPLS-2005>
5.21059560775757

> <r_mmod_Van_der_Waal_Energy-OPLS-2005>
136.971328735352

> <r_mmod_Electrostatic_Energy-OPLS-2005>
-343.119842529297

> <r_mmod_Solvation_Energy-OPLS-2005>
-223.109710693359

> <b_mmod_Minimization_Converged-OPLS-2005>
0

> <r_mmod_RMS_Derivative-OPLS-2005>
0.0710311159491539

$$$$
72
                    3D
 Structure written by MMmdl.
154163  0  0  1  0            999 V2000
  -30.4161  -15.2064   20.3848 C   0  0  0  0  0  0
  -30.4464  -12.7645   19.5241 C   0  0  0  0  0  0
  -29.5355  -12.5734   18.2844 C   0  0  0  0  0  0
  -28.0783  -12.3070   18.7047 C   0  0  0  0  0  0
  -27.6176  -13.2655   19.8317 C   0  0  2  0  0  0
  -28.6530  -13.3867   20.9696 C   0  0  0  0  0  0
  -25.2398  -13.8235   20.5730 C   0  0  0  0  0  0
  -24.1751  -13.0429   20.9260 C   0  0  0  0  0  0
  -24.6389  -11.6923   20.8756 C   0  0  0  0  0  0
  -23.9077  -10.4290   21.0401 C   0  0  0  0  0  0
  -24.3619   -9.4198   21.9171 C   0  0  0  0  0  0
  -23.6296   -8.2231   22.0744 C   0  0  0  0  0  0
  -22.4279   -8.0268   21.3535 C   0  0  0  0  0  0
  -21.9919   -9.0245   20.4640 C   0  0  0  0  0  0
  -22.7249  -10.2125   20.3054 C   0  0  0  0  0  0
  -21.6850   -6.0725   22.5267 C   0  0  0  0  0  0
  -21.4015   -6.5630   23.8202 C   0  0  0  0  0  0
  -21.3668   -5.6786   24.9167 C   0  0  0  0  0  0
  -21.6052   -4.3049   24.7223 C   0  0  0  0  0  0
  -21.8820   -3.8136   23.4345 C   0  0  0  0  0  0
  -21.9193   -4.6951   22.3397 C   0  0  0  0  0  0
  -22.7769  -13.5181   21.1904 C   0  0  0  0  0  0
  -22.1661   -4.2131   21.0980 F   0  0  0  0  0  0
  -21.5633   -3.4538   25.7740 F   0  0  0  0  0  0
  -29.8956  -13.8868   20.3611 N   0  0  0  0  0  0
  -26.2825  -12.9492   20.3215 N   0  0  0  0  0  0
  -25.9321  -11.6602   20.5710 N   0  0  0  0  0  0
  -22.0427  -12.8169   22.0456 N   0  0  0  0  0  0
  -25.4032  -15.1970   20.4136 N   0  0  0  0  0  0
  -31.6259  -15.2743   20.1242 O   0  0  0  0  0  0
  -21.6637   -6.8868   21.4232 O   0  0  0  0  0  0
  -22.3467  -14.5491   20.6746 O   0  0  0  0  0  0
  -24.6591  -31.8286   23.1770 C   0  0  0  0  0  0
  -25.9299  -32.4612   23.8216 C   0  0  1  0  0  0
  -27.2021  -26.9424   20.1861 C   0  0  0  0  0  0
  -25.5985  -33.8426   24.2117 N   0  0  0  0  0  0
  -23.4726  -30.4431   21.5256 C   0  0  2  0  0  0
  -24.9251  -28.8378   20.1156 C   0  0  0  0  0  0
  -22.7654  -29.4458   22.4804 C   0  0  0  0  0  0
  -18.0327  -28.1399   22.8475 C   0  0  0  0  0  0
  -24.1495  -36.7214   23.2644 C   0  0  0  0  0  0
  -26.0415  -30.6311   21.4169 C   0  0  0  0  0  0
  -26.1027  -29.2202   20.7704 C   0  0  0  0  0  0
  -27.2328  -28.2873   20.7978 C   0  0  0  0  0  0
  -26.0243  -26.7478   19.4285 C   0  0  0  0  0  0
  -24.9082  -27.6179   19.4269 C   0  0  0  0  0  0
  -23.7136  -29.7651   20.1503 C   0  0  0  0  0  0
  -25.4135  -36.2981   24.0303 C   0  0  1  0  0  0
  -20.5949  -28.3746   23.1201 C   0  0  2  0  0  0
  -20.6810  -26.9432   22.5402 C   0  0  0  0  0  0
  -19.5782  -26.6370   21.5219 C   0  0  0  0  0  0
  -18.1963  -26.7938   22.1624 C   0  0  0  0  0  0
  -19.1586  -28.8893   23.2830 C   0  0  0  0  0  0
  -18.9494  -30.1484   23.8868 C   0  0  0  0  0  0
  -17.6488  -30.6594   24.0560 C   0  0  0  0  0  0
  -25.9095  -34.9362   23.5022 C   0  0  0  0  0  0
  -16.5382  -29.9082   23.6337 C   0  0  0  0  0  0
  -16.7308  -28.6502   23.0361 C   0  0  0  0  0  0
  -26.4560  -31.6544   25.0729 C   0  0  0  0  0  0
  -25.3689  -31.3793   26.1384 C   0  0  0  0  0  0
  -27.0445  -30.2904   24.6469 C   0  0  0  0  0  0
  -27.6057  -32.4347   25.7520 C   0  0  0  0  0  0
  -27.5571  -37.1769   24.8467 C   0  0  0  0  0  0
  -21.4327  -29.3051   22.3557 N   0  0  0  0  0  0
  -26.4287  -37.3706   23.9402 N   0  0  0  0  0  0
  -24.7446  -30.9956   22.0918 N   0  0  0  0  0  0
  -23.4218  -28.8006   23.3015 O   0  0  0  0  0  0
  -28.2221  -25.8539   20.1615 O   0  0  0  0  0  0
  -26.5699  -34.8886   22.4616 O   0  0  0  0  0  0
  -23.5670  -32.1254   23.6872 O   0  0  0  0  0  0
  -28.2584  -18.7395   20.7989 C   0  0  0  0  0  0
  -30.3891  -19.0357   20.0308 C   0  0  0  0  0  0
  -28.9104  -21.2467   20.2915 C   0  0  0  0  0  0
  -29.4642  -17.9975   20.4564 C   0  0  0  0  0  0
  -27.9695  -20.1949   20.7185 C   0  0  0  0  0  0
  -30.1341  -20.5048   19.9552 C   0  0  0  0  0  0
  -28.7438  -22.9771   19.9835 C   0  0  0  0  0  0
  -26.1604  -22.7502   21.4793 C   0  0  0  0  0  0
  -26.5195  -24.0299   20.7278 C   0  0  0  0  0  0
  -26.0013  -21.5572   20.5330 C   0  0  0  0  0  0
  -27.9618  -24.2405   20.6608 N   0  0  0  0  0  0
  -29.5514  -16.3870   20.5410 N   0  0  0  0  0  0
  -26.6635  -20.4380   21.0819 O   0  0  0  0  0  0
  -31.1615  -21.2510   19.4827 F   0  0  0  0  0  0
  -31.4648  -12.9774   19.1978 H   0  0  0  0  0  0
  -30.5110  -11.8420   20.1032 H   0  0  0  0  0  0
  -29.9035  -11.7556   17.6645 H   0  0  0  0  0  0
  -29.5759  -13.4698   17.6639 H   0  0  0  0  0  0
  -28.0186  -11.2758   19.0538 H   0  0  0  0  0  0
  -27.4115  -12.3757   17.8442 H   0  0  0  0  0  0
  -27.5485  -14.2452   19.3576 H   0  0  0  0  0  0
  -28.8044  -12.4314   21.4744 H   0  0  0  0  0  0
  -28.3022  -14.0866   21.7293 H   0  0  0  0  0  0
  -25.2755   -9.5662   22.4759 H   0  0  0  0  0  0
  -23.9990   -7.4625   22.7475 H   0  0  0  0  0  0
  -21.0846   -8.8767   19.8958 H   0  0  0  0  0  0
  -22.3692  -10.9662   19.6173 H   0  0  0  0  0  0
  -21.2005   -7.6135   23.9698 H   0  0  0  0  0  0
  -21.1499   -6.0517   25.9071 H   0  0  0  0  0  0
  -22.0596   -2.7594   23.2847 H   0  0  0  0  0  0
  -22.4069  -11.9847   22.4851 H   0  0  0  0  0  0
  -21.1038  -13.1178   22.2666 H   0  0  0  0  0  0
  -24.6200  -15.8347   20.5096 H   0  0  0  0  0  0
  -26.2182  -15.6298   19.9988 H   0  0  0  0  0  0
  -26.7364  -32.5158   23.0929 H   0  0  0  0  0  0
  -25.0076  -33.9505   25.0235 H   0  0  0  0  0  0
  -22.7849  -31.2751   21.3596 H   0  0  0  0  0  0
  -23.3759  -35.9539   23.3286 H   0  0  0  0  0  0
  -24.3572  -36.8872   22.2057 H   0  0  0  0  0  0
  -23.7248  -37.6403   23.6708 H   0  0  0  0  0  0
  -26.2245  -31.3663   20.6321 H   0  0  0  0  0  0
  -26.9025  -30.6889   22.0708 H   0  0  0  0  0  0
  -28.1254  -28.5760   21.3342 H   0  0  0  0  0  0
  -25.9396  -25.8573   18.8269 H   0  0  0  0  0  0
  -24.0284  -27.3343   18.8655 H   0  0  0  0  0  0
  -23.8724  -30.5365   19.3955 H   0  0  0  0  0  0
  -22.8237  -29.2216   19.8298 H   0  0  0  0  0  0
  -25.1331  -36.1786   25.0792 H   0  0  0  0  0  0
  -21.0046  -28.3349   24.1321 H   0  0  0  0  0  0
  -20.5694  -26.2360   23.3634 H   0  0  0  0  0  0
  -21.6672  -26.7410   22.1206 H   0  0  0  0  0  0
  -19.6930  -25.6268   21.1279 H   0  0  0  0  0  0
  -19.6718  -27.3153   20.6730 H   0  0  0  0  0  0
  -17.4230  -26.6689   21.4028 H   0  0  0  0  0  0
  -18.0355  -26.0089   22.9030 H   0  0  0  0  0  0
  -19.7969  -30.7313   24.2229 H   0  0  0  0  0  0
  -17.5034  -31.6269   24.5179 H   0  0  0  0  0  0
  -15.5380  -30.2969   23.7678 H   0  0  0  0  0  0
  -15.8711  -28.0803   22.7091 H   0  0  0  0  0  0
  -24.5890  -30.7122   25.7700 H   0  0  0  0  0  0
  -24.8847  -32.2987   26.4683 H   0  0  0  0  0  0
  -25.7911  -30.9047   27.0249 H   0  0  0  0  0  0
  -26.3111  -29.6582   24.1449 H   0  0  0  0  0  0
  -27.3941  -29.7269   25.5131 H   0  0  0  0  0  0
  -27.9077  -30.4066   23.9908 H   0  0  0  0  0  0
  -27.2637  -33.3688   26.1984 H   0  0  0  0  0  0
  -28.3924  -32.6840   25.0389 H   0  0  0  0  0  0
  -28.0669  -31.8552   26.5527 H   0  0  0  0  0  0
  -28.2583  -38.0068   24.7501 H   0  0  0  0  0  0
  -28.1075  -36.2598   24.6320 H   0  0  0  0  0  0
  -27.2286  -37.1444   25.8869 H   0  0  0  0  0  0
  -20.9571  -29.8766   21.6716 H   0  0  0  0  0  0
  -26.0137  -38.2770   24.1394 H   0  0  0  0  0  0
  -27.4301  -18.1319   21.1354 H   0  0  0  0  0  0
  -31.3671  -18.7062   19.7125 H   0  0  0  0  0  0
  -28.4393  -23.0113   18.9371 H   0  0  0  0  0  0
  -29.7785  -23.3187   19.9666 H   0  0  0  0  0  0
  -25.2105  -22.8985   21.9951 H   0  0  0  0  0  0
  -26.8873  -22.5490   22.2673 H   0  0  0  0  0  0
  -26.0708  -24.8578   21.2752 H   0  0  0  0  0  0
  -26.0784  -24.0078   19.7324 H   0  0  0  0  0  0
  -26.3458  -21.7567   19.5168 H   0  0  0  0  0  0
  -24.9435  -21.3104   20.4336 H   0  0  0  0  0  0
  -28.6409  -16.0184   20.7694 H   0  0  0  0  0  0
  1 25  1  0  0  0
  1 30  2  0  0  0
  1 82  1  0  0  0
  2  3  1  0  0  0
  2 25  1  0  0  0
  2 85  1  0  0  0
  2 86  1  0  0  0
  3  4  1  0  0  0
  3 87  1  0  0  0
  3 88  1  0  0  0
  4  5  1  0  0  0
  4 89  1  0  0  0
  4 90  1  0  0  0
  5  6  1  0  0  0
  5 26  1  0  0  0
  5 91  1  0  0  0
  6 25  1  0  0  0
  6 92  1  0  0  0
  6 93  1  0  0  0
  7  8  2  0  0  0
  7 26  1  0  0  0
  7 29  1  0  0  0
  8  9  1  0  0  0
  8 22  1  0  0  0
  9 10  1  0  0  0
  9 27  2  0  0  0
 10 11  2  0  0  0
 10 15  1  0  0  0
 11 12  1  0  0  0
 11 94  1  0  0  0
 12 13  2  0  0  0
 12 95  1  0  0  0
 13 14  1  0  0  0
 13 31  1  0  0  0
 14 15  2  0  0  0
 14 96  1  0  0  0
 15 97  1  0  0  0
 16 17  2  0  0  0
 16 21  1  0  0  0
 16 31  1  0  0  0
 17 18  1  0  0  0
 17 98  1  0  0  0
 18 19  2  0  0  0
 18 99  1  0  0  0
 19 20  1  0  0  0
 19 24  1  0  0  0
 20 21  2  0  0  0
 20100  1  0  0  0
 21 23  1  0  0  0
 22 28  1  0  0  0
 22 32  2  0  0  0
 26 27  1  0  0  0
 28101  1  0  0  0
 28102  1  0  0  0
 29103  1  0  0  0
 29104  1  0  0  0
 33 34  1  0  0  0
 33 66  1  0  0  0
 33 70  2  0  0  0
 34 36  1  0  0  0
 34 59  1  0  0  0
 34105  1  0  0  0
 35 44  2  0  0  0
 35 45  1  0  0  0
 35 68  1  0  0  0
 36 56  1  0  0  0
 36106  1  0  0  0
 37 39  1  0  0  0
 37 47  1  0  0  0
 37 66  1  0  0  0
 37107  1  0  0  0
 38 43  2  0  0  0
 38 46  1  0  0  0
 38 47  1  0  0  0
 39 64  1  0  0  0
 39 67  2  0  0  0
 40 52  1  0  0  0
 40 53  2  0  0  0
 40 58  1  0  0  0
 41108  1  0  0  0
 41109  1  0  0  0
 41110  1  0  0  0
 41 48  1  0  0  0
 42 43  1  0  0  0
 42 66  1  0  0  0
 42111  1  0  0  0
 42112  1  0  0  0
 43 44  1  0  0  0
 44113  1  0  0  0
 45 46  2  0  0  0
 45114  1  0  0  0
 46115  1  0  0  0
 47116  1  0  0  0
 47117  1  0  0  0
 48 56  1  0  0  0
 48 65  1  0  0  0
 48118  1  0  0  0
 49 50  1  0  0  0
 49 53  1  0  0  0
 49 64  1  0  0  0
 49119  1  0  0  0
 50 51  1  0  0  0
 50120  1  0  0  0
 50121  1  0  0  0
 51 52  1  0  0  0
 51122  1  0  0  0
 51123  1  0  0  0
 52124  1  0  0  0
 52125  1  0  0  0
 53 54  1  0  0  0
 54 55  2  0  0  0
 54126  1  0  0  0
 55 57  1  0  0  0
 55127  1  0  0  0
 56 69  2  0  0  0
 57 58  2  0  0  0
 57128  1  0  0  0
 58129  1  0  0  0
 59 60  1  0  0  0
 59 61  1  0  0  0
 59 62  1  0  0  0
 60130  1  0  0  0
 60131  1  0  0  0
 60132  1  0  0  0
 61133  1  0  0  0
 61134  1  0  0  0
 61135  1  0  0  0
 62136  1  0  0  0
 62137  1  0  0  0
 62138  1  0  0  0
 63 65  1  0  0  0
 63139  1  0  0  0
 63140  1  0  0  0
 63141  1  0  0  0
 64142  1  0  0  0
 65143  1  0  0  0
 68 81  1  0  0  0
 71 74  2  0  0  0
 71 75  1  0  0  0
 71144  1  0  0  0
 72 74  1  0  0  0
 72 76  2  0  0  0
 72145  1  0  0  0
 73 75  2  0  0  0
 73 76  1  0  0  0
 73 77  1  0  0  0
 74 82  1  0  0  0
 75 83  1  0  0  0
 76 84  1  0  0  0
 77 81  1  0  0  0
 77146  1  0  0  0
 77147  1  0  0  0
 78 79  1  0  0  0
 78 80  1  0  0  0
 78148  1  0  0  0
 78149  1  0  0  0
 79 81  1  0  0  0
 79150  1  0  0  0
 79151  1  0  0  0
 80 83  1  0  0  0
 80152  1  0  0  0
 80153  1  0  0  0
 82154  1  0  0  0
M  ISO  4   1 100  68 101  81 101  82 100
M  END
> <chiral flag>
0

> <version>
0

> <s_m_source_file>
/data/baiqing/PycharmProjects/Reinvent-master-3.2/result/LINK_invent/BTK/process_docking_weight1_custom_product_contain_oxygen_bond_distance_aromatic_linkinvent_7_9_3/rearranged_h_0008.sdf

> <i_m_source_file_index>
72

> <r_mmod_Potential_Energy-OPLS-2005>
1233.4208984375

> <r_mmod_Stretch_Energy-OPLS-2005>
505.103729248047

> <r_mmod_Bend_Energy-OPLS-2005>
474.039886474609

> <r_mmod_Torsional_Energy-OPLS-2005>
249.855972290039

> <r_mmod_Improper_Torsional_Energy-OPLS-2005>
4.76700258255005

> <r_mmod_Van_der_Waal_Energy-OPLS-2005>
144.503295898438

> <r_mmod_Electrostatic_Energy-OPLS-2005>
-335.8212890625

> <r_mmod_Solvation_Energy-OPLS-2005>
-220.581008911133

> <b_mmod_Minimization_Converged-OPLS-2005>
0

> <r_mmod_RMS_Derivative-OPLS-2005>
1.46865236759186

$$$$
73
                    3D
 Structure written by MMmdl.
154163  0  0  1  0            999 V2000
  -30.4127  -15.3514   20.4097 C   0  0  0  0  0  0
  -30.4503  -12.8870   19.5033 C   0  0  0  0  0  0
  -29.5346  -12.6061   18.2800 C   0  0  0  0  0  0
  -28.0871  -12.3029   18.7105 C   0  0  0  0  0  0
  -27.6135  -13.2627   19.8260 C   0  0  2  0  0  0
  -28.6651  -13.4034   20.9507 C   0  0  0  0  0  0
  -25.2271  -13.8136   20.5621 C   0  0  0  0  0  0
  -24.1690  -13.0342   20.9257 C   0  0  0  0  0  0
  -24.6394  -11.6866   20.8798 C   0  0  0  0  0  0
  -23.9090  -10.4247   21.0433 C   0  0  0  0  0  0
  -24.3632   -9.4163   21.9209 C   0  0  0  0  0  0
  -23.6291   -8.2210   22.0769 C   0  0  0  0  0  0
  -22.4276   -8.0262   21.3547 C   0  0  0  0  0  0
  -21.9923   -9.0236   20.4646 C   0  0  0  0  0  0
  -22.7271  -10.2102   20.3061 C   0  0  0  0  0  0
  -21.6848   -6.0725   22.5277 C   0  0  0  0  0  0
  -21.4008   -6.5632   23.8209 C   0  0  0  0  0  0
  -21.3657   -5.6787   24.9173 C   0  0  0  0  0  0
  -21.6046   -4.3049   24.7226 C   0  0  0  0  0  0
  -21.8820   -3.8140   23.4347 C   0  0  0  0  0  0
  -21.9192   -4.6955   22.3403 C   0  0  0  0  0  0
  -22.7711  -13.5109   21.1904 C   0  0  0  0  0  0
  -22.1661   -4.2143   21.0979 F   0  0  0  0  0  0
  -21.5632   -3.4536   25.7741 F   0  0  0  0  0  0
  -29.8645  -14.0175   20.3288 N   0  0  0  0  0  0
  -26.2803  -12.9453   20.3231 N   0  0  0  0  0  0
  -25.9345  -11.6569   20.5790 N   0  0  0  0  0  0
  -22.0379  -12.8108   22.0474 N   0  0  0  0  0  0
  -25.3556  -15.1850   20.3795 N   0  0  0  0  0  0
  -31.6325  -15.3407   20.1713 O   0  0  0  0  0  0
  -21.6631   -6.8869   21.4240 O   0  0  0  0  0  0
  -22.3393  -14.5425   20.6761 O   0  0  0  0  0  0
  -24.6667  -31.8207   23.1657 C   0  0  0  0  0  0
  -25.9331  -32.4574   23.8139 C   0  0  1  0  0  0
  -27.2349  -26.9011   20.1980 C   0  0  0  0  0  0
  -25.5991  -33.8385   24.2063 N   0  0  0  0  0  0
  -23.4828  -30.4280   21.5173 C   0  0  2  0  0  0
  -24.9379  -28.8008   20.1242 C   0  0  0  0  0  0
  -22.7687  -29.4425   22.4790 C   0  0  0  0  0  0
  -18.0322  -28.1416   22.8468 C   0  0  0  0  0  0
  -24.1489  -36.7191   23.2648 C   0  0  0  0  0  0
  -26.0525  -30.6214   21.3952 C   0  0  0  0  0  0
  -26.1244  -29.2037   20.7498 C   0  0  0  0  0  0
  -27.2685  -28.2793   20.7522 C   0  0  0  0  0  0
  -26.0115  -26.6498   19.5350 C   0  0  0  0  0  0
  -24.9073  -27.5438   19.4969 C   0  0  0  0  0  0
  -23.7247  -29.7327   20.1491 C   0  0  0  0  0  0
  -25.4134  -36.2957   24.0298 C   0  0  1  0  0  0
  -20.5950  -28.3759   23.1190 C   0  0  2  0  0  0
  -20.6805  -26.9442   22.5401 C   0  0  0  0  0  0
  -19.5774  -26.6389   21.5214 C   0  0  0  0  0  0
  -18.1955  -26.7951   22.1622 C   0  0  0  0  0  0
  -19.1585  -28.8910   23.2813 C   0  0  0  0  0  0
  -18.9495  -30.1500   23.8848 C   0  0  0  0  0  0
  -17.6487  -30.6603   24.0556 C   0  0  0  0  0  0
  -25.9103  -34.9341   23.5003 C   0  0  0  0  0  0
  -16.5377  -29.9087   23.6349 C   0  0  0  0  0  0
  -16.7304  -28.6510   23.0364 C   0  0  0  0  0  0
  -26.4579  -31.6511   25.0663 C   0  0  0  0  0  0
  -25.3700  -31.3728   26.1306 C   0  0  0  0  0  0
  -27.0492  -30.2896   24.6362 C   0  0  0  0  0  0
  -27.6074  -32.4311   25.7476 C   0  0  0  0  0  0
  -27.5565  -37.1754   24.8475 C   0  0  0  0  0  0
  -21.4354  -29.3042   22.3537 N   0  0  0  0  0  0
  -26.4279  -37.3694   23.9412 N   0  0  0  0  0  0
  -24.7560  -30.9838   22.0804 N   0  0  0  0  0  0
  -23.4219  -28.8008   23.3056 O   0  0  0  0  0  0
  -28.2764  -25.8206   20.1822 O   0  0  0  0  0  0
  -26.5706  -34.8884   22.4594 O   0  0  0  0  0  0
  -23.5729  -32.1186   23.6734 O   0  0  0  0  0  0
  -27.6943  -17.8965   21.5002 C   0  0  0  0  0  0
  -28.3607  -16.5324   21.2425 C   0  0  0  0  0  0
  -28.3960  -20.4467   21.5361 C   0  0  0  0  0  0
  -29.5707  -19.7268   19.7006 C   0  0  0  0  0  0
  -28.8214  -18.8907   21.7135 C   0  0  2  0  0  0
  -29.8505  -18.3338   20.6864 C   0  0  1  0  0  0
  -28.7902  -22.6179   19.8390 C   0  0  0  0  0  0
  -28.1876  -24.1895   20.5397 C   0  0  0  0  0  0
  -29.6460  -16.6557   20.5428 N   0  0  0  0  0  0
  -29.2123  -21.1060   20.4774 N   0  3  1  0  0  0
  -31.4475  -13.1379   19.1397 H   0  0  0  0  0  0
  -30.5881  -11.9856   20.1027 H   0  0  0  0  0  0
  -29.9321  -11.7809   17.6873 H   0  0  0  0  0  0
  -29.5384  -13.4791   17.6256 H   0  0  0  0  0  0
  -28.0539  -11.2750   19.0732 H   0  0  0  0  0  0
  -27.4147  -12.3484   17.8529 H   0  0  0  0  0  0
  -27.5261  -14.2251   19.3246 H   0  0  0  0  0  0
  -28.8838  -12.4294   21.3909 H   0  0  0  0  0  0
  -28.2838  -13.9899   21.7808 H   0  0  0  0  0  0
  -25.2766   -9.5639   22.4796 H   0  0  0  0  0  0
  -23.9985   -7.4599   22.7491 H   0  0  0  0  0  0
  -21.0858   -8.8772   19.8939 H   0  0  0  0  0  0
  -22.3750  -10.9650   19.6172 H   0  0  0  0  0  0
  -21.1996   -7.6139   23.9710 H   0  0  0  0  0  0
  -21.1479   -6.0518   25.9077 H   0  0  0  0  0  0
  -22.0602   -2.7602   23.2853 H   0  0  0  0  0  0
  -22.4002  -11.9765   22.4852 H   0  0  0  0  0  0
  -21.0996  -13.1126   22.2684 H   0  0  0  0  0  0
  -24.5645  -15.8117   20.4788 H   0  0  0  0  0  0
  -26.1709  -15.6380   19.9905 H   0  0  0  0  0  0
  -26.7400  -32.5122   23.0852 H   0  0  0  0  0  0
  -25.0119  -33.9447   25.0203 H   0  0  0  0  0  0
  -22.7980  -31.2596   21.3404 H   0  0  0  0  0  0
  -23.3768  -35.9505   23.3286 H   0  0  0  0  0  0
  -24.3562  -36.8868   22.2069 H   0  0  0  0  0  0
  -23.7232  -37.6367   23.6717 H   0  0  0  0  0  0
  -26.2222  -31.3551   20.6063 H   0  0  0  0  0  0
  -26.9166  -30.6922   22.0442 H   0  0  0  0  0  0
  -28.1759  -28.5972   21.2466 H   0  0  0  0  0  0
  -25.8893  -25.6932   19.0465 H   0  0  0  0  0  0
  -24.0053  -27.2283   18.9902 H   0  0  0  0  0  0
  -23.8818  -30.4948   19.3850 H   0  0  0  0  0  0
  -22.8348  -29.1849   19.8351 H   0  0  0  0  0  0
  -25.1327  -36.1756   25.0788 H   0  0  0  0  0  0
  -21.0021  -28.3370   24.1319 H   0  0  0  0  0  0
  -20.5705  -26.2371   23.3636 H   0  0  0  0  0  0
  -21.6667  -26.7436   22.1194 H   0  0  0  0  0  0
  -19.6938  -25.6288   21.1272 H   0  0  0  0  0  0
  -19.6720  -27.3180   20.6727 H   0  0  0  0  0  0
  -17.4229  -26.6699   21.4020 H   0  0  0  0  0  0
  -18.0345  -26.0104   22.9029 H   0  0  0  0  0  0
  -19.7970  -30.7332   24.2198 H   0  0  0  0  0  0
  -17.5037  -31.6278   24.5168 H   0  0  0  0  0  0
  -15.5374  -30.2969   23.7709 H   0  0  0  0  0  0
  -15.8706  -28.0812   22.7102 H   0  0  0  0  0  0
  -24.5918  -30.7044   25.7594 H   0  0  0  0  0  0
  -24.8840  -32.2906   26.4621 H   0  0  0  0  0  0
  -25.7928  -30.8971   27.0165 H   0  0  0  0  0  0
  -26.3162  -29.6557   24.1356 H   0  0  0  0  0  0
  -27.4053  -29.7254   25.4991 H   0  0  0  0  0  0
  -27.9084  -30.4113   23.9762 H   0  0  0  0  0  0
  -27.2670  -33.3680   26.1896 H   0  0  0  0  0  0
  -28.3976  -32.6751   25.0362 H   0  0  0  0  0  0
  -28.0633  -31.8530   26.5524 H   0  0  0  0  0  0
  -28.2563  -38.0066   24.7523 H   0  0  0  0  0  0
  -28.1081  -36.2592   24.6309 H   0  0  0  0  0  0
  -27.2271  -37.1406   25.8874 H   0  0  0  0  0  0
  -20.9623  -29.8709   21.6640 H   0  0  0  0  0  0
  -26.0128  -38.2753   24.1422 H   0  0  0  0  0  0
  -27.0060  -17.8629   22.3464 H   0  0  0  0  0  0
  -27.1077  -18.1783   20.6242 H   0  0  0  0  0  0
  -27.6948  -15.9124   20.6662 H   0  0  0  0  0  0
  -28.5326  -16.0631   22.2118 H   0  0  0  0  0  0
  -28.5000  -20.9916   22.4744 H   0  0  0  0  0  0
  -27.3458  -20.5179   21.2505 H   0  0  0  0  0  0
  -28.7381  -19.5130   19.0290 H   0  0  0  0  0  0
  -30.4315  -19.8968   19.0531 H   0  0  0  0  0  0
  -29.2232  -18.7457   22.7177 H   0  0  0  0  0  0
  -30.8517  -18.4601   21.1014 H   0  0  0  0  0  0
  -29.6977  -22.9028   19.3064 H   0  0  0  0  0  0
  -28.0856  -22.3827   19.0418 H   0  0  0  0  0  0
  -28.6090  -24.1806   21.5446 H   0  0  0  0  0  0
  -27.1259  -24.0191   20.7176 H   0  0  0  0  0  0
  -30.0752  -21.3167   20.9568 H   0  0  0  0  0  0
  1 25  1  0  0  0
  1 30  2  0  0  0
  1 79  1  0  0  0
  2  3  1  0  0  0
  2 25  1  0  0  0
  2 81  1  0  0  0
  2 82  1  0  0  0
  3  4  1  0  0  0
  3 83  1  0  0  0
  3 84  1  0  0  0
  4  5  1  0  0  0
  4 85  1  0  0  0
  4 86  1  0  0  0
  5  6  1  0  0  0
  5 26  1  0  0  0
  5 87  1  0  0  0
  6 25  1  0  0  0
  6 88  1  0  0  0
  6 89  1  0  0  0
  7  8  2  0  0  0
  7 26  1  0  0  0
  7 29  1  0  0  0
  8  9  1  0  0  0
  8 22  1  0  0  0
  9 10  1  0  0  0
  9 27  2  0  0  0
 10 11  2  0  0  0
 10 15  1  0  0  0
 11 12  1  0  0  0
 11 90  1  0  0  0
 12 13  2  0  0  0
 12 91  1  0  0  0
 13 14  1  0  0  0
 13 31  1  0  0  0
 14 15  2  0  0  0
 14 92  1  0  0  0
 15 93  1  0  0  0
 16 17  2  0  0  0
 16 21  1  0  0  0
 16 31  1  0  0  0
 17 18  1  0  0  0
 17 94  1  0  0  0
 18 19  2  0  0  0
 18 95  1  0  0  0
 19 20  1  0  0  0
 19 24  1  0  0  0
 20 21  2  0  0  0
 20 96  1  0  0  0
 21 23  1  0  0  0
 22 28  1  0  0  0
 22 32  2  0  0  0
 26 27  1  0  0  0
 28 97  1  0  0  0
 28 98  1  0  0  0
 29 99  1  0  0  0
 29100  1  0  0  0
 33 34  1  0  0  0
 33 66  1  0  0  0
 33 70  2  0  0  0
 34 36  1  0  0  0
 34 59  1  0  0  0
 34101  1  0  0  0
 35 44  2  0  0  0
 35 45  1  0  0  0
 35 68  1  0  0  0
 36 56  1  0  0  0
 36102  1  0  0  0
 37 39  1  0  0  0
 37 47  1  0  0  0
 37 66  1  0  0  0
 37103  1  0  0  0
 38 43  2  0  0  0
 38 46  1  0  0  0
 38 47  1  0  0  0
 39 64  1  0  0  0
 39 67  2  0  0  0
 40 52  1  0  0  0
 40 53  2  0  0  0
 40 58  1  0  0  0
 41104  1  0  0  0
 41105  1  0  0  0
 41106  1  0  0  0
 41 48  1  0  0  0
 42 43  1  0  0  0
 42 66  1  0  0  0
 42107  1  0  0  0
 42108  1  0  0  0
 43 44  1  0  0  0
 44109  1  0  0  0
 45 46  2  0  0  0
 45110  1  0  0  0
 46111  1  0  0  0
 47112  1  0  0  0
 47113  1  0  0  0
 48 56  1  0  0  0
 48 65  1  0  0  0
 48114  1  0  0  0
 49 50  1  0  0  0
 49 53  1  0  0  0
 49 64  1  0  0  0
 49115  1  0  0  0
 50 51  1  0  0  0
 50116  1  0  0  0
 50117  1  0  0  0
 51 52  1  0  0  0
 51118  1  0  0  0
 51119  1  0  0  0
 52120  1  0  0  0
 52121  1  0  0  0
 53 54  1  0  0  0
 54 55  2  0  0  0
 54122  1  0  0  0
 55 57  1  0  0  0
 55123  1  0  0  0
 56 69  2  0  0  0
 57 58  2  0  0  0
 57124  1  0  0  0
 58125  1  0  0  0
 59 60  1  0  0  0
 59 61  1  0  0  0
 59 62  1  0  0  0
 60126  1  0  0  0
 60127  1  0  0  0
 60128  1  0  0  0
 61129  1  0  0  0
 61130  1  0  0  0
 61131  1  0  0  0
 62132  1  0  0  0
 62133  1  0  0  0
 62134  1  0  0  0
 63 65  1  0  0  0
 63135  1  0  0  0
 63136  1  0  0  0
 63137  1  0  0  0
 64138  1  0  0  0
 65139  1  0  0  0
 68 78  1  0  0  0
 71 72  1  0  0  0
 71140  1  0  0  0
 71141  1  0  0  0
 71 75  1  0  0  0
 72 79  1  0  0  0
 72142  1  0  0  0
 72143  1  0  0  0
 73 75  1  0  0  0
 73 80  1  0  0  0
 73144  1  0  0  0
 73145  1  0  0  0
 74 80  1  0  0  0
 74146  1  0  0  0
 74147  1  0  0  0
 74 76  1  0  0  0
 75 76  1  0  0  0
 75148  1  0  0  0
 76 79  1  0  0  0
 76149  1  0  0  0
 77 78  1  0  0  0
 77150  1  0  0  0
 77151  1  0  0  0
 77 80  1  0  0  0
 78152  1  0  0  0
 78153  1  0  0  0
 80154  1  0  0  0
M  CHG  1  80   1
M  ISO  4   1 100  68 101  78 101  79 100
M  END
> <chiral flag>
0

> <version>
0

> <s_m_source_file>
/data/baiqing/PycharmProjects/Reinvent-master-3.2/result/LINK_invent/BTK/process_docking_weight1_custom_product_contain_oxygen_bond_distance_aromatic_linkinvent_7_9_3/rearranged_h_0008.sdf

> <i_m_source_file_index>
73

> <r_mmod_Potential_Energy-OPLS-2005>
1669.5927734375

> <r_mmod_Stretch_Energy-OPLS-2005>
644.025756835938

> <r_mmod_Bend_Energy-OPLS-2005>
589.132934570312

> <r_mmod_Torsional_Energy-OPLS-2005>
399.910797119141

> <r_mmod_Improper_Torsional_Energy-OPLS-2005>
6.56316709518433

> <r_mmod_Van_der_Waal_Energy-OPLS-2005>
114.151435852051

> <r_mmod_Electrostatic_Energy-OPLS-2005>
-152.779052734375

> <r_mmod_Solvation_Energy-OPLS-2005>
-437.119201660156

> <b_mmod_Minimization_Converged-OPLS-2005>
0

> <r_mmod_RMS_Derivative-OPLS-2005>
0.961357414722443

$$$$
74
                    3D
 Structure written by MMmdl.
160169  0  0  1  0            999 V2000
  -30.5324  -15.0314   20.3906 C   0  0  0  0  0  0
  -30.4343  -12.6437   19.5030 C   0  0  0  0  0  0
  -29.5227  -12.5217   18.2610 C   0  0  0  0  0  0
  -28.0598  -12.2962   18.6869 C   0  0  0  0  0  0
  -27.6188  -13.2553   19.8245 C   0  0  2  0  0  0
  -28.6603  -13.3481   20.9575 C   0  0  0  0  0  0
  -25.2446  -13.8247   20.5744 C   0  0  0  0  0  0
  -24.1765  -13.0454   20.9228 C   0  0  0  0  0  0
  -24.6395  -11.6937   20.8743 C   0  0  0  0  0  0
  -23.9107  -10.4295   21.0398 C   0  0  0  0  0  0
  -24.3663   -9.4212   21.9174 C   0  0  0  0  0  0
  -23.6333   -8.2257   22.0748 C   0  0  0  0  0  0
  -22.4302   -8.0312   21.3553 C   0  0  0  0  0  0
  -21.9936   -9.0291   20.4657 C   0  0  0  0  0  0
  -22.7278  -10.2153   20.3053 C   0  0  0  0  0  0
  -21.6860   -6.0771   22.5287 C   0  0  0  0  0  0
  -21.4038   -6.5665   23.8234 C   0  0  0  0  0  0
  -21.3638   -5.6797   24.9180 C   0  0  0  0  0  0
  -21.6032   -4.3066   24.7213 C   0  0  0  0  0  0
  -21.8817   -3.8172   23.4327 C   0  0  0  0  0  0
  -21.9195   -4.6999   22.3390 C   0  0  0  0  0  0
  -22.7780  -13.5222   21.1850 C   0  0  0  0  0  0
  -22.1656   -4.2191   21.0966 F   0  0  0  0  0  0
  -21.5591   -3.4543   25.7715 F   0  0  0  0  0  0
  -29.9175  -13.7730   20.3325 N   0  0  0  0  0  0
  -26.2849  -12.9475   20.3217 N   0  0  0  0  0  0
  -25.9330  -11.6603   20.5734 N   0  0  0  0  0  0
  -22.0419  -12.8245   22.0418 N   0  0  0  0  0  0
  -25.4107  -15.1995   20.4232 N   0  0  0  0  0  0
  -31.7567  -15.0346   20.2203 O   0  0  0  0  0  0
  -21.6651   -6.8921   21.4260 O   0  0  0  0  0  0
  -22.3459  -14.5505   20.6664 O   0  0  0  0  0  0
  -24.6488  -31.8373   23.1816 C   0  0  0  0  0  0
  -25.9230  -32.4657   23.8234 C   0  0  1  0  0  0
  -27.2208  -27.0772   20.1775 C   0  0  0  0  0  0
  -25.5953  -33.8461   24.2149 N   0  0  0  0  0  0
  -23.4559  -30.4511   21.5288 C   0  0  2  0  0  0
  -24.9076  -28.8607   20.1187 C   0  0  0  0  0  0
  -22.7603  -29.4493   22.4851 C   0  0  0  0  0  0
  -18.0312  -28.1401   22.8474 C   0  0  0  0  0  0
  -24.1494  -36.7239   23.2644 C   0  0  0  0  0  0
  -26.0140  -30.6952   21.3871 C   0  0  0  0  0  0
  -26.0867  -29.2970   20.7365 C   0  0  0  0  0  0
  -27.2462  -28.4249   20.7389 C   0  0  0  0  0  0
  -26.0129  -26.7454   19.5318 C   0  0  0  0  0  0
  -24.8864  -27.6005   19.4988 C   0  0  0  0  0  0
  -23.6876  -29.7721   20.1519 C   0  0  0  0  0  0
  -25.4125  -36.2995   24.0309 C   0  0  1  0  0  0
  -20.5922  -28.3721   23.1239 C   0  0  2  0  0  0
  -20.6788  -26.9420   22.5412 C   0  0  0  0  0  0
  -19.5762  -26.6382   21.5217 C   0  0  0  0  0  0
  -18.1943  -26.7941   22.1622 C   0  0  0  0  0  0
  -19.1568  -28.8886   23.2844 C   0  0  0  0  0  0
  -18.9480  -30.1485   23.8867 C   0  0  0  0  0  0
  -17.6471  -30.6587   24.0562 C   0  0  0  0  0  0
  -25.9080  -34.9375   23.5039 C   0  0  0  0  0  0
  -16.5365  -29.9075   23.6337 C   0  0  0  0  0  0
  -16.7295  -28.6502   23.0348 C   0  0  0  0  0  0
  -26.4529  -31.6550   25.0705 C   0  0  0  0  0  0
  -25.3705  -31.3750   26.1397 C   0  0  0  0  0  0
  -27.0410  -30.2945   24.6324 C   0  0  0  0  0  0
  -27.6040  -32.4335   25.7500 C   0  0  0  0  0  0
  -27.5569  -37.1774   24.8460 C   0  0  0  0  0  0
  -21.4286  -29.3035   22.3611 N   0  0  0  0  0  0
  -26.4276  -37.3721   23.9405 N   0  0  0  0  0  0
  -24.7261  -31.0169   22.0881 N   0  0  0  0  0  0
  -23.4227  -28.8065   23.3033 O   0  0  0  0  0  0
  -28.2838  -26.0875   20.1573 O   0  0  0  0  0  0
  -26.5671  -34.8891   22.4620 O   0  0  0  0  0  0
  -23.5590  -32.1267   23.7009 O   0  0  0  0  0  0
  -30.6882  -19.6490   18.7301 C   0  0  0  0  0  0
  -31.3020  -19.1898   20.0597 C   0  0  0  0  0  0
  -28.5822  -18.1600   18.8117 C   0  0  0  0  0  0
  -29.4589  -16.8231   18.9529 C   0  0  0  0  0  0
  -29.7435  -17.4657   21.3109 C   0  0  0  0  0  0
  -29.1792  -19.6288   19.0084 C   0  0  1  0  0  0
  -30.0956  -19.0820   21.0147 C   0  0  2  0  0  0
  -28.5070  -23.0498   19.9821 C   0  0  0  0  0  0
  -29.1786  -21.6703   20.7662 C   0  0  0  0  0  0
  -28.1705  -24.5957   20.6744 C   0  0  0  0  0  0
  -29.7959  -16.2778   20.3054 N   0  0  0  0  0  0
  -29.0599  -20.0887   20.4174 N   0  3  1  0  0  0
  -31.4669  -12.8016   19.1879 H   0  0  0  0  0  0
  -30.4419  -11.7175   20.0792 H   0  0  0  0  0  0
  -29.8598  -11.7021   17.6244 H   0  0  0  0  0  0
  -29.5974  -13.4290   17.6579 H   0  0  0  0  0  0
  -27.9761  -11.2637   19.0298 H   0  0  0  0  0  0
  -27.3945  -12.3859   17.8278 H   0  0  0  0  0  0
  -27.5606  -14.2401   19.3629 H   0  0  0  0  0  0
  -28.7687  -12.3951   21.4793 H   0  0  0  0  0  0
  -28.3451  -14.0819   21.7021 H   0  0  0  0  0  0
  -25.2806   -9.5692   22.4757 H   0  0  0  0  0  0
  -24.0035   -7.4636   22.7465 H   0  0  0  0  0  0
  -21.0853   -8.8874   19.8967 H   0  0  0  0  0  0
  -22.3776  -10.9727   19.6174 H   0  0  0  0  0  0
  -21.2089   -7.6177   23.9776 H   0  0  0  0  0  0
  -21.1422   -6.0497   25.9082 H   0  0  0  0  0  0
  -22.0612   -2.7641   23.2810 H   0  0  0  0  0  0
  -22.4041  -11.9955   22.4886 H   0  0  0  0  0  0
  -21.1026  -13.1273   22.2581 H   0  0  0  0  0  0
  -24.6437  -15.8481   20.5604 H   0  0  0  0  0  0
  -26.2655  -15.6549   20.1268 H   0  0  0  0  0  0
  -26.7303  -32.5250   23.0964 H   0  0  0  0  0  0
  -25.0053  -33.9556   25.0268 H   0  0  0  0  0  0
  -22.7606  -31.2769   21.3665 H   0  0  0  0  0  0
  -23.3749  -35.9575   23.3281 H   0  0  0  0  0  0
  -24.3580  -36.8903   22.2064 H   0  0  0  0  0  0
  -23.7273  -37.6432   23.6714 H   0  0  0  0  0  0
  -26.1709  -31.4466   20.6116 H   0  0  0  0  0  0
  -26.8829  -30.7517   22.0309 H   0  0  0  0  0  0
  -28.1499  -28.7621   21.2257 H   0  0  0  0  0  0
  -25.9300  -25.7770   19.0590 H   0  0  0  0  0  0
  -23.9881  -27.2595   19.0027 H   0  0  0  0  0  0
  -23.8317  -30.5410   19.3916 H   0  0  0  0  0  0
  -22.8027  -29.2143   19.8406 H   0  0  0  0  0  0
  -25.1320  -36.1791   25.0802 H   0  0  0  0  0  0
  -20.9997  -28.3302   24.1367 H   0  0  0  0  0  0
  -20.5673  -26.2326   23.3630 H   0  0  0  0  0  0
  -21.6655  -26.7423   22.1215 H   0  0  0  0  0  0
  -19.6910  -25.6284   21.1265 H   0  0  0  0  0  0
  -19.6695  -27.3181   20.6738 H   0  0  0  0  0  0
  -17.4211  -26.6694   21.4023 H   0  0  0  0  0  0
  -18.0331  -26.0102   22.9035 H   0  0  0  0  0  0
  -19.7950  -30.7320   24.2217 H   0  0  0  0  0  0
  -17.5015  -31.6260   24.5169 H   0  0  0  0  0  0
  -15.5363  -30.2955   23.7686 H   0  0  0  0  0  0
  -15.8700  -28.0814   22.7064 H   0  0  0  0  0  0
  -24.5871  -30.7117   25.7718 H   0  0  0  0  0  0
  -24.8912  -32.2938   26.4784 H   0  0  0  0  0  0
  -25.7976  -30.8939   27.0206 H   0  0  0  0  0  0
  -26.3046  -29.6650   24.1319 H   0  0  0  0  0  0
  -27.3998  -29.7260   25.4915 H   0  0  0  0  0  0
  -27.8958  -30.4172   23.9672 H   0  0  0  0  0  0
  -27.2611  -33.3649   26.2015 H   0  0  0  0  0  0
  -28.3881  -32.6880   25.0358 H   0  0  0  0  0  0
  -28.0681  -31.8515   26.5469 H   0  0  0  0  0  0
  -28.2565  -38.0087   24.7499 H   0  0  0  0  0  0
  -28.1085  -36.2613   24.6285 H   0  0  0  0  0  0
  -27.2289  -37.1424   25.8863 H   0  0  0  0  0  0
  -20.9514  -29.8734   21.6767 H   0  0  0  0  0  0
  -26.0122  -38.2779   24.1407 H   0  0  0  0  0  0
  -30.9716  -19.0275   17.8802 H   0  0  0  0  0  0
  -31.0151  -20.6644   18.5021 H   0  0  0  0  0  0
  -32.0200  -19.9292   20.4174 H   0  0  0  0  0  0
  -31.8412  -18.2461   19.9667 H   0  0  0  0  0  0
  -27.6653  -18.0595   19.3924 H   0  0  0  0  0  0
  -28.2293  -18.1519   17.7788 H   0  0  0  0  0  0
  -30.3759  -16.9036   18.3674 H   0  0  0  0  0  0
  -28.8996  -16.0320   18.4518 H   0  0  0  0  0  0
  -28.7621  -17.4223   21.7866 H   0  0  0  0  0  0
  -30.4350  -17.1652   22.1008 H   0  0  0  0  0  0
  -28.6498  -20.3249   18.3561 H   0  0  0  0  0  0
  -30.3772  -19.4966   21.9841 H   0  0  0  0  0  0
  -27.5660  -22.7231   19.5397 H   0  0  0  0  0  0
  -29.1468  -23.2364   19.1203 H   0  0  0  0  0  0
  -28.8455  -21.7317   21.8022 H   0  0  0  0  0  0
  -30.2477  -21.8748   20.8298 H   0  0  0  0  0  0
  -28.8040  -24.6234   21.5616 H   0  0  0  0  0  0
  -27.1664  -24.5134   21.0917 H   0  0  0  0  0  0
  -28.1416  -19.8235   20.7435 H   0  0  0  0  0  0
  1 25  1  0  0  0
  1 30  2  0  0  0
  1 81  1  0  0  0
  2  3  1  0  0  0
  2 25  1  0  0  0
  2 83  1  0  0  0
  2 84  1  0  0  0
  3  4  1  0  0  0
  3 85  1  0  0  0
  3 86  1  0  0  0
  4  5  1  0  0  0
  4 87  1  0  0  0
  4 88  1  0  0  0
  5  6  1  0  0  0
  5 26  1  0  0  0
  5 89  1  0  0  0
  6 25  1  0  0  0
  6 90  1  0  0  0
  6 91  1  0  0  0
  7  8  2  0  0  0
  7 26  1  0  0  0
  7 29  1  0  0  0
  8  9  1  0  0  0
  8 22  1  0  0  0
  9 10  1  0  0  0
  9 27  2  0  0  0
 10 11  2  0  0  0
 10 15  1  0  0  0
 11 12  1  0  0  0
 11 92  1  0  0  0
 12 13  2  0  0  0
 12 93  1  0  0  0
 13 14  1  0  0  0
 13 31  1  0  0  0
 14 15  2  0  0  0
 14 94  1  0  0  0
 15 95  1  0  0  0
 16 17  2  0  0  0
 16 21  1  0  0  0
 16 31  1  0  0  0
 17 18  1  0  0  0
 17 96  1  0  0  0
 18 19  2  0  0  0
 18 97  1  0  0  0
 19 20  1  0  0  0
 19 24  1  0  0  0
 20 21  2  0  0  0
 20 98  1  0  0  0
 21 23  1  0  0  0
 22 28  1  0  0  0
 22 32  2  0  0  0
 26 27  1  0  0  0
 28 99  1  0  0  0
 28100  1  0  0  0
 29101  1  0  0  0
 29102  1  0  0  0
 33 34  1  0  0  0
 33 66  1  0  0  0
 33 70  2  0  0  0
 34 36  1  0  0  0
 34 59  1  0  0  0
 34103  1  0  0  0
 35 44  2  0  0  0
 35 45  1  0  0  0
 35 68  1  0  0  0
 36 56  1  0  0  0
 36104  1  0  0  0
 37 39  1  0  0  0
 37 47  1  0  0  0
 37 66  1  0  0  0
 37105  1  0  0  0
 38 43  2  0  0  0
 38 46  1  0  0  0
 38 47  1  0  0  0
 39 64  1  0  0  0
 39 67  2  0  0  0
 40 52  1  0  0  0
 40 53  2  0  0  0
 40 58  1  0  0  0
 41106  1  0  0  0
 41107  1  0  0  0
 41108  1  0  0  0
 41 48  1  0  0  0
 42 43  1  0  0  0
 42 66  1  0  0  0
 42109  1  0  0  0
 42110  1  0  0  0
 43 44  1  0  0  0
 44111  1  0  0  0
 45 46  2  0  0  0
 45112  1  0  0  0
 46113  1  0  0  0
 47114  1  0  0  0
 47115  1  0  0  0
 48 56  1  0  0  0
 48 65  1  0  0  0
 48116  1  0  0  0
 49 50  1  0  0  0
 49 53  1  0  0  0
 49 64  1  0  0  0
 49117  1  0  0  0
 50 51  1  0  0  0
 50118  1  0  0  0
 50119  1  0  0  0
 51 52  1  0  0  0
 51120  1  0  0  0
 51121  1  0  0  0
 52122  1  0  0  0
 52123  1  0  0  0
 53 54  1  0  0  0
 54 55  2  0  0  0
 54124  1  0  0  0
 55 57  1  0  0  0
 55125  1  0  0  0
 56 69  2  0  0  0
 57 58  2  0  0  0
 57126  1  0  0  0
 58127  1  0  0  0
 59 60  1  0  0  0
 59 61  1  0  0  0
 59 62  1  0  0  0
 60128  1  0  0  0
 60129  1  0  0  0
 60130  1  0  0  0
 61131  1  0  0  0
 61132  1  0  0  0
 61133  1  0  0  0
 62134  1  0  0  0
 62135  1  0  0  0
 62136  1  0  0  0
 63 65  1  0  0  0
 63137  1  0  0  0
 63138  1  0  0  0
 63139  1  0  0  0
 64140  1  0  0  0
 65141  1  0  0  0
 68 80  1  0  0  0
 71 72  1  0  0  0
 71142  1  0  0  0
 71143  1  0  0  0
 71 76  1  0  0  0
 72144  1  0  0  0
 72145  1  0  0  0
 72 77  1  0  0  0
 73 74  1  0  0  0
 73 76  1  0  0  0
 73146  1  0  0  0
 73147  1  0  0  0
 74 81  1  0  0  0
 74148  1  0  0  0
 74149  1  0  0  0
 75 77  1  0  0  0
 75 81  1  0  0  0
 75150  1  0  0  0
 75151  1  0  0  0
 76 82  1  0  0  0
 76152  1  0  0  0
 77 82  1  0  0  0
 77153  1  0  0  0
 78 79  1  0  0  0
 78 80  1  0  0  0
 78154  1  0  0  0
 78155  1  0  0  0
 79156  1  0  0  0
 79157  1  0  0  0
 79 82  1  0  0  0
 80158  1  0  0  0
 80159  1  0  0  0
 82160  1  0  0  0
M  CHG  1  82   1
M  ISO  4   1 100  68 101  80 101  81 100
M  END
> <chiral flag>
0

> <version>
0

> <s_m_source_file>
/data/baiqing/PycharmProjects/Reinvent-master-3.2/result/LINK_invent/BTK/process_docking_weight1_custom_product_contain_oxygen_bond_distance_aromatic_linkinvent_7_9_3/rearranged_h_0008.sdf

> <i_m_source_file_index>
74

> <r_mmod_Potential_Energy-OPLS-2005>
982.984069824219

> <r_mmod_Stretch_Energy-OPLS-2005>
330.665924072266

> <r_mmod_Bend_Energy-OPLS-2005>
396.990051269531

> <r_mmod_Torsional_Energy-OPLS-2005>
494.171936035156

> <r_mmod_Improper_Torsional_Energy-OPLS-2005>
9.80866050720215

> <r_mmod_Van_der_Waal_Energy-OPLS-2005>
109.370323181152

> <r_mmod_Electrostatic_Energy-OPLS-2005>
-173.737564086914

> <r_mmod_Solvation_Energy-OPLS-2005>
-433.660736083984

> <b_mmod_Minimization_Converged-OPLS-2005>
0

> <r_mmod_RMS_Derivative-OPLS-2005>
2.80865836143494

$$$$
75
                    3D
 Structure written by MMmdl.
137144  0  0  1  0            999 V2000
  -29.9622  -16.5635   20.2664 C   0  0  0  0  0  0
  -30.3146  -13.7964   19.5233 C   0  0  0  0  0  0
  -29.5702  -12.9451   18.4142 C   0  0  0  0  0  0
  -28.2376  -12.3814   18.9086 C   0  0  0  0  0  0
  -27.5746  -13.4257   19.8177 C   0  0  2  0  0  0
  -28.5152  -14.1357   20.8613 C   0  0  0  0  0  0
  -25.2174  -13.8479   20.5951 C   0  0  0  0  0  0
  -24.1675  -13.0467   20.9341 C   0  0  0  0  0  0
  -24.6541  -11.7031   20.8745 C   0  0  0  0  0  0
  -23.9255  -10.4321   21.0342 C   0  0  0  0  0  0
  -24.3739   -9.4228   21.9149 C   0  0  0  0  0  0
  -23.6364   -8.2283   22.0747 C   0  0  0  0  0  0
  -22.4340   -8.0323   21.3544 C   0  0  0  0  0  0
  -22.0014   -9.0304   20.4634 C   0  0  0  0  0  0
  -22.7395  -10.2158   20.3018 C   0  0  0  0  0  0
  -21.6878   -6.0765   22.5277 C   0  0  0  0  0  0
  -21.4033   -6.5657   23.8214 C   0  0  0  0  0  0
  -21.3665   -5.6802   24.9171 C   0  0  0  0  0  0
  -21.6043   -4.3064   24.7217 C   0  0  0  0  0  0
  -21.8816   -3.8163   23.4335 C   0  0  0  0  0  0
  -21.9200   -4.6987   22.3396 C   0  0  0  0  0  0
  -22.7650  -13.5092   21.1938 C   0  0  0  0  0  0
  -22.1663   -4.2170   21.0973 F   0  0  0  0  0  0
  -21.5624   -3.4543   25.7727 F   0  0  0  0  0  0
  -29.5188  -15.0444   20.1465 N   0  0  0  0  0  0
  -26.2805  -13.0063   20.3476 N   0  0  0  0  0  0
  -25.9548  -11.6990   20.5678 N   0  0  0  0  0  0
  -22.0351  -12.8040   22.0489 N   0  0  0  0  0  0
  -25.3555  -15.2242   20.4383 N   0  0  0  0  0  0
  -31.2063  -16.3142   20.2293 O   0  0  0  0  0  0
  -21.6677   -6.8928   21.4248 O   0  0  0  0  0  0
  -22.3283  -14.5375   20.6771 O   0  0  0  0  0  0
  -24.7449  -31.7216   23.0979 C   0  0  0  0  0  0
  -25.9712  -32.4091   23.7768 C   0  0  1  0  0  0
  -27.2626  -26.0606   20.2671 C   0  0  0  0  0  0
  -25.6018  -33.7953   24.1581 N   0  0  0  0  0  0
  -23.5996  -30.2922   21.4680 C   0  0  2  0  0  0
  -25.0624  -28.4936   20.1392 C   0  0  0  0  0  0
  -22.8035  -29.3895   22.4550 C   0  0  0  0  0  0
  -18.0376  -28.1454   22.8421 C   0  0  0  0  0  0
  -24.1496  -36.6992   23.2671 C   0  0  0  0  0  0
  -26.1999  -30.2411   21.4589 C   0  0  0  0  0  0
  -26.2597  -28.7329   20.8212 C   0  0  0  0  0  0
  -27.3097  -27.5690   20.8335 C   0  0  0  0  0  0
  -26.0272  -26.1946   19.5192 C   0  0  0  0  0  0
  -25.0234  -27.2541   19.4619 C   0  0  0  0  0  0
  -23.8874  -29.5253   20.1333 C   0  0  0  0  0  0
  -25.4170  -36.2677   24.0236 C   0  0  1  0  0  0
  -20.6038  -28.3836   23.1031 C   0  0  2  0  0  0
  -20.6806  -26.9436   22.5420 C   0  0  0  0  0  0
  -19.5796  -26.6348   21.5224 C   0  0  0  0  0  0
  -18.1977  -26.7969   22.1607 C   0  0  0  0  0  0
  -19.1657  -28.8984   23.2686 C   0  0  0  0  0  0
  -18.9553  -30.1552   23.8759 C   0  0  0  0  0  0
  -17.6536  -30.6619   24.0537 C   0  0  0  0  0  0
  -25.9187  -34.9084   23.4798 C   0  0  0  0  0  0
  -16.5422  -29.9090   23.6366 C   0  0  0  0  0  0
  -16.7352  -28.6518   23.0376 C   0  0  0  0  0  0
  -26.4693  -31.6408   25.0652 C   0  0  0  0  0  0
  -25.3596  -31.3898   26.1149 C   0  0  0  0  0  0
  -27.0730  -30.2690   24.7003 C   0  0  0  0  0  0
  -27.6017  -32.4426   25.7501 C   0  0  0  0  0  0
  -27.5543  -37.1648   24.8466 C   0  0  0  0  0  0
  -21.4628  -29.2949   22.3282 N   0  0  0  0  0  0
  -26.4242  -37.3509   23.9408 N   0  0  0  0  0  0
  -24.8802  -30.8007   22.0600 N   0  0  0  0  0  0
  -23.4175  -28.7613   23.3197 O   0  0  0  0  0  0
  -28.1668  -24.5661   20.3212 O   0  0  0  0  0  0
  -26.5925  -34.8791   22.4483 O   0  0  0  0  0  0
  -23.6336  -32.0588   23.5524 O   0  0  0  0  0  0
  -29.2006  -20.3375   20.3201 C   0  0  0  0  0  0
  -28.2004  -22.4649   20.2188 C   0  0  0  0  0  0
  -29.3170  -18.2279   20.2702 N   0  0  0  0  0  0
  -31.2155  -14.1817   19.0448 H   0  0  0  0  0  0
  -30.7050  -13.1434   20.3066 H   0  0  0  0  0  0
  -30.2109  -12.1390   18.0541 H   0  0  0  0  0  0
  -29.3823  -13.5901   17.5547 H   0  0  0  0  0  0
  -28.4305  -11.4738   19.4819 H   0  0  0  0  0  0
  -27.5913  -12.1016   18.0755 H   0  0  0  0  0  0
  -27.3204  -14.2160   19.1091 H   0  0  0  0  0  0
  -28.9720  -13.4238   21.5512 H   0  0  0  0  0  0
  -27.9168  -14.7884   21.4973 H   0  0  0  0  0  0
  -25.2871   -9.5690   22.4748 H   0  0  0  0  0  0
  -24.0047   -7.4683   22.7489 H   0  0  0  0  0  0
  -21.0938   -8.8851   19.8945 H   0  0  0  0  0  0
  -22.3854  -10.9697   19.6127 H   0  0  0  0  0  0
  -21.2035   -7.6165   23.9725 H   0  0  0  0  0  0
  -21.1486   -6.0529   25.9075 H   0  0  0  0  0  0
  -22.0587   -2.7625   23.2829 H   0  0  0  0  0  0
  -22.4039  -11.9742   22.4895 H   0  0  0  0  0  0
  -21.0937  -13.0980   22.2674 H   0  0  0  0  0  0
  -24.5768  -15.8638   20.5540 H   0  0  0  0  0  0
  -26.2060  -15.6839   20.1380 H   0  0  0  0  0  0
  -26.7876  -32.4443   23.0543 H   0  0  0  0  0  0
  -24.9961  -33.8879   24.9601 H   0  0  0  0  0  0
  -22.9629  -31.1444   21.2211 H   0  0  0  0  0  0
  -23.3792  -35.9283   23.3224 H   0  0  0  0  0  0
  -24.3542  -36.8804   22.2107 H   0  0  0  0  0  0
  -23.7229  -37.6104   23.6874 H   0  0  0  0  0  0
  -26.4659  -30.9211   20.6487 H   0  0  0  0  0  0
  -27.0298  -30.3291   22.1459 H   0  0  0  0  0  0
  -28.1985  -27.7908   21.4071 H   0  0  0  0  0  0
  -25.7596  -25.3099   18.9588 H   0  0  0  0  0  0
  -24.1415  -27.0455   18.8719 H   0  0  0  0  0  0
  -24.1127  -30.2559   19.3556 H   0  0  0  0  0  0
  -22.9802  -29.0216   19.7958 H   0  0  0  0  0  0
  -25.1411  -36.1346   25.0723 H   0  0  0  0  0  0
  -21.0093  -28.3507   24.1170 H   0  0  0  0  0  0
  -20.5606  -26.2478   23.3738 H   0  0  0  0  0  0
  -21.6663  -26.7276   22.1281 H   0  0  0  0  0  0
  -19.6940  -25.6222   21.1342 H   0  0  0  0  0  0
  -19.6763  -27.3084   20.6699 H   0  0  0  0  0  0
  -17.4253  -26.6718   21.4002 H   0  0  0  0  0  0
  -18.0338  -26.0144   22.9029 H   0  0  0  0  0  0
  -19.8031  -30.7398   24.2071 H   0  0  0  0  0  0
  -17.5087  -31.6284   24.5168 H   0  0  0  0  0  0
  -15.5417  -30.2952   23.7771 H   0  0  0  0  0  0
  -15.8752  -28.0794   22.7169 H   0  0  0  0  0  0
  -24.5845  -30.7190   25.7424 H   0  0  0  0  0  0
  -24.8725  -32.3171   26.4173 H   0  0  0  0  0  0
  -25.7627  -30.9316   27.0189 H   0  0  0  0  0  0
  -26.3552  -29.6093   24.2123 H   0  0  0  0  0  0
  -27.4038  -29.7408   25.5956 H   0  0  0  0  0  0
  -27.9570  -30.3690   24.0706 H   0  0  0  0  0  0
  -27.2476  -33.3875   26.1635 H   0  0  0  0  0  0
  -28.4042  -32.6752   25.0488 H   0  0  0  0  0  0
  -28.0450  -31.8868   26.5774 H   0  0  0  0  0  0
  -28.2488  -38.0006   24.7515 H   0  0  0  0  0  0
  -28.1107  -36.2518   24.6291 H   0  0  0  0  0  0
  -27.2256  -37.1265   25.8866 H   0  0  0  0  0  0
  -21.0089  -29.8498   21.6159 H   0  0  0  0  0  0
  -26.0011  -38.2526   24.1435 H   0  0  0  0  0  0
  -30.0015  -20.5173   19.6027 H   0  0  0  0  0  0
  -29.6902  -20.4553   21.2869 H   0  0  0  0  0  0
  -27.7199  -22.3753   19.2446 H   0  0  0  0  0  0
  -27.3860  -22.2933   20.9225 H   0  0  0  0  0  0
  -30.3181  -18.3884   20.2986 H   0  0  0  0  0  0
  1 25  1  0  0  0
  1 30  2  0  0  0
  1 73  1  0  0  0
  2  3  1  0  0  0
  2 25  1  0  0  0
  2 74  1  0  0  0
  2 75  1  0  0  0
  3  4  1  0  0  0
  3 76  1  0  0  0
  3 77  1  0  0  0
  4  5  1  0  0  0
  4 78  1  0  0  0
  4 79  1  0  0  0
  5  6  1  0  0  0
  5 26  1  0  0  0
  5 80  1  0  0  0
  6 25  1  0  0  0
  6 81  1  0  0  0
  6 82  1  0  0  0
  7  8  2  0  0  0
  7 26  1  0  0  0
  7 29  1  0  0  0
  8  9  1  0  0  0
  8 22  1  0  0  0
  9 10  1  0  0  0
  9 27  2  0  0  0
 10 11  2  0  0  0
 10 15  1  0  0  0
 11 12  1  0  0  0
 11 83  1  0  0  0
 12 13  2  0  0  0
 12 84  1  0  0  0
 13 14  1  0  0  0
 13 31  1  0  0  0
 14 15  2  0  0  0
 14 85  1  0  0  0
 15 86  1  0  0  0
 16 17  2  0  0  0
 16 21  1  0  0  0
 16 31  1  0  0  0
 17 18  1  0  0  0
 17 87  1  0  0  0
 18 19  2  0  0  0
 18 88  1  0  0  0
 19 20  1  0  0  0
 19 24  1  0  0  0
 20 21  2  0  0  0
 20 89  1  0  0  0
 21 23  1  0  0  0
 22 28  1  0  0  0
 22 32  2  0  0  0
 26 27  1  0  0  0
 28 90  1  0  0  0
 28 91  1  0  0  0
 29 92  1  0  0  0
 29 93  1  0  0  0
 33 34  1  0  0  0
 33 66  1  0  0  0
 33 70  2  0  0  0
 34 36  1  0  0  0
 34 59  1  0  0  0
 34 94  1  0  0  0
 35 44  2  0  0  0
 35 45  1  0  0  0
 35 68  1  0  0  0
 36 56  1  0  0  0
 36 95  1  0  0  0
 37 39  1  0  0  0
 37 47  1  0  0  0
 37 66  1  0  0  0
 37 96  1  0  0  0
 38 43  2  0  0  0
 38 46  1  0  0  0
 38 47  1  0  0  0
 39 64  1  0  0  0
 39 67  2  0  0  0
 40 52  1  0  0  0
 40 53  2  0  0  0
 40 58  1  0  0  0
 41 97  1  0  0  0
 41 98  1  0  0  0
 41 99  1  0  0  0
 41 48  1  0  0  0
 42 43  1  0  0  0
 42 66  1  0  0  0
 42100  1  0  0  0
 42101  1  0  0  0
 43 44  1  0  0  0
 44102  1  0  0  0
 45 46  2  0  0  0
 45103  1  0  0  0
 46104  1  0  0  0
 47105  1  0  0  0
 47106  1  0  0  0
 48 56  1  0  0  0
 48 65  1  0  0  0
 48107  1  0  0  0
 49 50  1  0  0  0
 49 53  1  0  0  0
 49 64  1  0  0  0
 49108  1  0  0  0
 50 51  1  0  0  0
 50109  1  0  0  0
 50110  1  0  0  0
 51 52  1  0  0  0
 51111  1  0  0  0
 51112  1  0  0  0
 52113  1  0  0  0
 52114  1  0  0  0
 53 54  1  0  0  0
 54 55  2  0  0  0
 54115  1  0  0  0
 55 57  1  0  0  0
 55116  1  0  0  0
 56 69  2  0  0  0
 57 58  2  0  0  0
 57117  1  0  0  0
 58118  1  0  0  0
 59 60  1  0  0  0
 59 61  1  0  0  0
 59 62  1  0  0  0
 60119  1  0  0  0
 60120  1  0  0  0
 60121  1  0  0  0
 61122  1  0  0  0
 61123  1  0  0  0
 61124  1  0  0  0
 62125  1  0  0  0
 62126  1  0  0  0
 62127  1  0  0  0
 63 65  1  0  0  0
 63128  1  0  0  0
 63129  1  0  0  0
 63130  1  0  0  0
 64131  1  0  0  0
 65132  1  0  0  0
 68 72  1  0  0  0
 71 72  1  0  0  0
 71 73  1  0  0  0
 71133  1  0  0  0
 71134  1  0  0  0
 72135  1  0  0  0
 72136  1  0  0  0
 73137  1  0  0  0
M  ISO  4   1 100  68 101  72 101  73 100
M  END
> <chiral flag>
0

> <version>
0

> <s_m_source_file>
/data/baiqing/PycharmProjects/Reinvent-master-3.2/result/LINK_invent/BTK/process_docking_weight1_custom_product_contain_oxygen_bond_distance_aromatic_linkinvent_7_9_3/rearranged_h_0008.sdf

> <i_m_source_file_index>
75

> <r_mmod_Potential_Energy-OPLS-2005>
6948.9697265625

> <r_mmod_Stretch_Energy-OPLS-2005>
3136.46411132812

> <r_mmod_Bend_Energy-OPLS-2005>
1268.50207519531

> <r_mmod_Torsional_Energy-OPLS-2005>
217.324829101562

> <r_mmod_Improper_Torsional_Energy-OPLS-2005>
4.82364273071289

> <r_mmod_Van_der_Waal_Energy-OPLS-2005>
120.95548248291

> <r_mmod_Electrostatic_Energy-OPLS-2005>
-391.247985839844

> <r_mmod_Solvation_Energy-OPLS-2005>
-221.174652099609

> <b_mmod_Minimization_Converged-OPLS-2005>
1

> <r_mmod_RMS_Derivative-OPLS-2005>
0.042349461466074

$$$$
76
                    3D
 Structure written by MMmdl.
141149  0  0  1  0            999 V2000
  -29.8900  -16.7395   20.2733 C   0  0  0  0  0  0
  -30.2906  -13.9280   19.5319 C   0  0  0  0  0  0
  -29.5764  -13.0154   18.4410 C   0  0  0  0  0  0
  -28.2629  -12.4154   18.9408 C   0  0  0  0  0  0
  -27.5742  -13.4594   19.8280 C   0  0  2  0  0  0
  -28.4996  -14.2251   20.8577 C   0  0  0  0  0  0
  -25.2140  -13.8558   20.6052 C   0  0  0  0  0  0
  -24.1663  -13.0503   20.9398 C   0  0  0  0  0  0
  -24.6568  -11.7074   20.8763 C   0  0  0  0  0  0
  -23.9285  -10.4343   21.0344 C   0  0  0  0  0  0
  -24.3754   -9.4240   21.9150 C   0  0  0  0  0  0
  -23.6376   -8.2293   22.0741 C   0  0  0  0  0  0
  -22.4345   -8.0333   21.3546 C   0  0  0  0  0  0
  -22.0028   -9.0324   20.4637 C   0  0  0  0  0  0
  -22.7417  -10.2175   20.3025 C   0  0  0  0  0  0
  -21.6885   -6.0762   22.5273 C   0  0  0  0  0  0
  -21.4034   -6.5650   23.8211 C   0  0  0  0  0  0
  -21.3675   -5.6795   24.9171 C   0  0  0  0  0  0
  -21.6054   -4.3057   24.7218 C   0  0  0  0  0  0
  -21.8815   -3.8158   23.4337 C   0  0  0  0  0  0
  -21.9197   -4.6983   22.3396 C   0  0  0  0  0  0
  -22.7615  -13.5085   21.1992 C   0  0  0  0  0  0
  -22.1657   -4.2162   21.0976 F   0  0  0  0  0  0
  -21.5631   -3.4539   25.7730 F   0  0  0  0  0  0
  -29.4687  -15.1869   20.1382 N   0  0  0  0  0  0
  -26.2828  -13.0217   20.3579 N   0  0  0  0  0  0
  -25.9589  -11.7104   20.5689 N   0  0  0  0  0  0
  -22.0306  -12.8014   22.0525 N   0  0  0  0  0  0
  -25.3491  -15.2339   20.4531 N   0  0  0  0  0  0
  -31.1364  -16.4523   20.2604 O   0  0  0  0  0  0
  -21.6678   -6.8935   21.4252 O   0  0  0  0  0  0
  -22.3240  -14.5372   20.6831 O   0  0  0  0  0  0
  -24.7558  -31.7082   23.0874 C   0  0  0  0  0  0
  -25.9753  -32.4030   23.7742 C   0  0  1  0  0  0
  -27.2666  -25.9356   20.2881 C   0  0  0  0  0  0
  -25.6020  -33.7896   24.1541 N   0  0  0  0  0  0
  -23.6157  -30.2713   21.4620 C   0  0  2  0  0  0
  -25.0771  -28.4421   20.1483 C   0  0  0  0  0  0
  -22.8074  -29.3844   22.4540 C   0  0  0  0  0  0
  -18.0385  -28.1451   22.8452 C   0  0  0  0  0  0
  -24.1480  -36.6948   23.2648 C   0  0  0  0  0  0
  -26.2179  -30.1842   21.4670 C   0  0  0  0  0  0
  -26.2760  -28.6608   20.8346 C   0  0  0  0  0  0
  -27.3177  -27.4687   20.8434 C   0  0  0  0  0  0
  -26.0297  -26.1208   19.5378 C   0  0  0  0  0  0
  -25.0387  -27.2011   19.4716 C   0  0  0  0  0  0
  -23.9092  -29.4900   20.1345 C   0  0  0  0  0  0
  -25.4128  -36.2630   24.0251 C   0  0  1  0  0  0
  -20.6057  -28.3850   23.0999 C   0  0  2  0  0  0
  -20.6826  -26.9461   22.5363 C   0  0  0  0  0  0
  -19.5770  -26.6349   21.5224 C   0  0  0  0  0  0
  -18.1984  -26.7946   22.1683 C   0  0  0  0  0  0
  -19.1673  -28.8999   23.2671 C   0  0  0  0  0  0
  -18.9570  -30.1575   23.8730 C   0  0  0  0  0  0
  -17.6546  -30.6633   24.0531 C   0  0  0  0  0  0
  -25.9201  -34.9056   23.4799 C   0  0  0  0  0  0
  -16.5432  -29.9098   23.6373 C   0  0  0  0  0  0
  -16.7361  -28.6516   23.0404 C   0  0  0  0  0  0
  -26.4697  -31.6385   25.0666 C   0  0  0  0  0  0
  -25.3614  -31.3872   26.1190 C   0  0  0  0  0  0
  -27.0779  -30.2677   24.7070 C   0  0  0  0  0  0
  -27.5986  -32.4460   25.7500 C   0  0  0  0  0  0
  -27.5598  -37.1506   24.8380 C   0  0  0  0  0  0
  -21.4667  -29.2954   22.3249 N   0  0  0  0  0  0
  -26.4124  -37.3549   23.9588 N   0  0  0  0  0  0
  -24.8976  -30.7732   22.0578 N   0  0  0  0  0  0
  -23.4150  -28.7609   23.3264 O   0  0  0  0  0  0
  -28.1793  -24.4010   20.2828 O   0  0  0  0  0  0
  -26.5967  -34.8802   22.4502 O   0  0  0  0  0  0
  -23.6413  -32.0531   23.5308 O   0  0  0  0  0  0
  -27.5275  -20.9040   19.7711 C   0  0  0  0  0  0
  -27.8392  -19.1803   20.1111 C   0  0  0  0  0  0
  -29.4781  -20.3938   20.3904 C   0  0  0  0  0  0
  -28.3460  -22.2357   20.4015 C   0  0  1  0  0  0
  -29.2436  -18.4566   20.2759 N   0  0  0  0  0  0
  -31.1788  -14.3286   19.0427 H   0  0  0  0  0  0
  -30.7125  -13.3067   20.3256 H   0  0  0  0  0  0
  -30.2468  -12.2241   18.1035 H   0  0  0  0  0  0
  -29.3695  -13.6345   17.5672 H   0  0  0  0  0  0
  -28.4814  -11.5281   19.5373 H   0  0  0  0  0  0
  -27.6268  -12.0999   18.1135 H   0  0  0  0  0  0
  -27.3034  -14.2272   19.1012 H   0  0  0  0  0  0
  -28.9851  -13.5397   21.5552 H   0  0  0  0  0  0
  -27.8813  -14.8534   21.4980 H   0  0  0  0  0  0
  -25.2890   -9.5681   22.4746 H   0  0  0  0  0  0
  -24.0062   -7.4677   22.7464 H   0  0  0  0  0  0
  -21.0957   -8.8875   19.8943 H   0  0  0  0  0  0
  -22.3889  -10.9712   19.6124 H   0  0  0  0  0  0
  -21.2031   -7.6156   23.9724 H   0  0  0  0  0  0
  -21.1502   -6.0520   25.9079 H   0  0  0  0  0  0
  -22.0579   -2.7615   23.2834 H   0  0  0  0  0  0
  -22.3963  -11.9704   22.4934 H   0  0  0  0  0  0
  -21.0888  -13.0939   22.2708 H   0  0  0  0  0  0
  -24.5769  -15.8756   20.5970 H   0  0  0  0  0  0
  -26.2033  -15.6963   20.1712 H   0  0  0  0  0  0
  -26.7943  -32.4378   23.0544 H   0  0  0  0  0  0
  -24.9955  -33.8820   24.9553 H   0  0  0  0  0  0
  -22.9879  -31.1267   21.2038 H   0  0  0  0  0  0
  -23.3953  -35.9044   23.2740 H   0  0  0  0  0  0
  -24.3660  -36.9237   22.2207 H   0  0  0  0  0  0
  -23.6925  -37.5776   23.7140 H   0  0  0  0  0  0
  -26.4959  -30.8559   20.6543 H   0  0  0  0  0  0
  -27.0444  -30.2719   22.1567 H   0  0  0  0  0  0
  -28.2143  -27.6918   21.4053 H   0  0  0  0  0  0
  -25.7488  -25.2504   18.9621 H   0  0  0  0  0  0
  -24.1629  -27.0036   18.8678 H   0  0  0  0  0  0
  -24.1460  -30.2159   19.3563 H   0  0  0  0  0  0
  -22.9996  -28.9947   19.7917 H   0  0  0  0  0  0
  -25.1297  -36.1214   25.0707 H   0  0  0  0  0  0
  -21.0108  -28.3519   24.1142 H   0  0  0  0  0  0
  -20.5710  -26.2491   23.3678 H   0  0  0  0  0  0
  -21.6660  -26.7343   22.1154 H   0  0  0  0  0  0
  -19.6913  -25.6223   21.1343 H   0  0  0  0  0  0
  -19.6671  -27.3090   20.6693 H   0  0  0  0  0  0
  -17.4207  -26.6625   21.4145 H   0  0  0  0  0  0
  -18.0442  -26.0153   22.9161 H   0  0  0  0  0  0
  -19.8050  -30.7436   24.2016 H   0  0  0  0  0  0
  -17.5105  -31.6311   24.5141 H   0  0  0  0  0  0
  -15.5431  -30.2953   23.7782 H   0  0  0  0  0  0
  -15.8769  -28.0774   22.7217 H   0  0  0  0  0  0
  -24.5449  -30.7800   25.7272 H   0  0  0  0  0  0
  -24.9322  -32.3207   26.4837 H   0  0  0  0  0  0
  -25.7537  -30.8579   26.9885 H   0  0  0  0  0  0
  -26.3620  -29.6018   24.2253 H   0  0  0  0  0  0
  -27.4129  -29.7453   25.6044 H   0  0  0  0  0  0
  -27.9619  -30.3693   24.0778 H   0  0  0  0  0  0
  -27.2310  -33.3729   26.1921 H   0  0  0  0  0  0
  -28.3809  -32.7146   25.0388 H   0  0  0  0  0  0
  -28.0703  -31.8820   26.5557 H   0  0  0  0  0  0
  -28.2033  -38.0313   24.8207 H   0  0  0  0  0  0
  -28.1649  -36.2985   24.5242 H   0  0  0  0  0  0
  -27.2497  -36.9887   25.8719 H   0  0  0  0  0  0
  -21.0147  -29.8477   21.6093 H   0  0  0  0  0  0
  -25.9845  -38.2432   24.2049 H   0  0  0  0  0  0
  -26.4698  -21.0714   19.9795 H   0  0  0  0  0  0
  -27.5871  -21.0087   18.6862 H   0  0  0  0  0  0
  -27.2992  -18.6047   19.3588 H   0  0  0  0  0  0
  -27.3111  -18.9508   21.0389 H   0  0  0  0  0  0
  -30.1315  -20.4911   21.2596 H   0  0  0  0  0  0
  -30.1717  -20.5543   19.5626 H   0  0  0  0  0  0
  -28.0327  -22.2325   21.4462 H   0  0  0  0  0  0
  1 25  1  0  0  0
  1 30  2  0  0  0
  1 75  1  0  0  0
  2  3  1  0  0  0
  2 25  1  0  0  0
  2 76  1  0  0  0
  2 77  1  0  0  0
  3  4  1  0  0  0
  3 78  1  0  0  0
  3 79  1  0  0  0
  4  5  1  0  0  0
  4 80  1  0  0  0
  4 81  1  0  0  0
  5  6  1  0  0  0
  5 26  1  0  0  0
  5 82  1  0  0  0
  6 25  1  0  0  0
  6 83  1  0  0  0
  6 84  1  0  0  0
  7  8  2  0  0  0
  7 26  1  0  0  0
  7 29  1  0  0  0
  8  9  1  0  0  0
  8 22  1  0  0  0
  9 10  1  0  0  0
  9 27  2  0  0  0
 10 11  2  0  0  0
 10 15  1  0  0  0
 11 12  1  0  0  0
 11 85  1  0  0  0
 12 13  2  0  0  0
 12 86  1  0  0  0
 13 14  1  0  0  0
 13 31  1  0  0  0
 14 15  2  0  0  0
 14 87  1  0  0  0
 15 88  1  0  0  0
 16 17  2  0  0  0
 16 21  1  0  0  0
 16 31  1  0  0  0
 17 18  1  0  0  0
 17 89  1  0  0  0
 18 19  2  0  0  0
 18 90  1  0  0  0
 19 20  1  0  0  0
 19 24  1  0  0  0
 20 21  2  0  0  0
 20 91  1  0  0  0
 21 23  1  0  0  0
 22 28  1  0  0  0
 22 32  2  0  0  0
 26 27  1  0  0  0
 28 92  1  0  0  0
 28 93  1  0  0  0
 29 94  1  0  0  0
 29 95  1  0  0  0
 33 34  1  0  0  0
 33 66  1  0  0  0
 33 70  2  0  0  0
 34 36  1  0  0  0
 34 59  1  0  0  0
 34 96  1  0  0  0
 35 44  2  0  0  0
 35 45  1  0  0  0
 35 68  1  0  0  0
 36 56  1  0  0  0
 36 97  1  0  0  0
 37 39  1  0  0  0
 37 47  1  0  0  0
 37 66  1  0  0  0
 37 98  1  0  0  0
 38 43  2  0  0  0
 38 46  1  0  0  0
 38 47  1  0  0  0
 39 64  1  0  0  0
 39 67  2  0  0  0
 40 52  1  0  0  0
 40 53  2  0  0  0
 40 58  1  0  0  0
 41 99  1  0  0  0
 41100  1  0  0  0
 41101  1  0  0  0
 41 48  1  0  0  0
 42 43  1  0  0  0
 42 66  1  0  0  0
 42102  1  0  0  0
 42103  1  0  0  0
 43 44  1  0  0  0
 44104  1  0  0  0
 45 46  2  0  0  0
 45105  1  0  0  0
 46106  1  0  0  0
 47107  1  0  0  0
 47108  1  0  0  0
 48 56  1  0  0  0
 48 65  1  0  0  0
 48109  1  0  0  0
 49 50  1  0  0  0
 49 53  1  0  0  0
 49 64  1  0  0  0
 49110  1  0  0  0
 50 51  1  0  0  0
 50111  1  0  0  0
 50112  1  0  0  0
 51 52  1  0  0  0
 51113  1  0  0  0
 51114  1  0  0  0
 52115  1  0  0  0
 52116  1  0  0  0
 53 54  1  0  0  0
 54 55  2  0  0  0
 54117  1  0  0  0
 55 57  1  0  0  0
 55118  1  0  0  0
 56 69  2  0  0  0
 57 58  2  0  0  0
 57119  1  0  0  0
 58120  1  0  0  0
 59 60  1  0  0  0
 59 61  1  0  0  0
 59 62  1  0  0  0
 60121  1  0  0  0
 60122  1  0  0  0
 60123  1  0  0  0
 61124  1  0  0  0
 61125  1  0  0  0
 61126  1  0  0  0
 62127  1  0  0  0
 62128  1  0  0  0
 62129  1  0  0  0
 63 65  1  0  0  0
 63130  1  0  0  0
 63131  1  0  0  0
 63132  1  0  0  0
 64133  1  0  0  0
 65134  1  0  0  0
 68 74  1  0  0  0
 71 72  1  0  0  0
 71 74  1  0  0  0
 71135  1  0  0  0
 71136  1  0  0  0
 72 75  1  0  0  0
 72137  1  0  0  0
 72138  1  0  0  0
 73 74  1  0  0  0
 73 75  1  0  0  0
 73139  1  0  0  0
 73140  1  0  0  0
 74141  1  0  0  0
M  ISO  4   1 100  68 101  74 101  75 100
M  END
> <chiral flag>
0

> <version>
0

> <s_m_source_file>
/data/baiqing/PycharmProjects/Reinvent-master-3.2/result/LINK_invent/BTK/process_docking_weight1_custom_product_contain_oxygen_bond_distance_aromatic_linkinvent_7_9_3/rearranged_h_0008.sdf

> <i_m_source_file_index>
76

> <r_mmod_Potential_Energy-OPLS-2005>
7751.3876953125

> <r_mmod_Stretch_Energy-OPLS-2005>
3068.3291015625

> <r_mmod_Bend_Energy-OPLS-2005>
1470.4921875

> <r_mmod_Torsional_Energy-OPLS-2005>
319.435943603516

> <r_mmod_Improper_Torsional_Energy-OPLS-2005>
5.2166919708252

> <r_mmod_Van_der_Waal_Energy-OPLS-2005>
120.777961730957

> <r_mmod_Electrostatic_Energy-OPLS-2005>
-295.966827392578

> <r_mmod_Solvation_Energy-OPLS-2005>
-230.603805541992

> <b_mmod_Minimization_Converged-OPLS-2005>
0

> <r_mmod_RMS_Derivative-OPLS-2005>
2.18929362297058

$$$$
77
                    3D
 Structure written by MMmdl.
169179  0  0  1  0            999 V2000
  -30.7224  -14.5491   20.5376 C   0  0  0  0  0  0
  -30.4169  -12.3531   19.4296 C   0  0  0  0  0  0
  -29.4876  -12.4789   18.2058 C   0  0  0  0  0  0
  -28.0169  -12.2957   18.6275 C   0  0  0  0  0  0
  -27.6422  -13.1711   19.8472 C   0  0  2  0  0  0
  -28.6983  -13.0525   20.9774 C   0  0  0  0  0  0
  -25.2535  -13.8002   20.5662 C   0  0  0  0  0  0
  -24.1793  -13.0332   20.9218 C   0  0  0  0  0  0
  -24.6332  -11.6803   20.8781 C   0  0  0  0  0  0
  -23.9004  -10.4225   21.0453 C   0  0  0  0  0  0
  -24.3579   -9.4146   21.9213 C   0  0  0  0  0  0
  -23.6263   -8.2185   22.0764 C   0  0  0  0  0  0
  -22.4249   -8.0241   21.3547 C   0  0  0  0  0  0
  -21.9877   -9.0210   20.4649 C   0  0  0  0  0  0
  -22.7198  -10.2088   20.3074 C   0  0  0  0  0  0
  -21.6823   -6.0719   22.5281 C   0  0  0  0  0  0
  -21.3998   -6.5634   23.8212 C   0  0  0  0  0  0
  -21.3656   -5.6792   24.9176 C   0  0  0  0  0  0
  -21.6046   -4.3056   24.7230 C   0  0  0  0  0  0
  -21.8817   -3.8143   23.4353 C   0  0  0  0  0  0
  -21.9186   -4.6954   22.3406 C   0  0  0  0  0  0
  -22.7833  -13.5184   21.1867 C   0  0  0  0  0  0
  -22.1657   -4.2145   21.0982 F   0  0  0  0  0  0
  -21.5631   -3.4540   25.7742 F   0  0  0  0  0  0
  -30.0115  -13.3839   20.4049 N   0  0  0  0  0  0
  -26.2920  -12.9111   20.3274 N   0  0  0  0  0  0
  -25.9240  -11.6322   20.5789 N   0  0  0  0  0  0
  -22.0468  -12.8198   22.0429 N   0  0  0  0  0  0
  -25.4172  -15.1698   20.4019 N   0  0  0  0  0  0
  -31.8877  -14.6186   20.1358 O   0  0  0  0  0  0
  -21.6608   -6.8851   21.4242 O   0  0  0  0  0  0
  -22.3545  -14.5505   20.6713 O   0  0  0  0  0  0
  -24.6140  -31.8681   23.2092 C   0  0  0  0  0  0
  -25.9035  -32.4818   23.8377 C   0  0  1  0  0  0
  -27.2304  -27.4221   20.0860 C   0  0  0  0  0  0
  -25.5887  -33.8614   24.2304 N   0  0  0  0  0  0
  -23.4013  -30.4940   21.5499 C   0  0  2  0  0  0
  -24.8447  -28.9600   20.1134 C   0  0  0  0  0  0
  -22.7405  -29.4659   22.4971 C   0  0  0  0  0  0
  -18.0272  -28.1366   22.8485 C   0  0  0  0  0  0
  -24.1502  -36.7305   23.2642 C   0  0  0  0  0  0
  -25.9329  -30.8270   21.3667 C   0  0  0  0  0  0
  -26.0046  -29.4612   20.7133 C   0  0  0  0  0  0
  -27.1938  -28.6964   20.7029 C   0  0  0  0  0  0
  -26.0497  -26.9476   19.4660 C   0  0  0  0  0  0
  -24.8620  -27.7022   19.4899 C   0  0  0  0  0  0
  -23.6089  -29.8292   20.1634 C   0  0  0  0  0  0
  -25.4127  -36.3108   24.0343 C   0  0  1  0  0  0
  -20.5868  -28.3638   23.1324 C   0  0  2  0  0  0
  -20.6757  -26.9374   22.5420 C   0  0  0  0  0  0
  -19.5739  -26.6373   21.5213 C   0  0  0  0  0  0
  -18.1912  -26.7909   22.1621 C   0  0  0  0  0  0
  -19.1530  -28.8819   23.2904 C   0  0  0  0  0  0
  -18.9457  -30.1429   23.8911 C   0  0  0  0  0  0
  -17.6459  -30.6570   24.0560 C   0  0  0  0  0  0
  -25.9053  -34.9471   23.5125 C   0  0  0  0  0  0
  -16.5343  -29.9074   23.6322 C   0  0  0  0  0  0
  -16.7264  -28.6493   23.0341 C   0  0  0  0  0  0
  -26.4461  -31.6597   25.0712 C   0  0  0  0  0  0
  -25.3721  -31.3720   26.1461 C   0  0  0  0  0  0
  -27.0295  -30.3041   24.6082 C   0  0  0  0  0  0
  -27.6025  -32.4322   25.7474 C   0  0  0  0  0  0
  -27.5591  -37.1810   24.8471 C   0  0  0  0  0  0
  -21.4137  -29.3018   22.3725 N   0  0  0  0  0  0
  -26.4309  -37.3792   23.9420 N   0  0  0  0  0  0
  -24.6675  -31.0777   22.0992 N   0  0  0  0  0  0
  -23.4187  -28.8181   23.2988 O   0  0  0  0  0  0
  -28.4216  -26.7163   20.1152 O   0  0  0  0  0  0
  -26.5620  -34.8923   22.4682 O   0  0  0  0  0  0
  -23.5334  -32.1428   23.7487 O   0  0  0  0  0  0
  -30.9252  -18.7819   20.5987 C   0  0  0  0  0  0
  -30.0355  -20.2285   22.8181 C   0  0  0  0  0  0
  -30.7272  -18.0981   21.8175 C   0  0  0  0  0  0
  -30.1652  -20.9184   21.5855 C   0  0  0  0  0  0
  -30.6335  -20.1617   20.4729 C   0  0  0  0  0  0
  -30.2990  -18.8477   22.9336 C   0  0  0  0  0  0
  -27.4501  -16.9674   18.4837 C   0  0  0  0  0  0
  -28.6556  -17.8581   18.4841 C   0  0  0  0  0  0
  -28.6708  -24.3214   22.0640 C   0  0  0  0  0  0
  -29.2936  -23.0449   22.6412 C   0  0  0  0  0  0
  -29.6076  -23.0473   20.2655 C   0  0  0  0  0  0
  -28.7503  -16.4672   19.0806 C   0  0  0  0  0  0
  -29.3325  -24.5046   20.6953 C   0  0  1  0  0  0
  -30.9517  -16.5754   21.9356 C   0  0  0  0  0  0
  -28.8578  -16.2305   20.5898 C   0  0  0  0  0  0
  -28.4792  -25.3354   19.7077 C   0  0  0  0  0  0
  -29.8471  -22.3075   21.5068 N   0  0  0  0  0  0
  -30.1320  -15.6583   21.0890 N   0  0  0  0  0  0
  -30.8051  -20.7379   19.2583 F   0  0  0  0  0  0
  -30.1237  -18.2433   24.1326 F   0  0  0  0  0  0
  -31.4593  -12.4442   19.1191 H   0  0  0  0  0  0
  -30.3306  -11.3605   19.8753 H   0  0  0  0  0  0
  -29.7549  -11.7347   17.4540 H   0  0  0  0  0  0
  -29.6209  -13.4522   17.7325 H   0  0  0  0  0  0
  -27.8683  -11.2430   18.8693 H   0  0  0  0  0  0
  -27.3543  -12.5116   17.7886 H   0  0  0  0  0  0
  -27.6300  -14.1725   19.4405 H   0  0  0  0  0  0
  -28.7144  -12.0347   21.3694 H   0  0  0  0  0  0
  -28.4550  -13.6810   21.8339 H   0  0  0  0  0  0
  -25.2725   -9.5616   22.4785 H   0  0  0  0  0  0
  -23.9968   -7.4567   22.7470 H   0  0  0  0  0  0
  -21.0813   -8.8726   19.8948 H   0  0  0  0  0  0
  -22.3671  -10.9636   19.6187 H   0  0  0  0  0  0
  -21.1984   -7.6140   23.9714 H   0  0  0  0  0  0
  -21.1485   -6.0524   25.9080 H   0  0  0  0  0  0
  -22.0605   -2.7607   23.2850 H   0  0  0  0  0  0
  -22.4071  -11.9851   22.4817 H   0  0  0  0  0  0
  -21.1100  -13.1248   22.2650 H   0  0  0  0  0  0
  -24.6360  -15.8116   20.4832 H   0  0  0  0  0  0
  -26.2486  -15.5989   20.0176 H   0  0  0  0  0  0
  -26.7093  -32.5517   23.1129 H   0  0  0  0  0  0
  -25.0056  -33.9770   25.0459 H   0  0  0  0  0  0
  -22.6900  -31.3109   21.4107 H   0  0  0  0  0  0
  -23.3761  -35.9638   23.3318 H   0  0  0  0  0  0
  -24.3598  -36.8907   22.2055 H   0  0  0  0  0  0
  -23.7253  -37.6512   23.6638 H   0  0  0  0  0  0
  -26.0513  -31.5917   20.5977 H   0  0  0  0  0  0
  -26.8192  -30.8773   21.9872 H   0  0  0  0  0  0
  -28.0889  -29.0770   21.1748 H   0  0  0  0  0  0
  -26.0075  -26.0069   18.9414 H   0  0  0  0  0  0
  -23.9712  -27.3153   19.0147 H   0  0  0  0  0  0
  -23.7171  -30.6024   19.4028 H   0  0  0  0  0  0
  -22.7319  -29.2514   19.8663 H   0  0  0  0  0  0
  -25.1303  -36.1970   25.0838 H   0  0  0  0  0  0
  -20.9968  -28.3187   24.1437 H   0  0  0  0  0  0
  -20.5661  -26.2233   23.3596 H   0  0  0  0  0  0
  -21.6632  -26.7415   22.1203 H   0  0  0  0  0  0
  -19.6904  -25.6292   21.1214 H   0  0  0  0  0  0
  -19.6683  -27.3207   20.6761 H   0  0  0  0  0  0
  -17.4190  -26.6661   21.4019 H   0  0  0  0  0  0
  -18.0304  -26.0054   22.9020 H   0  0  0  0  0  0
  -19.7940  -30.7238   24.2269 H   0  0  0  0  0  0
  -17.5021  -31.6253   24.5149 H   0  0  0  0  0  0
  -15.5345  -30.2980   23.7650 H   0  0  0  0  0  0
  -15.8665  -28.0828   22.7034 H   0  0  0  0  0  0
  -24.5895  -30.7063   25.7805 H   0  0  0  0  0  0
  -24.8913  -32.2889   26.4881 H   0  0  0  0  0  0
  -25.8079  -30.8909   27.0228 H   0  0  0  0  0  0
  -26.2840  -29.6811   24.1136 H   0  0  0  0  0  0
  -27.4078  -29.7274   25.4527 H   0  0  0  0  0  0
  -27.8658  -30.4372   23.9224 H   0  0  0  0  0  0
  -27.2629  -33.3622   26.2044 H   0  0  0  0  0  0
  -28.3830  -32.6888   25.0301 H   0  0  0  0  0  0
  -28.0683  -31.8452   26.5401 H   0  0  0  0  0  0
  -28.2607  -38.0106   24.7523 H   0  0  0  0  0  0
  -28.1085  -36.2636   24.6288 H   0  0  0  0  0  0
  -27.2303  -37.1457   25.8870 H   0  0  0  0  0  0
  -20.9265  -29.8768   21.6990 H   0  0  0  0  0  0
  -26.0198  -38.2874   24.1399 H   0  0  0  0  0  0
  -31.2656  -18.2372   19.7312 H   0  0  0  0  0  0
  -29.7150  -20.7361   23.7136 H   0  0  0  0  0  0
  -27.1354  -16.5536   17.5272 H   0  0  0  0  0  0
  -26.6440  -17.2588   19.1526 H   0  0  0  0  0  0
  -28.6031  -18.7190   19.1462 H   0  0  0  0  0  0
  -29.1529  -18.0347   17.5325 H   0  0  0  0  0  0
  -28.8082  -25.1864   22.7141 H   0  0  0  0  0  0
  -27.5964  -24.1729   21.9436 H   0  0  0  0  0  0
  -28.5334  -22.4774   23.1808 H   0  0  0  0  0  0
  -30.0955  -23.2924   23.3389 H   0  0  0  0  0  0
  -30.4624  -23.0113   19.5893 H   0  0  0  0  0  0
  -28.7460  -22.6215   19.7481 H   0  0  0  0  0  0
  -29.2587  -15.7249   18.4690 H   0  0  0  0  0  0
  -30.2947  -24.9989   20.8374 H   0  0  0  0  0  0
  -30.7762  -16.2665   22.9660 H   0  0  0  0  0  0
  -32.0204  -16.4187   21.7825 H   0  0  0  0  0  0
  -28.0417  -15.6033   20.9217 H   0  0  0  0  0  0
  -28.5926  -17.1588   21.0907 H   0  0  0  0  0  0
  -27.5133  -24.8416   19.6392 H   0  0  0  0  0  0
  -28.9250  -25.2960   18.7132 H   0  0  0  0  0  0
  1 25  1  0  0  0
  1 30  2  0  0  0
  1 88  1  0  0  0
  2  3  1  0  0  0
  2 25  1  0  0  0
  2 91  1  0  0  0
  2 92  1  0  0  0
  3  4  1  0  0  0
  3 93  1  0  0  0
  3 94  1  0  0  0
  4  5  1  0  0  0
  4 95  1  0  0  0
  4 96  1  0  0  0
  5  6  1  0  0  0
  5 26  1  0  0  0
  5 97  1  0  0  0
  6 25  1  0  0  0
  6 98  1  0  0  0
  6 99  1  0  0  0
  7  8  2  0  0  0
  7 26  1  0  0  0
  7 29  1  0  0  0
  8  9  1  0  0  0
  8 22  1  0  0  0
  9 10  1  0  0  0
  9 27  2  0  0  0
 10 11  2  0  0  0
 10 15  1  0  0  0
 11 12  1  0  0  0
 11100  1  0  0  0
 12 13  2  0  0  0
 12101  1  0  0  0
 13 14  1  0  0  0
 13 31  1  0  0  0
 14 15  2  0  0  0
 14102  1  0  0  0
 15103  1  0  0  0
 16 17  2  0  0  0
 16 21  1  0  0  0
 16 31  1  0  0  0
 17 18  1  0  0  0
 17104  1  0  0  0
 18 19  2  0  0  0
 18105  1  0  0  0
 19 20  1  0  0  0
 19 24  1  0  0  0
 20 21  2  0  0  0
 20106  1  0  0  0
 21 23  1  0  0  0
 22 28  1  0  0  0
 22 32  2  0  0  0
 26 27  1  0  0  0
 28107  1  0  0  0
 28108  1  0  0  0
 29109  1  0  0  0
 29110  1  0  0  0
 33 34  1  0  0  0
 33 66  1  0  0  0
 33 70  2  0  0  0
 34 36  1  0  0  0
 34 59  1  0  0  0
 34111  1  0  0  0
 35 44  2  0  0  0
 35 45  1  0  0  0
 35 68  1  0  0  0
 36 56  1  0  0  0
 36112  1  0  0  0
 37 39  1  0  0  0
 37 47  1  0  0  0
 37 66  1  0  0  0
 37113  1  0  0  0
 38 43  2  0  0  0
 38 46  1  0  0  0
 38 47  1  0  0  0
 39 64  1  0  0  0
 39 67  2  0  0  0
 40 52  1  0  0  0
 40 53  2  0  0  0
 40 58  1  0  0  0
 41114  1  0  0  0
 41115  1  0  0  0
 41116  1  0  0  0
 41 48  1  0  0  0
 42 43  1  0  0  0
 42 66  1  0  0  0
 42117  1  0  0  0
 42118  1  0  0  0
 43 44  1  0  0  0
 44119  1  0  0  0
 45 46  2  0  0  0
 45120  1  0  0  0
 46121  1  0  0  0
 47122  1  0  0  0
 47123  1  0  0  0
 48 56  1  0  0  0
 48 65  1  0  0  0
 48124  1  0  0  0
 49 50  1  0  0  0
 49 53  1  0  0  0
 49 64  1  0  0  0
 49125  1  0  0  0
 50 51  1  0  0  0
 50126  1  0  0  0
 50127  1  0  0  0
 51 52  1  0  0  0
 51128  1  0  0  0
 51129  1  0  0  0
 52130  1  0  0  0
 52131  1  0  0  0
 53 54  1  0  0  0
 54 55  2  0  0  0
 54132  1  0  0  0
 55 57  1  0  0  0
 55133  1  0  0  0
 56 69  2  0  0  0
 57 58  2  0  0  0
 57134  1  0  0  0
 58135  1  0  0  0
 59 60  1  0  0  0
 59 61  1  0  0  0
 59 62  1  0  0  0
 60136  1  0  0  0
 60137  1  0  0  0
 60138  1  0  0  0
 61139  1  0  0  0
 61140  1  0  0  0
 61141  1  0  0  0
 62142  1  0  0  0
 62143  1  0  0  0
 62144  1  0  0  0
 63 65  1  0  0  0
 63145  1  0  0  0
 63146  1  0  0  0
 63147  1  0  0  0
 64148  1  0  0  0
 65149  1  0  0  0
 68 86  1  0  0  0
 71 73  2  0  0  0
 71 75  1  0  0  0
 71150  1  0  0  0
 72 74  1  0  0  0
 72 76  2  0  0  0
 72151  1  0  0  0
 73 76  1  0  0  0
 73 84  1  0  0  0
 74 75  2  0  0  0
 74 87  1  0  0  0
 75 89  1  0  0  0
 76 90  1  0  0  0
 77 78  1  0  0  0
 77 82  1  0  0  0
 77152  1  0  0  0
 77153  1  0  0  0
 78 82  1  0  0  0
 78154  1  0  0  0
 78155  1  0  0  0
 79 80  1  0  0  0
 79 83  1  0  0  0
 79156  1  0  0  0
 79157  1  0  0  0
 80 87  1  0  0  0
 80158  1  0  0  0
 80159  1  0  0  0
 81 83  1  0  0  0
 81 87  1  0  0  0
 81160  1  0  0  0
 81161  1  0  0  0
 82 85  1  0  0  0
 82162  1  0  0  0
 83 86  1  0  0  0
 83163  1  0  0  0
 84 88  1  0  0  0
 84164  1  0  0  0
 84165  1  0  0  0
 85 88  1  0  0  0
 85166  1  0  0  0
 85167  1  0  0  0
 86168  1  0  0  0
 86169  1  0  0  0
M  ISO  4   1 100  68 101  86 101  88 100
M  END
> <chiral flag>
0

> <version>
0

> <s_m_source_file>
/data/baiqing/PycharmProjects/Reinvent-master-3.2/result/LINK_invent/BTK/process_docking_weight1_custom_product_contain_oxygen_bond_distance_aromatic_linkinvent_7_9_3/rearranged_h_0008.sdf

> <i_m_source_file_index>
77

> <r_mmod_Potential_Energy-OPLS-2005>
294.894866943359

> <r_mmod_Stretch_Energy-OPLS-2005>
48.9773788452148

> <r_mmod_Bend_Energy-OPLS-2005>
166.383605957031

> <r_mmod_Torsional_Energy-OPLS-2005>
358.642974853516

> <r_mmod_Improper_Torsional_Energy-OPLS-2005>
3.86699748039246

> <r_mmod_Van_der_Waal_Energy-OPLS-2005>
166.525939941406

> <r_mmod_Electrostatic_Energy-OPLS-2005>
-273.577911376953

> <r_mmod_Solvation_Energy-OPLS-2005>
-200.324020385742

> <b_mmod_Minimization_Converged-OPLS-2005>
0

> <r_mmod_RMS_Derivative-OPLS-2005>
1.76647472381592

$$$$
78
                    3D
 Structure written by MMmdl.
146154  0  0  1  0            999 V2000
  -30.4115  -15.2360   20.3782 C   0  0  0  0  0  0
  -30.4481  -12.7847   19.5253 C   0  0  0  0  0  0
  -29.5392  -12.5763   18.2863 C   0  0  0  0  0  0
  -28.0839  -12.3050   18.7091 C   0  0  0  0  0  0
  -27.6174  -13.2684   19.8287 C   0  0  2  0  0  0
  -28.6520  -13.4066   20.9660 C   0  0  0  0  0  0
  -25.2410  -13.8235   20.5726 C   0  0  0  0  0  0
  -24.1757  -13.0435   20.9256 C   0  0  0  0  0  0
  -24.6402  -11.6929   20.8762 C   0  0  0  0  0  0
  -23.9092  -10.4292   21.0408 C   0  0  0  0  0  0
  -24.3635   -9.4205   21.9186 C   0  0  0  0  0  0
  -23.6303   -8.2243   22.0755 C   0  0  0  0  0  0
  -22.4285   -8.0283   21.3545 C   0  0  0  0  0  0
  -21.9926   -9.0258   20.4646 C   0  0  0  0  0  0
  -22.7262  -10.2133   20.3057 C   0  0  0  0  0  0
  -21.6856   -6.0738   22.5279 C   0  0  0  0  0  0
  -21.4016   -6.5641   23.8212 C   0  0  0  0  0  0
  -21.3660   -5.6793   24.9174 C   0  0  0  0  0  0
  -21.6044   -4.3056   24.7224 C   0  0  0  0  0  0
  -21.8819   -3.8148   23.4345 C   0  0  0  0  0  0
  -21.9193   -4.6965   22.3402 C   0  0  0  0  0  0
  -22.7775  -13.5193   21.1903 C   0  0  0  0  0  0
  -22.1662   -4.2150   21.0979 F   0  0  0  0  0  0
  -21.5628   -3.4539   25.7737 F   0  0  0  0  0  0
  -29.8901  -13.9137   20.3521 N   0  0  0  0  0  0
  -26.2837  -12.9497   20.3215 N   0  0  0  0  0  0
  -25.9337  -11.6609   20.5720 N   0  0  0  0  0  0
  -22.0430  -12.8175   22.0455 N   0  0  0  0  0  0
  -25.4038  -15.1969   20.4127 N   0  0  0  0  0  0
  -31.6257  -15.2922   20.1320 O   0  0  0  0  0  0
  -21.6644   -6.8883   21.4242 O   0  0  0  0  0  0
  -22.3456  -14.5496   20.6744 O   0  0  0  0  0  0
  -24.6599  -31.8252   23.1717 C   0  0  0  0  0  0
  -25.9291  -32.4596   23.8175 C   0  0  1  0  0  0
  -27.2227  -26.9453   20.1894 C   0  0  0  0  0  0
  -25.5969  -33.8410   24.2082 N   0  0  0  0  0  0
  -23.4743  -30.4358   21.5198 C   0  0  2  0  0  0
  -24.9285  -28.8210   20.1157 C   0  0  0  0  0  0
  -22.7652  -29.4446   22.4789 C   0  0  0  0  0  0
  -18.0319  -28.1410   22.8469 C   0  0  0  0  0  0
  -24.1494  -36.7211   23.2650 C   0  0  0  0  0  0
  -26.0410  -30.6352   21.4018 C   0  0  0  0  0  0
  -26.1083  -29.2238   20.7538 C   0  0  0  0  0  0
  -27.2475  -28.3037   20.7717 C   0  0  0  0  0  0
  -26.0181  -26.6905   19.4983 C   0  0  0  0  0  0
  -24.9062  -27.5730   19.4704 C   0  0  0  0  0  0
  -23.7142  -29.7481   20.1469 C   0  0  0  0  0  0
  -25.4137  -36.2973   24.0300 C   0  0  1  0  0  0
  -20.5943  -28.3750   23.1196 C   0  0  2  0  0  0
  -20.6796  -26.9435   22.5405 C   0  0  0  0  0  0
  -19.5771  -26.6379   21.5216 C   0  0  0  0  0  0
  -18.1952  -26.7944   22.1623 C   0  0  0  0  0  0
  -19.1580  -28.8901   23.2820 C   0  0  0  0  0  0
  -18.9493  -30.1492   23.8854 C   0  0  0  0  0  0
  -17.6487  -30.6600   24.0557 C   0  0  0  0  0  0
  -25.9095  -34.9354   23.5012 C   0  0  0  0  0  0
  -16.5377  -29.9089   23.6344 C   0  0  0  0  0  0
  -16.7301  -28.6509   23.0362 C   0  0  0  0  0  0
  -26.4553  -31.6537   25.0698 C   0  0  0  0  0  0
  -25.3684  -31.3786   26.1357 C   0  0  0  0  0  0
  -27.0451  -30.2907   24.6421 C   0  0  0  0  0  0
  -27.6047  -32.4345   25.7498 C   0  0  0  0  0  0
  -27.5563  -37.1775   24.8476 C   0  0  0  0  0  0
  -21.4324  -29.3041   22.3541 N   0  0  0  0  0  0
  -26.4288  -37.3700   23.9393 N   0  0  0  0  0  0
  -24.7460  -30.9928   22.0847 N   0  0  0  0  0  0
  -23.4208  -28.8021   23.3029 O   0  0  0  0  0  0
  -28.2587  -25.8777   20.2125 O   0  0  0  0  0  0
  -26.5705  -34.8886   22.4608 O   0  0  0  0  0  0
  -23.5674  -32.1218   23.6818 O   0  0  0  0  0  0
  -28.0770  -20.3125   20.6106 C   0  0  0  0  0  0
  -28.2727  -18.8348   20.6575 C   0  0  0  0  0  0
  -30.4901  -19.0659   20.1263 C   0  0  0  0  0  0
  -29.0793  -21.3247   20.3118 C   0  0  0  0  0  0
  -29.4903  -18.0508   20.4259 C   0  0  0  0  0  0
  -30.3028  -20.5464   20.0773 C   0  0  0  0  0  0
  -29.0269  -23.0813   20.2873 C   0  0  0  0  0  0
  -29.5522  -16.4316   20.5083 N   0  0  0  0  0  0
  -27.8750  -24.2284   20.2741 N   0  0  0  0  0  0
  -31.4112  -21.2681   19.7859 F   0  0  0  0  0  0
  -31.4662  -12.9987   19.1970 H   0  0  0  0  0  0
  -30.5164  -11.8690   20.1148 H   0  0  0  0  0  0
  -29.9126  -11.7546   17.6736 H   0  0  0  0  0  0
  -29.5747  -13.4679   17.6585 H   0  0  0  0  0  0
  -28.0311  -11.2762   19.0674 H   0  0  0  0  0  0
  -27.4171  -12.3641   17.8481 H   0  0  0  0  0  0
  -27.5435  -14.2440   19.3472 H   0  0  0  0  0  0
  -28.8109  -12.4568   21.4787 H   0  0  0  0  0  0
  -28.2968  -14.1096   21.7211 H   0  0  0  0  0  0
  -25.2777   -9.5679   22.4765 H   0  0  0  0  0  0
  -24.0008   -7.4635   22.7477 H   0  0  0  0  0  0
  -21.0857   -8.8783   19.8951 H   0  0  0  0  0  0
  -22.3723  -10.9675   19.6167 H   0  0  0  0  0  0
  -21.2010   -7.6149   23.9717 H   0  0  0  0  0  0
  -21.1482   -6.0522   25.9077 H   0  0  0  0  0  0
  -22.0598   -2.7610   23.2845 H   0  0  0  0  0  0
  -22.4059  -11.9840   22.4841 H   0  0  0  0  0  0
  -21.1043  -13.1184   22.2661 H   0  0  0  0  0  0
  -24.6236  -15.8381   20.5082 H   0  0  0  0  0  0
  -26.2233  -15.6315   20.0105 H   0  0  0  0  0  0
  -26.7358  -32.5141   23.0889 H   0  0  0  0  0  0
  -25.0068  -33.9492   25.0200 H   0  0  0  0  0  0
  -22.7866  -31.2665   21.3481 H   0  0  0  0  0  0
  -23.3754  -35.9547   23.3323 H   0  0  0  0  0  0
  -24.3558  -36.8842   22.2062 H   0  0  0  0  0  0
  -23.7264  -37.6410   23.6696 H   0  0  0  0  0  0
  -26.2181  -31.3735   20.6186 H   0  0  0  0  0  0
  -26.9027  -30.6955   22.0546 H   0  0  0  0  0  0
  -28.1447  -28.6119   21.2895 H   0  0  0  0  0  0
  -25.9133  -25.7382   18.9981 H   0  0  0  0  0  0
  -24.0108  -27.2596   18.9514 H   0  0  0  0  0  0
  -23.8689  -30.5148   19.3868 H   0  0  0  0  0  0
  -22.8246  -29.2006   19.8306 H   0  0  0  0  0  0
  -25.1340  -36.1779   25.0794 H   0  0  0  0  0  0
  -21.0030  -28.3358   24.1319 H   0  0  0  0  0  0
  -20.5680  -26.2369   23.3643 H   0  0  0  0  0  0
  -21.6660  -26.7414   22.1210 H   0  0  0  0  0  0
  -19.6931  -25.6279   21.1274 H   0  0  0  0  0  0
  -19.6711  -27.3167   20.6729 H   0  0  0  0  0  0
  -17.4221  -26.6687   21.4027 H   0  0  0  0  0  0
  -18.0347  -26.0098   22.9032 H   0  0  0  0  0  0
  -19.7969  -30.7320   24.2202 H   0  0  0  0  0  0
  -17.5039  -31.6276   24.5167 H   0  0  0  0  0  0
  -15.5376  -30.2977   23.7695 H   0  0  0  0  0  0
  -15.8701  -28.0813   22.7102 H   0  0  0  0  0  0
  -24.5880  -30.7118   25.7669 H   0  0  0  0  0  0
  -24.8857  -32.2987   26.4660 H   0  0  0  0  0  0
  -25.7919  -30.9036   27.0216 H   0  0  0  0  0  0
  -26.3118  -29.6581   24.1407 H   0  0  0  0  0  0
  -27.3972  -29.7270   25.5071 H   0  0  0  0  0  0
  -27.9061  -30.4096   23.9840 H   0  0  0  0  0  0
  -27.2617  -33.3690   26.1950 H   0  0  0  0  0  0
  -28.3922  -32.6832   25.0372 H   0  0  0  0  0  0
  -28.0642  -31.8555   26.5518 H   0  0  0  0  0  0
  -28.2603  -38.0046   24.7459 H   0  0  0  0  0  0
  -28.1035  -36.2569   24.6391 H   0  0  0  0  0  0
  -27.2265  -37.1524   25.8877 H   0  0  0  0  0  0
  -20.9575  -29.8722   21.6665 H   0  0  0  0  0  0
  -26.0142  -38.2769   24.1361 H   0  0  0  0  0  0
  -27.0829  -20.6747   20.8318 H   0  0  0  0  0  0
  -27.3873  -18.2646   20.9024 H   0  0  0  0  0  0
  -31.4875  -18.7080   19.9168 H   0  0  0  0  0  0
  -29.6395  -23.3299   19.4203 H   0  0  0  0  0  0
  -29.6521  -23.3551   21.1378 H   0  0  0  0  0  0
  -28.6295  -16.0752   20.7059 H   0  0  0  0  0  0
  -27.3230  -24.1215   21.1210 H   0  0  0  0  0  0
  1 25  1  0  0  0
  1 30  2  0  0  0
  1 78  1  0  0  0
  2  3  1  0  0  0
  2 25  1  0  0  0
  2 81  1  0  0  0
  2 82  1  0  0  0
  3  4  1  0  0  0
  3 83  1  0  0  0
  3 84  1  0  0  0
  4  5  1  0  0  0
  4 85  1  0  0  0
  4 86  1  0  0  0
  5  6  1  0  0  0
  5 26  1  0  0  0
  5 87  1  0  0  0
  6 25  1  0  0  0
  6 88  1  0  0  0
  6 89  1  0  0  0
  7  8  2  0  0  0
  7 26  1  0  0  0
  7 29  1  0  0  0
  8  9  1  0  0  0
  8 22  1  0  0  0
  9 10  1  0  0  0
  9 27  2  0  0  0
 10 11  2  0  0  0
 10 15  1  0  0  0
 11 12  1  0  0  0
 11 90  1  0  0  0
 12 13  2  0  0  0
 12 91  1  0  0  0
 13 14  1  0  0  0
 13 31  1  0  0  0
 14 15  2  0  0  0
 14 92  1  0  0  0
 15 93  1  0  0  0
 16 17  2  0  0  0
 16 21  1  0  0  0
 16 31  1  0  0  0
 17 18  1  0  0  0
 17 94  1  0  0  0
 18 19  2  0  0  0
 18 95  1  0  0  0
 19 20  1  0  0  0
 19 24  1  0  0  0
 20 21  2  0  0  0
 20 96  1  0  0  0
 21 23  1  0  0  0
 22 28  1  0  0  0
 22 32  2  0  0  0
 26 27  1  0  0  0
 28 97  1  0  0  0
 28 98  1  0  0  0
 29 99  1  0  0  0
 29100  1  0  0  0
 33 34  1  0  0  0
 33 66  1  0  0  0
 33 70  2  0  0  0
 34 36  1  0  0  0
 34 59  1  0  0  0
 34101  1  0  0  0
 35 44  2  0  0  0
 35 45  1  0  0  0
 35 68  1  0  0  0
 36 56  1  0  0  0
 36102  1  0  0  0
 37 39  1  0  0  0
 37 47  1  0  0  0
 37 66  1  0  0  0
 37103  1  0  0  0
 38 43  2  0  0  0
 38 46  1  0  0  0
 38 47  1  0  0  0
 39 64  1  0  0  0
 39 67  2  0  0  0
 40 52  1  0  0  0
 40 53  2  0  0  0
 40 58  1  0  0  0
 41104  1  0  0  0
 41105  1  0  0  0
 41106  1  0  0  0
 41 48  1  0  0  0
 42 43  1  0  0  0
 42 66  1  0  0  0
 42107  1  0  0  0
 42108  1  0  0  0
 43 44  1  0  0  0
 44109  1  0  0  0
 45 46  2  0  0  0
 45110  1  0  0  0
 46111  1  0  0  0
 47112  1  0  0  0
 47113  1  0  0  0
 48 56  1  0  0  0
 48 65  1  0  0  0
 48114  1  0  0  0
 49 50  1  0  0  0
 49 53  1  0  0  0
 49 64  1  0  0  0
 49115  1  0  0  0
 50 51  1  0  0  0
 50116  1  0  0  0
 50117  1  0  0  0
 51 52  1  0  0  0
 51118  1  0  0  0
 51119  1  0  0  0
 52120  1  0  0  0
 52121  1  0  0  0
 53 54  1  0  0  0
 54 55  2  0  0  0
 54122  1  0  0  0
 55 57  1  0  0  0
 55123  1  0  0  0
 56 69  2  0  0  0
 57 58  2  0  0  0
 57124  1  0  0  0
 58125  1  0  0  0
 59 60  1  0  0  0
 59 61  1  0  0  0
 59 62  1  0  0  0
 60126  1  0  0  0
 60127  1  0  0  0
 60128  1  0  0  0
 61129  1  0  0  0
 61130  1  0  0  0
 61131  1  0  0  0
 62132  1  0  0  0
 62133  1  0  0  0
 62134  1  0  0  0
 63 65  1  0  0  0
 63135  1  0  0  0
 63136  1  0  0  0
 63137  1  0  0  0
 64138  1  0  0  0
 65139  1  0  0  0
 68 79  1  0  0  0
 71 72  2  0  0  0
 71 74  1  0  0  0
 71140  1  0  0  0
 72 75  1  0  0  0
 72141  1  0  0  0
 73 75  2  0  0  0
 73 76  1  0  0  0
 73142  1  0  0  0
 74 76  2  0  0  0
 74 77  1  0  0  0
 75 78  1  0  0  0
 76 80  1  0  0  0
 77 79  1  0  0  0
 77143  1  0  0  0
 77144  1  0  0  0
 78145  1  0  0  0
 79146  1  0  0  0
M  ISO  4   1 100  68 101  78 100  79 101
M  END
> <chiral flag>
0

> <version>
0

> <s_m_source_file>
/data/baiqing/PycharmProjects/Reinvent-master-3.2/result/LINK_invent/BTK/process_docking_weight1_custom_product_contain_oxygen_bond_distance_aromatic_linkinvent_7_9_3/rearranged_h_0008.sdf

> <i_m_source_file_index>
78

> <r_mmod_Potential_Energy-OPLS-2005>
1131.50427246094

> <r_mmod_Stretch_Energy-OPLS-2005>
494.5185546875

> <r_mmod_Bend_Energy-OPLS-2005>
431.97265625

> <r_mmod_Torsional_Energy-OPLS-2005>
213.545684814453

> <r_mmod_Improper_Torsional_Energy-OPLS-2005>
3.83938789367676

> <r_mmod_Van_der_Waal_Energy-OPLS-2005>
127.036819458008

> <r_mmod_Electrostatic_Energy-OPLS-2005>
-344.446197509766

> <r_mmod_Solvation_Energy-OPLS-2005>
-220.450500488281

> <b_mmod_Minimization_Converged-OPLS-2005>
0

> <r_mmod_RMS_Derivative-OPLS-2005>
0.236234650015831

$$$$
79
                    3D
 Structure written by MMmdl.
146154  0  0  1  0            999 V2000
  -30.4130  -15.2376   20.3777 C   0  0  0  0  0  0
  -30.4478  -12.7857   19.5263 C   0  0  0  0  0  0
  -29.5392  -12.5774   18.2870 C   0  0  0  0  0  0
  -28.0841  -12.3055   18.7101 C   0  0  0  0  0  0
  -27.6171  -13.2694   19.8291 C   0  0  2  0  0  0
  -28.6517  -13.4092   20.9662 C   0  0  0  0  0  0
  -25.2405  -13.8232   20.5729 C   0  0  0  0  0  0
  -24.1752  -13.0430   20.9248 C   0  0  0  0  0  0
  -24.6402  -11.6926   20.8756 C   0  0  0  0  0  0
  -23.9093  -10.4289   21.0404 C   0  0  0  0  0  0
  -24.3636   -9.4203   21.9184 C   0  0  0  0  0  0
  -23.6303   -8.2242   22.0755 C   0  0  0  0  0  0
  -22.4284   -8.0282   21.3545 C   0  0  0  0  0  0
  -21.9926   -9.0257   20.4646 C   0  0  0  0  0  0
  -22.7262  -10.2132   20.3054 C   0  0  0  0  0  0
  -21.6855   -6.0738   22.5279 C   0  0  0  0  0  0
  -21.4016   -6.5641   23.8213 C   0  0  0  0  0  0
  -21.3660   -5.6793   24.9174 C   0  0  0  0  0  0
  -21.6044   -4.3056   24.7224 C   0  0  0  0  0  0
  -21.8819   -3.8148   23.4345 C   0  0  0  0  0  0
  -21.9194   -4.6965   22.3402 C   0  0  0  0  0  0
  -22.7770  -13.5188   21.1899 C   0  0  0  0  0  0
  -22.1661   -4.2150   21.0979 F   0  0  0  0  0  0
  -21.5628   -3.4539   25.7737 F   0  0  0  0  0  0
  -29.8904  -13.9156   20.3527 N   0  0  0  0  0  0
  -26.2836  -12.9499   20.3220 N   0  0  0  0  0  0
  -25.9339  -11.6610   20.5720 N   0  0  0  0  0  0
  -22.0429  -12.8170   22.0455 N   0  0  0  0  0  0
  -25.4024  -15.1965   20.4155 N   0  0  0  0  0  0
  -31.6266  -15.2923   20.1286 O   0  0  0  0  0  0
  -21.6644   -6.8882   21.4242 O   0  0  0  0  0  0
  -22.3447  -14.5489   20.6740 O   0  0  0  0  0  0
  -24.6600  -31.8251   23.1719 C   0  0  0  0  0  0
  -25.9292  -32.4595   23.8176 C   0  0  1  0  0  0
  -27.2230  -26.9445   20.1889 C   0  0  0  0  0  0
  -25.5969  -33.8409   24.2082 N   0  0  0  0  0  0
  -23.4745  -30.4355   21.5201 C   0  0  2  0  0  0
  -24.9288  -28.8209   20.1156 C   0  0  0  0  0  0
  -22.7652  -29.4445   22.4792 C   0  0  0  0  0  0
  -18.0319  -28.1409   22.8469 C   0  0  0  0  0  0
  -24.1494  -36.7211   23.2649 C   0  0  0  0  0  0
  -26.0412  -30.6347   21.4021 C   0  0  0  0  0  0
  -26.1086  -29.2233   20.7537 C   0  0  0  0  0  0
  -27.2477  -28.3029   20.7714 C   0  0  0  0  0  0
  -26.0185  -26.6904   19.4971 C   0  0  0  0  0  0
  -24.9065  -27.5731   19.4697 C   0  0  0  0  0  0
  -23.7144  -29.7479   20.1471 C   0  0  0  0  0  0
  -25.4136  -36.2973   24.0300 C   0  0  1  0  0  0
  -20.5941  -28.3749   23.1196 C   0  0  2  0  0  0
  -20.6795  -26.9432   22.5405 C   0  0  0  0  0  0
  -19.5770  -26.6378   21.5216 C   0  0  0  0  0  0
  -18.1952  -26.7943   22.1623 C   0  0  0  0  0  0
  -19.1580  -28.8900   23.2820 C   0  0  0  0  0  0
  -18.9491  -30.1491   23.8854 C   0  0  0  0  0  0
  -17.6485  -30.6599   24.0556 C   0  0  0  0  0  0
  -25.9096  -34.9353   23.5012 C   0  0  0  0  0  0
  -16.5375  -29.9087   23.6343 C   0  0  0  0  0  0
  -16.7301  -28.6507   23.0362 C   0  0  0  0  0  0
  -26.4554  -31.6537   25.0699 C   0  0  0  0  0  0
  -25.3685  -31.3784   26.1358 C   0  0  0  0  0  0
  -27.0453  -30.2907   24.6425 C   0  0  0  0  0  0
  -27.6046  -32.4348   25.7500 C   0  0  0  0  0  0
  -27.5566  -37.1770   24.8472 C   0  0  0  0  0  0
  -21.4325  -29.3040   22.3543 N   0  0  0  0  0  0
  -26.4286  -37.3703   23.9399 N   0  0  0  0  0  0
  -24.7462  -30.9926   22.0849 N   0  0  0  0  0  0
  -23.4208  -28.8020   23.3032 O   0  0  0  0  0  0
  -28.2582  -25.8758   20.2160 O   0  0  0  0  0  0
  -26.5707  -34.8886   22.4609 O   0  0  0  0  0  0
  -23.5675  -32.1217   23.6820 O   0  0  0  0  0  0
  -30.2799  -20.5360   20.0395 C   0  0  0  0  0  0
  -30.4854  -19.0607   20.0855 C   0  0  0  0  0  0
  -29.0705  -21.3182   20.3163 C   0  0  0  0  0  0
  -29.4965  -18.0518   20.4283 C   0  0  0  0  0  0
  -28.0792  -20.3067   20.6605 C   0  0  0  0  0  0
  -28.2800  -18.8251   20.7036 C   0  0  0  0  0  0
  -29.0211  -23.0761   20.3129 C   0  0  0  0  0  0
  -29.5579  -16.4339   20.5133 N   0  0  0  0  0  0
  -27.8731  -24.2255   20.2509 N   0  0  0  0  0  0
  -26.8460  -20.7619   20.9879 F   0  0  0  0  0  0
  -27.1957  -18.0905   21.0498 F   0  0  0  0  0  0
  -31.4660  -12.9988   19.1979 H   0  0  0  0  0  0
  -30.5159  -11.8701   20.1161 H   0  0  0  0  0  0
  -29.9128  -11.7559   17.6742 H   0  0  0  0  0  0
  -29.5745  -13.4691   17.6593 H   0  0  0  0  0  0
  -28.0321  -11.2769   19.0691 H   0  0  0  0  0  0
  -27.4173  -12.3634   17.8490 H   0  0  0  0  0  0
  -27.5422  -14.2447   19.3469 H   0  0  0  0  0  0
  -28.8104  -12.4599   21.4802 H   0  0  0  0  0  0
  -28.2961  -14.1129   21.7204 H   0  0  0  0  0  0
  -25.2778   -9.5678   22.4764 H   0  0  0  0  0  0
  -24.0007   -7.4634   22.7477 H   0  0  0  0  0  0
  -21.0856   -8.8781   19.8951 H   0  0  0  0  0  0
  -22.3722  -10.9673   19.6165 H   0  0  0  0  0  0
  -21.2010   -7.6149   23.9716 H   0  0  0  0  0  0
  -21.1482   -6.0523   25.9077 H   0  0  0  0  0  0
  -22.0598   -2.7610   23.2845 H   0  0  0  0  0  0
  -22.4062  -11.9840   22.4844 H   0  0  0  0  0  0
  -21.1042  -13.1179   22.2661 H   0  0  0  0  0  0
  -24.6297  -15.8418   20.5366 H   0  0  0  0  0  0
  -26.2356  -15.6456   20.0614 H   0  0  0  0  0  0
  -26.7360  -32.5140   23.0890 H   0  0  0  0  0  0
  -25.0064  -33.9491   25.0197 H   0  0  0  0  0  0
  -22.7869  -31.2663   21.3484 H   0  0  0  0  0  0
  -23.3758  -35.9541   23.3305 H   0  0  0  0  0  0
  -24.3563  -36.8861   22.2064 H   0  0  0  0  0  0
  -23.7254  -37.6401   23.6707 H   0  0  0  0  0  0
  -26.2186  -31.3732   20.6190 H   0  0  0  0  0  0
  -26.9029  -30.6950   22.0550 H   0  0  0  0  0  0
  -28.1446  -28.6107   21.2901 H   0  0  0  0  0  0
  -25.9133  -25.7384   18.9963 H   0  0  0  0  0  0
  -24.0112  -27.2602   18.9502 H   0  0  0  0  0  0
  -23.8693  -30.5146   19.3871 H   0  0  0  0  0  0
  -22.8247  -29.2005   19.8307 H   0  0  0  0  0  0
  -25.1337  -36.1775   25.0792 H   0  0  0  0  0  0
  -21.0029  -28.3355   24.1319 H   0  0  0  0  0  0
  -20.5677  -26.2367   23.3643 H   0  0  0  0  0  0
  -21.6659  -26.7412   22.1211 H   0  0  0  0  0  0
  -19.6928  -25.6278   21.1274 H   0  0  0  0  0  0
  -19.6709  -27.3165   20.6727 H   0  0  0  0  0  0
  -17.4221  -26.6686   21.4027 H   0  0  0  0  0  0
  -18.0346  -26.0097   22.9031 H   0  0  0  0  0  0
  -19.7966  -30.7320   24.2203 H   0  0  0  0  0  0
  -17.5036  -31.6274   24.5167 H   0  0  0  0  0  0
  -15.5373  -30.2975   23.7694 H   0  0  0  0  0  0
  -15.8701  -28.0811   22.7103 H   0  0  0  0  0  0
  -24.5883  -30.7117   25.7669 H   0  0  0  0  0  0
  -24.8857  -32.2984   26.4662 H   0  0  0  0  0  0
  -25.7921  -30.9033   27.0215 H   0  0  0  0  0  0
  -26.3120  -29.6580   24.1413 H   0  0  0  0  0  0
  -27.3972  -29.7273   25.5077 H   0  0  0  0  0  0
  -27.9064  -30.4093   23.9845 H   0  0  0  0  0  0
  -27.2614  -33.3691   26.1954 H   0  0  0  0  0  0
  -28.3921  -32.6841   25.0375 H   0  0  0  0  0  0
  -28.0644  -31.8558   26.5519 H   0  0  0  0  0  0
  -28.2590  -38.0058   24.7482 H   0  0  0  0  0  0
  -28.1055  -36.2582   24.6351 H   0  0  0  0  0  0
  -27.2273  -37.1475   25.8873 H   0  0  0  0  0  0
  -20.9577  -29.8721   21.6665 H   0  0  0  0  0  0
  -26.0136  -38.2767   24.1382 H   0  0  0  0  0  0
  -31.1540  -21.1146   19.7748 H   0  0  0  0  0  0
  -31.4755  -18.7024   19.8407 H   0  0  0  0  0  0
  -29.6810  -23.3367   19.4852 H   0  0  0  0  0  0
  -29.5957  -23.3382   21.2016 H   0  0  0  0  0  0
  -28.6335  -16.0905   20.7254 H   0  0  0  0  0  0
  -27.2794  -24.1138   21.0683 H   0  0  0  0  0  0
  1 25  1  0  0  0
  1 30  2  0  0  0
  1 78  1  0  0  0
  2  3  1  0  0  0
  2 25  1  0  0  0
  2 82  1  0  0  0
  2 83  1  0  0  0
  3  4  1  0  0  0
  3 84  1  0  0  0
  3 85  1  0  0  0
  4  5  1  0  0  0
  4 86  1  0  0  0
  4 87  1  0  0  0
  5  6  1  0  0  0
  5 26  1  0  0  0
  5 88  1  0  0  0
  6 25  1  0  0  0
  6 89  1  0  0  0
  6 90  1  0  0  0
  7  8  2  0  0  0
  7 26  1  0  0  0
  7 29  1  0  0  0
  8  9  1  0  0  0
  8 22  1  0  0  0
  9 10  1  0  0  0
  9 27  2  0  0  0
 10 11  2  0  0  0
 10 15  1  0  0  0
 11 12  1  0  0  0
 11 91  1  0  0  0
 12 13  2  0  0  0
 12 92  1  0  0  0
 13 14  1  0  0  0
 13 31  1  0  0  0
 14 15  2  0  0  0
 14 93  1  0  0  0
 15 94  1  0  0  0
 16 17  2  0  0  0
 16 21  1  0  0  0
 16 31  1  0  0  0
 17 18  1  0  0  0
 17 95  1  0  0  0
 18 19  2  0  0  0
 18 96  1  0  0  0
 19 20  1  0  0  0
 19 24  1  0  0  0
 20 21  2  0  0  0
 20 97  1  0  0  0
 21 23  1  0  0  0
 22 28  1  0  0  0
 22 32  2  0  0  0
 26 27  1  0  0  0
 28 98  1  0  0  0
 28 99  1  0  0  0
 29100  1  0  0  0
 29101  1  0  0  0
 33 34  1  0  0  0
 33 66  1  0  0  0
 33 70  2  0  0  0
 34 36  1  0  0  0
 34 59  1  0  0  0
 34102  1  0  0  0
 35 44  2  0  0  0
 35 45  1  0  0  0
 35 68  1  0  0  0
 36 56  1  0  0  0
 36103  1  0  0  0
 37 39  1  0  0  0
 37 47  1  0  0  0
 37 66  1  0  0  0
 37104  1  0  0  0
 38 43  2  0  0  0
 38 46  1  0  0  0
 38 47  1  0  0  0
 39 64  1  0  0  0
 39 67  2  0  0  0
 40 52  1  0  0  0
 40 53  2  0  0  0
 40 58  1  0  0  0
 41105  1  0  0  0
 41106  1  0  0  0
 41107  1  0  0  0
 41 48  1  0  0  0
 42 43  1  0  0  0
 42 66  1  0  0  0
 42108  1  0  0  0
 42109  1  0  0  0
 43 44  1  0  0  0
 44110  1  0  0  0
 45 46  2  0  0  0
 45111  1  0  0  0
 46112  1  0  0  0
 47113  1  0  0  0
 47114  1  0  0  0
 48 56  1  0  0  0
 48 65  1  0  0  0
 48115  1  0  0  0
 49 50  1  0  0  0
 49 53  1  0  0  0
 49 64  1  0  0  0
 49116  1  0  0  0
 50 51  1  0  0  0
 50117  1  0  0  0
 50118  1  0  0  0
 51 52  1  0  0  0
 51119  1  0  0  0
 51120  1  0  0  0
 52121  1  0  0  0
 52122  1  0  0  0
 53 54  1  0  0  0
 54 55  2  0  0  0
 54123  1  0  0  0
 55 57  1  0  0  0
 55124  1  0  0  0
 56 69  2  0  0  0
 57 58  2  0  0  0
 57125  1  0  0  0
 58126  1  0  0  0
 59 60  1  0  0  0
 59 61  1  0  0  0
 59 62  1  0  0  0
 60127  1  0  0  0
 60128  1  0  0  0
 60129  1  0  0  0
 61130  1  0  0  0
 61131  1  0  0  0
 61132  1  0  0  0
 62133  1  0  0  0
 62134  1  0  0  0
 62135  1  0  0  0
 63 65  1  0  0  0
 63136  1  0  0  0
 63137  1  0  0  0
 63138  1  0  0  0
 64139  1  0  0  0
 65140  1  0  0  0
 68 79  1  0  0  0
 71 72  2  0  0  0
 71 73  1  0  0  0
 71141  1  0  0  0
 72 74  1  0  0  0
 72142  1  0  0  0
 73 75  2  0  0  0
 73 77  1  0  0  0
 74 76  2  0  0  0
 74 78  1  0  0  0
 75 76  1  0  0  0
 75 80  1  0  0  0
 76 81  1  0  0  0
 77 79  1  0  0  0
 77143  1  0  0  0
 77144  1  0  0  0
 78145  1  0  0  0
 79146  1  0  0  0
M  ISO  4   1 100  68 101  78 100  79 101
M  END
> <chiral flag>
0

> <version>
0

> <s_m_source_file>
/data/baiqing/PycharmProjects/Reinvent-master-3.2/result/LINK_invent/BTK/process_docking_weight1_custom_product_contain_oxygen_bond_distance_aromatic_linkinvent_7_9_3/rearranged_h_0008.sdf

> <i_m_source_file_index>
79

> <r_mmod_Potential_Energy-OPLS-2005>
1128.28063964844

> <r_mmod_Stretch_Energy-OPLS-2005>
494.554504394531

> <r_mmod_Bend_Energy-OPLS-2005>
431.993743896484

> <r_mmod_Torsional_Energy-OPLS-2005>
213.576919555664

> <r_mmod_Improper_Torsional_Energy-OPLS-2005>
3.61142086982727

> <r_mmod_Van_der_Waal_Energy-OPLS-2005>
125.989372253418

> <r_mmod_Electrostatic_Energy-OPLS-2005>
-359.064575195312

> <r_mmod_Solvation_Energy-OPLS-2005>
-209.442901611328

> <b_mmod_Minimization_Converged-OPLS-2005>
0

> <r_mmod_RMS_Derivative-OPLS-2005>
0.121215432882309

$$$$
80
                    3D
 Structure written by MMmdl.
153161  0  0  1  0            999 V2000
  -30.6012  -14.7177   20.4509 C   0  0  0  0  0  0
  -30.4383  -12.4345   19.4745 C   0  0  0  0  0  0
  -29.5129  -12.5023   18.2379 C   0  0  0  0  0  0
  -28.0376  -12.3339   18.6497 C   0  0  0  0  0  0
  -27.6492  -13.2261   19.8575 C   0  0  2  0  0  0
  -28.6908  -13.1309   20.9941 C   0  0  0  0  0  0
  -25.2554  -13.8202   20.5681 C   0  0  0  0  0  0
  -24.1825  -13.0457   20.9177 C   0  0  0  0  0  0
  -24.6407  -11.6928   20.8722 C   0  0  0  0  0  0
  -23.9088  -10.4299   21.0391 C   0  0  0  0  0  0
  -24.3634   -9.4215   21.9170 C   0  0  0  0  0  0
  -23.6303   -8.2255   22.0748 C   0  0  0  0  0  0
  -22.4281   -8.0292   21.3541 C   0  0  0  0  0  0
  -21.9912   -9.0267   20.4649 C   0  0  0  0  0  0
  -22.7253  -10.2139   20.3056 C   0  0  0  0  0  0
  -21.6854   -6.0738   22.5271 C   0  0  0  0  0  0
  -21.4020   -6.5642   23.8208 C   0  0  0  0  0  0
  -21.3652   -5.6792   24.9165 C   0  0  0  0  0  0
  -21.6040   -4.3057   24.7211 C   0  0  0  0  0  0
  -21.8826   -3.8151   23.4334 C   0  0  0  0  0  0
  -21.9197   -4.6966   22.3393 C   0  0  0  0  0  0
  -22.7851  -13.5243   21.1849 C   0  0  0  0  0  0
  -22.1674   -4.2158   21.0969 F   0  0  0  0  0  0
  -21.5615   -3.4536   25.7720 F   0  0  0  0  0  0
  -29.9992  -13.4821   20.4253 N   0  0  0  0  0  0
  -26.2972  -12.9397   20.3288 N   0  0  0  0  0  0
  -25.9335  -11.6547   20.5740 N   0  0  0  0  0  0
  -22.0512  -12.8217   22.0407 N   0  0  0  0  0  0
  -25.4301  -15.1915   20.4105 N   0  0  0  0  0  0
  -31.7762  -14.8404   20.0894 O   0  0  0  0  0  0
  -21.6652   -6.8879   21.4240 O   0  0  0  0  0  0
  -22.3519  -14.5549   20.6710 O   0  0  0  0  0  0
  -24.6302  -31.8574   23.2004 C   0  0  0  0  0  0
  -25.9138  -32.4765   23.8346 C   0  0  1  0  0  0
  -27.2143  -27.2742   20.1215 C   0  0  0  0  0  0
  -25.5940  -33.8570   24.2264 N   0  0  0  0  0  0
  -23.4251  -30.4836   21.5420 C   0  0  2  0  0  0
  -24.8711  -28.9360   20.1065 C   0  0  0  0  0  0
  -22.7494  -29.4630   22.4892 C   0  0  0  0  0  0
  -18.0293  -28.1389   22.8472 C   0  0  0  0  0  0
  -24.1488  -36.7293   23.2638 C   0  0  0  0  0  0
  -25.9710  -30.7717   21.3809 C   0  0  0  0  0  0
  -26.0415  -29.3966   20.7218 C   0  0  0  0  0  0
  -27.2142  -28.5769   20.7235 C   0  0  0  0  0  0
  -26.0254  -26.8930   19.4560 C   0  0  0  0  0  0
  -24.8676  -27.6912   19.4631 C   0  0  0  0  0  0
  -23.6429  -29.8225   20.1562 C   0  0  0  0  0  0
  -25.4110  -36.3075   24.0324 C   0  0  1  0  0  0
  -20.5895  -28.3710   23.1250 C   0  0  2  0  0  0
  -20.6776  -26.9427   22.5397 C   0  0  0  0  0  0
  -19.5753  -26.6387   21.5200 C   0  0  0  0  0  0
  -18.1935  -26.7928   22.1617 C   0  0  0  0  0  0
  -19.1547  -28.8862   23.2858 C   0  0  0  0  0  0
  -18.9477  -30.1456   23.8893 C   0  0  0  0  0  0
  -17.6481  -30.6590   24.0565 C   0  0  0  0  0  0
  -25.9053  -34.9446   23.5090 C   0  0  0  0  0  0
  -16.5367  -29.9092   23.6330 C   0  0  0  0  0  0
  -16.7282  -28.6506   23.0346 C   0  0  0  0  0  0
  -26.4507  -31.6591   25.0738 C   0  0  0  0  0  0
  -25.3732  -31.3757   26.1462 C   0  0  0  0  0  0
  -27.0352  -30.3004   24.6230 C   0  0  0  0  0  0
  -27.6051  -32.4342   25.7516 C   0  0  0  0  0  0
  -27.5574  -37.1802   24.8461 C   0  0  0  0  0  0
  -21.4202  -29.3059   22.3641 N   0  0  0  0  0  0
  -26.4281  -37.3778   23.9410 N   0  0  0  0  0  0
  -24.6941  -31.0556   22.0974 N   0  0  0  0  0  0
  -23.4195  -28.8148   23.2977 O   0  0  0  0  0  0
  -28.3044  -26.3769   20.2054 O   0  0  0  0  0  0
  -26.5627  -34.8923   22.4663 O   0  0  0  0  0  0
  -23.5453  -32.1392   23.7310 O   0  0  0  0  0  0
  -29.6569  -19.6573   18.6808 C   0  0  0  0  0  0
  -29.8369  -18.4352   18.0021 C   0  0  0  0  0  0
  -29.5209  -19.6981   20.0852 C   0  0  0  0  0  0
  -29.8168  -17.1520   20.1009 C   0  0  0  0  0  0
  -29.9119  -17.2085   18.6888 C   0  0  0  0  0  0
  -29.5928  -18.4194   20.7796 C   0  0  0  0  0  0
  -29.3950  -21.1190   20.7950 C   0  0  0  0  0  0
  -28.9928  -23.7478   20.5552 C   0  0  0  0  0  0
  -28.0854  -24.9180   19.9144 C   0  0  0  0  0  0
  -29.8312  -15.8240   20.7578 N   0  0  0  0  0  0
  -28.7625  -22.3063   20.0551 N   0  3  0  0  0  0
  -30.0325  -16.0728   17.9594 F   0  0  0  0  0  0
  -29.4549  -18.4087   22.1277 F   0  0  0  0  0  0
  -31.4780  -12.5625   19.1677 H   0  0  0  0  0  0
  -30.3879  -11.4509   19.9441 H   0  0  0  0  0  0
  -29.7884  -11.7322   17.5153 H   0  0  0  0  0  0
  -29.6454  -13.4579   17.7283 H   0  0  0  0  0  0
  -27.8859  -11.2837   18.9035 H   0  0  0  0  0  0
  -27.3836  -12.5412   17.8022 H   0  0  0  0  0  0
  -27.6553  -14.2522   19.4885 H   0  0  0  0  0  0
  -28.7158  -12.1237   21.4137 H   0  0  0  0  0  0
  -28.4271  -13.7946   21.8179 H   0  0  0  0  0  0
  -25.2784   -9.5685   22.4737 H   0  0  0  0  0  0
  -24.0013   -7.4644   22.7459 H   0  0  0  0  0  0
  -21.0836   -8.8807   19.8950 H   0  0  0  0  0  0
  -22.3729  -10.9681   19.6169 H   0  0  0  0  0  0
  -21.2045   -7.6154   23.9708 H   0  0  0  0  0  0
  -21.1455   -6.0520   25.9061 H   0  0  0  0  0  0
  -22.0614   -2.7615   23.2830 H   0  0  0  0  0  0
  -22.4157  -11.9879   22.4771 H   0  0  0  0  0  0
  -21.1137  -13.1236   22.2648 H   0  0  0  0  0  0
  -24.6699  -15.8515   20.5266 H   0  0  0  0  0  0
  -26.2830  -15.6229   20.0791 H   0  0  0  0  0  0
  -26.7204  -32.5413   23.1086 H   0  0  0  0  0  0
  -25.0087  -33.9713   25.0406 H   0  0  0  0  0  0
  -22.7212  -31.3060   21.3992 H   0  0  0  0  0  0
  -23.3747  -35.9629   23.3292 H   0  0  0  0  0  0
  -24.3574  -36.8928   22.2053 H   0  0  0  0  0  0
  -23.7247  -37.6495   23.6669 H   0  0  0  0  0  0
  -26.1111  -31.5322   20.6114 H   0  0  0  0  0  0
  -26.8483  -30.8184   22.0140 H   0  0  0  0  0  0
  -28.1046  -28.9217   21.2299 H   0  0  0  0  0  0
  -25.9501  -25.9556   18.9269 H   0  0  0  0  0  0
  -23.9755  -27.3382   18.9644 H   0  0  0  0  0  0
  -23.7701  -30.6018   19.4040 H   0  0  0  0  0  0
  -22.7600  -29.2594   19.8474 H   0  0  0  0  0  0
  -25.1291  -36.1916   25.0818 H   0  0  0  0  0  0
  -20.9989  -28.3293   24.1369 H   0  0  0  0  0  0
  -20.5652  -26.2335   23.3607 H   0  0  0  0  0  0
  -21.6649  -26.7433   22.1213 H   0  0  0  0  0  0
  -19.6916  -25.6289   21.1245 H   0  0  0  0  0  0
  -19.6682  -27.3181   20.6711 H   0  0  0  0  0  0
  -17.4198  -26.6654   21.4031 H   0  0  0  0  0  0
  -18.0354  -26.0075   22.9023 H   0  0  0  0  0  0
  -19.7956  -30.7266   24.2261 H   0  0  0  0  0  0
  -17.5041  -31.6270   24.5170 H   0  0  0  0  0  0
  -15.5367  -30.3001   23.7657 H   0  0  0  0  0  0
  -15.8674  -28.0832   22.7061 H   0  0  0  0  0  0
  -24.5879  -30.7134   25.7801 H   0  0  0  0  0  0
  -24.8963  -32.2941   26.4897 H   0  0  0  0  0  0
  -25.8049  -30.8925   27.0235 H   0  0  0  0  0  0
  -26.2941  -29.6752   24.1236 H   0  0  0  0  0  0
  -27.4005  -29.7272   25.4761 H   0  0  0  0  0  0
  -27.8834  -30.4272   23.9499 H   0  0  0  0  0  0
  -27.2635  -33.3631   26.2099 H   0  0  0  0  0  0
  -28.3863  -32.6925   25.0353 H   0  0  0  0  0  0
  -28.0719  -31.8474   26.5436 H   0  0  0  0  0  0
  -28.2589  -38.0104   24.7514 H   0  0  0  0  0  0
  -28.1077  -36.2637   24.6271 H   0  0  0  0  0  0
  -27.2301  -37.1437   25.8868 H   0  0  0  0  0  0
  -20.9374  -29.8822   21.6888 H   0  0  0  0  0  0
  -26.0155  -38.2852   24.1418 H   0  0  0  0  0  0
  -29.6275  -20.5648   18.0967 H   0  0  0  0  0  0
  -29.9137  -18.4344   16.9234 H   0  0  0  0  0  0
  -30.4098  -21.4072   21.0719 H   0  0  0  0  0  0
  -28.8593  -20.9841   21.7357 H   0  0  0  0  0  0
  -28.8451  -23.7621   21.6355 H   0  0  0  0  0  0
  -30.0436  -23.9914   20.3945 H   0  0  0  0  0  0
  -27.0706  -24.6521   20.2096 H   0  0  0  0  0  0
  -28.1238  -24.8185   18.8287 H   0  0  0  0  0  0
  -29.0014  -15.6240   21.2936 H   0  0  0  0  0  0
  -27.7707  -22.1288   20.0244 H   0  0  0  0  0  0
  -29.0909  -22.2728   19.1043 H   0  0  0  0  0  0
  1 25  1  0  0  0
  1 30  2  0  0  0
  1 80  1  0  0  0
  2  3  1  0  0  0
  2 25  1  0  0  0
  2 84  1  0  0  0
  2 85  1  0  0  0
  3  4  1  0  0  0
  3 86  1  0  0  0
  3 87  1  0  0  0
  4  5  1  0  0  0
  4 88  1  0  0  0
  4 89  1  0  0  0
  5  6  1  0  0  0
  5 26  1  0  0  0
  5 90  1  0  0  0
  6 25  1  0  0  0
  6 91  1  0  0  0
  6 92  1  0  0  0
  7  8  2  0  0  0
  7 26  1  0  0  0
  7 29  1  0  0  0
  8  9  1  0  0  0
  8 22  1  0  0  0
  9 10  1  0  0  0
  9 27  2  0  0  0
 10 11  2  0  0  0
 10 15  1  0  0  0
 11 12  1  0  0  0
 11 93  1  0  0  0
 12 13  2  0  0  0
 12 94  1  0  0  0
 13 14  1  0  0  0
 13 31  1  0  0  0
 14 15  2  0  0  0
 14 95  1  0  0  0
 15 96  1  0  0  0
 16 17  2  0  0  0
 16 21  1  0  0  0
 16 31  1  0  0  0
 17 18  1  0  0  0
 17 97  1  0  0  0
 18 19  2  0  0  0
 18 98  1  0  0  0
 19 20  1  0  0  0
 19 24  1  0  0  0
 20 21  2  0  0  0
 20 99  1  0  0  0
 21 23  1  0  0  0
 22 28  1  0  0  0
 22 32  2  0  0  0
 26 27  1  0  0  0
 28100  1  0  0  0
 28101  1  0  0  0
 29102  1  0  0  0
 29103  1  0  0  0
 33 34  1  0  0  0
 33 66  1  0  0  0
 33 70  2  0  0  0
 34 36  1  0  0  0
 34 59  1  0  0  0
 34104  1  0  0  0
 35 44  2  0  0  0
 35 45  1  0  0  0
 35 68  1  0  0  0
 36 56  1  0  0  0
 36105  1  0  0  0
 37 39  1  0  0  0
 37 47  1  0  0  0
 37 66  1  0  0  0
 37106  1  0  0  0
 38 43  2  0  0  0
 38 46  1  0  0  0
 38 47  1  0  0  0
 39 64  1  0  0  0
 39 67  2  0  0  0
 40 52  1  0  0  0
 40 53  2  0  0  0
 40 58  1  0  0  0
 41107  1  0  0  0
 41108  1  0  0  0
 41109  1  0  0  0
 41 48  1  0  0  0
 42 43  1  0  0  0
 42 66  1  0  0  0
 42110  1  0  0  0
 42111  1  0  0  0
 43 44  1  0  0  0
 44112  1  0  0  0
 45 46  2  0  0  0
 45113  1  0  0  0
 46114  1  0  0  0
 47115  1  0  0  0
 47116  1  0  0  0
 48 56  1  0  0  0
 48 65  1  0  0  0
 48117  1  0  0  0
 49 50  1  0  0  0
 49 53  1  0  0  0
 49 64  1  0  0  0
 49118  1  0  0  0
 50 51  1  0  0  0
 50119  1  0  0  0
 50120  1  0  0  0
 51 52  1  0  0  0
 51121  1  0  0  0
 51122  1  0  0  0
 52123  1  0  0  0
 52124  1  0  0  0
 53 54  1  0  0  0
 54 55  2  0  0  0
 54125  1  0  0  0
 55 57  1  0  0  0
 55126  1  0  0  0
 56 69  2  0  0  0
 57 58  2  0  0  0
 57127  1  0  0  0
 58128  1  0  0  0
 59 60  1  0  0  0
 59 61  1  0  0  0
 59 62  1  0  0  0
 60129  1  0  0  0
 60130  1  0  0  0
 60131  1  0  0  0
 61132  1  0  0  0
 61133  1  0  0  0
 61134  1  0  0  0
 62135  1  0  0  0
 62136  1  0  0  0
 62137  1  0  0  0
 63 65  1  0  0  0
 63138  1  0  0  0
 63139  1  0  0  0
 63140  1  0  0  0
 64141  1  0  0  0
 65142  1  0  0  0
 68 79  1  0  0  0
 71 72  2  0  0  0
 71 73  1  0  0  0
 71143  1  0  0  0
 72 75  1  0  0  0
 72144  1  0  0  0
 73 76  2  0  0  0
 73 77  1  0  0  0
 74 75  2  0  0  0
 74 76  1  0  0  0
 74 80  1  0  0  0
 75 82  1  0  0  0
 76 83  1  0  0  0
 77 81  1  0  0  0
 77145  1  0  0  0
 77146  1  0  0  0
 78 79  1  0  0  0
 78 81  1  0  0  0
 78147  1  0  0  0
 78148  1  0  0  0
 79149  1  0  0  0
 79150  1  0  0  0
 80151  1  0  0  0
 81152  1  0  0  0
 81153  1  0  0  0
M  CHG  1  81   1
M  ISO  4   1 100  68 101  79 101  80 100
M  END
> <chiral flag>
0

> <version>
0

> <s_m_source_file>
/data/baiqing/PycharmProjects/Reinvent-master-3.2/result/LINK_invent/BTK/process_docking_weight1_custom_product_contain_oxygen_bond_distance_aromatic_linkinvent_7_9_3/rearranged_h_0008.sdf

> <i_m_source_file_index>
80

> <r_mmod_Potential_Energy-OPLS-2005>
-103.056800842285

> <r_mmod_Stretch_Energy-OPLS-2005>
112.026916503906

> <r_mmod_Bend_Energy-OPLS-2005>
146.14729309082

> <r_mmod_Torsional_Energy-OPLS-2005>
235.976837158203

> <r_mmod_Improper_Torsional_Energy-OPLS-2005>
4.66584825515747

> <r_mmod_Van_der_Waal_Energy-OPLS-2005>
142.06103515625

> <r_mmod_Electrostatic_Energy-OPLS-2005>
-332.122497558594

> <r_mmod_Solvation_Energy-OPLS-2005>
-489.394561767578

> <b_mmod_Minimization_Converged-OPLS-2005>
0

> <r_mmod_RMS_Derivative-OPLS-2005>
1.87935221195221

$$$$
81
                    3D
 Structure written by MMmdl.
149157  0  0  1  0            999 V2000
  -30.4962  -15.0451   20.3897 C   0  0  0  0  0  0
  -30.4415  -12.6421   19.5355 C   0  0  0  0  0  0
  -29.5331  -12.5462   18.2847 C   0  0  0  0  0  0
  -28.0682  -12.3142   18.6947 C   0  0  0  0  0  0
  -27.6280  -13.2576   19.8438 C   0  0  2  0  0  0
  -28.6628  -13.3207   20.9909 C   0  0  0  0  0  0
  -25.2442  -13.8233   20.5718 C   0  0  0  0  0  0
  -24.1773  -13.0443   20.9232 C   0  0  0  0  0  0
  -24.6403  -11.6936   20.8758 C   0  0  0  0  0  0
  -23.9093  -10.4295   21.0401 C   0  0  0  0  0  0
  -24.3640   -9.4204   21.9172 C   0  0  0  0  0  0
  -23.6309   -8.2240   22.0738 C   0  0  0  0  0  0
  -22.4284   -8.0286   21.3535 C   0  0  0  0  0  0
  -21.9925   -9.0264   20.4638 C   0  0  0  0  0  0
  -22.7263  -10.2140   20.3048 C   0  0  0  0  0  0
  -21.6855   -6.0743   22.5274 C   0  0  0  0  0  0
  -21.4020   -6.5640   23.8213 C   0  0  0  0  0  0
  -21.3667   -5.6787   24.9172 C   0  0  0  0  0  0
  -21.6044   -4.3049   24.7219 C   0  0  0  0  0  0
  -21.8821   -3.8149   23.4336 C   0  0  0  0  0  0
  -21.9200   -4.6972   22.3395 C   0  0  0  0  0  0
  -22.7788  -13.5206   21.1884 C   0  0  0  0  0  0
  -22.1660   -4.2157   21.0968 F   0  0  0  0  0  0
  -21.5628   -3.4532   25.7727 F   0  0  0  0  0  0
  -29.9386  -13.7557   20.4037 N   0  0  0  0  0  0
  -26.2872  -12.9480   20.3264 N   0  0  0  0  0  0
  -25.9340  -11.6601   20.5755 N   0  0  0  0  0  0
  -22.0457  -12.8193   22.0453 N   0  0  0  0  0  0
  -25.4122  -15.1963   20.4109 N   0  0  0  0  0  0
  -31.6718  -15.1173   20.0130 O   0  0  0  0  0  0
  -21.6642   -6.8887   21.4237 O   0  0  0  0  0  0
  -22.3459  -14.5503   20.6726 O   0  0  0  0  0  0
  -24.6458  -31.8372   23.1811 C   0  0  0  0  0  0
  -25.9209  -32.4660   23.8224 C   0  0  1  0  0  0
  -27.2257  -27.0799   20.1585 C   0  0  0  0  0  0
  -25.5950  -33.8468   24.2145 N   0  0  0  0  0  0
  -23.4544  -30.4511   21.5255 C   0  0  2  0  0  0
  -24.9091  -28.8674   20.0995 C   0  0  0  0  0  0
  -22.7592  -29.4489   22.4815 C   0  0  0  0  0  0
  -18.0308  -28.1397   22.8478 C   0  0  0  0  0  0
  -24.1491  -36.7226   23.2646 C   0  0  0  0  0  0
  -26.0116  -30.6925   21.3896 C   0  0  0  0  0  0
  -26.0824  -29.2986   20.7286 C   0  0  0  0  0  0
  -27.2329  -28.4181   20.7443 C   0  0  0  0  0  0
  -26.0283  -26.7601   19.4819 C   0  0  0  0  0  0
  -24.8987  -27.6156   19.4598 C   0  0  0  0  0  0
  -23.6857  -29.7744   20.1454 C   0  0  0  0  0  0
  -25.4129  -36.3008   24.0314 C   0  0  1  0  0  0
  -20.5922  -28.3720   23.1235 C   0  0  2  0  0  0
  -20.6789  -26.9415   22.5419 C   0  0  0  0  0  0
  -19.5764  -26.6378   21.5225 C   0  0  0  0  0  0
  -18.1940  -26.7934   22.1622 C   0  0  0  0  0  0
  -19.1563  -28.8879   23.2847 C   0  0  0  0  0  0
  -18.9483  -30.1476   23.8871 C   0  0  0  0  0  0
  -17.6475  -30.6590   24.0560 C   0  0  0  0  0  0
  -25.9087  -34.9388   23.5041 C   0  0  0  0  0  0
  -16.5369  -29.9081   23.6341 C   0  0  0  0  0  0
  -16.7292  -28.6500   23.0360 C   0  0  0  0  0  0
  -26.4529  -31.6553   25.0687 C   0  0  0  0  0  0
  -25.3701  -31.3752   26.1372 C   0  0  0  0  0  0
  -27.0420  -30.2948   24.6309 C   0  0  0  0  0  0
  -27.6051  -32.4344   25.7467 C   0  0  0  0  0  0
  -27.5583  -37.1757   24.8462 C   0  0  0  0  0  0
  -21.4273  -29.3027   22.3588 N   0  0  0  0  0  0
  -26.4280  -37.3736   23.9423 N   0  0  0  0  0  0
  -24.7237  -31.0166   22.0871 N   0  0  0  0  0  0
  -23.4210  -28.8046   23.2995 O   0  0  0  0  0  0
  -28.2731  -26.0842   20.3287 O   0  0  0  0  0  0
  -26.5675  -34.8904   22.4622 O   0  0  0  0  0  0
  -23.5567  -32.1282   23.6994 O   0  0  0  0  0  0
  -30.9553  -19.6006   20.9521 C   0  0  0  0  0  0
  -31.3191  -20.9412   21.2269 C   0  0  0  0  0  0
  -28.8190  -20.4696   20.1993 C   0  0  0  0  0  0
  -29.7009  -19.2595   20.4106 C   0  0  0  0  0  0
  -29.1563  -21.9112   20.4951 C   0  0  0  0  0  0
  -30.4648  -22.0497   21.0106 C   0  0  0  0  0  0
  -29.5229  -17.6641   19.9089 C   0  0  0  0  0  0
  -28.2185  -23.3129   20.5510 C   0  0  0  0  0  0
  -29.7115  -16.2308   20.6191 N   0  0  0  0  0  0
  -28.2436  -24.6106   19.6506 N   0  0  0  0  0  0
  -30.9139  -23.2794   21.3591 F   0  0  0  0  0  0
  -31.4763  -12.7993   19.2291 H   0  0  0  0  0  0
  -30.4429  -11.6990   20.0841 H   0  0  0  0  0  0
  -29.8717  -11.7425   17.6286 H   0  0  0  0  0  0
  -29.6107  -13.4695   17.7085 H   0  0  0  0  0  0
  -27.9802  -11.2765   19.0186 H   0  0  0  0  0  0
  -27.4073  -12.4238   17.8341 H   0  0  0  0  0  0
  -27.5826  -14.2519   19.3979 H   0  0  0  0  0  0
  -28.7646  -12.3530   21.4858 H   0  0  0  0  0  0
  -28.3416  -14.0277   21.7571 H   0  0  0  0  0  0
  -25.2789   -9.5674   22.4736 H   0  0  0  0  0  0
  -24.0031   -7.4624   22.7437 H   0  0  0  0  0  0
  -21.0864   -8.8785   19.8930 H   0  0  0  0  0  0
  -22.3730  -10.9678   19.6152 H   0  0  0  0  0  0
  -21.2010   -7.6149   23.9724 H   0  0  0  0  0  0
  -21.1483   -6.0510   25.9081 H   0  0  0  0  0  0
  -22.0598   -2.7611   23.2826 H   0  0  0  0  0  0
  -22.4108  -11.9882   22.4863 H   0  0  0  0  0  0
  -21.1052  -13.1168   22.2633 H   0  0  0  0  0  0
  -24.6414  -15.8486   20.5068 H   0  0  0  0  0  0
  -26.2549  -15.6308   20.0567 H   0  0  0  0  0  0
  -26.7264  -32.5248   23.0939 H   0  0  0  0  0  0
  -25.0106  -33.9583   25.0299 H   0  0  0  0  0  0
  -22.7590  -31.2780   21.3638 H   0  0  0  0  0  0
  -23.3782  -35.9526   23.3271 H   0  0  0  0  0  0
  -24.3589  -36.8896   22.2070 H   0  0  0  0  0  0
  -23.7214  -37.6396   23.6710 H   0  0  0  0  0  0
  -26.1763  -31.4473   20.6189 H   0  0  0  0  0  0
  -26.8783  -30.7418   22.0370 H   0  0  0  0  0  0
  -28.1190  -28.7356   21.2753 H   0  0  0  0  0  0
  -25.9270  -25.7964   19.0074 H   0  0  0  0  0  0
  -24.0013  -27.2813   18.9573 H   0  0  0  0  0  0
  -23.8233  -30.5472   19.3880 H   0  0  0  0  0  0
  -22.8008  -29.2163   19.8349 H   0  0  0  0  0  0
  -25.1313  -36.1820   25.0807 H   0  0  0  0  0  0
  -21.0024  -28.3318   24.1353 H   0  0  0  0  0  0
  -20.5687  -26.2329   23.3639 H   0  0  0  0  0  0
  -21.6653  -26.7413   22.1213 H   0  0  0  0  0  0
  -19.6929  -25.6288   21.1260 H   0  0  0  0  0  0
  -19.6713  -27.3185   20.6752 H   0  0  0  0  0  0
  -17.4222  -26.6705   21.4013 H   0  0  0  0  0  0
  -18.0315  -26.0079   22.9017 H   0  0  0  0  0  0
  -19.7963  -30.7304   24.2222 H   0  0  0  0  0  0
  -17.5030  -31.6268   24.5167 H   0  0  0  0  0  0
  -15.5369  -30.2971   23.7683 H   0  0  0  0  0  0
  -15.8694  -28.0813   22.7083 H   0  0  0  0  0  0
  -24.5900  -30.7078   25.7685 H   0  0  0  0  0  0
  -24.8868  -32.2936   26.4718 H   0  0  0  0  0  0
  -25.7974  -30.8980   27.0198 H   0  0  0  0  0  0
  -26.3054  -29.6641   24.1317 H   0  0  0  0  0  0
  -27.4030  -29.7278   25.4899 H   0  0  0  0  0  0
  -27.8955  -30.4187   23.9637 H   0  0  0  0  0  0
  -27.2650  -33.3705   26.1908 H   0  0  0  0  0  0
  -28.3918  -32.6803   25.0321 H   0  0  0  0  0  0
  -28.0641  -31.8550   26.5489 H   0  0  0  0  0  0
  -28.2541  -38.0111   24.7576 H   0  0  0  0  0  0
  -28.1132  -36.2640   24.6193 H   0  0  0  0  0  0
  -27.2308  -37.1282   25.8863 H   0  0  0  0  0  0
  -20.9487  -29.8734   21.6762 H   0  0  0  0  0  0
  -26.0133  -38.2786   24.1489 H   0  0  0  0  0  0
  -31.6863  -18.8221   21.1189 H   0  0  0  0  0  0
  -32.3043  -21.1326   21.6285 H   0  0  0  0  0  0
  -27.8347  -20.2832   19.7925 H   0  0  0  0  0  0
  -30.1490  -17.5993   19.0176 H   0  0  0  0  0  0
  -28.5090  -17.6250   19.5108 H   0  0  0  0  0  0
  -28.3424  -23.6798   21.5709 H   0  0  0  0  0  0
  -27.1844  -22.9664   20.5258 H   0  0  0  0  0  0
  -28.8693  -15.9834   21.1171 H   0  0  0  0  0  0
  -27.3992  -24.6033   19.0878 H   0  0  0  0  0  0
  1 25  1  0  0  0
  1 30  2  0  0  0
  1 79  1  0  0  0
  2  3  1  0  0  0
  2 25  1  0  0  0
  2 82  1  0  0  0
  2 83  1  0  0  0
  3  4  1  0  0  0
  3 84  1  0  0  0
  3 85  1  0  0  0
  4  5  1  0  0  0
  4 86  1  0  0  0
  4 87  1  0  0  0
  5  6  1  0  0  0
  5 26  1  0  0  0
  5 88  1  0  0  0
  6 25  1  0  0  0
  6 89  1  0  0  0
  6 90  1  0  0  0
  7  8  2  0  0  0
  7 26  1  0  0  0
  7 29  1  0  0  0
  8  9  1  0  0  0
  8 22  1  0  0  0
  9 10  1  0  0  0
  9 27  2  0  0  0
 10 11  2  0  0  0
 10 15  1  0  0  0
 11 12  1  0  0  0
 11 91  1  0  0  0
 12 13  2  0  0  0
 12 92  1  0  0  0
 13 14  1  0  0  0
 13 31  1  0  0  0
 14 15  2  0  0  0
 14 93  1  0  0  0
 15 94  1  0  0  0
 16 17  2  0  0  0
 16 21  1  0  0  0
 16 31  1  0  0  0
 17 18  1  0  0  0
 17 95  1  0  0  0
 18 19  2  0  0  0
 18 96  1  0  0  0
 19 20  1  0  0  0
 19 24  1  0  0  0
 20 21  2  0  0  0
 20 97  1  0  0  0
 21 23  1  0  0  0
 22 28  1  0  0  0
 22 32  2  0  0  0
 26 27  1  0  0  0
 28 98  1  0  0  0
 28 99  1  0  0  0
 29100  1  0  0  0
 29101  1  0  0  0
 33 34  1  0  0  0
 33 66  1  0  0  0
 33 70  2  0  0  0
 34 36  1  0  0  0
 34 59  1  0  0  0
 34102  1  0  0  0
 35 44  2  0  0  0
 35 45  1  0  0  0
 35 68  1  0  0  0
 36 56  1  0  0  0
 36103  1  0  0  0
 37 39  1  0  0  0
 37 47  1  0  0  0
 37 66  1  0  0  0
 37104  1  0  0  0
 38 43  2  0  0  0
 38 46  1  0  0  0
 38 47  1  0  0  0
 39 64  1  0  0  0
 39 67  2  0  0  0
 40 52  1  0  0  0
 40 53  2  0  0  0
 40 58  1  0  0  0
 41105  1  0  0  0
 41106  1  0  0  0
 41107  1  0  0  0
 41 48  1  0  0  0
 42 43  1  0  0  0
 42 66  1  0  0  0
 42108  1  0  0  0
 42109  1  0  0  0
 43 44  1  0  0  0
 44110  1  0  0  0
 45 46  2  0  0  0
 45111  1  0  0  0
 46112  1  0  0  0
 47113  1  0  0  0
 47114  1  0  0  0
 48 56  1  0  0  0
 48 65  1  0  0  0
 48115  1  0  0  0
 49 50  1  0  0  0
 49 53  1  0  0  0
 49 64  1  0  0  0
 49116  1  0  0  0
 50 51  1  0  0  0
 50117  1  0  0  0
 50118  1  0  0  0
 51 52  1  0  0  0
 51119  1  0  0  0
 51120  1  0  0  0
 52121  1  0  0  0
 52122  1  0  0  0
 53 54  1  0  0  0
 54 55  2  0  0  0
 54123  1  0  0  0
 55 57  1  0  0  0
 55124  1  0  0  0
 56 69  2  0  0  0
 57 58  2  0  0  0
 57125  1  0  0  0
 58126  1  0  0  0
 59 60  1  0  0  0
 59 61  1  0  0  0
 59 62  1  0  0  0
 60127  1  0  0  0
 60128  1  0  0  0
 60129  1  0  0  0
 61130  1  0  0  0
 61131  1  0  0  0
 61132  1  0  0  0
 62133  1  0  0  0
 62134  1  0  0  0
 62135  1  0  0  0
 63 65  1  0  0  0
 63136  1  0  0  0
 63137  1  0  0  0
 63138  1  0  0  0
 64139  1  0  0  0
 65140  1  0  0  0
 68 80  1  0  0  0
 71 72  2  0  0  0
 71 74  1  0  0  0
 71141  1  0  0  0
 72 76  1  0  0  0
 72142  1  0  0  0
 73 74  2  0  0  0
 73 75  1  0  0  0
 73143  1  0  0  0
 74 77  1  0  0  0
 75 76  2  0  0  0
 75 78  1  0  0  0
 76 81  1  0  0  0
 77 79  1  0  0  0
 77144  1  0  0  0
 77145  1  0  0  0
 78 80  1  0  0  0
 78146  1  0  0  0
 78147  1  0  0  0
 79148  1  0  0  0
 80149  1  0  0  0
M  ISO  4   1 100  68 101  79 100  80 101
M  END
> <chiral flag>
0

> <version>
0

> <s_m_source_file>
/data/baiqing/PycharmProjects/Reinvent-master-3.2/result/LINK_invent/BTK/process_docking_weight1_custom_product_contain_oxygen_bond_distance_aromatic_linkinvent_7_9_3/rearranged_h_0008.sdf

> <i_m_source_file_index>
81

> <r_mmod_Potential_Energy-OPLS-2005>
692.256958007812

> <r_mmod_Stretch_Energy-OPLS-2005>
334.300537109375

> <r_mmod_Bend_Energy-OPLS-2005>
339.138702392578

> <r_mmod_Torsional_Energy-OPLS-2005>
233.669540405273

> <r_mmod_Improper_Torsional_Energy-OPLS-2005>
8.39420604705811

> <r_mmod_Van_der_Waal_Energy-OPLS-2005>
124.71949005127

> <r_mmod_Electrostatic_Energy-OPLS-2005>
-374.290954589844

> <r_mmod_Solvation_Energy-OPLS-2005>
-234.690612792969

> <b_mmod_Minimization_Converged-OPLS-2005>
0

> <r_mmod_RMS_Derivative-OPLS-2005>
1.35852372646332

$$$$
82
                    3D
 Structure written by MMmdl.
159167  0  0  1  0            999 V2000
  -27.3888  -17.3757   20.8984 C   0  0  0  0  0  0
  -29.3028  -14.9075   19.7506 C   0  0  0  0  0  0
  -29.2838  -13.5573   18.7536 C   0  0  0  0  0  0
  -28.2340  -12.5214   19.1288 C   0  0  0  0  0  0
  -27.3023  -13.4028   19.9319 C   0  0  2  0  0  0
  -27.8374  -14.2929   21.1113 C   0  0  0  0  0  0
  -25.0230  -13.7938   20.5427 C   0  0  0  0  0  0
  -24.0268  -12.9908   20.9391 C   0  0  0  0  0  0
  -24.5455  -11.6593   20.8956 C   0  0  0  0  0  0
  -23.8571  -10.3971   21.0565 C   0  0  0  0  0  0
  -24.3334   -9.4002   21.9313 C   0  0  0  0  0  0
  -23.6128   -8.1990   22.0793 C   0  0  0  0  0  0
  -22.4130   -8.0022   21.3543 C   0  0  0  0  0  0
  -21.9663   -8.9921   20.4639 C   0  0  0  0  0  0
  -22.6857  -10.1830   20.3115 C   0  0  0  0  0  0
  -21.6775   -6.0602   22.5311 C   0  0  0  0  0  0
  -21.3948   -6.5559   23.8221 C   0  0  0  0  0  0
  -21.3630   -5.6738   24.9199 C   0  0  0  0  0  0
  -21.6048   -4.3003   24.7277 C   0  0  0  0  0  0
  -21.8822   -3.8069   23.4409 C   0  0  0  0  0  0
  -21.9174   -4.6856   22.3451 C   0  0  0  0  0  0
  -22.6471  -13.4685   21.2135 C   0  0  0  0  0  0
  -22.1664   -4.2045   21.1030 F   0  0  0  0  0  0
  -21.5641   -3.4513   25.7802 F   0  0  0  0  0  0
  -27.9565  -15.7222   20.5335 N   0  0  0  0  0  0
  -26.0667  -12.9347   20.3179 N   0  0  0  0  0  0
  -25.8305  -11.6418   20.5805 N   0  0  0  0  0  0
  -21.9334  -12.7794   22.0885 N   0  0  0  0  0  0
  -25.1091  -15.1718   20.3384 N   0  0  0  0  0  0
  -28.7434  -17.4025   20.7655 O   0  0  0  0  0  0
  -21.6526   -6.8650   21.4236 O   0  0  0  0  0  0
  -22.2274  -14.5065   20.7007 O   0  0  0  0  0  0
  -24.6475  -32.0975   22.9814 C   0  0  0  0  0  0
  -25.9249  -32.5640   23.7714 C   0  0  1  0  0  0
  -26.3567  -27.5316   21.1880 C   0  0  0  0  0  0
  -25.6110  -33.9127   24.2215 N   0  0  0  0  0  0
  -23.5181  -30.7645   21.0747 C   0  0  2  0  0  0
  -25.0433  -29.2633   19.7238 C   0  0  0  0  0  0
  -23.3726  -29.4893   21.8278 C   0  0  0  0  0  0
  -19.3764  -25.7918   23.4654 C   0  0  0  0  0  0
  -24.1504  -36.7637   23.2654 C   0  0  0  0  0  0
  -26.0330  -31.1409   21.1183 C   0  0  0  0  0  0
  -26.0919  -29.7247   20.5480 C   0  0  0  0  0  0
  -26.9546  -28.7915   21.1227 C   0  0  0  0  0  0
  -25.8271  -27.0046   19.9846 C   0  0  0  0  0  0
  -25.0228  -27.9176   19.2844 C   0  0  0  0  0  0
  -23.8319  -30.1873   19.6698 C   0  0  0  0  0  0
  -25.4098  -36.3438   24.0362 C   0  0  1  0  0  0
  -21.9819  -27.1336   22.6099 C   0  0  2  0  0  0
  -22.3430  -26.4871   21.0715 C   0  0  0  0  0  0
  -21.4034  -25.7234   19.9395 C   0  0  0  0  0  0
  -20.2414  -24.7328   20.4950 C   0  0  0  0  0  0
  -20.3245  -26.9937   23.8858 C   0  0  0  0  0  0
  -19.6025  -28.1881   24.6954 C   0  0  0  0  0  0
  -18.4012  -28.9687   24.3897 C   0  0  0  0  0  0
  -25.9084  -34.9968   23.5033 C   0  0  0  0  0  0
  -17.4925  -28.1050   23.7942 C   0  0  0  0  0  0
  -17.9509  -26.6737   23.6147 C   0  0  0  0  0  0
  -26.4336  -31.6989   25.0056 C   0  0  0  0  0  0
  -25.3730  -31.4108   26.0917 C   0  0  0  0  0  0
  -27.0332  -30.3587   24.5343 C   0  0  0  0  0  0
  -27.5975  -32.4510   25.6987 C   0  0  0  0  0  0
  -27.5619  -37.1979   24.8463 C   0  0  0  0  0  0
  -22.5696  -28.3854   21.6588 N   0  0  0  0  0  0
  -26.4279  -37.4094   23.9502 N   0  0  0  0  0  0
  -24.7213  -31.5217   21.7111 N   0  0  0  0  0  0
  -24.1618  -29.5245   22.6838 O   0  0  0  0  0  0
  -25.7765  -27.0866   22.4465 O   0  0  0  0  0  0
  -26.5518  -34.9483   22.4514 O   0  0  0  0  0  0
  -23.5600  -32.2232   23.5679 O   0  0  0  0  0  0
  -18.3978  -25.5332   21.4187 C   0  0  0  0  0  0
  -18.7401  -23.8608   22.0038 C   0  0  0  0  0  0
  -21.3109  -24.7333   22.4071 C   0  0  0  0  0  0
  -19.9188  -26.5724   21.5539 C   0  0  0  0  0  0
  -20.1805  -22.8314   22.1582 C   0  0  0  0  0  0
  -21.9062  -22.8473   22.0084 C   0  0  0  0  0  0
  -23.8089  -20.6967   21.7442 C   0  0  0  0  0  0
  -20.0874  -28.5096   21.9943 C   0  0  0  0  0  0
  -22.7412  -28.6217   24.3204 C   0  0  0  0  0  0
  -24.5381  -27.5368   23.7508 C   0  0  0  0  0  0
  -19.7517  -21.3899   22.4374 C   0  0  0  0  0  0
  -25.8329  -18.9213   21.2460 N   0  0  0  0  0  0
  -21.2369  -29.3036   23.3395 N   0  3  0  0  0  0
  -18.4689  -21.1576   22.1581 F   0  0  0  0  0  0
  -20.4726  -20.5434   21.7031 F   0  0  0  0  0  0
  -19.9523  -21.1077   23.7247 F   0  0  0  0  0  0
  -29.6766  -15.6849   19.0818 H   0  0  0  0  0  0
  -30.1362  -14.8219   20.4555 H   0  0  0  0  0  0
  -30.2722  -13.0995   18.7122 H   0  0  0  0  0  0
  -29.0737  -13.8967   17.7370 H   0  0  0  0  0  0
  -28.6498  -11.7340   19.7596 H   0  0  0  0  0  0
  -27.7608  -12.0680   18.2565 H   0  0  0  0  0  0
  -26.9948  -14.0806   19.1272 H   0  0  0  0  0  0
  -28.6855  -13.8623   21.6548 H   0  0  0  0  0  0
  -27.1136  -14.3870   21.9220 H   0  0  0  0  0  0
  -25.2437   -9.5601   22.4931 H   0  0  0  0  0  0
  -23.9859   -7.4387   22.7509 H   0  0  0  0  0  0
  -21.0599   -8.8372   19.8953 H   0  0  0  0  0  0
  -22.3274  -10.9391   19.6273 H   0  0  0  0  0  0
  -21.1901   -7.6068   23.9682 H   0  0  0  0  0  0
  -21.1464   -6.0494   25.9093 H   0  0  0  0  0  0
  -22.0634   -2.7535   23.2952 H   0  0  0  0  0  0
  -22.3030  -11.9472   22.5252 H   0  0  0  0  0  0
  -21.0027  -13.0927   22.3305 H   0  0  0  0  0  0
  -24.2558  -15.7197   20.2919 H   0  0  0  0  0  0
  -25.8525  -15.5378   19.7606 H   0  0  0  0  0  0
  -26.7823  -32.6674   23.1144 H   0  0  0  0  0  0
  -25.0248  -34.0115   25.0379 H   0  0  0  0  0  0
  -22.6004  -31.3530   21.0982 H   0  0  0  0  0  0
  -23.3746  -35.9990   23.3222 H   0  0  0  0  0  0
  -24.3691  -36.9331   22.2106 H   0  0  0  0  0  0
  -23.7252  -37.6828   23.6693 H   0  0  0  0  0  0
  -26.2655  -31.8510   20.3239 H   0  0  0  0  0  0
  -26.8724  -31.1896   21.7990 H   0  0  0  0  0  0
  -27.5384  -29.1304   21.9641 H   0  0  0  0  0  0
  -25.5372  -25.9653   19.9118 H   0  0  0  0  0  0
  -24.2727  -27.5567   18.5949 H   0  0  0  0  0  0
  -24.0732  -31.0090   18.9938 H   0  0  0  0  0  0
  -22.9776  -29.6727   19.2243 H   0  0  0  0  0  0
  -25.1271  -36.2161   25.0835 H   0  0  0  0  0  0
  -22.6876  -26.5984   23.1693 H   0  0  0  0  0  0
  -23.0983  -25.7337   21.3184 H   0  0  0  0  0  0
  -23.0723  -26.8859   20.3578 H   0  0  0  0  0  0
  -22.0495  -25.1455   19.2731 H   0  0  0  0  0  0
  -20.9654  -26.4649   19.2673 H   0  0  0  0  0  0
  -19.5206  -24.7427   19.6552 H   0  0  0  0  0  0
  -20.6375  -23.7684   20.1844 H   0  0  0  0  0  0
  -20.2272  -28.7259   25.4009 H   0  0  0  0  0  0
  -18.1436  -29.9259   24.8239 H   0  0  0  0  0  0
  -16.4505  -28.3726   23.6995 H   0  0  0  0  0  0
  -17.0812  -26.0721   23.3907 H   0  0  0  0  0  0
  -24.5784  -30.7652   25.7305 H   0  0  0  0  0  0
  -24.9142  -32.3292   26.4594 H   0  0  0  0  0  0
  -25.8243  -30.9143   26.9528 H   0  0  0  0  0  0
  -27.3663  -29.7513   25.3767 H   0  0  0  0  0  0
  -27.8979  -30.5168   23.8882 H   0  0  0  0  0  0
  -26.3150  -29.7789   23.9665 H   0  0  0  0  0  0
  -27.2690  -33.3824   26.1614 H   0  0  0  0  0  0
  -28.3766  -32.7078   24.9792 H   0  0  0  0  0  0
  -28.0635  -31.8487   26.4795 H   0  0  0  0  0  0
  -28.2535  -38.0374   24.7629 H   0  0  0  0  0  0
  -28.1176  -36.2915   24.6002 H   0  0  0  0  0  0
  -27.2438  -37.1356   25.8890 H   0  0  0  0  0  0
  -22.2539  -28.3084   20.6983 H   0  0  0  0  0  0
  -26.0162  -38.3149   24.1589 H   0  0  0  0  0  0
  -17.4066  -25.9316   21.2483 H   0  0  0  0  0  0
  -17.8143  -23.3313   22.1718 H   0  0  0  0  0  0
  -22.0872  -24.8754   23.1305 H   0  0  0  0  0  0
  -23.0475  -19.9954   21.4080 H   0  0  0  0  0  0
  -23.8796  -20.5562   22.8215 H   0  0  0  0  0  0
  -19.0940  -28.9365   22.0410 H   0  0  0  0  0  0
  -20.3422  -28.9656   21.0356 H   0  0  0  0  0  0
  -23.0740  -29.4907   24.8851 H   0  0  0  0  0  0
  -22.3497  -28.0259   25.1427 H   0  0  0  0  0  0
  -24.4269  -26.5542   24.2095 H   0  0  0  0  0  0
  -25.2275  -27.9653   24.4779 H   0  0  0  0  0  0
  -26.5456  -19.6413   21.2511 H   0  0  0  0  0  0
  -21.8528  -28.9388   22.6084 H   0  0  0  0  0  0
  -20.6262  -28.7740   23.9570 H   0  0  0  0  0  0
  1 25  1  0  0  0
  1 30  2  0  0  0
  1 82  1  0  0  0
  2  3  1  0  0  0
  2 25  1  0  0  0
  2 87  1  0  0  0
  2 88  1  0  0  0
  3  4  1  0  0  0
  3 89  1  0  0  0
  3 90  1  0  0  0
  4  5  1  0  0  0
  4 91  1  0  0  0
  4 92  1  0  0  0
  5  6  1  0  0  0
  5 26  1  0  0  0
  5 93  1  0  0  0
  6 25  1  0  0  0
  6 94  1  0  0  0
  6 95  1  0  0  0
  7  8  2  0  0  0
  7 26  1  0  0  0
  7 29  1  0  0  0
  8  9  1  0  0  0
  8 22  1  0  0  0
  9 10  1  0  0  0
  9 27  2  0  0  0
 10 11  2  0  0  0
 10 15  1  0  0  0
 11 12  1  0  0  0
 11 96  1  0  0  0
 12 13  2  0  0  0
 12 97  1  0  0  0
 13 14  1  0  0  0
 13 31  1  0  0  0
 14 15  2  0  0  0
 14 98  1  0  0  0
 15 99  1  0  0  0
 16 17  2  0  0  0
 16 21  1  0  0  0
 16 31  1  0  0  0
 17 18  1  0  0  0
 17100  1  0  0  0
 18 19  2  0  0  0
 18101  1  0  0  0
 19 20  1  0  0  0
 19 24  1  0  0  0
 20 21  2  0  0  0
 20102  1  0  0  0
 21 23  1  0  0  0
 22 28  1  0  0  0
 22 32  2  0  0  0
 26 27  1  0  0  0
 28103  1  0  0  0
 28104  1  0  0  0
 29105  1  0  0  0
 29106  1  0  0  0
 33 34  1  0  0  0
 33 66  1  0  0  0
 33 70  2  0  0  0
 34 36  1  0  0  0
 34 59  1  0  0  0
 34107  1  0  0  0
 35 44  2  0  0  0
 35 45  1  0  0  0
 35 68  1  0  0  0
 36 56  1  0  0  0
 36108  1  0  0  0
 37 39  1  0  0  0
 37 47  1  0  0  0
 37 66  1  0  0  0
 37109  1  0  0  0
 38 43  2  0  0  0
 38 46  1  0  0  0
 38 47  1  0  0  0
 39 64  1  0  0  0
 39 67  2  0  0  0
 40 52  1  0  0  0
 40 53  2  0  0  0
 40 58  1  0  0  0
 41110  1  0  0  0
 41111  1  0  0  0
 41112  1  0  0  0
 41 48  1  0  0  0
 42 43  1  0  0  0
 42 66  1  0  0  0
 42113  1  0  0  0
 42114  1  0  0  0
 43 44  1  0  0  0
 44115  1  0  0  0
 45 46  2  0  0  0
 45116  1  0  0  0
 46117  1  0  0  0
 47118  1  0  0  0
 47119  1  0  0  0
 48 56  1  0  0  0
 48 65  1  0  0  0
 48120  1  0  0  0
 49 50  1  0  0  0
 49 53  1  0  0  0
 49 64  1  0  0  0
 49121  1  0  0  0
 50 51  1  0  0  0
 50122  1  0  0  0
 50123  1  0  0  0
 51 52  1  0  0  0
 51124  1  0  0  0
 51125  1  0  0  0
 52126  1  0  0  0
 52127  1  0  0  0
 53 54  1  0  0  0
 54 55  2  0  0  0
 54128  1  0  0  0
 55 57  1  0  0  0
 55129  1  0  0  0
 56 69  2  0  0  0
 57 58  2  0  0  0
 57130  1  0  0  0
 58131  1  0  0  0
 59 60  1  0  0  0
 59 61  1  0  0  0
 59 62  1  0  0  0
 60132  1  0  0  0
 60133  1  0  0  0
 60134  1  0  0  0
 61135  1  0  0  0
 61136  1  0  0  0
 61137  1  0  0  0
 62138  1  0  0  0
 62139  1  0  0  0
 62140  1  0  0  0
 63 65  1  0  0  0
 63141  1  0  0  0
 63142  1  0  0  0
 63143  1  0  0  0
 64144  1  0  0  0
 65145  1  0  0  0
 68 80  1  0  0  0
 71 72  2  0  0  0
 71 74  1  0  0  0
 71146  1  0  0  0
 72 75  1  0  0  0
 72147  1  0  0  0
 73 74  2  0  0  0
 73 76  1  0  0  0
 73148  1  0  0  0
 74 78  1  0  0  0
 75 76  2  0  0  0
 75 81  1  0  0  0
 76 77  1  0  0  0
 77 82  1  0  0  0
 77149  1  0  0  0
 77150  1  0  0  0
 78 83  1  0  0  0
 78151  1  0  0  0
 78152  1  0  0  0
 79 80  1  0  0  0
 79 83  1  0  0  0
 79153  1  0  0  0
 79154  1  0  0  0
 80155  1  0  0  0
 80156  1  0  0  0
 81 84  1  0  0  0
 81 85  1  0  0  0
 81 86  1  0  0  0
 82157  1  0  0  0
 83158  1  0  0  0
 83159  1  0  0  0
M  CHG  1  83   1
M  ISO  4   1 100  68 101  80 101  82 100
M  END
> <chiral flag>
0

> <version>
0

> <s_m_source_file>
/data/baiqing/PycharmProjects/Reinvent-master-3.2/result/LINK_invent/BTK/process_docking_weight1_custom_product_contain_oxygen_bond_distance_aromatic_linkinvent_7_9_3/rearranged_h_0008.sdf

> <i_m_source_file_index>
82

> <r_mmod_Potential_Energy-OPLS-2005>
39959.1328125

> <r_mmod_Stretch_Energy-OPLS-2005>
18073.666015625

> <r_mmod_Bend_Energy-OPLS-2005>
3107.57788085938

> <r_mmod_Torsional_Energy-OPLS-2005>
833.905578613281

> <r_mmod_Improper_Torsional_Energy-OPLS-2005>
89.0329742431641

> <r_mmod_Van_der_Waal_Energy-OPLS-2005>
4378.25830078125

> <r_mmod_Electrostatic_Energy-OPLS-2005>
-347.164672851562

> <r_mmod_Solvation_Energy-OPLS-2005>
-413.466125488281

> <b_mmod_Minimization_Converged-OPLS-2005>
0

> <r_mmod_RMS_Derivative-OPLS-2005>
7.65000677108765

$$$$
83
                    3D
 Structure written by MMmdl.
159167  0  0  1  0            999 V2000
  -30.7135  -14.5374   20.5316 C   0  0  0  0  0  0
  -30.4104  -12.3459   19.4288 C   0  0  0  0  0  0
  -29.4862  -12.4926   18.2051 C   0  0  0  0  0  0
  -28.0127  -12.3355   18.6254 C   0  0  0  0  0  0
  -27.6436  -13.2096   19.8528 C   0  0  2  0  0  0
  -28.6907  -13.0812   20.9799 C   0  0  0  0  0  0
  -25.2533  -13.8154   20.5685 C   0  0  0  0  0  0
  -24.1807  -13.0427   20.9213 C   0  0  0  0  0  0
  -24.6370  -11.6899   20.8763 C   0  0  0  0  0  0
  -23.9048  -10.4283   21.0418 C   0  0  0  0  0  0
  -24.3606   -9.4202   21.9194 C   0  0  0  0  0  0
  -23.6290   -8.2236   22.0754 C   0  0  0  0  0  0
  -22.4274   -8.0272   21.3543 C   0  0  0  0  0  0
  -21.9906   -9.0243   20.4644 C   0  0  0  0  0  0
  -22.7227  -10.2125   20.3061 C   0  0  0  0  0  0
  -21.6853   -6.0735   22.5282 C   0  0  0  0  0  0
  -21.4008   -6.5639   23.8214 C   0  0  0  0  0  0
  -21.3656   -5.6793   24.9176 C   0  0  0  0  0  0
  -21.6045   -4.3056   24.7229 C   0  0  0  0  0  0
  -21.8817   -3.8148   23.4349 C   0  0  0  0  0  0
  -21.9192   -4.6965   22.3406 C   0  0  0  0  0  0
  -22.7830  -13.5225   21.1876 C   0  0  0  0  0  0
  -22.1664   -4.2152   21.0984 F   0  0  0  0  0  0
  -21.5631   -3.4538   25.7741 F   0  0  0  0  0  0
  -30.0086  -13.3761   20.4024 N   0  0  0  0  0  0
  -26.2935  -12.9318   20.3294 N   0  0  0  0  0  0
  -25.9290  -11.6484   20.5767 N   0  0  0  0  0  0
  -22.0470  -12.8207   22.0413 N   0  0  0  0  0  0
  -25.4230  -15.1870   20.4063 N   0  0  0  0  0  0
  -31.8935  -14.6080   20.1834 O   0  0  0  0  0  0
  -21.6635   -6.8872   21.4242 O   0  0  0  0  0  0
  -22.3526  -14.5542   20.6737 O   0  0  0  0  0  0
  -24.6175  -31.8663   23.2065 C   0  0  0  0  0  0
  -25.9061  -32.4814   23.8372 C   0  0  1  0  0  0
  -27.2255  -27.3981   20.1148 C   0  0  0  0  0  0
  -25.5912  -33.8610   24.2305 N   0  0  0  0  0  0
  -23.4060  -30.4887   21.5476 C   0  0  2  0  0  0
  -24.8519  -28.9459   20.1172 C   0  0  0  0  0  0
  -22.7427  -29.4651   22.4981 C   0  0  0  0  0  0
  -18.0280  -28.1376   22.8483 C   0  0  0  0  0  0
  -24.1490  -36.7305   23.2640 C   0  0  0  0  0  0
  -25.9369  -30.8219   21.3630 C   0  0  0  0  0  0
  -26.0137  -29.4523   20.7131 C   0  0  0  0  0  0
  -27.2064  -28.6883   20.7020 C   0  0  0  0  0  0
  -26.0484  -26.9124   19.5105 C   0  0  0  0  0  0
  -24.8662  -27.6775   19.5111 C   0  0  0  0  0  0
  -23.6164  -29.8183   20.1636 C   0  0  0  0  0  0
  -25.4110  -36.3100   24.0338 C   0  0  1  0  0  0
  -20.5873  -28.3663   23.1316 C   0  0  2  0  0  0
  -20.6768  -26.9399   22.5417 C   0  0  0  0  0  0
  -19.5748  -26.6383   21.5213 C   0  0  0  0  0  0
  -18.1925  -26.7921   22.1619 C   0  0  0  0  0  0
  -19.1530  -28.8833   23.2895 C   0  0  0  0  0  0
  -18.9462  -30.1435   23.8911 C   0  0  0  0  0  0
  -17.6466  -30.6584   24.0554 C   0  0  0  0  0  0
  -25.9044  -34.9474   23.5119 C   0  0  0  0  0  0
  -16.5355  -29.9081   23.6326 C   0  0  0  0  0  0
  -16.7267  -28.6500   23.0344 C   0  0  0  0  0  0
  -26.4474  -31.6594   25.0710 C   0  0  0  0  0  0
  -25.3726  -31.3714   26.1450 C   0  0  0  0  0  0
  -27.0309  -30.3043   24.6083 C   0  0  0  0  0  0
  -27.6048  -32.4310   25.7475 C   0  0  0  0  0  0
  -27.5579  -37.1804   24.8465 C   0  0  0  0  0  0
  -21.4152  -29.3029   22.3720 N   0  0  0  0  0  0
  -26.4292  -37.3784   23.9413 N   0  0  0  0  0  0
  -24.6720  -31.0741   22.0978 N   0  0  0  0  0  0
  -23.4198  -28.8202   23.3032 O   0  0  0  0  0  0
  -28.3818  -26.6419   20.0872 O   0  0  0  0  0  0
  -26.5605  -34.8923   22.4678 O   0  0  0  0  0  0
  -23.5362  -32.1433   23.7454 O   0  0  0  0  0  0
  -30.1369  -20.6634   19.1402 C   0  0  0  0  0  0
  -30.9876  -19.6148   18.7538 C   0  0  0  0  0  0
  -28.7115  -19.0468   20.2785 C   0  0  0  0  0  0
  -28.9728  -20.3971   19.8873 C   0  0  0  0  0  0
  -29.5600  -17.9655   19.8816 C   0  0  0  0  0  0
  -30.6914  -18.2794   19.0841 C   0  0  0  0  0  0
  -30.7196  -16.3819   22.1076 C   0  0  0  0  0  0
  -29.1727  -16.4871   20.1863 C   0  0  0  0  0  0
  -27.9651  -21.5466   20.1251 C   0  0  0  0  0  0
  -28.1132  -24.0902   19.9885 C   0  0  0  0  0  0
  -28.3788  -25.3889   20.8187 C   0  0  0  0  0  0
  -30.0724  -15.6392   21.0237 N   0  0  0  0  0  0
  -28.5340  -22.8163   20.6730 N   0  3  0  0  0  0
  -31.7017  -17.0601   18.4032 Cl  0  0  0  0  0  0
  -31.4546  -12.4339   19.1227 H   0  0  0  0  0  0
  -30.3130  -11.3530   19.8701 H   0  0  0  0  0  0
  -29.7395  -11.7480   17.4492 H   0  0  0  0  0  0
  -29.6356  -13.4676   17.7383 H   0  0  0  0  0  0
  -27.8473  -11.2826   18.8589 H   0  0  0  0  0  0
  -27.3539  -12.5654   17.7869 H   0  0  0  0  0  0
  -27.6504  -14.2373   19.4994 H   0  0  0  0  0  0
  -28.6866  -12.0749   21.3995 H   0  0  0  0  0  0
  -28.4507  -13.7532   21.8056 H   0  0  0  0  0  0
  -25.2749   -9.5684   22.4771 H   0  0  0  0  0  0
  -24.0006   -7.4623   22.7464 H   0  0  0  0  0  0
  -21.0848   -8.8753   19.8941 H   0  0  0  0  0  0
  -22.3688  -10.9666   19.6173 H   0  0  0  0  0  0
  -21.1996   -7.6148   23.9720 H   0  0  0  0  0  0
  -21.1482   -6.0522   25.9079 H   0  0  0  0  0  0
  -22.0602   -2.7611   23.2850 H   0  0  0  0  0  0
  -22.4076  -11.9854   22.4782 H   0  0  0  0  0  0
  -21.1082  -13.1219   22.2613 H   0  0  0  0  0  0
  -24.6518  -15.8377   20.5051 H   0  0  0  0  0  0
  -26.2646  -15.6215   20.0532 H   0  0  0  0  0  0
  -26.7132  -32.5519   23.1129 H   0  0  0  0  0  0
  -25.0061  -33.9763   25.0449 H   0  0  0  0  0  0
  -22.6955  -31.3060   21.4061 H   0  0  0  0  0  0
  -23.3758  -35.9630   23.3302 H   0  0  0  0  0  0
  -24.3589  -36.8920   22.2056 H   0  0  0  0  0  0
  -23.7235  -37.6501   23.6658 H   0  0  0  0  0  0
  -26.0501  -31.5853   20.5921 H   0  0  0  0  0  0
  -26.8243  -30.8792   21.9806 H   0  0  0  0  0  0
  -28.1072  -29.0789   21.1546 H   0  0  0  0  0  0
  -26.0388  -25.9460   19.0291 H   0  0  0  0  0  0
  -23.9735  -27.2843   19.0447 H   0  0  0  0  0  0
  -23.7290  -30.5927   19.4039 H   0  0  0  0  0  0
  -22.7380  -29.2422   19.8660 H   0  0  0  0  0  0
  -25.1286  -36.1959   25.0829 H   0  0  0  0  0  0
  -20.9946  -28.3225   24.1445 H   0  0  0  0  0  0
  -20.5683  -26.2267   23.3603 H   0  0  0  0  0  0
  -21.6640  -26.7448   22.1203 H   0  0  0  0  0  0
  -19.6919  -25.6299   21.1229 H   0  0  0  0  0  0
  -19.6699  -27.3201   20.6750 H   0  0  0  0  0  0
  -17.4198  -26.6679   21.4015 H   0  0  0  0  0  0
  -18.0316  -26.0056   22.9008 H   0  0  0  0  0  0
  -19.7945  -30.7234   24.2291 H   0  0  0  0  0  0
  -17.5032  -31.6270   24.5145 H   0  0  0  0  0  0
  -15.5357  -30.2986   23.7654 H   0  0  0  0  0  0
  -15.8670  -28.0826   22.7049 H   0  0  0  0  0  0
  -24.5897  -30.7069   25.7784 H   0  0  0  0  0  0
  -24.8920  -32.2876   26.4892 H   0  0  0  0  0  0
  -25.8062  -30.8884   27.0215 H   0  0  0  0  0  0
  -26.2851  -29.6803   24.1146 H   0  0  0  0  0  0
  -27.4109  -29.7285   25.4530 H   0  0  0  0  0  0
  -27.8674  -30.4381   23.9216 H   0  0  0  0  0  0
  -27.2681  -33.3629   26.2029 H   0  0  0  0  0  0
  -28.3873  -32.6829   25.0306 H   0  0  0  0  0  0
  -28.0686  -31.8438   26.5406 H   0  0  0  0  0  0
  -28.2586  -38.0104   24.7507 H   0  0  0  0  0  0
  -28.1075  -36.2636   24.6290 H   0  0  0  0  0  0
  -27.2297  -37.1454   25.8864 H   0  0  0  0  0  0
  -20.9313  -29.8751   21.6944 H   0  0  0  0  0  0
  -26.0185  -38.2864   24.1406 H   0  0  0  0  0  0
  -30.3623  -21.6665   18.8055 H   0  0  0  0  0  0
  -31.8527  -19.8305   18.1436 H   0  0  0  0  0  0
  -27.8092  -18.8262   20.8328 H   0  0  0  0  0  0
  -30.0185  -17.0640   22.5902 H   0  0  0  0  0  0
  -31.5604  -16.9659   21.7303 H   0  0  0  0  0  0
  -31.0992  -15.7060   22.8754 H   0  0  0  0  0  0
  -29.0222  -16.0053   19.2188 H   0  0  0  0  0  0
  -28.1935  -16.4792   20.6661 H   0  0  0  0  0  0
  -27.1700  -21.2087   20.7907 H   0  0  0  0  0  0
  -27.4834  -21.7485   19.1668 H   0  0  0  0  0  0
  -28.6469  -24.1522   19.0393 H   0  0  0  0  0  0
  -27.0515  -24.0366   19.7488 H   0  0  0  0  0  0
  -29.3717  -25.3161   21.2635 H   0  0  0  0  0  0
  -27.6879  -25.4430   21.6619 H   0  0  0  0  0  0
  -29.5386  -22.7432   20.6587 H   0  0  0  0  0  0
  -28.2616  -22.8513   21.6425 H   0  0  0  0  0  0
  1 25  1  0  0  0
  1 30  2  0  0  0
  1 82  1  0  0  0
  2  3  1  0  0  0
  2 25  1  0  0  0
  2 85  1  0  0  0
  2 86  1  0  0  0
  3  4  1  0  0  0
  3 87  1  0  0  0
  3 88  1  0  0  0
  4  5  1  0  0  0
  4 89  1  0  0  0
  4 90  1  0  0  0
  5  6  1  0  0  0
  5 26  1  0  0  0
  5 91  1  0  0  0
  6 25  1  0  0  0
  6 92  1  0  0  0
  6 93  1  0  0  0
  7  8  2  0  0  0
  7 26  1  0  0  0
  7 29  1  0  0  0
  8  9  1  0  0  0
  8 22  1  0  0  0
  9 10  1  0  0  0
  9 27  2  0  0  0
 10 11  2  0  0  0
 10 15  1  0  0  0
 11 12  1  0  0  0
 11 94  1  0  0  0
 12 13  2  0  0  0
 12 95  1  0  0  0
 13 14  1  0  0  0
 13 31  1  0  0  0
 14 15  2  0  0  0
 14 96  1  0  0  0
 15 97  1  0  0  0
 16 17  2  0  0  0
 16 21  1  0  0  0
 16 31  1  0  0  0
 17 18  1  0  0  0
 17 98  1  0  0  0
 18 19  2  0  0  0
 18 99  1  0  0  0
 19 20  1  0  0  0
 19 24  1  0  0  0
 20 21  2  0  0  0
 20100  1  0  0  0
 21 23  1  0  0  0
 22 28  1  0  0  0
 22 32  2  0  0  0
 26 27  1  0  0  0
 28101  1  0  0  0
 28102  1  0  0  0
 29103  1  0  0  0
 29104  1  0  0  0
 33 34  1  0  0  0
 33 66  1  0  0  0
 33 70  2  0  0  0
 34 36  1  0  0  0
 34 59  1  0  0  0
 34105  1  0  0  0
 35 44  2  0  0  0
 35 45  1  0  0  0
 35 68  1  0  0  0
 36 56  1  0  0  0
 36106  1  0  0  0
 37 39  1  0  0  0
 37 47  1  0  0  0
 37 66  1  0  0  0
 37107  1  0  0  0
 38 43  2  0  0  0
 38 46  1  0  0  0
 38 47  1  0  0  0
 39 64  1  0  0  0
 39 67  2  0  0  0
 40 52  1  0  0  0
 40 53  2  0  0  0
 40 58  1  0  0  0
 41108  1  0  0  0
 41109  1  0  0  0
 41110  1  0  0  0
 41 48  1  0  0  0
 42 43  1  0  0  0
 42 66  1  0  0  0
 42111  1  0  0  0
 42112  1  0  0  0
 43 44  1  0  0  0
 44113  1  0  0  0
 45 46  2  0  0  0
 45114  1  0  0  0
 46115  1  0  0  0
 47116  1  0  0  0
 47117  1  0  0  0
 48 56  1  0  0  0
 48 65  1  0  0  0
 48118  1  0  0  0
 49 50  1  0  0  0
 49 53  1  0  0  0
 49 64  1  0  0  0
 49119  1  0  0  0
 50 51  1  0  0  0
 50120  1  0  0  0
 50121  1  0  0  0
 51 52  1  0  0  0
 51122  1  0  0  0
 51123  1  0  0  0
 52124  1  0  0  0
 52125  1  0  0  0
 53 54  1  0  0  0
 54 55  2  0  0  0
 54126  1  0  0  0
 55 57  1  0  0  0
 55127  1  0  0  0
 56 69  2  0  0  0
 57 58  2  0  0  0
 57128  1  0  0  0
 58129  1  0  0  0
 59 60  1  0  0  0
 59 61  1  0  0  0
 59 62  1  0  0  0
 60130  1  0  0  0
 60131  1  0  0  0
 60132  1  0  0  0
 61133  1  0  0  0
 61134  1  0  0  0
 61135  1  0  0  0
 62136  1  0  0  0
 62137  1  0  0  0
 62138  1  0  0  0
 63 65  1  0  0  0
 63139  1  0  0  0
 63140  1  0  0  0
 63141  1  0  0  0
 64142  1  0  0  0
 65143  1  0  0  0
 68 81  1  0  0  0
 71 72  2  0  0  0
 71 74  1  0  0  0
 71144  1  0  0  0
 72 76  1  0  0  0
 72145  1  0  0  0
 73 74  2  0  0  0
 73 75  1  0  0  0
 73146  1  0  0  0
 74 79  1  0  0  0
 75 76  2  0  0  0
 75 78  1  0  0  0
 76 84  1  0  0  0
 77 82  1  0  0  0
 77147  1  0  0  0
 77148  1  0  0  0
 77149  1  0  0  0
 78 82  1  0  0  0
 78150  1  0  0  0
 78151  1  0  0  0
 79 83  1  0  0  0
 79152  1  0  0  0
 79153  1  0  0  0
 80 81  1  0  0  0
 80 83  1  0  0  0
 80154  1  0  0  0
 80155  1  0  0  0
 81156  1  0  0  0
 81157  1  0  0  0
 83158  1  0  0  0
 83159  1  0  0  0
M  CHG  1  83   1
M  ISO  4   1 100  68 101  81 101  82 100
M  END
> <chiral flag>
0

> <version>
0

> <s_m_source_file>
/data/baiqing/PycharmProjects/Reinvent-master-3.2/result/LINK_invent/BTK/process_docking_weight1_custom_product_contain_oxygen_bond_distance_aromatic_linkinvent_7_9_3/rearranged_h_0008.sdf

> <i_m_source_file_index>
83

> <r_mmod_Potential_Energy-OPLS-2005>
-28.2962856292725

> <r_mmod_Stretch_Energy-OPLS-2005>
51.3025283813477

> <r_mmod_Bend_Energy-OPLS-2005>
110.126342773438

> <r_mmod_Torsional_Energy-OPLS-2005>
301.270690917969

> <r_mmod_Improper_Torsional_Energy-OPLS-2005>
4.99306201934814

> <r_mmod_Van_der_Waal_Energy-OPLS-2005>
137.486267089844

> <r_mmod_Electrostatic_Energy-OPLS-2005>
-195.986434936523

> <r_mmod_Solvation_Energy-OPLS-2005>
-462.884429931641

> <b_mmod_Minimization_Converged-OPLS-2005>
0

> <r_mmod_RMS_Derivative-OPLS-2005>
1.26419043540955

$$$$
84
                    3D
 Structure written by MMmdl.
156164  0  0  1  0            999 V2000
  -30.6432  -14.6169   20.4850 C   0  0  0  0  0  0
  -30.4398  -12.3798   19.4302 C   0  0  0  0  0  0
  -29.4946  -12.4912   18.2139 C   0  0  0  0  0  0
  -28.0223  -12.3355   18.6407 C   0  0  0  0  0  0
  -27.6525  -13.2150   19.8644 C   0  0  2  0  0  0
  -28.7070  -13.0676   20.9867 C   0  0  0  0  0  0
  -25.2552  -13.8182   20.5755 C   0  0  0  0  0  0
  -24.1821  -13.0455   20.9255 C   0  0  0  0  0  0
  -24.6400  -11.6923   20.8801 C   0  0  0  0  0  0
  -23.9078  -10.4310   21.0443 C   0  0  0  0  0  0
  -24.3616   -9.4207   21.9217 C   0  0  0  0  0  0
  -23.6285   -8.2246   22.0756 C   0  0  0  0  0  0
  -22.4259   -8.0292   21.3553 C   0  0  0  0  0  0
  -21.9921   -9.0279   20.4646 C   0  0  0  0  0  0
  -22.7261  -10.2154   20.3074 C   0  0  0  0  0  0
  -21.6838   -6.0732   22.5284 C   0  0  0  0  0  0
  -21.4003   -6.5633   23.8218 C   0  0  0  0  0  0
  -21.3664   -5.6787   24.9191 C   0  0  0  0  0  0
  -21.6055   -4.3056   24.7245 C   0  0  0  0  0  0
  -21.8815   -3.8141   23.4370 C   0  0  0  0  0  0
  -21.9187   -4.6961   22.3413 C   0  0  0  0  0  0
  -22.7836  -13.5230   21.1918 C   0  0  0  0  0  0
  -22.1641   -4.2137   21.0996 F   0  0  0  0  0  0
  -21.5653   -3.4542   25.7763 F   0  0  0  0  0  0
  -30.0259  -13.3965   20.4155 N   0  0  0  0  0  0
  -26.2992  -12.9371   20.3386 N   0  0  0  0  0  0
  -25.9327  -11.6519   20.5813 N   0  0  0  0  0  0
  -22.0458  -12.8205   22.0435 N   0  0  0  0  0  0
  -25.4271  -15.1907   20.4177 N   0  0  0  0  0  0
  -31.8074  -14.7847   20.1132 O   0  0  0  0  0  0
  -21.6625   -6.8887   21.4240 O   0  0  0  0  0  0
  -22.3513  -14.5563   20.6793 O   0  0  0  0  0  0
  -24.6254  -31.8597   23.2078 C   0  0  0  0  0  0
  -25.9121  -32.4790   23.8373 C   0  0  1  0  0  0
  -27.2239  -27.3342   20.1027 C   0  0  0  0  0  0
  -25.5927  -33.8572   24.2297 N   0  0  0  0  0  0
  -23.4175  -30.4879   21.5493 C   0  0  2  0  0  0
  -24.8628  -28.9532   20.1109 C   0  0  0  0  0  0
  -22.7481  -29.4592   22.4908 C   0  0  0  0  0  0
  -18.0232  -28.1379   22.8424 C   0  0  0  0  0  0
  -24.1498  -36.7299   23.2638 C   0  0  0  0  0  0
  -25.9583  -30.8018   21.3713 C   0  0  0  0  0  0
  -26.0359  -29.4274   20.7150 C   0  0  0  0  0  0
  -27.2174  -28.6304   20.7041 C   0  0  0  0  0  0
  -26.0246  -26.9112   19.4832 C   0  0  0  0  0  0
  -24.8603  -27.6988   19.4883 C   0  0  0  0  0  0
  -23.6339  -29.8351   20.1591 C   0  0  0  0  0  0
  -25.4108  -36.3067   24.0329 C   0  0  1  0  0  0
  -20.5850  -28.3664   23.1272 C   0  0  2  0  0  0
  -20.6768  -26.9400   22.5391 C   0  0  0  0  0  0
  -19.5764  -26.6365   21.5173 C   0  0  0  0  0  0
  -18.1910  -26.7904   22.1556 C   0  0  0  0  0  0
  -19.1498  -28.8828   23.2842 C   0  0  0  0  0  0
  -18.9441  -30.1414   23.8879 C   0  0  0  0  0  0
  -17.6470  -30.6594   24.0530 C   0  0  0  0  0  0
  -25.9056  -34.9442   23.5108 C   0  0  0  0  0  0
  -16.5350  -29.9109   23.6326 C   0  0  0  0  0  0
  -16.7221  -28.6538   23.0300 C   0  0  0  0  0  0
  -26.4498  -31.6573   25.0713 C   0  0  0  0  0  0
  -25.3733  -31.3689   26.1438 C   0  0  0  0  0  0
  -27.0288  -30.3001   24.6065 C   0  0  0  0  0  0
  -27.6032  -32.4295   25.7508 C   0  0  0  0  0  0
  -27.5586  -37.1784   24.8455 C   0  0  0  0  0  0
  -21.4183  -29.3032   22.3714 N   0  0  0  0  0  0
  -26.4272  -37.3777   23.9436 N   0  0  0  0  0  0
  -24.6866  -31.0645   22.1004 N   0  0  0  0  0  0
  -23.4230  -28.8005   23.2863 O   0  0  0  0  0  0
  -28.3471  -26.4938   20.1368 O   0  0  0  0  0  0
  -26.5647  -34.8921   22.4691 O   0  0  0  0  0  0
  -23.5414  -32.1326   23.7464 O   0  0  0  0  0  0
  -31.0262  -19.3044   20.4894 C   0  0  0  0  0  0
  -31.0907  -17.8745   20.5203 C   0  0  0  0  0  0
  -28.6291  -19.2233   20.6431 C   0  0  0  0  0  0
  -29.7971  -20.0248   20.5786 C   0  0  0  0  0  0
  -29.9103  -17.0955   20.6381 C   0  0  0  0  0  0
  -28.6866  -17.8061   20.6618 C   0  0  0  0  0  0
  -27.7060  -22.1751   19.4428 C   0  0  0  0  0  0
  -29.7610  -21.5877   20.8002 C   0  0  0  0  0  0
  -29.3352  -24.0290   20.1077 C   0  0  0  0  0  0
  -28.1385  -25.0524   19.8792 C   0  0  0  0  0  0
  -29.8234  -15.6540   20.8078 N   0  0  0  0  0  0
  -29.1101  -22.5388   19.7986 N   0  3  1  0  0  0
  -27.5331  -17.1005   20.7291 F   0  0  0  0  0  0
  -31.4736  -12.5234   19.1072 H   0  0  0  0  0  0
  -30.3974  -11.3822   19.8689 H   0  0  0  0  0  0
  -29.7460  -11.7280   17.4778 H   0  0  0  0  0  0
  -29.6345  -13.4518   17.7121 H   0  0  0  0  0  0
  -27.8688  -11.2832   18.8883 H   0  0  0  0  0  0
  -27.3567  -12.5505   17.8031 H   0  0  0  0  0  0
  -27.6698  -14.2487   19.5198 H   0  0  0  0  0  0
  -28.7155  -12.0507   21.3758 H   0  0  0  0  0  0
  -28.4600  -13.7049   21.8374 H   0  0  0  0  0  0
  -25.2750   -9.5683   22.4811 H   0  0  0  0  0  0
  -24.0002   -7.4620   22.7456 H   0  0  0  0  0  0
  -21.0869   -8.8807   19.8927 H   0  0  0  0  0  0
  -22.3736  -10.9705   19.6189 H   0  0  0  0  0  0
  -21.1958   -7.6130   23.9729 H   0  0  0  0  0  0
  -21.1491   -6.0513   25.9096 H   0  0  0  0  0  0
  -22.0585   -2.7604   23.2877 H   0  0  0  0  0  0
  -22.3991  -11.9793   22.4765 H   0  0  0  0  0  0
  -21.1101  -13.1263   22.2673 H   0  0  0  0  0  0
  -24.6860  -15.8589   20.5976 H   0  0  0  0  0  0
  -26.3052  -15.6472   20.1985 H   0  0  0  0  0  0
  -26.7207  -32.5479   23.1151 H   0  0  0  0  0  0
  -24.9993  -33.9654   25.0388 H   0  0  0  0  0  0
  -22.7104  -31.3088   21.4151 H   0  0  0  0  0  0
  -23.3716  -35.9687   23.3291 H   0  0  0  0  0  0
  -24.3572  -36.8928   22.2047 H   0  0  0  0  0  0
  -23.7303  -37.6516   23.6666 H   0  0  0  0  0  0
  -26.0730  -31.5601   20.5967 H   0  0  0  0  0  0
  -26.8483  -30.8610   21.9857 H   0  0  0  0  0  0
  -28.1170  -28.9933   21.1843 H   0  0  0  0  0  0
  -25.9432  -25.9584   18.9853 H   0  0  0  0  0  0
  -23.9617  -27.3281   19.0147 H   0  0  0  0  0  0
  -23.7757  -30.6236   19.4205 H   0  0  0  0  0  0
  -22.7514  -29.2793   19.8371 H   0  0  0  0  0  0
  -25.1279  -36.1926   25.0821 H   0  0  0  0  0  0
  -20.9886  -28.3247   24.1406 H   0  0  0  0  0  0
  -20.5709  -26.2254   23.3576 H   0  0  0  0  0  0
  -21.6637  -26.7479   22.1169 H   0  0  0  0  0  0
  -19.6999  -25.6273   21.1205 H   0  0  0  0  0  0
  -19.6746  -27.3192   20.6741 H   0  0  0  0  0  0
  -17.4192  -26.6555   21.3973 H   0  0  0  0  0  0
  -18.0345  -26.0083   22.9002 H   0  0  0  0  0  0
  -19.7958  -30.7153   24.2289 H   0  0  0  0  0  0
  -17.5079  -31.6295   24.5102 H   0  0  0  0  0  0
  -15.5375  -30.3029   23.7707 H   0  0  0  0  0  0
  -15.8582  -28.0912   22.7014 H   0  0  0  0  0  0
  -24.5964  -30.6971   25.7783 H   0  0  0  0  0  0
  -24.8839  -32.2830   26.4778 H   0  0  0  0  0  0
  -25.8047  -30.8939   27.0262 H   0  0  0  0  0  0
  -26.2771  -29.6789   24.1180 H   0  0  0  0  0  0
  -27.4096  -29.7229   25.4503 H   0  0  0  0  0  0
  -27.8634  -30.4267   23.9171 H   0  0  0  0  0  0
  -27.2628  -33.3645   26.1974 H   0  0  0  0  0  0
  -28.3915  -32.6762   25.0384 H   0  0  0  0  0  0
  -28.0622  -31.8486   26.5508 H   0  0  0  0  0  0
  -28.2516  -38.0159   24.7521 H   0  0  0  0  0  0
  -28.1144  -36.2656   24.6233 H   0  0  0  0  0  0
  -27.2285  -37.1378   25.8852 H   0  0  0  0  0  0
  -20.9368  -29.8815   21.6970 H   0  0  0  0  0  0
  -26.0134  -38.2828   24.1515 H   0  0  0  0  0  0
  -31.9539  -19.8561   20.4574 H   0  0  0  0  0  0
  -32.0548  -17.3860   20.4961 H   0  0  0  0  0  0
  -27.6601  -19.6892   20.7262 H   0  0  0  0  0  0
  -27.0358  -22.2416   20.3040 H   0  0  0  0  0  0
  -27.6450  -21.1630   19.0479 H   0  0  0  0  0  0
  -27.3004  -22.7908   18.6355 H   0  0  0  0  0  0
  -30.7968  -21.9129   20.9236 H   0  0  0  0  0  0
  -29.3042  -21.7541   21.7782 H   0  0  0  0  0  0
  -29.6810  -24.1392   21.1370 H   0  0  0  0  0  0
  -30.1736  -24.3540   19.4865 H   0  0  0  0  0  0
  -27.2946  -24.7195   20.4889 H   0  0  0  0  0  0
  -27.8393  -24.9643   18.8322 H   0  0  0  0  0  0
  -28.8980  -15.3445   21.0678 H   0  0  0  0  0  0
  -29.6235  -22.3762   18.9437 H   0  0  0  0  0  0
  1 25  1  0  0  0
  1 30  2  0  0  0
  1 81  1  0  0  0
  2  3  1  0  0  0
  2 25  1  0  0  0
  2 84  1  0  0  0
  2 85  1  0  0  0
  3  4  1  0  0  0
  3 86  1  0  0  0
  3 87  1  0  0  0
  4  5  1  0  0  0
  4 88  1  0  0  0
  4 89  1  0  0  0
  5  6  1  0  0  0
  5 26  1  0  0  0
  5 90  1  0  0  0
  6 25  1  0  0  0
  6 91  1  0  0  0
  6 92  1  0  0  0
  7  8  2  0  0  0
  7 26  1  0  0  0
  7 29  1  0  0  0
  8  9  1  0  0  0
  8 22  1  0  0  0
  9 10  1  0  0  0
  9 27  2  0  0  0
 10 11  2  0  0  0
 10 15  1  0  0  0
 11 12  1  0  0  0
 11 93  1  0  0  0
 12 13  2  0  0  0
 12 94  1  0  0  0
 13 14  1  0  0  0
 13 31  1  0  0  0
 14 15  2  0  0  0
 14 95  1  0  0  0
 15 96  1  0  0  0
 16 17  2  0  0  0
 16 21  1  0  0  0
 16 31  1  0  0  0
 17 18  1  0  0  0
 17 97  1  0  0  0
 18 19  2  0  0  0
 18 98  1  0  0  0
 19 20  1  0  0  0
 19 24  1  0  0  0
 20 21  2  0  0  0
 20 99  1  0  0  0
 21 23  1  0  0  0
 22 28  1  0  0  0
 22 32  2  0  0  0
 26 27  1  0  0  0
 28100  1  0  0  0
 28101  1  0  0  0
 29102  1  0  0  0
 29103  1  0  0  0
 33 34  1  0  0  0
 33 66  1  0  0  0
 33 70  2  0  0  0
 34 36  1  0  0  0
 34 59  1  0  0  0
 34104  1  0  0  0
 35 44  2  0  0  0
 35 45  1  0  0  0
 35 68  1  0  0  0
 36 56  1  0  0  0
 36105  1  0  0  0
 37 39  1  0  0  0
 37 47  1  0  0  0
 37 66  1  0  0  0
 37106  1  0  0  0
 38 43  2  0  0  0
 38 46  1  0  0  0
 38 47  1  0  0  0
 39 64  1  0  0  0
 39 67  2  0  0  0
 40 52  1  0  0  0
 40 53  2  0  0  0
 40 58  1  0  0  0
 41107  1  0  0  0
 41108  1  0  0  0
 41109  1  0  0  0
 41 48  1  0  0  0
 42 43  1  0  0  0
 42 66  1  0  0  0
 42110  1  0  0  0
 42111  1  0  0  0
 43 44  1  0  0  0
 44112  1  0  0  0
 45 46  2  0  0  0
 45113  1  0  0  0
 46114  1  0  0  0
 47115  1  0  0  0
 47116  1  0  0  0
 48 56  1  0  0  0
 48 65  1  0  0  0
 48117  1  0  0  0
 49 50  1  0  0  0
 49 53  1  0  0  0
 49 64  1  0  0  0
 49118  1  0  0  0
 50 51  1  0  0  0
 50119  1  0  0  0
 50120  1  0  0  0
 51 52  1  0  0  0
 51121  1  0  0  0
 51122  1  0  0  0
 52123  1  0  0  0
 52124  1  0  0  0
 53 54  1  0  0  0
 54 55  2  0  0  0
 54125  1  0  0  0
 55 57  1  0  0  0
 55126  1  0  0  0
 56 69  2  0  0  0
 57 58  2  0  0  0
 57127  1  0  0  0
 58128  1  0  0  0
 59 60  1  0  0  0
 59 61  1  0  0  0
 59 62  1  0  0  0
 60129  1  0  0  0
 60130  1  0  0  0
 60131  1  0  0  0
 61132  1  0  0  0
 61133  1  0  0  0
 61134  1  0  0  0
 62135  1  0  0  0
 62136  1  0  0  0
 62137  1  0  0  0
 63 65  1  0  0  0
 63138  1  0  0  0
 63139  1  0  0  0
 63140  1  0  0  0
 64141  1  0  0  0
 65142  1  0  0  0
 68 80  1  0  0  0
 71 72  2  0  0  0
 71 74  1  0  0  0
 71143  1  0  0  0
 72 75  1  0  0  0
 72144  1  0  0  0
 73 74  2  0  0  0
 73 76  1  0  0  0
 73145  1  0  0  0
 74 78  1  0  0  0
 75 76  2  0  0  0
 75 81  1  0  0  0
 76 83  1  0  0  0
 77146  1  0  0  0
 77147  1  0  0  0
 77148  1  0  0  0
 77 82  1  0  0  0
 78 82  1  0  0  0
 78149  1  0  0  0
 78150  1  0  0  0
 79 80  1  0  0  0
 79 82  1  0  0  0
 79151  1  0  0  0
 79152  1  0  0  0
 80153  1  0  0  0
 80154  1  0  0  0
 81155  1  0  0  0
 82156  1  0  0  0
M  CHG  1  82   1
M  ISO  4   1 100  68 101  80 101  81 100
M  END
> <chiral flag>
0

> <version>
0

> <s_m_source_file>
/data/baiqing/PycharmProjects/Reinvent-master-3.2/result/LINK_invent/BTK/process_docking_weight1_custom_product_contain_oxygen_bond_distance_aromatic_linkinvent_7_9_3/rearranged_h_0008.sdf

> <i_m_source_file_index>
84

> <r_mmod_Potential_Energy-OPLS-2005>
-78.2039031982422

> <r_mmod_Stretch_Energy-OPLS-2005>
77.7842254638672

> <r_mmod_Bend_Energy-OPLS-2005>
148.004547119141

> <r_mmod_Torsional_Energy-OPLS-2005>
218.020614624023

> <r_mmod_Improper_Torsional_Energy-OPLS-2005>
5.68322610855103

> <r_mmod_Van_der_Waal_Energy-OPLS-2005>
152.313369750977

> <r_mmod_Electrostatic_Energy-OPLS-2005>
-279.912200927734

> <r_mmod_Solvation_Energy-OPLS-2005>
-442.414611816406

> <b_mmod_Minimization_Converged-OPLS-2005>
0

> <r_mmod_RMS_Derivative-OPLS-2005>
5.67423391342163

$$$$
85
                    3D
 Structure written by MMmdl.
153161  0  0  1  0            999 V2000
  -30.4125  -15.4969   20.3500 C   0  0  0  0  0  0
  -30.4130  -12.9943   19.5122 C   0  0  0  0  0  0
  -29.5292  -12.6161   18.2966 C   0  0  0  0  0  0
  -28.0993  -12.2893   18.7492 C   0  0  0  0  0  0
  -27.5920  -13.2990   19.8057 C   0  0  2  0  0  0
  -28.6190  -13.6108   20.9176 C   0  0  0  0  0  0
  -25.2328  -13.8284   20.5808 C   0  0  0  0  0  0
  -24.1706  -13.0441   20.9292 C   0  0  0  0  0  0
  -24.6394  -11.6947   20.8775 C   0  0  0  0  0  0
  -23.9101  -10.4295   21.0405 C   0  0  0  0  0  0
  -24.3643   -9.4207   21.9183 C   0  0  0  0  0  0
  -23.6309   -8.2245   22.0753 C   0  0  0  0  0  0
  -22.4290   -8.0285   21.3544 C   0  0  0  0  0  0
  -21.9933   -9.0260   20.4644 C   0  0  0  0  0  0
  -22.7271  -10.2135   20.3053 C   0  0  0  0  0  0
  -21.6858   -6.0739   22.5279 C   0  0  0  0  0  0
  -21.4018   -6.5642   23.8213 C   0  0  0  0  0  0
  -21.3660   -5.6794   24.9174 C   0  0  0  0  0  0
  -21.6044   -4.3056   24.7224 C   0  0  0  0  0  0
  -21.8818   -3.8149   23.4345 C   0  0  0  0  0  0
  -21.9194   -4.6966   22.3402 C   0  0  0  0  0  0
  -22.7721  -13.5176   21.1923 C   0  0  0  0  0  0
  -22.1662   -4.2152   21.0979 F   0  0  0  0  0  0
  -21.5627   -3.4539   25.7737 F   0  0  0  0  0  0
  -29.8007  -14.1880   20.2423 N   0  0  0  0  0  0
  -26.2755  -12.9596   20.3237 N   0  0  0  0  0  0
  -25.9336  -11.6677   20.5720 N   0  0  0  0  0  0
  -22.0383  -12.8151   22.0471 N   0  0  0  0  0  0
  -25.3961  -15.2023   20.4271 N   0  0  0  0  0  0
  -31.6466  -15.3504   20.2712 O   0  0  0  0  0  0
  -21.6647   -6.8885   21.4242 O   0  0  0  0  0  0
  -22.3400  -14.5476   20.6759 O   0  0  0  0  0  0
  -24.6768  -31.8084   23.1579 C   0  0  0  0  0  0
  -25.9384  -32.4509   23.8097 C   0  0  1  0  0  0
  -27.2158  -26.7763   20.2098 C   0  0  0  0  0  0
  -25.5993  -33.8330   24.1991 N   0  0  0  0  0  0
  -23.4982  -30.4142   21.5110 C   0  0  2  0  0  0
  -24.9513  -28.7681   20.1208 C   0  0  0  0  0  0
  -22.7730  -29.4364   22.4741 C   0  0  0  0  0  0
  -18.0333  -28.1417   22.8460 C   0  0  0  0  0  0
  -24.1496  -36.7172   23.2651 C   0  0  0  0  0  0
  -26.0754  -30.5666   21.4094 C   0  0  0  0  0  0
  -26.1406  -29.1387   20.7600 C   0  0  0  0  0  0
  -27.2642  -28.1704   20.7690 C   0  0  0  0  0  0
  -25.9929  -26.5936   19.5207 C   0  0  0  0  0  0
  -24.9116  -27.5196   19.4782 C   0  0  0  0  0  0
  -23.7467  -29.7168   20.1440 C   0  0  0  0  0  0
  -25.4143  -36.2920   24.0287 C   0  0  1  0  0  0
  -20.5964  -28.3772   23.1160 C   0  0  2  0  0  0
  -20.6804  -26.9440   22.5402 C   0  0  0  0  0  0
  -19.5778  -26.6374   21.5215 C   0  0  0  0  0  0
  -18.1961  -26.7946   22.1621 C   0  0  0  0  0  0
  -19.1597  -28.8918   23.2792 C   0  0  0  0  0  0
  -18.9504  -30.1503   23.8834 C   0  0  0  0  0  0
  -17.6495  -30.6602   24.0552 C   0  0  0  0  0  0
  -25.9118  -34.9308   23.4971 C   0  0  0  0  0  0
  -16.5385  -29.9085   23.6347 C   0  0  0  0  0  0
  -16.7313  -28.6507   23.0365 C   0  0  0  0  0  0
  -26.4585  -31.6512   25.0688 C   0  0  0  0  0  0
  -25.3670  -31.3806   26.1316 C   0  0  0  0  0  0
  -27.0506  -30.2860   24.6529 C   0  0  0  0  0  0
  -27.6046  -32.4356   25.7504 C   0  0  0  0  0  0
  -27.5566  -37.1744   24.8466 C   0  0  0  0  0  0
  -21.4386  -29.3037   22.3492 N   0  0  0  0  0  0
  -26.4275  -37.3673   23.9407 N   0  0  0  0  0  0
  -24.7731  -30.9607   22.0790 N   0  0  0  0  0  0
  -23.4212  -28.7951   23.3047 O   0  0  0  0  0  0
  -28.2079  -25.6095   20.2338 O   0  0  0  0  0  0
  -26.5748  -34.8871   22.4581 O   0  0  0  0  0  0
  -23.5805  -32.1122   23.6583 O   0  0  0  0  0  0
  -28.4968  -17.7123   20.1775 C   0  0  0  0  0  0
  -30.6020  -18.2161   20.8841 C   0  0  0  0  0  0
  -28.2331  -19.4070   19.8436 C   0  0  0  0  0  0
  -30.3919  -19.8523   20.4265 C   0  0  1  0  0  0
  -31.0893  -20.0564   19.0649 C   0  0  0  0  0  0
  -28.9589  -22.3060   19.9849 C   0  0  0  0  0  0
  -28.0174  -23.8966   20.3867 C   0  0  0  0  0  0
  -29.8457  -16.9363   20.4011 N   0  0  0  0  0  0
  -29.0245  -20.6229   20.4617 N   0  3  1  0  0  0
  -31.4151  -13.2212   19.1462 H   0  0  0  0  0  0
  -30.5407  -12.1421   20.1819 H   0  0  0  0  0  0
  -29.9581  -11.7699   17.7581 H   0  0  0  0  0  0
  -29.5073  -13.4499   17.5932 H   0  0  0  0  0  0
  -28.1104  -11.2875   19.1803 H   0  0  0  0  0  0
  -27.4235  -12.2491   17.8940 H   0  0  0  0  0  0
  -27.4602  -14.2259   19.2455 H   0  0  0  0  0  0
  -28.8589  -12.7269   21.5105 H   0  0  0  0  0  0
  -28.2106  -14.3488   21.6100 H   0  0  0  0  0  0
  -25.2783   -9.5683   22.4767 H   0  0  0  0  0  0
  -24.0013   -7.4637   22.7477 H   0  0  0  0  0  0
  -21.0864   -8.8785   19.8950 H   0  0  0  0  0  0
  -22.3728  -10.9677   19.6167 H   0  0  0  0  0  0
  -21.2013   -7.6150   23.9717 H   0  0  0  0  0  0
  -21.1482   -6.0523   25.9077 H   0  0  0  0  0  0
  -22.0596   -2.7611   23.2844 H   0  0  0  0  0  0
  -22.4023  -11.9825   22.4865 H   0  0  0  0  0  0
  -21.0989  -13.1146   22.2668 H   0  0  0  0  0  0
  -24.6283  -15.8540   20.5476 H   0  0  0  0  0  0
  -26.2475  -15.6443   20.1084 H   0  0  0  0  0  0
  -26.7460  -32.5002   23.0808 H   0  0  0  0  0  0
  -25.0063  -33.9382   25.0092 H   0  0  0  0  0  0
  -22.8194  -31.2497   21.3276 H   0  0  0  0  0  0
  -23.3774  -35.9485   23.3268 H   0  0  0  0  0  0
  -24.3566  -36.8874   22.2074 H   0  0  0  0  0  0
  -23.7239  -37.6335   23.6750 H   0  0  0  0  0  0
  -26.2699  -31.2961   20.6222 H   0  0  0  0  0  0
  -26.9299  -30.6314   22.0709 H   0  0  0  0  0  0
  -28.1669  -28.4623   21.2869 H   0  0  0  0  0  0
  -25.8400  -25.6486   19.0196 H   0  0  0  0  0  0
  -24.0120  -27.2291   18.9530 H   0  0  0  0  0  0
  -23.9183  -30.4788   19.3829 H   0  0  0  0  0  0
  -22.8522  -29.1813   19.8213 H   0  0  0  0  0  0
  -25.1349  -36.1693   25.0777 H   0  0  0  0  0  0
  -21.0048  -28.3390   24.1285 H   0  0  0  0  0  0
  -20.5674  -26.2394   23.3656 H   0  0  0  0  0  0
  -21.6666  -26.7396   22.1215 H   0  0  0  0  0  0
  -19.6936  -25.6268   21.1286 H   0  0  0  0  0  0
  -19.6719  -27.3149   20.6717 H   0  0  0  0  0  0
  -17.4230  -26.6688   21.4025 H   0  0  0  0  0  0
  -18.0352  -26.0104   22.9032 H   0  0  0  0  0  0
  -19.7979  -30.7337   24.2175 H   0  0  0  0  0  0
  -17.5045  -31.6275   24.5167 H   0  0  0  0  0  0
  -15.5382  -30.2966   23.7708 H   0  0  0  0  0  0
  -15.8714  -28.0804   22.7116 H   0  0  0  0  0  0
  -24.5876  -30.7133   25.7618 H   0  0  0  0  0  0
  -24.8835  -32.3020   26.4568 H   0  0  0  0  0  0
  -25.7865  -30.9083   27.0207 H   0  0  0  0  0  0
  -26.3206  -29.6494   24.1520 H   0  0  0  0  0  0
  -27.3964  -29.7281   25.5241 H   0  0  0  0  0  0
  -27.9175  -30.4005   24.0019 H   0  0  0  0  0  0
  -27.2593  -33.3718   26.1903 H   0  0  0  0  0  0
  -28.3950  -32.6820   25.0402 H   0  0  0  0  0  0
  -28.0612  -31.8604   26.5569 H   0  0  0  0  0  0
  -28.2555  -38.0065   24.7514 H   0  0  0  0  0  0
  -28.1091  -36.2588   24.6294 H   0  0  0  0  0  0
  -27.2280  -37.1382   25.8868 H   0  0  0  0  0  0
  -20.9672  -29.8706   21.6581 H   0  0  0  0  0  0
  -26.0109  -38.2723   24.1418 H   0  0  0  0  0  0
  -27.9687  -17.1575   19.4015 H   0  0  0  0  0  0
  -27.9266  -17.5012   21.0831 H   0  0  0  0  0  0
  -30.4748  -18.1981   21.9674 H   0  0  0  0  0  0
  -31.6619  -17.9949   20.7529 H   0  0  0  0  0  0
  -27.1784  -19.6107   20.0291 H   0  0  0  0  0  0
  -28.3270  -19.5210   18.7634 H   0  0  0  0  0  0
  -31.0016  -20.4110   21.1381 H   0  0  0  0  0  0
  -30.5837  -19.5216   18.2615 H   0  0  0  0  0  0
  -32.1140  -19.6861   19.0982 H   0  0  0  0  0  0
  -31.1467  -21.1071   18.7841 H   0  0  0  0  0  0
  -29.9707  -22.6129   20.2477 H   0  0  0  0  0  0
  -28.9770  -22.2663   18.8962 H   0  0  0  0  0  0
  -27.8438  -23.8079   21.4589 H   0  0  0  0  0  0
  -27.0301  -23.7248   19.9592 H   0  0  0  0  0  0
  -28.7633  -20.6350   21.4375 H   0  0  0  0  0  0
  1 25  1  0  0  0
  1 30  2  0  0  0
  1 78  1  0  0  0
  2  3  1  0  0  0
  2 25  1  0  0  0
  2 80  1  0  0  0
  2 81  1  0  0  0
  3  4  1  0  0  0
  3 82  1  0  0  0
  3 83  1  0  0  0
  4  5  1  0  0  0
  4 84  1  0  0  0
  4 85  1  0  0  0
  5  6  1  0  0  0
  5 26  1  0  0  0
  5 86  1  0  0  0
  6 25  1  0  0  0
  6 87  1  0  0  0
  6 88  1  0  0  0
  7  8  2  0  0  0
  7 26  1  0  0  0
  7 29  1  0  0  0
  8  9  1  0  0  0
  8 22  1  0  0  0
  9 10  1  0  0  0
  9 27  2  0  0  0
 10 11  2  0  0  0
 10 15  1  0  0  0
 11 12  1  0  0  0
 11 89  1  0  0  0
 12 13  2  0  0  0
 12 90  1  0  0  0
 13 14  1  0  0  0
 13 31  1  0  0  0
 14 15  2  0  0  0
 14 91  1  0  0  0
 15 92  1  0  0  0
 16 17  2  0  0  0
 16 21  1  0  0  0
 16 31  1  0  0  0
 17 18  1  0  0  0
 17 93  1  0  0  0
 18 19  2  0  0  0
 18 94  1  0  0  0
 19 20  1  0  0  0
 19 24  1  0  0  0
 20 21  2  0  0  0
 20 95  1  0  0  0
 21 23  1  0  0  0
 22 28  1  0  0  0
 22 32  2  0  0  0
 26 27  1  0  0  0
 28 96  1  0  0  0
 28 97  1  0  0  0
 29 98  1  0  0  0
 29 99  1  0  0  0
 33 34  1  0  0  0
 33 66  1  0  0  0
 33 70  2  0  0  0
 34 36  1  0  0  0
 34 59  1  0  0  0
 34100  1  0  0  0
 35 44  2  0  0  0
 35 45  1  0  0  0
 35 68  1  0  0  0
 36 56  1  0  0  0
 36101  1  0  0  0
 37 39  1  0  0  0
 37 47  1  0  0  0
 37 66  1  0  0  0
 37102  1  0  0  0
 38 43  2  0  0  0
 38 46  1  0  0  0
 38 47  1  0  0  0
 39 64  1  0  0  0
 39 67  2  0  0  0
 40 52  1  0  0  0
 40 53  2  0  0  0
 40 58  1  0  0  0
 41103  1  0  0  0
 41104  1  0  0  0
 41105  1  0  0  0
 41 48  1  0  0  0
 42 43  1  0  0  0
 42 66  1  0  0  0
 42106  1  0  0  0
 42107  1  0  0  0
 43 44  1  0  0  0
 44108  1  0  0  0
 45 46  2  0  0  0
 45109  1  0  0  0
 46110  1  0  0  0
 47111  1  0  0  0
 47112  1  0  0  0
 48 56  1  0  0  0
 48 65  1  0  0  0
 48113  1  0  0  0
 49 50  1  0  0  0
 49 53  1  0  0  0
 49 64  1  0  0  0
 49114  1  0  0  0
 50 51  1  0  0  0
 50115  1  0  0  0
 50116  1  0  0  0
 51 52  1  0  0  0
 51117  1  0  0  0
 51118  1  0  0  0
 52119  1  0  0  0
 52120  1  0  0  0
 53 54  1  0  0  0
 54 55  2  0  0  0
 54121  1  0  0  0
 55 57  1  0  0  0
 55122  1  0  0  0
 56 69  2  0  0  0
 57 58  2  0  0  0
 57123  1  0  0  0
 58124  1  0  0  0
 59 60  1  0  0  0
 59 61  1  0  0  0
 59 62  1  0  0  0
 60125  1  0  0  0
 60126  1  0  0  0
 60127  1  0  0  0
 61128  1  0  0  0
 61129  1  0  0  0
 61130  1  0  0  0
 62131  1  0  0  0
 62132  1  0  0  0
 62133  1  0  0  0
 63 65  1  0  0  0
 63134  1  0  0  0
 63135  1  0  0  0
 63136  1  0  0  0
 64137  1  0  0  0
 65138  1  0  0  0
 68 77  1  0  0  0
 71 73  1  0  0  0
 71 78  1  0  0  0
 71139  1  0  0  0
 71140  1  0  0  0
 72 74  1  0  0  0
 72 78  1  0  0  0
 72141  1  0  0  0
 72142  1  0  0  0
 73 79  1  0  0  0
 73143  1  0  0  0
 73144  1  0  0  0
 74 75  1  0  0  0
 74 79  1  0  0  0
 74145  1  0  0  0
 75146  1  0  0  0
 75147  1  0  0  0
 75148  1  0  0  0
 76 77  1  0  0  0
 76149  1  0  0  0
 76150  1  0  0  0
 76 79  1  0  0  0
 77151  1  0  0  0
 77152  1  0  0  0
 79153  1  0  0  0
M  CHG  1  79   1
M  ISO  4   1 100  68 101  77 101  78 100
M  END
> <chiral flag>
0

> <version>
0

> <s_m_source_file>
/data/baiqing/PycharmProjects/Reinvent-master-3.2/result/LINK_invent/BTK/process_docking_weight1_custom_product_contain_oxygen_bond_distance_aromatic_linkinvent_7_9_3/rearranged_h_0008.sdf

> <i_m_source_file_index>
85

> <r_mmod_Potential_Energy-OPLS-2005>
2099.59057617188

> <r_mmod_Stretch_Energy-OPLS-2005>
825.533325195312

> <r_mmod_Bend_Energy-OPLS-2005>
689.387939453125

> <r_mmod_Torsional_Energy-OPLS-2005>
390.769378662109

> <r_mmod_Improper_Torsional_Energy-OPLS-2005>
3.05144882202148

> <r_mmod_Van_der_Waal_Energy-OPLS-2005>
114.856369018555

> <r_mmod_Electrostatic_Energy-OPLS-2005>
-203.351989746094

> <r_mmod_Solvation_Energy-OPLS-2005>
-438.006011962891

> <b_mmod_Minimization_Converged-OPLS-2005>
0

> <r_mmod_RMS_Derivative-OPLS-2005>
0.0783654972910881

$$$$
86
                    3D
 Structure written by MMmdl.
154162  0  0  1  0            999 V2000
  -30.6714  -14.6165   20.5337 C   0  0  0  0  0  0
  -30.4178  -12.3865   19.4509 C   0  0  0  0  0  0
  -29.4945  -12.5085   18.2204 C   0  0  0  0  0  0
  -28.0184  -12.3567   18.6357 C   0  0  0  0  0  0
  -27.6486  -13.2252   19.8688 C   0  0  2  0  0  0
  -28.6952  -13.0940   20.9964 C   0  0  0  0  0  0
  -25.2545  -13.8209   20.5763 C   0  0  0  0  0  0
  -24.1804  -13.0456   20.9224 C   0  0  0  0  0  0
  -24.6392  -11.6928   20.8764 C   0  0  0  0  0  0
  -23.9066  -10.4306   21.0411 C   0  0  0  0  0  0
  -24.3624   -9.4228   21.9184 C   0  0  0  0  0  0
  -23.6302   -8.2258   22.0754 C   0  0  0  0  0  0
  -22.4289   -8.0299   21.3546 C   0  0  0  0  0  0
  -21.9912   -9.0269   20.4639 C   0  0  0  0  0  0
  -22.7236  -10.2152   20.3055 C   0  0  0  0  0  0
  -21.6862   -6.0756   22.5286 C   0  0  0  0  0  0
  -21.4001   -6.5649   23.8217 C   0  0  0  0  0  0
  -21.3663   -5.6801   24.9175 C   0  0  0  0  0  0
  -21.6049   -4.3068   24.7223 C   0  0  0  0  0  0
  -21.8811   -3.8164   23.4341 C   0  0  0  0  0  0
  -21.9189   -4.6987   22.3402 C   0  0  0  0  0  0
  -22.7832  -13.5249   21.1871 C   0  0  0  0  0  0
  -22.1662   -4.2182   21.0979 F   0  0  0  0  0  0
  -21.5626   -3.4544   25.7732 F   0  0  0  0  0  0
  -30.0020  -13.4255   20.4185 N   0  0  0  0  0  0
  -26.2966  -12.9399   20.3388 N   0  0  0  0  0  0
  -25.9326  -11.6544   20.5803 N   0  0  0  0  0  0
  -22.0476  -12.8223   22.0426 N   0  0  0  0  0  0
  -25.4264  -15.1926   20.4236 N   0  0  0  0  0  0
  -31.8392  -14.7165   20.1516 O   0  0  0  0  0  0
  -21.6649   -6.8899   21.4251 O   0  0  0  0  0  0
  -22.3514  -14.5555   20.6723 O   0  0  0  0  0  0
  -24.6312  -31.8552   23.1990 C   0  0  0  0  0  0
  -25.9146  -32.4746   23.8336 C   0  0  1  0  0  0
  -27.2334  -27.2944   20.1233 C   0  0  0  0  0  0
  -25.5936  -33.8550   24.2248 N   0  0  0  0  0  0
  -23.4283  -30.4771   21.5410 C   0  0  2  0  0  0
  -24.8758  -28.9314   20.1069 C   0  0  0  0  0  0
  -22.7512  -29.4599   22.4913 C   0  0  0  0  0  0
  -18.0294  -28.1393   22.8463 C   0  0  0  0  0  0
  -24.1486  -36.7297   23.2636 C   0  0  0  0  0  0
  -25.9703  -30.7761   21.3772 C   0  0  0  0  0  0
  -26.0432  -29.4015   20.7216 C   0  0  0  0  0  0
  -27.2219  -28.5937   20.7234 C   0  0  0  0  0  0
  -26.0459  -26.8960   19.4619 C   0  0  0  0  0  0
  -24.8818  -27.6852   19.4642 C   0  0  0  0  0  0
  -23.6441  -29.8110   20.1566 C   0  0  0  0  0  0
  -25.4113  -36.3065   24.0314 C   0  0  1  0  0  0
  -20.5896  -28.3708   23.1251 C   0  0  2  0  0  0
  -20.6773  -26.9421   22.5398 C   0  0  0  0  0  0
  -19.5754  -26.6379   21.5198 C   0  0  0  0  0  0
  -18.1935  -26.7931   22.1610 C   0  0  0  0  0  0
  -19.1548  -28.8867   23.2850 C   0  0  0  0  0  0
  -18.9468  -30.1465   23.8870 C   0  0  0  0  0  0
  -17.6468  -30.6585   24.0566 C   0  0  0  0  0  0
  -25.9053  -34.9435   23.5081 C   0  0  0  0  0  0
  -16.5361  -29.9084   23.6328 C   0  0  0  0  0  0
  -16.7282  -28.6512   23.0329 C   0  0  0  0  0  0
  -26.4502  -31.6580   25.0741 C   0  0  0  0  0  0
  -25.3712  -31.3747   26.1457 C   0  0  0  0  0  0
  -27.0352  -30.2992   24.6246 C   0  0  0  0  0  0
  -27.6059  -32.4326   25.7515 C   0  0  0  0  0  0
  -27.5575  -37.1801   24.8456 C   0  0  0  0  0  0
  -21.4224  -29.3052   22.3649 N   0  0  0  0  0  0
  -26.4285  -37.3769   23.9403 N   0  0  0  0  0  0
  -24.6952  -31.0545   22.0953 N   0  0  0  0  0  0
  -23.4211  -28.8135   23.3019 O   0  0  0  0  0  0
  -28.3379  -26.4182   20.2055 O   0  0  0  0  0  0
  -26.5638  -34.8918   22.4658 O   0  0  0  0  0  0
  -23.5460  -32.1373   23.7289 O   0  0  0  0  0  0
  -30.2440  -20.9706   21.1448 C   0  0  0  0  0  0
  -28.7742  -18.7026   20.3860 C   0  0  0  0  0  0
  -30.7354  -19.6513   21.4096 C   0  0  0  0  0  0
  -30.0149  -18.4714   21.0290 C   0  0  0  0  0  0
  -29.0127  -21.1982   20.4807 C   0  0  0  0  0  0
  -28.2947  -20.0212   20.1148 C   0  0  0  0  0  0
  -32.0700  -19.5360   22.1332 C   0  0  0  0  0  0
  -30.6085  -17.0371   21.3380 C   0  0  0  0  0  0
  -28.1235  -24.9686   19.9169 C   0  0  0  0  0  0
  -29.0432  -23.7768   20.4732 C   0  0  0  0  0  0
  -29.9789  -15.7257   20.9517 N   0  0  0  0  0  0
  -28.4562  -22.4619   20.1636 O   0  0  0  0  0  0
  -27.1046  -20.1572   19.4804 F   0  0  0  0  0  0
  -31.4628  -12.4822   19.1512 H   0  0  0  0  0  0
  -30.3284  -11.3961   19.8969 H   0  0  0  0  0  0
  -29.7483  -11.7513   17.4783 H   0  0  0  0  0  0
  -29.6494  -13.4741   17.7346 H   0  0  0  0  0  0
  -27.8472  -11.3021   18.8585 H   0  0  0  0  0  0
  -27.3645  -12.5959   17.7963 H   0  0  0  0  0  0
  -27.6670  -14.2621   19.5318 H   0  0  0  0  0  0
  -28.7103  -12.0770   21.3958 H   0  0  0  0  0  0
  -28.4540  -13.7395   21.8414 H   0  0  0  0  0  0
  -25.2770   -9.5723   22.4744 H   0  0  0  0  0  0
  -24.0021   -7.4647   22.7460 H   0  0  0  0  0  0
  -21.0846   -8.8779   19.8939 H   0  0  0  0  0  0
  -22.3691  -10.9685   19.6154 H   0  0  0  0  0  0
  -21.1980   -7.6152   23.9740 H   0  0  0  0  0  0
  -21.1484   -6.0523   25.9079 H   0  0  0  0  0  0
  -22.0581   -2.7626   23.2840 H   0  0  0  0  0  0
  -22.4126  -11.9879   22.4773 H   0  0  0  0  0  0
  -21.1088  -13.1223   22.2639 H   0  0  0  0  0  0
  -24.6620  -15.8472   20.5522 H   0  0  0  0  0  0
  -26.2774  -15.6395   20.1083 H   0  0  0  0  0  0
  -26.7232  -32.5397   23.1094 H   0  0  0  0  0  0
  -25.0066  -33.9686   25.0380 H   0  0  0  0  0  0
  -22.7258  -31.3001   21.3940 H   0  0  0  0  0  0
  -23.3737  -35.9641   23.3295 H   0  0  0  0  0  0
  -24.3578  -36.8935   22.2054 H   0  0  0  0  0  0
  -23.7260  -37.6501   23.6676 H   0  0  0  0  0  0
  -26.1092  -31.5346   20.6056 H   0  0  0  0  0  0
  -26.8490  -30.8230   22.0100 H   0  0  0  0  0  0
  -28.1108  -28.9478   21.2267 H   0  0  0  0  0  0
  -25.9835  -25.9523   18.9421 H   0  0  0  0  0  0
  -23.9965  -27.3230   18.9598 H   0  0  0  0  0  0
  -23.7654  -30.5860   19.3983 H   0  0  0  0  0  0
  -22.7662  -29.2367   19.8531 H   0  0  0  0  0  0
  -25.1295  -36.1902   25.0804 H   0  0  0  0  0  0
  -20.9979  -28.3272   24.1380 H   0  0  0  0  0  0
  -20.5639  -26.2327   23.3606 H   0  0  0  0  0  0
  -21.6643  -26.7409   22.1218 H   0  0  0  0  0  0
  -19.6915  -25.6282   21.1244 H   0  0  0  0  0  0
  -19.6697  -27.3174   20.6717 H   0  0  0  0  0  0
  -17.4199  -26.6666   21.4015 H   0  0  0  0  0  0
  -18.0346  -26.0077   22.9012 H   0  0  0  0  0  0
  -19.7945  -30.7288   24.2218 H   0  0  0  0  0  0
  -17.5024  -31.6254   24.5192 H   0  0  0  0  0  0
  -15.5365  -30.2981   23.7666 H   0  0  0  0  0  0
  -15.8682  -28.0841   22.7029 H   0  0  0  0  0  0
  -24.5875  -30.7113   25.7780 H   0  0  0  0  0  0
  -24.8920  -32.2922   26.4883 H   0  0  0  0  0  0
  -25.8007  -30.8912   27.0238 H   0  0  0  0  0  0
  -26.2941  -29.6749   24.1236 H   0  0  0  0  0  0
  -27.3986  -29.7263   25.4791 H   0  0  0  0  0  0
  -27.8843  -30.4281   23.9529 H   0  0  0  0  0  0
  -27.2661  -33.3614   26.2120 H   0  0  0  0  0  0
  -28.3849  -32.6908   25.0328 H   0  0  0  0  0  0
  -28.0752  -31.8438   26.5409 H   0  0  0  0  0  0
  -28.2577  -38.0113   24.7495 H   0  0  0  0  0  0
  -28.1078  -36.2635   24.6265 H   0  0  0  0  0  0
  -27.2297  -37.1442   25.8863 H   0  0  0  0  0  0
  -20.9418  -29.8813   21.6879 H   0  0  0  0  0  0
  -26.0148  -38.2835   24.1416 H   0  0  0  0  0  0
  -30.8293  -21.8207   21.4632 H   0  0  0  0  0  0
  -28.1692  -17.8583   20.0913 H   0  0  0  0  0  0
  -32.6175  -20.4792   22.1116 H   0  0  0  0  0  0
  -32.7245  -18.7944   21.6775 H   0  0  0  0  0  0
  -31.9155  -19.2668   23.1785 H   0  0  0  0  0  0
  -30.7364  -16.9776   22.4199 H   0  0  0  0  0  0
  -31.6185  -17.0475   20.9291 H   0  0  0  0  0  0
  -27.1284  -24.6995   20.2688 H   0  0  0  0  0  0
  -28.0917  -24.8725   18.8303 H   0  0  0  0  0  0
  -29.1487  -23.8626   21.5564 H   0  0  0  0  0  0
  -30.0479  -23.8456   20.0508 H   0  0  0  0  0  0
  -29.0138  -15.5852   21.2060 H   0  0  0  0  0  0
  1 25  1  0  0  0
  1 30  2  0  0  0
  1 81  1  0  0  0
  2  3  1  0  0  0
  2 25  1  0  0  0
  2 84  1  0  0  0
  2 85  1  0  0  0
  3  4  1  0  0  0
  3 86  1  0  0  0
  3 87  1  0  0  0
  4  5  1  0  0  0
  4 88  1  0  0  0
  4 89  1  0  0  0
  5  6  1  0  0  0
  5 26  1  0  0  0
  5 90  1  0  0  0
  6 25  1  0  0  0
  6 91  1  0  0  0
  6 92  1  0  0  0
  7  8  2  0  0  0
  7 26  1  0  0  0
  7 29  1  0  0  0
  8  9  1  0  0  0
  8 22  1  0  0  0
  9 10  1  0  0  0
  9 27  2  0  0  0
 10 11  2  0  0  0
 10 15  1  0  0  0
 11 12  1  0  0  0
 11 93  1  0  0  0
 12 13  2  0  0  0
 12 94  1  0  0  0
 13 14  1  0  0  0
 13 31  1  0  0  0
 14 15  2  0  0  0
 14 95  1  0  0  0
 15 96  1  0  0  0
 16 17  2  0  0  0
 16 21  1  0  0  0
 16 31  1  0  0  0
 17 18  1  0  0  0
 17 97  1  0  0  0
 18 19  2  0  0  0
 18 98  1  0  0  0
 19 20  1  0  0  0
 19 24  1  0  0  0
 20 21  2  0  0  0
 20 99  1  0  0  0
 21 23  1  0  0  0
 22 28  1  0  0  0
 22 32  2  0  0  0
 26 27  1  0  0  0
 28100  1  0  0  0
 28101  1  0  0  0
 29102  1  0  0  0
 29103  1  0  0  0
 33 34  1  0  0  0
 33 66  1  0  0  0
 33 70  2  0  0  0
 34 36  1  0  0  0
 34 59  1  0  0  0
 34104  1  0  0  0
 35 44  2  0  0  0
 35 45  1  0  0  0
 35 68  1  0  0  0
 36 56  1  0  0  0
 36105  1  0  0  0
 37 39  1  0  0  0
 37 47  1  0  0  0
 37 66  1  0  0  0
 37106  1  0  0  0
 38 43  2  0  0  0
 38 46  1  0  0  0
 38 47  1  0  0  0
 39 64  1  0  0  0
 39 67  2  0  0  0
 40 52  1  0  0  0
 40 53  2  0  0  0
 40 58  1  0  0  0
 41107  1  0  0  0
 41108  1  0  0  0
 41109  1  0  0  0
 41 48  1  0  0  0
 42 43  1  0  0  0
 42 66  1  0  0  0
 42110  1  0  0  0
 42111  1  0  0  0
 43 44  1  0  0  0
 44112  1  0  0  0
 45 46  2  0  0  0
 45113  1  0  0  0
 46114  1  0  0  0
 47115  1  0  0  0
 47116  1  0  0  0
 48 56  1  0  0  0
 48 65  1  0  0  0
 48117  1  0  0  0
 49 50  1  0  0  0
 49 53  1  0  0  0
 49 64  1  0  0  0
 49118  1  0  0  0
 50 51  1  0  0  0
 50119  1  0  0  0
 50120  1  0  0  0
 51 52  1  0  0  0
 51121  1  0  0  0
 51122  1  0  0  0
 52123  1  0  0  0
 52124  1  0  0  0
 53 54  1  0  0  0
 54 55  2  0  0  0
 54125  1  0  0  0
 55 57  1  0  0  0
 55126  1  0  0  0
 56 69  2  0  0  0
 57 58  2  0  0  0
 57127  1  0  0  0
 58128  1  0  0  0
 59 60  1  0  0  0
 59 61  1  0  0  0
 59 62  1  0  0  0
 60129  1  0  0  0
 60130  1  0  0  0
 60131  1  0  0  0
 61132  1  0  0  0
 61133  1  0  0  0
 61134  1  0  0  0
 62135  1  0  0  0
 62136  1  0  0  0
 62137  1  0  0  0
 63 65  1  0  0  0
 63138  1  0  0  0
 63139  1  0  0  0
 63140  1  0  0  0
 64141  1  0  0  0
 65142  1  0  0  0
 68 79  1  0  0  0
 71 73  2  0  0  0
 71 75  1  0  0  0
 71143  1  0  0  0
 72 74  2  0  0  0
 72 76  1  0  0  0
 72144  1  0  0  0
 73 74  1  0  0  0
 73 77  1  0  0  0
 74 78  1  0  0  0
 75 76  2  0  0  0
 75 82  1  0  0  0
 76 83  1  0  0  0
 77145  1  0  0  0
 77146  1  0  0  0
 77147  1  0  0  0
 78 81  1  0  0  0
 78148  1  0  0  0
 78149  1  0  0  0
 79 80  1  0  0  0
 79150  1  0  0  0
 79151  1  0  0  0
 80 82  1  0  0  0
 80152  1  0  0  0
 80153  1  0  0  0
 81154  1  0  0  0
M  ISO  4   1 100  68 101  79 101  81 100
M  END
> <chiral flag>
0

> <version>
0

> <s_m_source_file>
/data/baiqing/PycharmProjects/Reinvent-master-3.2/result/LINK_invent/BTK/process_docking_weight1_custom_product_contain_oxygen_bond_distance_aromatic_linkinvent_7_9_3/rearranged_h_0008.sdf

> <i_m_source_file_index>
86

> <r_mmod_Potential_Energy-OPLS-2005>
58.1412239074707

> <r_mmod_Stretch_Energy-OPLS-2005>
88.7969665527344

> <r_mmod_Bend_Energy-OPLS-2005>
167.78401184082

> <r_mmod_Torsional_Energy-OPLS-2005>
191.868988037109

> <r_mmod_Improper_Torsional_Energy-OPLS-2005>
3.23427176475525

> <r_mmod_Van_der_Waal_Energy-OPLS-2005>
149.885971069336

> <r_mmod_Electrostatic_Energy-OPLS-2005>
-385.982330322266

> <r_mmod_Solvation_Energy-OPLS-2005>
-210.527587890625

> <b_mmod_Minimization_Converged-OPLS-2005>
0

> <r_mmod_RMS_Derivative-OPLS-2005>
2.7853684425354

$$$$
87
                    3D
 Structure written by MMmdl.
159167  0  0  1  0            999 V2000
  -30.6532  -14.6500   20.5058 C   0  0  0  0  0  0
  -30.4366  -12.4002   19.4593 C   0  0  0  0  0  0
  -29.5109  -12.5178   18.2286 C   0  0  0  0  0  0
  -28.0326  -12.3562   18.6366 C   0  0  0  0  0  0
  -27.6514  -13.2234   19.8664 C   0  0  2  0  0  0
  -28.7014  -13.0951   20.9960 C   0  0  0  0  0  0
  -25.2414  -13.8030   20.5609 C   0  0  0  0  0  0
  -24.1755  -13.0308   20.9217 C   0  0  0  0  0  0
  -24.6401  -11.6824   20.8777 C   0  0  0  0  0  0
  -23.9077  -10.4225   21.0423 C   0  0  0  0  0  0
  -24.3621   -9.4148   21.9200 C   0  0  0  0  0  0
  -23.6284   -8.2195   22.0757 C   0  0  0  0  0  0
  -22.4267   -8.0252   21.3544 C   0  0  0  0  0  0
  -21.9914   -9.0228   20.4648 C   0  0  0  0  0  0
  -22.7255  -10.2094   20.3061 C   0  0  0  0  0  0
  -21.6840   -6.0727   22.5285 C   0  0  0  0  0  0
  -21.4002   -6.5631   23.8219 C   0  0  0  0  0  0
  -21.3657   -5.6784   24.9179 C   0  0  0  0  0  0
  -21.6045   -4.3048   24.7231 C   0  0  0  0  0  0
  -21.8817   -3.8140   23.4351 C   0  0  0  0  0  0
  -21.9185   -4.6957   22.3409 C   0  0  0  0  0  0
  -22.7782  -13.5126   21.1870 C   0  0  0  0  0  0
  -22.1658   -4.2145   21.0985 F   0  0  0  0  0  0
  -21.5634   -3.4531   25.7743 F   0  0  0  0  0  0
  -30.0195  -13.4331   20.4303 N   0  0  0  0  0  0
  -26.2963  -12.9327   20.3341 N   0  0  0  0  0  0
  -25.9349  -11.6473   20.5812 N   0  0  0  0  0  0
  -22.0420  -12.8151   22.0441 N   0  0  0  0  0  0
  -25.3775  -15.1692   20.3804 N   0  0  0  0  0  0
  -31.8103  -14.7825   20.1032 O   0  0  0  0  0  0
  -21.6617   -6.8867   21.4247 O   0  0  0  0  0  0
  -22.3483  -14.5444   20.6715 O   0  0  0  0  0  0
  -24.6241  -31.8611   23.2038 C   0  0  0  0  0  0
  -25.9096  -32.4785   23.8360 C   0  0  1  0  0  0
  -27.2353  -27.3400   20.1095 C   0  0  0  0  0  0
  -25.5916  -33.8585   24.2286 N   0  0  0  0  0  0
  -23.4172  -30.4853   21.5455 C   0  0  2  0  0  0
  -24.8650  -28.9418   20.1124 C   0  0  0  0  0  0
  -22.7464  -29.4634   22.4940 C   0  0  0  0  0  0
  -18.0285  -28.1389   22.8485 C   0  0  0  0  0  0
  -24.1488  -36.7300   23.2638 C   0  0  0  0  0  0
  -25.9562  -30.7989   21.3709 C   0  0  0  0  0  0
  -26.0323  -29.4271   20.7143 C   0  0  0  0  0  0
  -27.2181  -28.6375   20.7047 C   0  0  0  0  0  0
  -26.0422  -26.9043   19.4834 C   0  0  0  0  0  0
  -24.8706  -27.6841   19.4911 C   0  0  0  0  0  0
  -23.6322  -29.8198   20.1607 C   0  0  0  0  0  0
  -25.4111  -36.3087   24.0330 C   0  0  1  0  0  0
  -20.5882  -28.3690   23.1289 C   0  0  2  0  0  0
  -20.6772  -26.9414   22.5410 C   0  0  0  0  0  0
  -19.5749  -26.6385   21.5210 C   0  0  0  0  0  0
  -18.1930  -26.7931   22.1623 C   0  0  0  0  0  0
  -19.1535  -28.8856   23.2885 C   0  0  0  0  0  0
  -18.9459  -30.1459   23.8900 C   0  0  0  0  0  0
  -17.6459  -30.6590   24.0565 C   0  0  0  0  0  0
  -25.9045  -34.9455   23.5108 C   0  0  0  0  0  0
  -16.5351  -29.9090   23.6326 C   0  0  0  0  0  0
  -16.7272  -28.6510   23.0342 C   0  0  0  0  0  0
  -26.4488  -31.6587   25.0721 C   0  0  0  0  0  0
  -25.3728  -31.3725   26.1454 C   0  0  0  0  0  0
  -27.0328  -30.3013   24.6158 C   0  0  0  0  0  0
  -27.6046  -32.4320   25.7496 C   0  0  0  0  0  0
  -27.5578  -37.1805   24.8464 C   0  0  0  0  0  0
  -21.4177  -29.3047   22.3683 N   0  0  0  0  0  0
  -26.4289  -37.3779   23.9409 N   0  0  0  0  0  0
  -24.6847  -31.0644   22.0976 N   0  0  0  0  0  0
  -23.4198  -28.8166   23.3008 O   0  0  0  0  0  0
  -28.3716  -26.5180   20.1619 O   0  0  0  0  0  0
  -26.5613  -34.8919   22.4675 O   0  0  0  0  0  0
  -23.5408  -32.1397   23.7380 O   0  0  0  0  0  0
  -28.8774  -19.4069   20.6717 C   0  0  0  0  0  0
  -31.2687  -19.3265   20.8181 C   0  0  0  0  0  0
  -30.0914  -20.1245   20.7446 C   0  0  0  0  0  0
  -28.8439  -17.9821   20.6795 C   0  0  0  0  0  0
  -30.0188  -17.1750   20.7742 C   0  0  0  0  0  0
  -31.2449  -17.8980   20.8459 C   0  0  0  0  0  0
  -27.4909  -17.3236   20.5861 C   0  0  0  0  0  0
  -29.2319  -22.2994   18.6555 C   0  0  0  0  0  0
  -30.1584  -21.6945   20.8773 C   0  0  0  0  0  0
  -29.3700  -24.0903   20.3976 C   0  0  0  0  0  0
  -28.2136  -25.0702   19.9171 C   0  0  0  0  0  0
  -29.8692  -15.7133   20.8709 N   0  0  0  0  0  0
  -29.2055  -22.5949   20.1091 N   0  3  1  0  0  0
  -32.4195  -17.2438   20.9983 F   0  0  0  0  0  0
  -31.4800  -12.5103   19.1590 H   0  0  0  0  0  0
  -30.3597  -11.4074   19.9061 H   0  0  0  0  0  0
  -29.7793  -11.7694   17.4818 H   0  0  0  0  0  0
  -29.6552  -13.4898   17.7533 H   0  0  0  0  0  0
  -27.8667  -11.3024   18.8622 H   0  0  0  0  0  0
  -27.3810  -12.5932   17.7943 H   0  0  0  0  0  0
  -27.6610  -14.2580   19.5253 H   0  0  0  0  0  0
  -28.7136  -12.0795   21.3943 H   0  0  0  0  0  0
  -28.4459  -13.7400   21.8383 H   0  0  0  0  0  0
  -25.2766   -9.5615   22.4778 H   0  0  0  0  0  0
  -23.9983   -7.4580   22.7473 H   0  0  0  0  0  0
  -21.0845   -8.8761   19.8953 H   0  0  0  0  0  0
  -22.3734  -10.9638   19.6168 H   0  0  0  0  0  0
  -21.1991   -7.6137   23.9723 H   0  0  0  0  0  0
  -21.1484   -6.0512   25.9083 H   0  0  0  0  0  0
  -22.0599   -2.7603   23.2851 H   0  0  0  0  0  0
  -22.4020  -11.9819   22.4855 H   0  0  0  0  0  0
  -21.1043  -13.1193   22.2642 H   0  0  0  0  0  0
  -24.5814  -15.7921   20.4577 H   0  0  0  0  0  0
  -26.1880  -15.6077   19.9685 H   0  0  0  0  0  0
  -26.7164  -32.5466   23.1113 H   0  0  0  0  0  0
  -25.0059  -33.9732   25.0427 H   0  0  0  0  0  0
  -22.7099  -31.3052   21.4025 H   0  0  0  0  0  0
  -23.3744  -35.9637   23.3299 H   0  0  0  0  0  0
  -24.3583  -36.8920   22.2052 H   0  0  0  0  0  0
  -23.7244  -37.6505   23.6658 H   0  0  0  0  0  0
  -26.0811  -31.5631   20.6023 H   0  0  0  0  0  0
  -26.8388  -30.8510   21.9968 H   0  0  0  0  0  0
  -28.1133  -29.0094   21.1833 H   0  0  0  0  0  0
  -25.9824  -25.9489   18.9843 H   0  0  0  0  0  0
  -23.9751  -27.3064   19.0163 H   0  0  0  0  0  0
  -23.7516  -30.5963   19.4042 H   0  0  0  0  0  0
  -22.7530  -29.2487   19.8575 H   0  0  0  0  0  0
  -25.1289  -36.1941   25.0821 H   0  0  0  0  0  0
  -20.9979  -28.3261   24.1408 H   0  0  0  0  0  0
  -20.5672  -26.2300   23.3609 H   0  0  0  0  0  0
  -21.6643  -26.7444   22.1206 H   0  0  0  0  0  0
  -19.6912  -25.6293   21.1245 H   0  0  0  0  0  0
  -19.6689  -27.3191   20.6737 H   0  0  0  0  0  0
  -17.4199  -26.6673   21.4026 H   0  0  0  0  0  0
  -18.0336  -26.0077   22.9025 H   0  0  0  0  0  0
  -19.7935  -30.7273   24.2269 H   0  0  0  0  0  0
  -17.5015  -31.6271   24.5165 H   0  0  0  0  0  0
  -15.5353  -30.2994   23.7651 H   0  0  0  0  0  0
  -15.8671  -28.0837   22.7045 H   0  0  0  0  0  0
  -24.5900  -30.7072   25.7792 H   0  0  0  0  0  0
  -24.8919  -32.2893   26.4877 H   0  0  0  0  0  0
  -25.8059  -30.8908   27.0229 H   0  0  0  0  0  0
  -26.2898  -29.6770   24.1180 H   0  0  0  0  0  0
  -27.4034  -29.7261   25.4654 H   0  0  0  0  0  0
  -27.8763  -30.4309   23.9372 H   0  0  0  0  0  0
  -27.2649  -33.3616   26.2077 H   0  0  0  0  0  0
  -28.3858  -32.6886   25.0327 H   0  0  0  0  0  0
  -28.0710  -31.8440   26.5412 H   0  0  0  0  0  0
  -28.2595  -38.0102   24.7507 H   0  0  0  0  0  0
  -28.1073  -36.2633   24.6291 H   0  0  0  0  0  0
  -27.2299  -37.1459   25.8868 H   0  0  0  0  0  0
  -20.9347  -29.8786   21.6911 H   0  0  0  0  0  0
  -26.0172  -38.2855   24.1406 H   0  0  0  0  0  0
  -27.9461  -19.9550   20.6308 H   0  0  0  0  0  0
  -32.2278  -19.8153   20.9102 H   0  0  0  0  0  0
  -26.6861  -18.0497   20.4666 H   0  0  0  0  0  0
  -27.2909  -16.7445   21.4880 H   0  0  0  0  0  0
  -27.4775  -16.6692   19.7158 H   0  0  0  0  0  0
  -29.0852  -21.2380   18.4576 H   0  0  0  0  0  0
  -30.1856  -22.5904   18.2146 H   0  0  0  0  0  0
  -28.4395  -22.8253   18.1254 H   0  0  0  0  0  0
  -31.1732  -22.0012   20.6204 H   0  0  0  0  0  0
  -30.0487  -21.9201   21.9389 H   0  0  0  0  0  0
  -29.4725  -24.2176   21.4759 H   0  0  0  0  0  0
  -30.3149  -24.4237   19.9676 H   0  0  0  0  0  0
  -27.2941  -24.7317   20.3963 H   0  0  0  0  0  0
  -28.0701  -24.9487   18.8438 H   0  0  0  0  0  0
  -28.9394  -15.4176   21.1186 H   0  0  0  0  0  0
  -28.2855  -22.3387   20.4366 H   0  0  0  0  0  0
  1 25  1  0  0  0
  1 30  2  0  0  0
  1 82  1  0  0  0
  2  3  1  0  0  0
  2 25  1  0  0  0
  2 85  1  0  0  0
  2 86  1  0  0  0
  3  4  1  0  0  0
  3 87  1  0  0  0
  3 88  1  0  0  0
  4  5  1  0  0  0
  4 89  1  0  0  0
  4 90  1  0  0  0
  5  6  1  0  0  0
  5 26  1  0  0  0
  5 91  1  0  0  0
  6 25  1  0  0  0
  6 92  1  0  0  0
  6 93  1  0  0  0
  7  8  2  0  0  0
  7 26  1  0  0  0
  7 29  1  0  0  0
  8  9  1  0  0  0
  8 22  1  0  0  0
  9 10  1  0  0  0
  9 27  2  0  0  0
 10 11  2  0  0  0
 10 15  1  0  0  0
 11 12  1  0  0  0
 11 94  1  0  0  0
 12 13  2  0  0  0
 12 95  1  0  0  0
 13 14  1  0  0  0
 13 31  1  0  0  0
 14 15  2  0  0  0
 14 96  1  0  0  0
 15 97  1  0  0  0
 16 17  2  0  0  0
 16 21  1  0  0  0
 16 31  1  0  0  0
 17 18  1  0  0  0
 17 98  1  0  0  0
 18 19  2  0  0  0
 18 99  1  0  0  0
 19 20  1  0  0  0
 19 24  1  0  0  0
 20 21  2  0  0  0
 20100  1  0  0  0
 21 23  1  0  0  0
 22 28  1  0  0  0
 22 32  2  0  0  0
 26 27  1  0  0  0
 28101  1  0  0  0
 28102  1  0  0  0
 29103  1  0  0  0
 29104  1  0  0  0
 33 34  1  0  0  0
 33 66  1  0  0  0
 33 70  2  0  0  0
 34 36  1  0  0  0
 34 59  1  0  0  0
 34105  1  0  0  0
 35 44  2  0  0  0
 35 45  1  0  0  0
 35 68  1  0  0  0
 36 56  1  0  0  0
 36106  1  0  0  0
 37 39  1  0  0  0
 37 47  1  0  0  0
 37 66  1  0  0  0
 37107  1  0  0  0
 38 43  2  0  0  0
 38 46  1  0  0  0
 38 47  1  0  0  0
 39 64  1  0  0  0
 39 67  2  0  0  0
 40 52  1  0  0  0
 40 53  2  0  0  0
 40 58  1  0  0  0
 41108  1  0  0  0
 41109  1  0  0  0
 41110  1  0  0  0
 41 48  1  0  0  0
 42 43  1  0  0  0
 42 66  1  0  0  0
 42111  1  0  0  0
 42112  1  0  0  0
 43 44  1  0  0  0
 44113  1  0  0  0
 45 46  2  0  0  0
 45114  1  0  0  0
 46115  1  0  0  0
 47116  1  0  0  0
 47117  1  0  0  0
 48 56  1  0  0  0
 48 65  1  0  0  0
 48118  1  0  0  0
 49 50  1  0  0  0
 49 53  1  0  0  0
 49 64  1  0  0  0
 49119  1  0  0  0
 50 51  1  0  0  0
 50120  1  0  0  0
 50121  1  0  0  0
 51 52  1  0  0  0
 51122  1  0  0  0
 51123  1  0  0  0
 52124  1  0  0  0
 52125  1  0  0  0
 53 54  1  0  0  0
 54 55  2  0  0  0
 54126  1  0  0  0
 55 57  1  0  0  0
 55127  1  0  0  0
 56 69  2  0  0  0
 57 58  2  0  0  0
 57128  1  0  0  0
 58129  1  0  0  0
 59 60  1  0  0  0
 59 61  1  0  0  0
 59 62  1  0  0  0
 60130  1  0  0  0
 60131  1  0  0  0
 60132  1  0  0  0
 61133  1  0  0  0
 61134  1  0  0  0
 61135  1  0  0  0
 62136  1  0  0  0
 62137  1  0  0  0
 62138  1  0  0  0
 63 65  1  0  0  0
 63139  1  0  0  0
 63140  1  0  0  0
 63141  1  0  0  0
 64142  1  0  0  0
 65143  1  0  0  0
 68 81  1  0  0  0
 71 73  2  0  0  0
 71 74  1  0  0  0
 71144  1  0  0  0
 72 73  1  0  0  0
 72 76  2  0  0  0
 72145  1  0  0  0
 73 79  1  0  0  0
 74 75  2  0  0  0
 74 77  1  0  0  0
 75 76  1  0  0  0
 75 82  1  0  0  0
 76 84  1  0  0  0
 77146  1  0  0  0
 77147  1  0  0  0
 77148  1  0  0  0
 78149  1  0  0  0
 78150  1  0  0  0
 78151  1  0  0  0
 78 83  1  0  0  0
 79 83  1  0  0  0
 79152  1  0  0  0
 79153  1  0  0  0
 80 81  1  0  0  0
 80 83  1  0  0  0
 80154  1  0  0  0
 80155  1  0  0  0
 81156  1  0  0  0
 81157  1  0  0  0
 82158  1  0  0  0
 83159  1  0  0  0
M  CHG  1  83   1
M  ISO  4   1 100  68 101  81 101  82 100
M  END
> <chiral flag>
0

> <version>
0

> <s_m_source_file>
/data/baiqing/PycharmProjects/Reinvent-master-3.2/result/LINK_invent/BTK/process_docking_weight1_custom_product_contain_oxygen_bond_distance_aromatic_linkinvent_7_9_3/rearranged_h_0008.sdf

> <i_m_source_file_index>
87

> <r_mmod_Potential_Energy-OPLS-2005>
-88.0627517700195

> <r_mmod_Stretch_Energy-OPLS-2005>
79.9924011230469

> <r_mmod_Bend_Energy-OPLS-2005>
140.951248168945

> <r_mmod_Torsional_Energy-OPLS-2005>
210.704666137695

> <r_mmod_Improper_Torsional_Energy-OPLS-2005>
5.49623155593872

> <r_mmod_Van_der_Waal_Energy-OPLS-2005>
150.05744934082

> <r_mmod_Electrostatic_Energy-OPLS-2005>
-264.907440185547

> <r_mmod_Solvation_Energy-OPLS-2005>
-455.397705078125

> <b_mmod_Minimization_Converged-OPLS-2005>
0

> <r_mmod_RMS_Derivative-OPLS-2005>
0.940000236034393

$$$$
88
                    3D
 Structure written by MMmdl.
154163  0  0  1  0            999 V2000
  -30.4801  -15.1918   20.4445 C   0  0  0  0  0  0
  -30.4378  -12.7640   19.5321 C   0  0  0  0  0  0
  -29.5374  -12.5707   18.2849 C   0  0  0  0  0  0
  -28.0793  -12.3027   18.6967 C   0  0  0  0  0  0
  -27.6156  -13.2612   19.8197 C   0  0  2  0  0  0
  -28.6432  -13.3703   20.9608 C   0  0  0  0  0  0
  -25.2423  -13.8220   20.5706 C   0  0  0  0  0  0
  -24.1754  -13.0432   20.9223 C   0  0  0  0  0  0
  -24.6386  -11.6922   20.8731 C   0  0  0  0  0  0
  -23.9079  -10.4292   21.0397 C   0  0  0  0  0  0
  -24.3626   -9.4210   21.9182 C   0  0  0  0  0  0
  -23.6296   -8.2247   22.0756 C   0  0  0  0  0  0
  -22.4278   -8.0282   21.3547 C   0  0  0  0  0  0
  -21.9915   -9.0252   20.4643 C   0  0  0  0  0  0
  -22.7246  -10.2128   20.3048 C   0  0  0  0  0  0
  -21.6853   -6.0731   22.5277 C   0  0  0  0  0  0
  -21.4011   -6.5636   23.8210 C   0  0  0  0  0  0
  -21.3658   -5.6788   24.9172 C   0  0  0  0  0  0
  -21.6045   -4.3052   24.7225 C   0  0  0  0  0  0
  -21.8820   -3.8143   23.4347 C   0  0  0  0  0  0
  -21.9193   -4.6957   22.3401 C   0  0  0  0  0  0
  -22.7778  -13.5198   21.1889 C   0  0  0  0  0  0
  -22.1661   -4.2142   21.0980 F   0  0  0  0  0  0
  -21.5632   -3.4537   25.7739 F   0  0  0  0  0  0
  -29.8901  -13.8959   20.3706 N   0  0  0  0  0  0
  -26.2812  -12.9458   20.3126 N   0  0  0  0  0  0
  -25.9308  -11.6581   20.5653 N   0  0  0  0  0  0
  -22.0434  -12.8177   22.0438 N   0  0  0  0  0  0
  -25.4122  -15.1954   20.4203 N   0  0  0  0  0  0
  -31.6718  -15.1907   20.0993 O   0  0  0  0  0  0
  -21.6643   -6.8876   21.4241 O   0  0  0  0  0  0
  -22.3461  -14.5507   20.6743 O   0  0  0  0  0  0
  -24.6597  -31.8292   23.1748 C   0  0  0  0  0  0
  -25.9302  -32.4620   23.8189 C   0  0  1  0  0  0
  -27.2119  -26.9725   20.1749 C   0  0  0  0  0  0
  -25.5994  -33.8429   24.2107 N   0  0  0  0  0  0
  -23.4708  -30.4433   21.5243 C   0  0  2  0  0  0
  -24.9222  -28.8434   20.1102 C   0  0  0  0  0  0
  -22.7648  -29.4472   22.4809 C   0  0  0  0  0  0
  -18.0323  -28.1406   22.8481 C   0  0  0  0  0  0
  -24.1484  -36.7204   23.2644 C   0  0  0  0  0  0
  -26.0377  -30.6509   21.3969 C   0  0  0  0  0  0
  -26.1060  -29.2455   20.7412 C   0  0  0  0  0  0
  -27.2477  -28.3304   20.7518 C   0  0  0  0  0  0
  -26.0007  -26.7191   19.4906 C   0  0  0  0  0  0
  -24.8923  -27.5986   19.4655 C   0  0  0  0  0  0
  -23.7060  -29.7640   20.1482 C   0  0  0  0  0  0
  -25.4123  -36.2980   24.0308 C   0  0  1  0  0  0
  -20.5949  -28.3740   23.1205 C   0  0  2  0  0  0
  -20.6798  -26.9429   22.5401 C   0  0  0  0  0  0
  -19.5768  -26.6388   21.5212 C   0  0  0  0  0  0
  -18.1951  -26.7947   22.1624 C   0  0  0  0  0  0
  -19.1584  -28.8892   23.2833 C   0  0  0  0  0  0
  -18.9495  -30.1486   23.8861 C   0  0  0  0  0  0
  -17.6488  -30.6597   24.0556 C   0  0  0  0  0  0
  -25.9097  -34.9367   23.5023 C   0  0  0  0  0  0
  -16.5379  -29.9086   23.6351 C   0  0  0  0  0  0
  -16.7306  -28.6504   23.0374 C   0  0  0  0  0  0
  -26.4570  -31.6544   25.0690 C   0  0  0  0  0  0
  -25.3714  -31.3785   26.1360 C   0  0  0  0  0  0
  -27.0451  -30.2919   24.6374 C   0  0  0  0  0  0
  -27.6073  -32.4336   25.7490 C   0  0  0  0  0  0
  -27.5561  -37.1756   24.8473 C   0  0  0  0  0  0
  -21.4322  -29.3042   22.3557 N   0  0  0  0  0  0
  -26.4267  -37.3715   23.9423 N   0  0  0  0  0  0
  -24.7440  -30.9997   22.0862 N   0  0  0  0  0  0
  -23.4218  -28.8040   23.3033 O   0  0  0  0  0  0
  -28.1985  -25.8673   20.2642 O   0  0  0  0  0  0
  -26.5681  -34.8901   22.4603 O   0  0  0  0  0  0
  -23.5680  -32.1234   23.6876 O   0  0  0  0  0  0
  -28.3103  -20.1969   20.9731 C   0  0  0  0  0  0
  -27.8797  -21.6193   20.9180 C   0  0  0  0  0  0
  -29.7162  -22.1682   19.6499 C   0  0  0  0  0  0
  -29.4939  -19.6218   20.3571 C   0  0  0  0  0  0
  -28.5392  -22.7510   20.2665 C   0  0  0  0  0  0
  -30.1576  -20.7509   19.7028 C   0  0  0  0  0  0
  -29.9568  -17.5866   22.8441 C   0  0  0  0  0  0
  -30.9591  -18.1871   21.8628 C   0  0  0  0  0  0
  -29.1555  -16.5548   22.0311 C   0  0  0  0  0  0
  -30.2374  -18.0546   20.5233 C   0  0  1  0  0  0
  -27.8083  -24.3083   20.0289 C   0  0  0  0  0  0
  -29.7770  -16.4777   20.7012 N   0  0  0  0  0  0
  -31.3272  -20.4749   19.0790 F   0  0  0  0  0  0
  -31.4615  -12.9525   19.2069 H   0  0  0  0  0  0
  -30.4923  -11.8419   20.1131 H   0  0  0  0  0  0
  -29.9113  -11.7495   17.6709 H   0  0  0  0  0  0
  -29.5836  -13.4652   17.6618 H   0  0  0  0  0  0
  -28.0207  -11.2717   19.0484 H   0  0  0  0  0  0
  -27.4175  -12.3694   17.8323 H   0  0  0  0  0  0
  -27.5508  -14.2439   19.3508 H   0  0  0  0  0  0
  -28.7985  -12.4042   21.4435 H   0  0  0  0  0  0
  -28.2384  -14.0183   21.7305 H   0  0  0  0  0  0
  -25.2769   -9.5684   22.4756 H   0  0  0  0  0  0
  -23.9996   -7.4638   22.7484 H   0  0  0  0  0  0
  -21.0843   -8.8769   19.8951 H   0  0  0  0  0  0
  -22.3706  -10.9662   19.6152 H   0  0  0  0  0  0
  -21.1999   -7.6143   23.9707 H   0  0  0  0  0  0
  -21.1479   -6.0522   25.9074 H   0  0  0  0  0  0
  -22.0601   -2.7603   23.2849 H   0  0  0  0  0  0
  -22.4051  -11.9823   22.4797 H   0  0  0  0  0  0
  -21.1044  -13.1185   22.2641 H   0  0  0  0  0  0
  -24.6537  -15.8539   20.5587 H   0  0  0  0  0  0
  -26.2661  -15.6370   20.1039 H   0  0  0  0  0  0
  -26.7365  -32.5169   23.0901 H   0  0  0  0  0  0
  -25.0141  -33.9517   25.0260 H   0  0  0  0  0  0
  -22.7824  -31.2743   21.3584 H   0  0  0  0  0  0
  -23.3765  -35.9515   23.3283 H   0  0  0  0  0  0
  -24.3568  -36.8864   22.2063 H   0  0  0  0  0  0
  -23.7220  -37.6382   23.6703 H   0  0  0  0  0  0
  -26.2099  -31.3948   20.6179 H   0  0  0  0  0  0
  -26.9021  -30.7079   22.0464 H   0  0  0  0  0  0
  -28.1422  -28.6346   21.2762 H   0  0  0  0  0  0
  -25.8622  -25.7724   18.9910 H   0  0  0  0  0  0
  -23.9929  -27.2852   18.9536 H   0  0  0  0  0  0
  -23.8554  -30.5338   19.3906 H   0  0  0  0  0  0
  -22.8166  -29.2152   19.8336 H   0  0  0  0  0  0
  -25.1317  -36.1771   25.0797 H   0  0  0  0  0  0
  -21.0038  -28.3332   24.1328 H   0  0  0  0  0  0
  -20.5672  -26.2359   23.3634 H   0  0  0  0  0  0
  -21.6663  -26.7412   22.1203 H   0  0  0  0  0  0
  -19.6923  -25.6291   21.1259 H   0  0  0  0  0  0
  -19.6701  -27.3183   20.6730 H   0  0  0  0  0  0
  -17.4223  -26.6711   21.4023 H   0  0  0  0  0  0
  -18.0334  -26.0088   22.9015 H   0  0  0  0  0  0
  -19.7967  -30.7318   24.2207 H   0  0  0  0  0  0
  -17.5039  -31.6272   24.5165 H   0  0  0  0  0  0
  -15.5375  -30.2970   23.7698 H   0  0  0  0  0  0
  -15.8712  -28.0802   22.7117 H   0  0  0  0  0  0
  -24.5923  -30.7097   25.7692 H   0  0  0  0  0  0
  -24.8866  -32.2979   26.4650 H   0  0  0  0  0  0
  -25.7967  -30.9062   27.0223 H   0  0  0  0  0  0
  -26.3103  -29.6623   24.1341 H   0  0  0  0  0  0
  -27.3979  -29.7251   25.5000 H   0  0  0  0  0  0
  -27.9051  -30.4134   23.9784 H   0  0  0  0  0  0
  -27.2663  -33.3697   26.1927 H   0  0  0  0  0  0
  -28.3960  -32.6793   25.0366 H   0  0  0  0  0  0
  -28.0651  -31.8541   26.5519 H   0  0  0  0  0  0
  -28.2571  -38.0060   24.7522 H   0  0  0  0  0  0
  -28.1062  -36.2589   24.6289 H   0  0  0  0  0  0
  -27.2285  -37.1391   25.8878 H   0  0  0  0  0  0
  -20.9562  -29.8729   21.6690 H   0  0  0  0  0  0
  -26.0113  -38.2771   24.1445 H   0  0  0  0  0  0
  -27.6893  -19.5230   21.5460 H   0  0  0  0  0  0
  -26.9421  -21.8426   21.4078 H   0  0  0  0  0  0
  -30.3315  -22.8383   19.0670 H   0  0  0  0  0  0
  -29.2891  -18.3528   23.2404 H   0  0  0  0  0  0
  -30.4672  -17.1323   23.6950 H   0  0  0  0  0  0
  -31.8688  -17.5840   21.8577 H   0  0  0  0  0  0
  -31.2560  -19.2062   22.1159 H   0  0  0  0  0  0
  -28.1105  -16.8510   21.9290 H   0  0  0  0  0  0
  -29.1815  -15.6235   22.5931 H   0  0  0  0  0  0
  -30.9880  -18.0347   19.7321 H   0  0  0  0  0  0
  -26.8572  -24.2062   20.5517 H   0  0  0  0  0  0
  -27.5395  -24.2724   18.9729 H   0  0  0  0  0  0
  1 25  1  0  0  0
  1 30  2  0  0  0
  1 82  1  0  0  0
  2  3  1  0  0  0
  2 25  1  0  0  0
  2 84  1  0  0  0
  2 85  1  0  0  0
  3  4  1  0  0  0
  3 86  1  0  0  0
  3 87  1  0  0  0
  4  5  1  0  0  0
  4 88  1  0  0  0
  4 89  1  0  0  0
  5  6  1  0  0  0
  5 26  1  0  0  0
  5 90  1  0  0  0
  6 25  1  0  0  0
  6 91  1  0  0  0
  6 92  1  0  0  0
  7  8  2  0  0  0
  7 26  1  0  0  0
  7 29  1  0  0  0
  8  9  1  0  0  0
  8 22  1  0  0  0
  9 10  1  0  0  0
  9 27  2  0  0  0
 10 11  2  0  0  0
 10 15  1  0  0  0
 11 12  1  0  0  0
 11 93  1  0  0  0
 12 13  2  0  0  0
 12 94  1  0  0  0
 13 14  1  0  0  0
 13 31  1  0  0  0
 14 15  2  0  0  0
 14 95  1  0  0  0
 15 96  1  0  0  0
 16 17  2  0  0  0
 16 21  1  0  0  0
 16 31  1  0  0  0
 17 18  1  0  0  0
 17 97  1  0  0  0
 18 19  2  0  0  0
 18 98  1  0  0  0
 19 20  1  0  0  0
 19 24  1  0  0  0
 20 21  2  0  0  0
 20 99  1  0  0  0
 21 23  1  0  0  0
 22 28  1  0  0  0
 22 32  2  0  0  0
 26 27  1  0  0  0
 28100  1  0  0  0
 28101  1  0  0  0
 29102  1  0  0  0
 29103  1  0  0  0
 33 34  1  0  0  0
 33 66  1  0  0  0
 33 70  2  0  0  0
 34 36  1  0  0  0
 34 59  1  0  0  0
 34104  1  0  0  0
 35 44  2  0  0  0
 35 45  1  0  0  0
 35 68  1  0  0  0
 36 56  1  0  0  0
 36105  1  0  0  0
 37 39  1  0  0  0
 37 47  1  0  0  0
 37 66  1  0  0  0
 37106  1  0  0  0
 38 43  2  0  0  0
 38 46  1  0  0  0
 38 47  1  0  0  0
 39 64  1  0  0  0
 39 67  2  0  0  0
 40 52  1  0  0  0
 40 53  2  0  0  0
 40 58  1  0  0  0
 41107  1  0  0  0
 41108  1  0  0  0
 41109  1  0  0  0
 41 48  1  0  0  0
 42 43  1  0  0  0
 42 66  1  0  0  0
 42110  1  0  0  0
 42111  1  0  0  0
 43 44  1  0  0  0
 44112  1  0  0  0
 45 46  2  0  0  0
 45113  1  0  0  0
 46114  1  0  0  0
 47115  1  0  0  0
 47116  1  0  0  0
 48 56  1  0  0  0
 48 65  1  0  0  0
 48117  1  0  0  0
 49 50  1  0  0  0
 49 53  1  0  0  0
 49 64  1  0  0  0
 49118  1  0  0  0
 50 51  1  0  0  0
 50119  1  0  0  0
 50120  1  0  0  0
 51 52  1  0  0  0
 51121  1  0  0  0
 51122  1  0  0  0
 52123  1  0  0  0
 52124  1  0  0  0
 53 54  1  0  0  0
 54 55  2  0  0  0
 54125  1  0  0  0
 55 57  1  0  0  0
 55126  1  0  0  0
 56 69  2  0  0  0
 57 58  2  0  0  0
 57127  1  0  0  0
 58128  1  0  0  0
 59 60  1  0  0  0
 59 61  1  0  0  0
 59 62  1  0  0  0
 60129  1  0  0  0
 60130  1  0  0  0
 60131  1  0  0  0
 61132  1  0  0  0
 61133  1  0  0  0
 61134  1  0  0  0
 62135  1  0  0  0
 62136  1  0  0  0
 62137  1  0  0  0
 63 65  1  0  0  0
 63138  1  0  0  0
 63139  1  0  0  0
 63140  1  0  0  0
 64141  1  0  0  0
 65142  1  0  0  0
 68 81  1  0  0  0
 71 72  2  0  0  0
 71 74  1  0  0  0
 71143  1  0  0  0
 72 75  1  0  0  0
 72144  1  0  0  0
 73 75  2  0  0  0
 73 76  1  0  0  0
 73145  1  0  0  0
 74 76  2  0  0  0
 74 80  1  0  0  0
 75 81  1  0  0  0
 76 83  1  0  0  0
 77 78  1  0  0  0
 77 79  1  0  0  0
 77146  1  0  0  0
 77147  1  0  0  0
 78 80  1  0  0  0
 78148  1  0  0  0
 78149  1  0  0  0
 79 82  1  0  0  0
 79150  1  0  0  0
 79151  1  0  0  0
 80 82  1  0  0  0
 80152  1  0  0  0
 81153  1  0  0  0
 81154  1  0  0  0
M  ISO  4   1 100  68 101  81 101  82 100
M  END
> <chiral flag>
0

> <version>
0

> <s_m_source_file>
/data/baiqing/PycharmProjects/Reinvent-master-3.2/result/LINK_invent/BTK/process_docking_weight1_custom_product_contain_oxygen_bond_distance_aromatic_linkinvent_7_9_3/rearranged_h_0008.sdf

> <i_m_source_file_index>
88

> <r_mmod_Potential_Energy-OPLS-2005>
1343.974609375

> <r_mmod_Stretch_Energy-OPLS-2005>
467.503997802734

> <r_mmod_Bend_Energy-OPLS-2005>
479.528442382812

> <r_mmod_Torsional_Energy-OPLS-2005>
328.598327636719

> <r_mmod_Improper_Torsional_Energy-OPLS-2005>
12.6539154052734

> <r_mmod_Van_der_Waal_Energy-OPLS-2005>
134.191528320312

> <r_mmod_Electrostatic_Energy-OPLS-2005>
-267.380432128906

> <r_mmod_Solvation_Energy-OPLS-2005>
-195.141052246094

> <b_mmod_Minimization_Converged-OPLS-2005>
0

> <r_mmod_RMS_Derivative-OPLS-2005>
1.0180801153183

$$$$
89
                    3D
 Structure written by MMmdl.
144152  0  0  1  0            999 V2000
  -29.9388  -16.5725   20.2864 C   0  0  0  0  0  0
  -30.3203  -13.8011   19.5313 C   0  0  0  0  0  0
  -29.5754  -12.9524   18.4181 C   0  0  0  0  0  0
  -28.2391  -12.3856   18.9021 C   0  0  0  0  0  0
  -27.5769  -13.4247   19.8190 C   0  0  2  0  0  0
  -28.5198  -14.1161   20.8718 C   0  0  0  0  0  0
  -25.2193  -13.8468   20.5952 C   0  0  0  0  0  0
  -24.1692  -13.0465   20.9357 C   0  0  0  0  0  0
  -24.6548  -11.7025   20.8745 C   0  0  0  0  0  0
  -23.9255  -10.4324   21.0332 C   0  0  0  0  0  0
  -24.3731   -9.4229   21.9142 C   0  0  0  0  0  0
  -23.6353   -8.2291   22.0736 C   0  0  0  0  0  0
  -22.4334   -8.0326   21.3535 C   0  0  0  0  0  0
  -22.0006   -9.0310   20.4628 C   0  0  0  0  0  0
  -22.7387  -10.2164   20.3011 C   0  0  0  0  0  0
  -21.6880   -6.0760   22.5274 C   0  0  0  0  0  0
  -21.4024   -6.5649   23.8210 C   0  0  0  0  0  0
  -21.3663   -5.6794   24.9165 C   0  0  0  0  0  0
  -21.6045   -4.3053   24.7212 C   0  0  0  0  0  0
  -21.8825   -3.8156   23.4329 C   0  0  0  0  0  0
  -21.9204   -4.6982   22.3389 C   0  0  0  0  0  0
  -22.7668  -13.5108   21.1940 C   0  0  0  0  0  0
  -22.1662   -4.2169   21.0964 F   0  0  0  0  0  0
  -21.5633   -3.4531   25.7718 F   0  0  0  0  0  0
  -29.5234  -15.0404   20.1719 N   0  0  0  0  0  0
  -26.2813  -13.0041   20.3450 N   0  0  0  0  0  0
  -25.9561  -11.6974   20.5674 N   0  0  0  0  0  0
  -22.0354  -12.8072   22.0477 N   0  0  0  0  0  0
  -25.3572  -15.2223   20.4363 N   0  0  0  0  0  0
  -31.1881  -16.3493   20.1850 O   0  0  0  0  0  0
  -21.6672   -6.8930   21.4244 O   0  0  0  0  0  0
  -22.3320  -14.5394   20.6762 O   0  0  0  0  0  0
  -24.7453  -31.7207   23.0963 C   0  0  0  0  0  0
  -25.9708  -32.4078   23.7770 C   0  0  1  0  0  0
  -27.2659  -26.0521   20.2735 C   0  0  0  0  0  0
  -25.6020  -33.7946   24.1597 N   0  0  0  0  0  0
  -23.6019  -30.2892   21.4655 C   0  0  2  0  0  0
  -25.0679  -28.4906   20.1390 C   0  0  0  0  0  0
  -22.8044  -29.3886   22.4536 C   0  0  0  0  0  0
  -18.0377  -28.1449   22.8434 C   0  0  0  0  0  0
  -24.1496  -36.6976   23.2667 C   0  0  0  0  0  0
  -26.2016  -30.2362   21.4631 C   0  0  0  0  0  0
  -26.2626  -28.7278   20.8250 C   0  0  0  0  0  0
  -27.3093  -27.5599   20.8441 C   0  0  0  0  0  0
  -26.0341  -26.1896   19.5186 C   0  0  0  0  0  0
  -25.0311  -27.2512   19.4602 C   0  0  0  0  0  0
  -23.8934  -29.5226   20.1313 C   0  0  0  0  0  0
  -25.4171  -36.2665   24.0241 C   0  0  1  0  0  0
  -20.6043  -28.3831   23.1036 C   0  0  2  0  0  0
  -20.6811  -26.9436   22.5416 C   0  0  0  0  0  0
  -19.5792  -26.6347   21.5228 C   0  0  0  0  0  0
  -18.1977  -26.7963   22.1619 C   0  0  0  0  0  0
  -19.1662  -28.8978   23.2688 C   0  0  0  0  0  0
  -18.9560  -30.1545   23.8759 C   0  0  0  0  0  0
  -17.6545  -30.6618   24.0534 C   0  0  0  0  0  0
  -25.9191  -34.9075   23.4801 C   0  0  0  0  0  0
  -16.5427  -29.9097   23.6357 C   0  0  0  0  0  0
  -16.7352  -28.6514   23.0384 C   0  0  0  0  0  0
  -26.4699  -31.6387   25.0653 C   0  0  0  0  0  0
  -25.3616  -31.3881   26.1162 C   0  0  0  0  0  0
  -27.0756  -30.2670   24.7012 C   0  0  0  0  0  0
  -27.6022  -32.4414   25.7498 C   0  0  0  0  0  0
  -27.5547  -37.1639   24.8474 C   0  0  0  0  0  0
  -21.4637  -29.2948   22.3282 N   0  0  0  0  0  0
  -26.4235  -37.3507   23.9425 N   0  0  0  0  0  0
  -24.8810  -30.7992   22.0593 N   0  0  0  0  0  0
  -23.4175  -28.7625   23.3199 O   0  0  0  0  0  0
  -28.1641  -24.5528   20.3523 O   0  0  0  0  0  0
  -26.5913  -34.8779   22.4480 O   0  0  0  0  0  0
  -23.6333  -32.0597   23.5475 O   0  0  0  0  0  0
  -27.9750  -19.1170   22.2558 C   0  0  0  0  0  0
  -29.0203  -20.2147   21.9811 C   0  0  0  0  0  0
  -27.9552  -18.0754   21.1103 C   0  0  0  0  0  0
  -29.1514  -20.3009   20.4666 C   0  0  1  0  0  0
  -28.2337  -22.4550   20.1613 C   0  0  0  0  0  0
  -29.1889  -18.2015   20.3412 N   0  0  0  0  0  0
  -31.2132  -14.1969   19.0465 H   0  0  0  0  0  0
  -30.7244  -13.1456   20.3052 H   0  0  0  0  0  0
  -30.2177  -12.1473   18.0577 H   0  0  0  0  0  0
  -29.3919  -13.5993   17.5595 H   0  0  0  0  0  0
  -28.4276  -11.4718   19.4667 H   0  0  0  0  0  0
  -27.5968  -12.1156   18.0628 H   0  0  0  0  0  0
  -27.3282  -14.2233   19.1177 H   0  0  0  0  0  0
  -28.9792  -13.3860   21.5404 H   0  0  0  0  0  0
  -27.9197  -14.7422   21.5318 H   0  0  0  0  0  0
  -25.2862   -9.5708   22.4737 H   0  0  0  0  0  0
  -24.0054   -7.4698   22.7480 H   0  0  0  0  0  0
  -21.0931   -8.8846   19.8940 H   0  0  0  0  0  0
  -22.3833  -10.9698   19.6123 H   0  0  0  0  0  0
  -21.1993   -7.6151   23.9718 H   0  0  0  0  0  0
  -21.1485   -6.0510   25.9070 H   0  0  0  0  0  0
  -22.0595   -2.7620   23.2820 H   0  0  0  0  0  0
  -22.4025  -11.9793   22.4925 H   0  0  0  0  0  0
  -21.0934  -13.1024   22.2622 H   0  0  0  0  0  0
  -24.5677  -15.8511   20.5353 H   0  0  0  0  0  0
  -26.1869  -15.6737   20.0744 H   0  0  0  0  0  0
  -26.7871  -32.4433   23.0540 H   0  0  0  0  0  0
  -25.0023  -33.8891   24.9654 H   0  0  0  0  0  0
  -22.9628  -31.1393   21.2161 H   0  0  0  0  0  0
  -23.3805  -35.9253   23.3204 H   0  0  0  0  0  0
  -24.3540  -36.8792   22.2105 H   0  0  0  0  0  0
  -23.7209  -37.6079   23.6872 H   0  0  0  0  0  0
  -26.4697  -30.9162   20.6525 H   0  0  0  0  0  0
  -27.0307  -30.3279   22.1508 H   0  0  0  0  0  0
  -28.1907  -27.7757   21.4303 H   0  0  0  0  0  0
  -25.7655  -25.3052   18.9598 H   0  0  0  0  0  0
  -24.1517  -27.0449   18.8662 H   0  0  0  0  0  0
  -24.1235  -30.2562   19.3570 H   0  0  0  0  0  0
  -22.9890  -29.0185   19.7871 H   0  0  0  0  0  0
  -25.1402  -36.1333   25.0726 H   0  0  0  0  0  0
  -21.0085  -28.3498   24.1177 H   0  0  0  0  0  0
  -20.5631  -26.2472   23.3729 H   0  0  0  0  0  0
  -21.6664  -26.7283   22.1263 H   0  0  0  0  0  0
  -19.6939  -25.6223   21.1341 H   0  0  0  0  0  0
  -19.6754  -27.3087   20.6704 H   0  0  0  0  0  0
  -17.4251  -26.6702   21.4018 H   0  0  0  0  0  0
  -18.0337  -26.0139   22.9044 H   0  0  0  0  0  0
  -19.8039  -30.7386   24.2074 H   0  0  0  0  0  0
  -17.5100  -31.6287   24.5168 H   0  0  0  0  0  0
  -15.5423  -30.2970   23.7748 H   0  0  0  0  0  0
  -15.8748  -28.0782   22.7192 H   0  0  0  0  0  0
  -24.5822  -30.7223   25.7439 H   0  0  0  0  0  0
  -24.8807  -32.3167   26.4250 H   0  0  0  0  0  0
  -25.7656  -30.9242   27.0172 H   0  0  0  0  0  0
  -26.3598  -29.6054   24.2141 H   0  0  0  0  0  0
  -27.4075  -29.7393   25.5971 H   0  0  0  0  0  0
  -27.9596  -30.3677   24.0718 H   0  0  0  0  0  0
  -27.2462  -33.3843   26.1664 H   0  0  0  0  0  0
  -28.4022  -32.6780   25.0470 H   0  0  0  0  0  0
  -28.0486  -31.8847   26.5752 H   0  0  0  0  0  0
  -28.2476  -38.0015   24.7543 H   0  0  0  0  0  0
  -28.1119  -36.2527   24.6258 H   0  0  0  0  0  0
  -27.2256  -37.1196   25.8870 H   0  0  0  0  0  0
  -21.0088  -29.8491   21.6163 H   0  0  0  0  0  0
  -25.9997  -38.2513   24.1483 H   0  0  0  0  0  0
  -26.9827  -19.5603   22.3506 H   0  0  0  0  0  0
  -28.1837  -18.6367   23.2138 H   0  0  0  0  0  0
  -29.9789  -19.9162   22.4113 H   0  0  0  0  0  0
  -28.7496  -21.1658   22.4389 H   0  0  0  0  0  0
  -27.1200  -18.2725   20.4378 H   0  0  0  0  0  0
  -27.7946  -17.0775   21.5198 H   0  0  0  0  0  0
  -30.1912  -20.5071   20.2089 H   0  0  0  0  0  0
  -28.1644  -22.4373   19.0740 H   0  0  0  0  0  0
  -27.2118  -22.2583   20.4864 H   0  0  0  0  0  0
  1 25  1  0  0  0
  1 30  2  0  0  0
  1 76  1  0  0  0
  2  3  1  0  0  0
  2 25  1  0  0  0
  2 77  1  0  0  0
  2 78  1  0  0  0
  3  4  1  0  0  0
  3 79  1  0  0  0
  3 80  1  0  0  0
  4  5  1  0  0  0
  4 81  1  0  0  0
  4 82  1  0  0  0
  5  6  1  0  0  0
  5 26  1  0  0  0
  5 83  1  0  0  0
  6 25  1  0  0  0
  6 84  1  0  0  0
  6 85  1  0  0  0
  7  8  2  0  0  0
  7 26  1  0  0  0
  7 29  1  0  0  0
  8  9  1  0  0  0
  8 22  1  0  0  0
  9 10  1  0  0  0
  9 27  2  0  0  0
 10 11  2  0  0  0
 10 15  1  0  0  0
 11 12  1  0  0  0
 11 86  1  0  0  0
 12 13  2  0  0  0
 12 87  1  0  0  0
 13 14  1  0  0  0
 13 31  1  0  0  0
 14 15  2  0  0  0
 14 88  1  0  0  0
 15 89  1  0  0  0
 16 17  2  0  0  0
 16 21  1  0  0  0
 16 31  1  0  0  0
 17 18  1  0  0  0
 17 90  1  0  0  0
 18 19  2  0  0  0
 18 91  1  0  0  0
 19 20  1  0  0  0
 19 24  1  0  0  0
 20 21  2  0  0  0
 20 92  1  0  0  0
 21 23  1  0  0  0
 22 28  1  0  0  0
 22 32  2  0  0  0
 26 27  1  0  0  0
 28 93  1  0  0  0
 28 94  1  0  0  0
 29 95  1  0  0  0
 29 96  1  0  0  0
 33 34  1  0  0  0
 33 66  1  0  0  0
 33 70  2  0  0  0
 34 36  1  0  0  0
 34 59  1  0  0  0
 34 97  1  0  0  0
 35 44  2  0  0  0
 35 45  1  0  0  0
 35 68  1  0  0  0
 36 56  1  0  0  0
 36 98  1  0  0  0
 37 39  1  0  0  0
 37 47  1  0  0  0
 37 66  1  0  0  0
 37 99  1  0  0  0
 38 43  2  0  0  0
 38 46  1  0  0  0
 38 47  1  0  0  0
 39 64  1  0  0  0
 39 67  2  0  0  0
 40 52  1  0  0  0
 40 53  2  0  0  0
 40 58  1  0  0  0
 41100  1  0  0  0
 41101  1  0  0  0
 41102  1  0  0  0
 41 48  1  0  0  0
 42 43  1  0  0  0
 42 66  1  0  0  0
 42103  1  0  0  0
 42104  1  0  0  0
 43 44  1  0  0  0
 44105  1  0  0  0
 45 46  2  0  0  0
 45106  1  0  0  0
 46107  1  0  0  0
 47108  1  0  0  0
 47109  1  0  0  0
 48 56  1  0  0  0
 48 65  1  0  0  0
 48110  1  0  0  0
 49 50  1  0  0  0
 49 53  1  0  0  0
 49 64  1  0  0  0
 49111  1  0  0  0
 50 51  1  0  0  0
 50112  1  0  0  0
 50113  1  0  0  0
 51 52  1  0  0  0
 51114  1  0  0  0
 51115  1  0  0  0
 52116  1  0  0  0
 52117  1  0  0  0
 53 54  1  0  0  0
 54 55  2  0  0  0
 54118  1  0  0  0
 55 57  1  0  0  0
 55119  1  0  0  0
 56 69  2  0  0  0
 57 58  2  0  0  0
 57120  1  0  0  0
 58121  1  0  0  0
 59 60  1  0  0  0
 59 61  1  0  0  0
 59 62  1  0  0  0
 60122  1  0  0  0
 60123  1  0  0  0
 60124  1  0  0  0
 61125  1  0  0  0
 61126  1  0  0  0
 61127  1  0  0  0
 62128  1  0  0  0
 62129  1  0  0  0
 62130  1  0  0  0
 63 65  1  0  0  0
 63131  1  0  0  0
 63132  1  0  0  0
 63133  1  0  0  0
 64134  1  0  0  0
 65135  1  0  0  0
 68 75  1  0  0  0
 71 72  1  0  0  0
 71 73  1  0  0  0
 71136  1  0  0  0
 71137  1  0  0  0
 72 74  1  0  0  0
 72138  1  0  0  0
 72139  1  0  0  0
 73 76  1  0  0  0
 73140  1  0  0  0
 73141  1  0  0  0
 74 75  1  0  0  0
 74 76  1  0  0  0
 74142  1  0  0  0
 75143  1  0  0  0
 75144  1  0  0  0
M  ISO  4   1 100  68 101  75 101  76 100
M  END
> <chiral flag>
0

> <version>
0

> <s_m_source_file>
/data/baiqing/PycharmProjects/Reinvent-master-3.2/result/LINK_invent/BTK/process_docking_weight1_custom_product_contain_oxygen_bond_distance_aromatic_linkinvent_7_9_3/rearranged_h_0008.sdf

> <i_m_source_file_index>
89

> <r_mmod_Potential_Energy-OPLS-2005>
7163.478515625

> <r_mmod_Stretch_Energy-OPLS-2005>
3169.35180664062

> <r_mmod_Bend_Energy-OPLS-2005>
1174.35144042969

> <r_mmod_Torsional_Energy-OPLS-2005>
340.479705810547

> <r_mmod_Improper_Torsional_Energy-OPLS-2005>
7.77942085266113

> <r_mmod_Van_der_Waal_Energy-OPLS-2005>
115.657035827637

> <r_mmod_Electrostatic_Energy-OPLS-2005>
-265.186370849609

> <r_mmod_Solvation_Energy-OPLS-2005>
-222.041580200195

> <b_mmod_Minimization_Converged-OPLS-2005>
0

> <r_mmod_RMS_Derivative-OPLS-2005>
2.0046055316925

$$$$
90
                    3D
 Structure written by MMmdl.
137144  0  0  1  0            999 V2000
  -29.9053  -16.6602   20.2605 C   0  0  0  0  0  0
  -30.3043  -13.8664   19.5292 C   0  0  0  0  0  0
  -29.5754  -12.9836   18.4276 C   0  0  0  0  0  0
  -28.2516  -12.3989   18.9215 C   0  0  0  0  0  0
  -27.5748  -13.4410   19.8213 C   0  0  2  0  0  0
  -28.5047  -14.1790   20.8607 C   0  0  0  0  0  0
  -25.2156  -13.8501   20.5957 C   0  0  0  0  0  0
  -24.1676  -13.0470   20.9346 C   0  0  0  0  0  0
  -24.6564  -11.7043   20.8740 C   0  0  0  0  0  0
  -23.9277  -10.4325   21.0334 C   0  0  0  0  0  0
  -24.3752   -9.4231   21.9145 C   0  0  0  0  0  0
  -23.6372   -8.2289   22.0746 C   0  0  0  0  0  0
  -22.4347   -8.0329   21.3544 C   0  0  0  0  0  0
  -22.0026   -9.0311   20.4633 C   0  0  0  0  0  0
  -22.7413  -10.2162   20.3014 C   0  0  0  0  0  0
  -21.6881   -6.0768   22.5277 C   0  0  0  0  0  0
  -21.4035   -6.5659   23.8214 C   0  0  0  0  0  0
  -21.3666   -5.6803   24.9170 C   0  0  0  0  0  0
  -21.6043   -4.3066   24.7216 C   0  0  0  0  0  0
  -21.8816   -3.8165   23.4334 C   0  0  0  0  0  0
  -21.9201   -4.6990   22.3395 C   0  0  0  0  0  0
  -22.7646  -13.5082   21.1939 C   0  0  0  0  0  0
  -22.1664   -4.2173   21.0972 F   0  0  0  0  0  0
  -21.5623   -3.4544   25.7725 F   0  0  0  0  0  0
  -29.4956  -15.1155   20.1510 N   0  0  0  0  0  0
  -26.2817  -13.0123   20.3495 N   0  0  0  0  0  0
  -25.9579  -11.7033   20.5671 N   0  0  0  0  0  0
  -22.0350  -12.8027   22.0491 N   0  0  0  0  0  0
  -25.3496  -15.2265   20.4369 N   0  0  0  0  0  0
  -31.1552  -16.4251   20.2084 O   0  0  0  0  0  0
  -21.6681   -6.8935   21.4249 O   0  0  0  0  0  0
  -22.3274  -14.5363   20.6773 O   0  0  0  0  0  0
  -24.7511  -31.7125   23.0927 C   0  0  0  0  0  0
  -25.9738  -32.4049   23.7740 C   0  0  1  0  0  0
  -27.2687  -25.9913   20.2727 C   0  0  0  0  0  0
  -25.6016  -33.7916   24.1542 N   0  0  0  0  0  0
  -23.6088  -30.2792   21.4643 C   0  0  2  0  0  0
  -25.0725  -28.4650   20.1421 C   0  0  0  0  0  0
  -22.8061  -29.3844   22.4536 C   0  0  0  0  0  0
  -18.0379  -28.1458   22.8418 C   0  0  0  0  0  0
  -24.1496  -36.6974   23.2672 C   0  0  0  0  0  0
  -26.2097  -30.2079   21.4656 C   0  0  0  0  0  0
  -26.2685  -28.6914   20.8304 C   0  0  0  0  0  0
  -27.3109  -27.5096   20.8446 C   0  0  0  0  0  0
  -26.0373  -26.1580   19.5150 C   0  0  0  0  0  0
  -25.0378  -27.2275   19.4587 C   0  0  0  0  0  0
  -23.9003  -29.5046   20.1331 C   0  0  0  0  0  0
  -25.4171  -36.2653   24.0232 C   0  0  1  0  0  0
  -20.6044  -28.3839   23.1021 C   0  0  2  0  0  0
  -20.6804  -26.9434   22.5422 C   0  0  0  0  0  0
  -19.5797  -26.6344   21.5226 C   0  0  0  0  0  0
  -18.1977  -26.7971   22.1605 C   0  0  0  0  0  0
  -19.1662  -28.8989   23.2677 C   0  0  0  0  0  0
  -18.9557  -30.1556   23.8752 C   0  0  0  0  0  0
  -17.6540  -30.6621   24.0535 C   0  0  0  0  0  0
  -25.9192  -34.9061   23.4783 C   0  0  0  0  0  0
  -16.5425  -29.9091   23.6368 C   0  0  0  0  0  0
  -16.7355  -28.6519   23.0377 C   0  0  0  0  0  0
  -26.4702  -31.6399   25.0652 C   0  0  0  0  0  0
  -25.3589  -31.3905   26.1137 C   0  0  0  0  0  0
  -27.0751  -30.2676   24.7050 C   0  0  0  0  0  0
  -27.6013  -32.4435   25.7501 C   0  0  0  0  0  0
  -27.5541  -37.1637   24.8466 C   0  0  0  0  0  0
  -21.4650  -29.2937   22.3264 N   0  0  0  0  0  0
  -26.4238  -37.3493   23.9410 N   0  0  0  0  0  0
  -24.8896  -30.7842   22.0592 N   0  0  0  0  0  0
  -23.4168  -28.7578   23.3216 O   0  0  0  0  0  0
  -28.1761  -24.4729   20.3116 O   0  0  0  0  0  0
  -26.5942  -34.8782   22.4477 O   0  0  0  0  0  0
  -23.6384  -32.0531   23.5424 O   0  0  0  0  0  0
  -29.1459  -20.4532   20.2631 C   0  0  0  0  0  0
  -28.1398  -22.6285   20.2851 C   0  0  1  0  0  0
  -29.1761  -18.3115   20.2690 N   0  0  0  0  0  0
  -27.4242  -22.3419   21.4012 F   0  0  0  0  0  0
  -31.1957  -14.2653   19.0441 H   0  0  0  0  0  0
  -30.7128  -13.2292   20.3163 H   0  0  0  0  0  0
  -30.2329  -12.1862   18.0787 H   0  0  0  0  0  0
  -29.3781  -13.6142   17.5597 H   0  0  0  0  0  0
  -28.4569  -11.4987   19.5022 H   0  0  0  0  0  0
  -27.6113  -12.1043   18.0889 H   0  0  0  0  0  0
  -27.3132  -14.2213   19.1043 H   0  0  0  0  0  0
  -28.9737  -13.4802   21.5559 H   0  0  0  0  0  0
  -27.8920  -14.8197   21.4951 H   0  0  0  0  0  0
  -25.2883   -9.5691   22.4746 H   0  0  0  0  0  0
  -24.0052   -7.4689   22.7492 H   0  0  0  0  0  0
  -21.0948   -8.8861   19.8944 H   0  0  0  0  0  0
  -22.3872  -10.9701   19.6123 H   0  0  0  0  0  0
  -21.2038   -7.6168   23.9726 H   0  0  0  0  0  0
  -21.1487   -6.0529   25.9075 H   0  0  0  0  0  0
  -22.0586   -2.7627   23.2827 H   0  0  0  0  0  0
  -22.4043  -11.9732   22.4898 H   0  0  0  0  0  0
  -21.0934  -13.0961   22.2674 H   0  0  0  0  0  0
  -24.5661  -15.8618   20.5438 H   0  0  0  0  0  0
  -26.1920  -15.6837   20.1135 H   0  0  0  0  0  0
  -26.7914  -32.4395   23.0526 H   0  0  0  0  0  0
  -24.9946  -33.8831   24.9554 H   0  0  0  0  0  0
  -22.9765  -31.1328   21.2111 H   0  0  0  0  0  0
  -23.3795  -35.9261   23.3216 H   0  0  0  0  0  0
  -24.3540  -36.8800   22.2111 H   0  0  0  0  0  0
  -23.7225  -37.6078   23.6888 H   0  0  0  0  0  0
  -26.4827  -30.8824   20.6531 H   0  0  0  0  0  0
  -27.0379  -30.2974   22.1542 H   0  0  0  0  0  0
  -28.1980  -27.7253   21.4228 H   0  0  0  0  0  0
  -25.7648  -25.2838   18.9411 H   0  0  0  0  0  0
  -24.1609  -27.0269   18.8586 H   0  0  0  0  0  0
  -24.1303  -30.2317   19.3535 H   0  0  0  0  0  0
  -22.9920  -29.0035   19.7945 H   0  0  0  0  0  0
  -25.1415  -36.1313   25.0718 H   0  0  0  0  0  0
  -21.0095  -28.3515   24.1161 H   0  0  0  0  0  0
  -20.5597  -26.2483   23.3746 H   0  0  0  0  0  0
  -21.6661  -26.7262   22.1289 H   0  0  0  0  0  0
  -19.6938  -25.6217   21.1347 H   0  0  0  0  0  0
  -19.6767  -27.3078   20.6698 H   0  0  0  0  0  0
  -17.4254  -26.6721   21.4000 H   0  0  0  0  0  0
  -18.0335  -26.0147   22.9029 H   0  0  0  0  0  0
  -19.8035  -30.7403   24.2062 H   0  0  0  0  0  0
  -17.5090  -31.6285   24.5168 H   0  0  0  0  0  0
  -15.5420  -30.2950   23.7776 H   0  0  0  0  0  0
  -15.8754  -28.0793   22.7173 H   0  0  0  0  0  0
  -24.5842  -30.7195   25.7409 H   0  0  0  0  0  0
  -24.8717  -32.3183   26.4143 H   0  0  0  0  0  0
  -25.7606  -30.9333   27.0188 H   0  0  0  0  0  0
  -26.3581  -29.6053   24.2196 H   0  0  0  0  0  0
  -27.4056  -29.7428   25.6025 H   0  0  0  0  0  0
  -27.9600  -30.3664   24.0764 H   0  0  0  0  0  0
  -27.2463  -33.3893   26.1609 H   0  0  0  0  0  0
  -28.4048  -32.6748   25.0496 H   0  0  0  0  0  0
  -28.0435  -31.8897   26.5793 H   0  0  0  0  0  0
  -28.2479  -38.0002   24.7519 H   0  0  0  0  0  0
  -28.1113  -36.2513   24.6284 H   0  0  0  0  0  0
  -27.2255  -37.1244   25.8866 H   0  0  0  0  0  0
  -21.0128  -29.8472   21.6119 H   0  0  0  0  0  0
  -26.0001  -38.2506   24.1441 H   0  0  0  0  0  0
  -29.8261  -20.5910   21.1033 H   0  0  0  0  0  0
  -29.7850  -20.5883   19.3906 H   0  0  0  0  0  0
  -27.4755  -22.4497   19.4410 H   0  0  0  0  0  0
  -28.1907  -18.0764   20.2613 H   0  0  0  0  0  0
  1 25  1  0  0  0
  1 30  2  0  0  0
  1 73  1  0  0  0
  2  3  1  0  0  0
  2 25  1  0  0  0
  2 75  1  0  0  0
  2 76  1  0  0  0
  3  4  1  0  0  0
  3 77  1  0  0  0
  3 78  1  0  0  0
  4  5  1  0  0  0
  4 79  1  0  0  0
  4 80  1  0  0  0
  5  6  1  0  0  0
  5 26  1  0  0  0
  5 81  1  0  0  0
  6 25  1  0  0  0
  6 82  1  0  0  0
  6 83  1  0  0  0
  7  8  2  0  0  0
  7 26  1  0  0  0
  7 29  1  0  0  0
  8  9  1  0  0  0
  8 22  1  0  0  0
  9 10  1  0  0  0
  9 27  2  0  0  0
 10 11  2  0  0  0
 10 15  1  0  0  0
 11 12  1  0  0  0
 11 84  1  0  0  0
 12 13  2  0  0  0
 12 85  1  0  0  0
 13 14  1  0  0  0
 13 31  1  0  0  0
 14 15  2  0  0  0
 14 86  1  0  0  0
 15 87  1  0  0  0
 16 17  2  0  0  0
 16 21  1  0  0  0
 16 31  1  0  0  0
 17 18  1  0  0  0
 17 88  1  0  0  0
 18 19  2  0  0  0
 18 89  1  0  0  0
 19 20  1  0  0  0
 19 24  1  0  0  0
 20 21  2  0  0  0
 20 90  1  0  0  0
 21 23  1  0  0  0
 22 28  1  0  0  0
 22 32  2  0  0  0
 26 27  1  0  0  0
 28 91  1  0  0  0
 28 92  1  0  0  0
 29 93  1  0  0  0
 29 94  1  0  0  0
 33 34  1  0  0  0
 33 66  1  0  0  0
 33 70  2  0  0  0
 34 36  1  0  0  0
 34 59  1  0  0  0
 34 95  1  0  0  0
 35 44  2  0  0  0
 35 45  1  0  0  0
 35 68  1  0  0  0
 36 56  1  0  0  0
 36 96  1  0  0  0
 37 39  1  0  0  0
 37 47  1  0  0  0
 37 66  1  0  0  0
 37 97  1  0  0  0
 38 43  2  0  0  0
 38 46  1  0  0  0
 38 47  1  0  0  0
 39 64  1  0  0  0
 39 67  2  0  0  0
 40 52  1  0  0  0
 40 53  2  0  0  0
 40 58  1  0  0  0
 41 98  1  0  0  0
 41 99  1  0  0  0
 41100  1  0  0  0
 41 48  1  0  0  0
 42 43  1  0  0  0
 42 66  1  0  0  0
 42101  1  0  0  0
 42102  1  0  0  0
 43 44  1  0  0  0
 44103  1  0  0  0
 45 46  2  0  0  0
 45104  1  0  0  0
 46105  1  0  0  0
 47106  1  0  0  0
 47107  1  0  0  0
 48 56  1  0  0  0
 48 65  1  0  0  0
 48108  1  0  0  0
 49 50  1  0  0  0
 49 53  1  0  0  0
 49 64  1  0  0  0
 49109  1  0  0  0
 50 51  1  0  0  0
 50110  1  0  0  0
 50111  1  0  0  0
 51 52  1  0  0  0
 51112  1  0  0  0
 51113  1  0  0  0
 52114  1  0  0  0
 52115  1  0  0  0
 53 54  1  0  0  0
 54 55  2  0  0  0
 54116  1  0  0  0
 55 57  1  0  0  0
 55117  1  0  0  0
 56 69  2  0  0  0
 57 58  2  0  0  0
 57118  1  0  0  0
 58119  1  0  0  0
 59 60  1  0  0  0
 59 61  1  0  0  0
 59 62  1  0  0  0
 60120  1  0  0  0
 60121  1  0  0  0
 60122  1  0  0  0
 61123  1  0  0  0
 61124  1  0  0  0
 61125  1  0  0  0
 62126  1  0  0  0
 62127  1  0  0  0
 62128  1  0  0  0
 63 65  1  0  0  0
 63129  1  0  0  0
 63130  1  0  0  0
 63131  1  0  0  0
 64132  1  0  0  0
 65133  1  0  0  0
 68 72  1  0  0  0
 71 72  1  0  0  0
 71 73  1  0  0  0
 71134  1  0  0  0
 71135  1  0  0  0
 72 74  1  0  0  0
 72136  1  0  0  0
 73137  1  0  0  0
M  ISO  4   1 100  68 101  72 101  73 100
M  END
> <chiral flag>
0

> <version>
0

> <s_m_source_file>
/data/baiqing/PycharmProjects/Reinvent-master-3.2/result/LINK_invent/BTK/process_docking_weight1_custom_product_contain_oxygen_bond_distance_aromatic_linkinvent_7_9_3/rearranged_h_0008.sdf

> <i_m_source_file_index>
90

> <r_mmod_Potential_Energy-OPLS-2005>
7161.345703125

> <r_mmod_Stretch_Energy-OPLS-2005>
3223.482421875

> <r_mmod_Bend_Energy-OPLS-2005>
1142.89672851562

> <r_mmod_Torsional_Energy-OPLS-2005>
210.902801513672

> <r_mmod_Improper_Torsional_Energy-OPLS-2005>
4.66520309448242

> <r_mmod_Van_der_Waal_Energy-OPLS-2005>
120.529159545898

> <r_mmod_Electrostatic_Energy-OPLS-2005>
-392.923248291016

> <r_mmod_Solvation_Energy-OPLS-2005>
-233.07145690918

> <b_mmod_Minimization_Converged-OPLS-2005>
1

> <r_mmod_RMS_Derivative-OPLS-2005>
0.0384713672101498

$$$$
91
                    3D
 Structure written by MMmdl.
148156  0  0  1  0            999 V2000
  -30.5182  -14.9243   20.4273 C   0  0  0  0  0  0
  -30.4485  -12.5676   19.5002 C   0  0  0  0  0  0
  -29.5256  -12.5341   18.2581 C   0  0  0  0  0  0
  -28.0559  -12.3244   18.6711 C   0  0  0  0  0  0
  -27.6374  -13.2425   19.8489 C   0  0  2  0  0  0
  -28.6796  -13.2319   20.9887 C   0  0  0  0  0  0
  -25.2490  -13.8205   20.5707 C   0  0  0  0  0  0
  -24.1793  -13.0436   20.9212 C   0  0  0  0  0  0
  -24.6401  -11.6919   20.8745 C   0  0  0  0  0  0
  -23.9080  -10.4292   21.0404 C   0  0  0  0  0  0
  -24.3627   -9.4208   21.9183 C   0  0  0  0  0  0
  -23.6298   -8.2244   22.0754 C   0  0  0  0  0  0
  -22.4280   -8.0283   21.3545 C   0  0  0  0  0  0
  -21.9918   -9.0257   20.4646 C   0  0  0  0  0  0
  -22.7251  -10.2134   20.3054 C   0  0  0  0  0  0
  -21.6855   -6.0737   22.5279 C   0  0  0  0  0  0
  -21.4015   -6.5641   23.8213 C   0  0  0  0  0  0
  -21.3660   -5.6793   24.9174 C   0  0  0  0  0  0
  -21.6044   -4.3056   24.7225 C   0  0  0  0  0  0
  -21.8819   -3.8148   23.4346 C   0  0  0  0  0  0
  -21.9193   -4.6965   22.3402 C   0  0  0  0  0  0
  -22.7813  -13.5212   21.1871 C   0  0  0  0  0  0
  -22.1662   -4.2151   21.0980 F   0  0  0  0  0  0
  -21.5628   -3.4539   25.7737 F   0  0  0  0  0  0
  -29.9639  -13.6466   20.4064 N   0  0  0  0  0  0
  -26.2921  -12.9428   20.3276 N   0  0  0  0  0  0
  -25.9336  -11.6561   20.5746 N   0  0  0  0  0  0
  -22.0465  -12.8199   22.0428 N   0  0  0  0  0  0
  -25.4163  -15.1932   20.4141 N   0  0  0  0  0  0
  -31.6994  -15.0452   20.0829 O   0  0  0  0  0  0
  -21.6642   -6.8881   21.4242 O   0  0  0  0  0  0
  -22.3492  -14.5516   20.6719 O   0  0  0  0  0  0
  -24.6426  -31.8438   23.1879 C   0  0  0  0  0  0
  -25.9201  -32.4692   23.8268 C   0  0  1  0  0  0
  -27.2223  -27.1392   20.1425 C   0  0  0  0  0  0
  -25.5951  -33.8498   24.2185 N   0  0  0  0  0  0
  -23.4460  -30.4626   21.5332 C   0  0  2  0  0  0
  -24.8954  -28.8895   20.1072 C   0  0  0  0  0  0
  -22.7563  -29.4543   22.4859 C   0  0  0  0  0  0
  -18.0303  -28.1395   22.8479 C   0  0  0  0  0  0
  -24.1491  -36.7253   23.2642 C   0  0  0  0  0  0
  -26.0011  -30.7171   21.3868 C   0  0  0  0  0  0
  -26.0706  -29.3288   20.7274 C   0  0  0  0  0  0
  -27.2298  -28.4677   20.7317 C   0  0  0  0  0  0
  -26.0182  -26.7996   19.4846 C   0  0  0  0  0  0
  -24.8819  -27.6384   19.4725 C   0  0  0  0  0  0
  -23.6715  -29.7909   20.1521 C   0  0  0  0  0  0
  -25.4124  -36.3031   24.0316 C   0  0  1  0  0  0
  -20.5915  -28.3719   23.1238 C   0  0  2  0  0  0
  -20.6787  -26.9424   22.5404 C   0  0  0  0  0  0
  -19.5760  -26.6382   21.5213 C   0  0  0  0  0  0
  -18.1942  -26.7933   22.1627 C   0  0  0  0  0  0
  -19.1560  -28.8876   23.2850 C   0  0  0  0  0  0
  -18.9477  -30.1473   23.8875 C   0  0  0  0  0  0
  -17.6473  -30.6592   24.0559 C   0  0  0  0  0  0
  -25.9074  -34.9406   23.5060 C   0  0  0  0  0  0
  -16.5364  -29.9085   23.6336 C   0  0  0  0  0  0
  -16.7288  -28.6504   23.0358 C   0  0  0  0  0  0
  -26.4524  -31.6563   25.0712 C   0  0  0  0  0  0
  -25.3709  -31.3759   26.1410 C   0  0  0  0  0  0
  -27.0387  -30.2957   24.6298 C   0  0  0  0  0  0
  -27.6056  -32.4328   25.7496 C   0  0  0  0  0  0
  -27.5575  -37.1784   24.8466 C   0  0  0  0  0  0
  -21.4256  -29.3044   22.3609 N   0  0  0  0  0  0
  -26.4287  -37.3744   23.9408 N   0  0  0  0  0  0
  -24.7163  -31.0294   22.0911 N   0  0  0  0  0  0
  -23.4208  -28.8095   23.3011 O   0  0  0  0  0  0
  -28.2978  -26.1831   20.2513 O   0  0  0  0  0  0
  -26.5662  -34.8905   22.4640 O   0  0  0  0  0  0
  -23.5547  -32.1315   23.7102 O   0  0  0  0  0  0
  -30.4933  -18.3565   19.6582 C   0  0  0  0  0  0
  -28.5603  -19.8249   21.0345 C   0  0  0  0  0  0
  -29.6793  -17.5586   20.5240 C   0  0  0  0  0  0
  -29.3532  -20.6200   20.1431 C   0  0  0  0  0  0
  -30.3291  -19.7915   19.4747 C   0  0  0  0  0  0
  -28.7081  -18.3830   21.2002 C   0  0  0  0  0  0
  -28.3216  -24.7180   19.7170 C   0  0  0  0  0  0
  -28.5917  -23.2487   20.5102 C   0  0  0  0  0  0
  -29.6856  -16.0342   20.7086 N   0  0  0  0  0  0
  -29.2413  -22.0463   19.8039 O   0  0  0  0  0  0
  -31.1555  -20.3988   18.5893 F   0  0  0  0  0  0
  -27.8534  -17.7570   22.0444 F   0  0  0  0  0  0
  -31.4823  -12.7307   19.1917 H   0  0  0  0  0  0
  -30.4409  -11.6048   20.0137 H   0  0  0  0  0  0
  -29.8390  -11.7442   17.5741 H   0  0  0  0  0  0
  -29.6201  -13.4712   17.7072 H   0  0  0  0  0  0
  -27.9426  -11.2795   18.9621 H   0  0  0  0  0  0
  -27.3951  -12.4757   17.8167 H   0  0  0  0  0  0
  -27.6122  -14.2531   19.4405 H   0  0  0  0  0  0
  -28.7569  -12.2410   21.4389 H   0  0  0  0  0  0
  -28.3804  -13.9079   21.7911 H   0  0  0  0  0  0
  -25.2771   -9.5683   22.4760 H   0  0  0  0  0  0
  -24.0005   -7.4636   22.7475 H   0  0  0  0  0  0
  -21.0849   -8.8779   19.8952 H   0  0  0  0  0  0
  -22.3710  -10.9674   19.6164 H   0  0  0  0  0  0
  -21.2008   -7.6149   23.9716 H   0  0  0  0  0  0
  -21.1482   -6.0524   25.9077 H   0  0  0  0  0  0
  -22.0598   -2.7610   23.2846 H   0  0  0  0  0  0
  -22.4089  -11.9862   22.4814 H   0  0  0  0  0  0
  -21.1081  -13.1217   22.2636 H   0  0  0  0  0  0
  -24.6501  -15.8455   20.5392 H   0  0  0  0  0  0
  -26.2653  -15.6402   20.0942 H   0  0  0  0  0  0
  -26.7265  -32.5294   23.0994 H   0  0  0  0  0  0
  -25.0075  -33.9613   25.0317 H   0  0  0  0  0  0
  -22.7485  -31.2885   21.3788 H   0  0  0  0  0  0
  -23.3759  -35.9579   23.3293 H   0  0  0  0  0  0
  -24.3576  -36.8897   22.2059 H   0  0  0  0  0  0
  -23.7241  -37.6444   23.6687 H   0  0  0  0  0  0
  -26.1577  -31.4720   20.6150 H   0  0  0  0  0  0
  -26.8713  -30.7661   22.0297 H   0  0  0  0  0  0
  -28.1234  -28.7980   21.2425 H   0  0  0  0  0  0
  -25.8999  -25.8458   18.9982 H   0  0  0  0  0  0
  -23.9827  -27.2959   18.9789 H   0  0  0  0  0  0
  -23.8066  -30.5651   19.3960 H   0  0  0  0  0  0
  -22.7864  -29.2321   19.8428 H   0  0  0  0  0  0
  -25.1313  -36.1857   25.0808 H   0  0  0  0  0  0
  -21.0008  -28.3309   24.1359 H   0  0  0  0  0  0
  -20.5681  -26.2334   23.3622 H   0  0  0  0  0  0
  -21.6653  -26.7430   22.1201 H   0  0  0  0  0  0
  -19.6921  -25.6287   21.1255 H   0  0  0  0  0  0
  -19.6695  -27.3181   20.6733 H   0  0  0  0  0  0
  -17.4209  -26.6674   21.4033 H   0  0  0  0  0  0
  -18.0346  -26.0082   22.9031 H   0  0  0  0  0  0
  -19.7952  -30.7296   24.2233 H   0  0  0  0  0  0
  -17.5026  -31.6270   24.5165 H   0  0  0  0  0  0
  -15.5363  -30.2980   23.7673 H   0  0  0  0  0  0
  -15.8688  -28.0814   22.7087 H   0  0  0  0  0  0
  -24.5887  -30.7108   25.7731 H   0  0  0  0  0  0
  -24.8900  -32.2944   26.4783 H   0  0  0  0  0  0
  -25.7990  -30.8963   27.0221 H   0  0  0  0  0  0
  -26.3003  -29.6678   24.1300 H   0  0  0  0  0  0
  -27.3989  -29.7261   25.4875 H   0  0  0  0  0  0
  -27.8917  -30.4189   23.9622 H   0  0  0  0  0  0
  -27.2656  -33.3659   26.2001 H   0  0  0  0  0  0
  -28.3906  -32.6836   25.0349 H   0  0  0  0  0  0
  -28.0678  -31.8497   26.5471 H   0  0  0  0  0  0
  -28.2586  -38.0086   24.7511 H   0  0  0  0  0  0
  -28.1077  -36.2615   24.6296 H   0  0  0  0  0  0
  -27.2290  -37.1434   25.8869 H   0  0  0  0  0  0
  -20.9466  -29.8753   21.6784 H   0  0  0  0  0  0
  -26.0152  -38.2812   24.1410 H   0  0  0  0  0  0
  -31.2573  -17.8619   19.0776 H   0  0  0  0  0  0
  -27.7775  -20.3151   21.5926 H   0  0  0  0  0  0
  -27.4790  -24.5474   19.0542 H   0  0  0  0  0  0
  -29.1561  -24.7744   19.0182 H   0  0  0  0  0  0
  -27.6494  -22.9152   20.9451 H   0  0  0  0  0  0
  -29.2379  -23.4612   21.3619 H   0  0  0  0  0  0
  -28.8179  -15.7174   21.1150 H   0  0  0  0  0  0
  1 25  1  0  0  0
  1 30  2  0  0  0
  1 79  1  0  0  0
  2  3  1  0  0  0
  2 25  1  0  0  0
  2 83  1  0  0  0
  2 84  1  0  0  0
  3  4  1  0  0  0
  3 85  1  0  0  0
  3 86  1  0  0  0
  4  5  1  0  0  0
  4 87  1  0  0  0
  4 88  1  0  0  0
  5  6  1  0  0  0
  5 26  1  0  0  0
  5 89  1  0  0  0
  6 25  1  0  0  0
  6 90  1  0  0  0
  6 91  1  0  0  0
  7  8  2  0  0  0
  7 26  1  0  0  0
  7 29  1  0  0  0
  8  9  1  0  0  0
  8 22  1  0  0  0
  9 10  1  0  0  0
  9 27  2  0  0  0
 10 11  2  0  0  0
 10 15  1  0  0  0
 11 12  1  0  0  0
 11 92  1  0  0  0
 12 13  2  0  0  0
 12 93  1  0  0  0
 13 14  1  0  0  0
 13 31  1  0  0  0
 14 15  2  0  0  0
 14 94  1  0  0  0
 15 95  1  0  0  0
 16 17  2  0  0  0
 16 21  1  0  0  0
 16 31  1  0  0  0
 17 18  1  0  0  0
 17 96  1  0  0  0
 18 19  2  0  0  0
 18 97  1  0  0  0
 19 20  1  0  0  0
 19 24  1  0  0  0
 20 21  2  0  0  0
 20 98  1  0  0  0
 21 23  1  0  0  0
 22 28  1  0  0  0
 22 32  2  0  0  0
 26 27  1  0  0  0
 28 99  1  0  0  0
 28100  1  0  0  0
 29101  1  0  0  0
 29102  1  0  0  0
 33 34  1  0  0  0
 33 66  1  0  0  0
 33 70  2  0  0  0
 34 36  1  0  0  0
 34 59  1  0  0  0
 34103  1  0  0  0
 35 44  2  0  0  0
 35 45  1  0  0  0
 35 68  1  0  0  0
 36 56  1  0  0  0
 36104  1  0  0  0
 37 39  1  0  0  0
 37 47  1  0  0  0
 37 66  1  0  0  0
 37105  1  0  0  0
 38 43  2  0  0  0
 38 46  1  0  0  0
 38 47  1  0  0  0
 39 64  1  0  0  0
 39 67  2  0  0  0
 40 52  1  0  0  0
 40 53  2  0  0  0
 40 58  1  0  0  0
 41106  1  0  0  0
 41107  1  0  0  0
 41108  1  0  0  0
 41 48  1  0  0  0
 42 43  1  0  0  0
 42 66  1  0  0  0
 42109  1  0  0  0
 42110  1  0  0  0
 43 44  1  0  0  0
 44111  1  0  0  0
 45 46  2  0  0  0
 45112  1  0  0  0
 46113  1  0  0  0
 47114  1  0  0  0
 47115  1  0  0  0
 48 56  1  0  0  0
 48 65  1  0  0  0
 48116  1  0  0  0
 49 50  1  0  0  0
 49 53  1  0  0  0
 49 64  1  0  0  0
 49117  1  0  0  0
 50 51  1  0  0  0
 50118  1  0  0  0
 50119  1  0  0  0
 51 52  1  0  0  0
 51120  1  0  0  0
 51121  1  0  0  0
 52122  1  0  0  0
 52123  1  0  0  0
 53 54  1  0  0  0
 54 55  2  0  0  0
 54124  1  0  0  0
 55 57  1  0  0  0
 55125  1  0  0  0
 56 69  2  0  0  0
 57 58  2  0  0  0
 57126  1  0  0  0
 58127  1  0  0  0
 59 60  1  0  0  0
 59 61  1  0  0  0
 59 62  1  0  0  0
 60128  1  0  0  0
 60129  1  0  0  0
 60130  1  0  0  0
 61131  1  0  0  0
 61132  1  0  0  0
 61133  1  0  0  0
 62134  1  0  0  0
 62135  1  0  0  0
 62136  1  0  0  0
 63 65  1  0  0  0
 63137  1  0  0  0
 63138  1  0  0  0
 63139  1  0  0  0
 64140  1  0  0  0
 65141  1  0  0  0
 68 77  1  0  0  0
 71 73  2  0  0  0
 71 75  1  0  0  0
 71142  1  0  0  0
 72 74  1  0  0  0
 72 76  2  0  0  0
 72143  1  0  0  0
 73 76  1  0  0  0
 73 79  1  0  0  0
 74 75  2  0  0  0
 74 80  1  0  0  0
 75 81  1  0  0  0
 76 82  1  0  0  0
 77 78  1  0  0  0
 77144  1  0  0  0
 77145  1  0  0  0
 78 80  1  0  0  0
 78146  1  0  0  0
 78147  1  0  0  0
 79148  1  0  0  0
M  ISO  4   1 100  68 101  77 101  79 100
M  END
> <chiral flag>
0

> <version>
0

> <s_m_source_file>
/data/baiqing/PycharmProjects/Reinvent-master-3.2/result/LINK_invent/BTK/process_docking_weight1_custom_product_contain_oxygen_bond_distance_aromatic_linkinvent_7_9_3/rearranged_h_0008.sdf

> <i_m_source_file_index>
91

> <r_mmod_Potential_Energy-OPLS-2005>
455.152130126953

> <r_mmod_Stretch_Energy-OPLS-2005>
227.920120239258

> <r_mmod_Bend_Energy-OPLS-2005>
295.857421875

> <r_mmod_Torsional_Energy-OPLS-2005>
212.856811523438

> <r_mmod_Improper_Torsional_Energy-OPLS-2005>
3.46052241325378

> <r_mmod_Van_der_Waal_Energy-OPLS-2005>
130.192138671875

> <r_mmod_Electrostatic_Energy-OPLS-2005>
-386.322631835938

> <r_mmod_Solvation_Energy-OPLS-2005>
-209.379211425781

> <b_mmod_Minimization_Converged-OPLS-2005>
0

> <r_mmod_RMS_Derivative-OPLS-2005>
0.111098766326904

$$$$
92
                    3D
 Structure written by MMmdl.
154162  0  0  1  0            999 V2000
  -30.6052  -14.7279   20.4422 C   0  0  0  0  0  0
  -30.4255  -12.4392   19.4820 C   0  0  0  0  0  0
  -29.5095  -12.5092   18.2408 C   0  0  0  0  0  0
  -28.0318  -12.3440   18.6461 C   0  0  0  0  0  0
  -27.6387  -13.2358   19.8540 C   0  0  2  0  0  0
  -28.6795  -13.1543   20.9897 C   0  0  0  0  0  0
  -25.2479  -13.8212   20.5712 C   0  0  0  0  0  0
  -24.1778  -13.0446   20.9234 C   0  0  0  0  0  0
  -24.6375  -11.6923   20.8762 C   0  0  0  0  0  0
  -23.9062  -10.4287   21.0410 C   0  0  0  0  0  0
  -24.3609   -9.4198   21.9189 C   0  0  0  0  0  0
  -23.6290   -8.2229   22.0742 C   0  0  0  0  0  0
  -22.4276   -8.0269   21.3529 C   0  0  0  0  0  0
  -21.9911   -9.0242   20.4635 C   0  0  0  0  0  0
  -22.7237  -10.2123   20.3053 C   0  0  0  0  0  0
  -21.6845   -6.0733   22.5276 C   0  0  0  0  0  0
  -21.4011   -6.5638   23.8210 C   0  0  0  0  0  0
  -21.3664   -5.6791   24.9175 C   0  0  0  0  0  0
  -21.6037   -4.3053   24.7220 C   0  0  0  0  0  0
  -21.8822   -3.8144   23.4342 C   0  0  0  0  0  0
  -21.9189   -4.6961   22.3398 C   0  0  0  0  0  0
  -22.7801  -13.5218   21.1895 C   0  0  0  0  0  0
  -22.1663   -4.2149   21.0976 F   0  0  0  0  0  0
  -21.5623   -3.4535   25.7732 F   0  0  0  0  0  0
  -29.9823  -13.5015   20.4130 N   0  0  0  0  0  0
  -26.2906  -12.9424   20.3293 N   0  0  0  0  0  0
  -25.9306  -11.6562   20.5751 N   0  0  0  0  0  0
  -22.0452  -12.8191   22.0442 N   0  0  0  0  0  0
  -25.4183  -15.1940   20.4136 N   0  0  0  0  0  0
  -31.8049  -14.7930   20.1633 O   0  0  0  0  0  0
  -21.6630   -6.8871   21.4239 O   0  0  0  0  0  0
  -22.3471  -14.5510   20.6729 O   0  0  0  0  0  0
  -24.6296  -31.8572   23.1999 C   0  0  0  0  0  0
  -25.9129  -32.4759   23.8354 C   0  0  1  0  0  0
  -27.2005  -27.2704   20.1033 C   0  0  0  0  0  0
  -25.5946  -33.8564   24.2274 N   0  0  0  0  0  0
  -23.4213  -30.4865   21.5436 C   0  0  2  0  0  0
  -24.8578  -28.9317   20.1092 C   0  0  0  0  0  0
  -22.7473  -29.4642   22.4911 C   0  0  0  0  0  0
  -18.0299  -28.1399   22.8483 C   0  0  0  0  0  0
  -24.1476  -36.7271   23.2648 C   0  0  0  0  0  0
  -25.9681  -30.7687   21.3765 C   0  0  0  0  0  0
  -26.0325  -29.3947   20.7135 C   0  0  0  0  0  0
  -27.2053  -28.5755   20.6987 C   0  0  0  0  0  0
  -25.9908  -26.8597   19.4974 C   0  0  0  0  0  0
  -24.8411  -27.6722   19.4959 C   0  0  0  0  0  0
  -23.6339  -29.8254   20.1573 C   0  0  0  0  0  0
  -25.4107  -36.3068   24.0331 C   0  0  1  0  0  0
  -20.5894  -28.3698   23.1278 C   0  0  2  0  0  0
  -20.6776  -26.9423   22.5393 C   0  0  0  0  0  0
  -19.5753  -26.6393   21.5195 C   0  0  0  0  0  0
  -18.1937  -26.7946   22.1615 C   0  0  0  0  0  0
  -19.1551  -28.8867   23.2879 C   0  0  0  0  0  0
  -18.9472  -30.1474   23.8887 C   0  0  0  0  0  0
  -17.6473  -30.6599   24.0572 C   0  0  0  0  0  0
  -25.9053  -34.9441   23.5101 C   0  0  0  0  0  0
  -16.5369  -29.9092   23.6338 C   0  0  0  0  0  0
  -16.7284  -28.6512   23.0351 C   0  0  0  0  0  0
  -26.4488  -31.6596   25.0757 C   0  0  0  0  0  0
  -25.3724  -31.3745   26.1496 C   0  0  0  0  0  0
  -27.0342  -30.3022   24.6255 C   0  0  0  0  0  0
  -27.6051  -32.4340   25.7531 C   0  0  0  0  0  0
  -27.5562  -37.1805   24.8477 C   0  0  0  0  0  0
  -21.4184  -29.3059   22.3667 N   0  0  0  0  0  0
  -26.4272  -37.3778   23.9423 N   0  0  0  0  0  0
  -24.6921  -31.0564   22.0955 N   0  0  0  0  0  0
  -23.4186  -28.8181   23.2996 O   0  0  0  0  0  0
  -28.3204  -26.4142   20.1590 O   0  0  0  0  0  0
  -26.5623  -34.8921   22.4673 O   0  0  0  0  0  0
  -23.5453  -32.1392   23.7316 O   0  0  0  0  0  0
  -31.1575  -17.5767   19.3123 C   0  0  0  0  0  0
  -31.4341  -18.8935   18.9054 C   0  0  0  0  0  0
  -29.5379  -19.7979   20.1766 C   0  0  0  0  0  0
  -30.0918  -17.2819   20.1946 C   0  0  0  0  0  0
  -30.6552  -19.9839   19.3322 C   0  0  0  0  0  0
  -29.2810  -18.4236   20.6010 C   0  0  0  0  0  0
  -28.7095  -22.4858   19.9249 C   0  0  0  0  0  0
  -28.2981  -23.7389   20.3618 C   0  0  0  0  0  0
  -27.7158  -23.9420   21.7478 C   0  0  0  0  0  0
  -28.6935  -21.0673   20.6568 C   0  0  0  0  0  0
  -28.3754  -25.0704   19.5001 C   0  0  0  0  0  0
  -29.8301  -15.8730   20.6015 N   0  0  0  0  0  0
  -31.0209  -21.2194   18.9218 F   0  0  0  0  0  0
  -28.2332  -18.1930   21.4281 F   0  0  0  0  0  0
  -31.4694  -12.5568   19.1862 H   0  0  0  0  0  0
  -30.3591  -11.4600   19.9594 H   0  0  0  0  0  0
  -29.7890  -11.7410   17.5193 H   0  0  0  0  0  0
  -29.6478  -13.4683   17.7387 H   0  0  0  0  0  0
  -27.8777  -11.2942   18.8980 H   0  0  0  0  0  0
  -27.3798  -12.5537   17.7971 H   0  0  0  0  0  0
  -27.6369  -14.2607   19.4837 H   0  0  0  0  0  0
  -28.7059  -12.1484   21.4122 H   0  0  0  0  0  0
  -28.4187  -13.8272   21.8086 H   0  0  0  0  0  0
  -25.2749   -9.5664   22.4775 H   0  0  0  0  0  0
  -23.9992   -7.4605   22.7449 H   0  0  0  0  0  0
  -21.0843   -8.8750   19.8939 H   0  0  0  0  0  0
  -22.3691  -10.9657   19.6153 H   0  0  0  0  0  0
  -21.2009   -7.6148   23.9713 H   0  0  0  0  0  0
  -21.1492   -6.0523   25.9074 H   0  0  0  0  0  0
  -22.0601   -2.7609   23.2839 H   0  0  0  0  0  0
  -22.4069  -11.9853   22.4841 H   0  0  0  0  0  0
  -21.1057  -13.1183   22.2640 H   0  0  0  0  0  0
  -24.6542  -15.8517   20.5225 H   0  0  0  0  0  0
  -26.2656  -15.6313   20.0750 H   0  0  0  0  0  0
  -26.7192  -32.5383   23.1085 H   0  0  0  0  0  0
  -25.0123  -33.9723   25.0444 H   0  0  0  0  0  0
  -22.7174  -31.3093   21.4034 H   0  0  0  0  0  0
  -23.3742  -35.9599   23.3319 H   0  0  0  0  0  0
  -24.3549  -36.8875   22.2055 H   0  0  0  0  0  0
  -23.7230  -37.6480   23.6658 H   0  0  0  0  0  0
  -26.1199  -31.5293   20.6092 H   0  0  0  0  0  0
  -26.8407  -30.8056   22.0166 H   0  0  0  0  0  0
  -28.1075  -28.9299   21.1759 H   0  0  0  0  0  0
  -25.8751  -25.8889   19.0436 H   0  0  0  0  0  0
  -23.9321  -27.3089   19.0338 H   0  0  0  0  0  0
  -23.7655  -30.6038   19.4052 H   0  0  0  0  0  0
  -22.7455  -29.2718   19.8485 H   0  0  0  0  0  0
  -25.1283  -36.1902   25.0820 H   0  0  0  0  0  0
  -21.0011  -28.3254   24.1389 H   0  0  0  0  0  0
  -20.5650  -26.2305   23.3580 H   0  0  0  0  0  0
  -21.6648  -26.7424   22.1206 H   0  0  0  0  0  0
  -19.6903  -25.6293   21.1236 H   0  0  0  0  0  0
  -19.6705  -27.3190   20.6713 H   0  0  0  0  0  0
  -17.4198  -26.6690   21.4023 H   0  0  0  0  0  0
  -18.0354  -26.0089   22.9015 H   0  0  0  0  0  0
  -19.7947  -30.7304   24.2235 H   0  0  0  0  0  0
  -17.5028  -31.6276   24.5180 H   0  0  0  0  0  0
  -15.5366  -30.2999   23.7681 H   0  0  0  0  0  0
  -15.8676  -28.0837   22.7073 H   0  0  0  0  0  0
  -24.5923  -30.7048   25.7860 H   0  0  0  0  0  0
  -24.8886  -32.2902   26.4910 H   0  0  0  0  0  0
  -25.8072  -30.8971   27.0291 H   0  0  0  0  0  0
  -26.2940  -29.6794   24.1223 H   0  0  0  0  0  0
  -27.3972  -29.7264   25.4780 H   0  0  0  0  0  0
  -27.8831  -30.4315   23.9541 H   0  0  0  0  0  0
  -27.2674  -33.3656   26.2092 H   0  0  0  0  0  0
  -28.3884  -32.6880   25.0375 H   0  0  0  0  0  0
  -28.0699  -31.8480   26.5476 H   0  0  0  0  0  0
  -28.2605  -38.0080   24.7507 H   0  0  0  0  0  0
  -28.1026  -36.2614   24.6308 H   0  0  0  0  0  0
  -27.2281  -37.1468   25.8884 H   0  0  0  0  0  0
  -20.9346  -29.8792   21.6907 H   0  0  0  0  0  0
  -26.0130  -38.2848   24.1432 H   0  0  0  0  0  0
  -31.7972  -16.8061   18.9121 H   0  0  0  0  0  0
  -32.2730  -19.0789   18.2508 H   0  0  0  0  0  0
  -29.0728  -22.4491   18.9083 H   0  0  0  0  0  0
  -26.7398  -24.4277   21.6873 H   0  0  0  0  0  0
  -28.3763  -24.5727   22.3431 H   0  0  0  0  0  0
  -27.5831  -22.9974   22.2716 H   0  0  0  0  0  0
  -28.9675  -21.2375   21.6984 H   0  0  0  0  0  0
  -27.6491  -20.7550   20.6839 H   0  0  0  0  0  0
  -27.6795  -24.9907   18.6673 H   0  0  0  0  0  0
  -29.3444  -25.0409   19.0007 H   0  0  0  0  0  0
  -28.8987  -15.7124   20.9549 H   0  0  0  0  0  0
  1 25  1  0  0  0
  1 30  2  0  0  0
  1 82  1  0  0  0
  2  3  1  0  0  0
  2 25  1  0  0  0
  2 85  1  0  0  0
  2 86  1  0  0  0
  3  4  1  0  0  0
  3 87  1  0  0  0
  3 88  1  0  0  0
  4  5  1  0  0  0
  4 89  1  0  0  0
  4 90  1  0  0  0
  5  6  1  0  0  0
  5 26  1  0  0  0
  5 91  1  0  0  0
  6 25  1  0  0  0
  6 92  1  0  0  0
  6 93  1  0  0  0
  7  8  2  0  0  0
  7 26  1  0  0  0
  7 29  1  0  0  0
  8  9  1  0  0  0
  8 22  1  0  0  0
  9 10  1  0  0  0
  9 27  2  0  0  0
 10 11  2  0  0  0
 10 15  1  0  0  0
 11 12  1  0  0  0
 11 94  1  0  0  0
 12 13  2  0  0  0
 12 95  1  0  0  0
 13 14  1  0  0  0
 13 31  1  0  0  0
 14 15  2  0  0  0
 14 96  1  0  0  0
 15 97  1  0  0  0
 16 17  2  0  0  0
 16 21  1  0  0  0
 16 31  1  0  0  0
 17 18  1  0  0  0
 17 98  1  0  0  0
 18 19  2  0  0  0
 18 99  1  0  0  0
 19 20  1  0  0  0
 19 24  1  0  0  0
 20 21  2  0  0  0
 20100  1  0  0  0
 21 23  1  0  0  0
 22 28  1  0  0  0
 22 32  2  0  0  0
 26 27  1  0  0  0
 28101  1  0  0  0
 28102  1  0  0  0
 29103  1  0  0  0
 29104  1  0  0  0
 33 34  1  0  0  0
 33 66  1  0  0  0
 33 70  2  0  0  0
 34 36  1  0  0  0
 34 59  1  0  0  0
 34105  1  0  0  0
 35 44  2  0  0  0
 35 45  1  0  0  0
 35 68  1  0  0  0
 36 56  1  0  0  0
 36106  1  0  0  0
 37 39  1  0  0  0
 37 47  1  0  0  0
 37 66  1  0  0  0
 37107  1  0  0  0
 38 43  2  0  0  0
 38 46  1  0  0  0
 38 47  1  0  0  0
 39 64  1  0  0  0
 39 67  2  0  0  0
 40 52  1  0  0  0
 40 53  2  0  0  0
 40 58  1  0  0  0
 41108  1  0  0  0
 41109  1  0  0  0
 41110  1  0  0  0
 41 48  1  0  0  0
 42 43  1  0  0  0
 42 66  1  0  0  0
 42111  1  0  0  0
 42112  1  0  0  0
 43 44  1  0  0  0
 44113  1  0  0  0
 45 46  2  0  0  0
 45114  1  0  0  0
 46115  1  0  0  0
 47116  1  0  0  0
 47117  1  0  0  0
 48 56  1  0  0  0
 48 65  1  0  0  0
 48118  1  0  0  0
 49 50  1  0  0  0
 49 53  1  0  0  0
 49 64  1  0  0  0
 49119  1  0  0  0
 50 51  1  0  0  0
 50120  1  0  0  0
 50121  1  0  0  0
 51 52  1  0  0  0
 51122  1  0  0  0
 51123  1  0  0  0
 52124  1  0  0  0
 52125  1  0  0  0
 53 54  1  0  0  0
 54 55  2  0  0  0
 54126  1  0  0  0
 55 57  1  0  0  0
 55127  1  0  0  0
 56 69  2  0  0  0
 57 58  2  0  0  0
 57128  1  0  0  0
 58129  1  0  0  0
 59 60  1  0  0  0
 59 61  1  0  0  0
 59 62  1  0  0  0
 60130  1  0  0  0
 60131  1  0  0  0
 60132  1  0  0  0
 61133  1  0  0  0
 61134  1  0  0  0
 61135  1  0  0  0
 62136  1  0  0  0
 62137  1  0  0  0
 62138  1  0  0  0
 63 65  1  0  0  0
 63139  1  0  0  0
 63140  1  0  0  0
 63141  1  0  0  0
 64142  1  0  0  0
 65143  1  0  0  0
 68 81  1  0  0  0
 71 72  2  0  0  0
 71 74  1  0  0  0
 71144  1  0  0  0
 72 75  1  0  0  0
 72145  1  0  0  0
 73 75  2  0  0  0
 73 76  1  0  0  0
 73 80  1  0  0  0
 74 76  2  0  0  0
 74 82  1  0  0  0
 75 83  1  0  0  0
 76 84  1  0  0  0
 77 78  2  0  0  0
 77 80  1  0  0  0
 77146  1  0  0  0
 78 79  1  0  0  0
 78 81  1  0  0  0
 79147  1  0  0  0
 79148  1  0  0  0
 79149  1  0  0  0
 80150  1  0  0  0
 80151  1  0  0  0
 81152  1  0  0  0
 81153  1  0  0  0
 82154  1  0  0  0
M  ISO  4   1 100  68 101  81 101  82 100
M  END
> <chiral flag>
0

> <version>
0

> <s_m_source_file>
/data/baiqing/PycharmProjects/Reinvent-master-3.2/result/LINK_invent/BTK/process_docking_weight1_custom_product_contain_oxygen_bond_distance_aromatic_linkinvent_7_9_3/rearranged_h_0008.sdf

> <i_m_source_file_index>
92

> <r_mmod_Potential_Energy-OPLS-2005>
129.886260986328

> <r_mmod_Stretch_Energy-OPLS-2005>
117.655570983887

> <r_mmod_Bend_Energy-OPLS-2005>
158.154510498047

> <r_mmod_Torsional_Energy-OPLS-2005>
216.069885253906

> <r_mmod_Improper_Torsional_Energy-OPLS-2005>
4.55175018310547

> <r_mmod_Van_der_Waal_Energy-OPLS-2005>
147.372207641602

> <r_mmod_Electrostatic_Energy-OPLS-2005>
-403.796752929688

> <r_mmod_Solvation_Energy-OPLS-2005>
-187.873886108398

> <b_mmod_Minimization_Converged-OPLS-2005>
0

> <r_mmod_RMS_Derivative-OPLS-2005>
2.76063871383667

$$$$
93
                    3D
 Structure written by MMmdl.
152160  0  0  1  0            999 V2000
  -30.4928  -14.9029   20.4779 C   0  0  0  0  0  0
  -30.4537  -12.5639   19.5030 C   0  0  0  0  0  0
  -29.5344  -12.5521   18.2568 C   0  0  0  0  0  0
  -28.0594  -12.3372   18.6564 C   0  0  0  0  0  0
  -27.6415  -13.2355   19.8511 C   0  0  2  0  0  0
  -28.6775  -13.1870   20.9952 C   0  0  0  0  0  0
  -25.2510  -13.8191   20.5658 C   0  0  0  0  0  0
  -24.1801  -13.0437   20.9173 C   0  0  0  0  0  0
  -24.6403  -11.6917   20.8717 C   0  0  0  0  0  0
  -23.9085  -10.4292   21.0388 C   0  0  0  0  0  0
  -24.3645   -9.4205   21.9158 C   0  0  0  0  0  0
  -23.6314   -8.2240   22.0745 C   0  0  0  0  0  0
  -22.4291   -8.0281   21.3538 C   0  0  0  0  0  0
  -21.9922   -9.0252   20.4639 C   0  0  0  0  0  0
  -22.7264  -10.2124   20.3034 C   0  0  0  0  0  0
  -21.6862   -6.0736   22.5274 C   0  0  0  0  0  0
  -21.4023   -6.5640   23.8208 C   0  0  0  0  0  0
  -21.3654   -5.6796   24.9176 C   0  0  0  0  0  0
  -21.6041   -4.3059   24.7222 C   0  0  0  0  0  0
  -21.8819   -3.8143   23.4347 C   0  0  0  0  0  0
  -21.9206   -4.6965   22.3406 C   0  0  0  0  0  0
  -22.7833  -13.5214   21.1846 C   0  0  0  0  0  0
  -22.1662   -4.2153   21.0978 F   0  0  0  0  0  0
  -21.5639   -3.4535   25.7726 F   0  0  0  0  0  0
  -29.9633  -13.6177   20.4311 N   0  0  0  0  0  0
  -26.2935  -12.9401   20.3228 N   0  0  0  0  0  0
  -25.9331  -11.6544   20.5691 N   0  0  0  0  0  0
  -22.0499  -12.8209   22.0412 N   0  0  0  0  0  0
  -25.4198  -15.1917   20.4081 N   0  0  0  0  0  0
  -31.6616  -15.0638   20.1091 O   0  0  0  0  0  0
  -21.6659   -6.8875   21.4233 O   0  0  0  0  0  0
  -22.3516  -14.5532   20.6724 O   0  0  0  0  0  0
  -24.6432  -31.8482   23.1926 C   0  0  0  0  0  0
  -25.9207  -32.4727   23.8316 C   0  0  1  0  0  0
  -27.1977  -27.1442   20.1579 C   0  0  0  0  0  0
  -25.5947  -33.8530   24.2259 N   0  0  0  0  0  0
  -23.4458  -30.4720   21.5365 C   0  0  2  0  0  0
  -24.8890  -28.9020   20.1137 C   0  0  0  0  0  0
  -22.7580  -29.4588   22.4846 C   0  0  0  0  0  0
  -18.0308  -28.1425   22.8492 C   0  0  0  0  0  0
  -24.1468  -36.7274   23.2641 C   0  0  0  0  0  0
  -26.0004  -30.7219   21.3901 C   0  0  0  0  0  0
  -26.0657  -29.3332   20.7384 C   0  0  0  0  0  0
  -27.2226  -28.4699   20.7466 C   0  0  0  0  0  0
  -25.9975  -26.8190   19.4859 C   0  0  0  0  0  0
  -24.8655  -27.6576   19.4724 C   0  0  0  0  0  0
  -23.6701  -29.8052   20.1551 C   0  0  0  0  0  0
  -25.4098  -36.3087   24.0341 C   0  0  1  0  0  0
  -20.5930  -28.3768   23.1227 C   0  0  2  0  0  0
  -20.6802  -26.9462   22.5420 C   0  0  0  0  0  0
  -19.5765  -26.6402   21.5248 C   0  0  0  0  0  0
  -18.1941  -26.7958   22.1649 C   0  0  0  0  0  0
  -19.1568  -28.8912   23.2861 C   0  0  0  0  0  0
  -18.9481  -30.1505   23.8875 C   0  0  0  0  0  0
  -17.6475  -30.6614   24.0578 C   0  0  0  0  0  0
  -25.9063  -34.9439   23.5125 C   0  0  0  0  0  0
  -16.5367  -29.9106   23.6345 C   0  0  0  0  0  0
  -16.7293  -28.6540   23.0345 C   0  0  0  0  0  0
  -26.4517  -31.6565   25.0738 C   0  0  0  0  0  0
  -25.3701  -31.3743   26.1439 C   0  0  0  0  0  0
  -27.0381  -30.2961   24.6308 C   0  0  0  0  0  0
  -27.6054  -32.4317   25.7515 C   0  0  0  0  0  0
  -27.5594  -37.1786   24.8462 C   0  0  0  0  0  0
  -21.4278  -29.3088   22.3601 N   0  0  0  0  0  0
  -26.4273  -37.3796   23.9451 N   0  0  0  0  0  0
  -24.7166  -31.0354   22.0946 N   0  0  0  0  0  0
  -23.4213  -28.8117   23.2984 O   0  0  0  0  0  0
  -28.2424  -26.1556   20.2221 O   0  0  0  0  0  0
  -26.5664  -34.8921   22.4713 O   0  0  0  0  0  0
  -23.5557  -32.1345   23.7164 O   0  0  0  0  0  0
  -28.5259  -19.6054   21.7678 C   0  0  0  0  0  0
  -28.8305  -18.1943   21.8055 C   0  0  0  0  0  0
  -29.5992  -19.7985   19.6710 C   0  0  0  0  0  0
  -28.8783  -20.5006   20.7075 C   0  0  0  0  0  0
  -29.5387  -17.4804   20.7862 C   0  0  0  0  0  0
  -29.9166  -18.3625   19.7121 C   0  0  0  0  0  0
  -29.9469  -20.5859   18.4224 C   0  0  0  0  0  0
  -28.9157  -23.3063   20.3426 C   0  0  0  0  0  0
  -27.8992  -24.6455   20.3523 C   0  0  0  0  0  0
  -29.6307  -15.9564   20.8577 N   0  0  0  0  0  0
  -28.3755  -21.9020   20.7330 N   0  0  0  0  0  0
  -30.5329  -17.8039   18.6429 F   0  0  0  0  0  0
  -31.4894  -12.7387   19.2084 H   0  0  0  0  0  0
  -30.4460  -11.5915   19.9966 H   0  0  0  0  0  0
  -29.8561  -11.7778   17.5595 H   0  0  0  0  0  0
  -29.6289  -13.5024   17.7281 H   0  0  0  0  0  0
  -27.9371  -11.2872   18.9231 H   0  0  0  0  0  0
  -27.4060  -12.5165   17.8011 H   0  0  0  0  0  0
  -27.6260  -14.2555   19.4642 H   0  0  0  0  0  0
  -28.7531  -12.1809   21.4108 H   0  0  0  0  0  0
  -28.3747  -13.8290   21.8232 H   0  0  0  0  0  0
  -25.2790   -9.5711   22.4736 H   0  0  0  0  0  0
  -24.0036   -7.4647   22.7473 H   0  0  0  0  0  0
  -21.0848   -8.8783   19.8951 H   0  0  0  0  0  0
  -22.3718  -10.9671   19.6154 H   0  0  0  0  0  0
  -21.2000   -7.6146   23.9721 H   0  0  0  0  0  0
  -21.1482   -6.0517   25.9083 H   0  0  0  0  0  0
  -22.0603   -2.7607   23.2849 H   0  0  0  0  0  0
  -22.4133  -11.9878   22.4807 H   0  0  0  0  0  0
  -21.1105  -13.1205   22.2597 H   0  0  0  0  0  0
  -24.6497  -15.8428   20.5114 H   0  0  0  0  0  0
  -26.2645  -15.6328   20.0694 H   0  0  0  0  0  0
  -26.7263  -32.5351   23.1042 H   0  0  0  0  0  0
  -25.0037  -33.9619   25.0376 H   0  0  0  0  0  0
  -22.7505  -31.3002   21.3875 H   0  0  0  0  0  0
  -23.3768  -35.9565   23.3255 H   0  0  0  0  0  0
  -24.3586  -36.8954   22.2069 H   0  0  0  0  0  0
  -23.7134  -37.6425   23.6688 H   0  0  0  0  0  0
  -26.1510  -31.4643   20.6051 H   0  0  0  0  0  0
  -26.8759  -30.7766   22.0242 H   0  0  0  0  0  0
  -28.1144  -28.7908   21.2666 H   0  0  0  0  0  0
  -25.8916  -25.8812   18.9658 H   0  0  0  0  0  0
  -23.9656  -27.3325   18.9662 H   0  0  0  0  0  0
  -23.8080  -30.5787   19.3991 H   0  0  0  0  0  0
  -22.7836  -29.2471   19.8479 H   0  0  0  0  0  0
  -25.1255  -36.1933   25.0826 H   0  0  0  0  0  0
  -21.0041  -28.3355   24.1335 H   0  0  0  0  0  0
  -20.5737  -26.2369   23.3651 H   0  0  0  0  0  0
  -21.6655  -26.7478   22.1183 H   0  0  0  0  0  0
  -19.6924  -25.6315   21.1273 H   0  0  0  0  0  0
  -19.6681  -27.3220   20.6783 H   0  0  0  0  0  0
  -17.4225  -26.6736   21.4034 H   0  0  0  0  0  0
  -18.0306  -26.0092   22.9033 H   0  0  0  0  0  0
  -19.7946  -30.7362   24.2192 H   0  0  0  0  0  0
  -17.5014  -31.6262   24.5233 H   0  0  0  0  0  0
  -15.5372  -30.3011   23.7679 H   0  0  0  0  0  0
  -15.8688  -28.0882   22.7034 H   0  0  0  0  0  0
  -24.5859  -30.7124   25.7758 H   0  0  0  0  0  0
  -24.8900  -32.2913   26.4860 H   0  0  0  0  0  0
  -25.7952  -30.8900   27.0244 H   0  0  0  0  0  0
  -26.3006  -29.6679   24.1298 H   0  0  0  0  0  0
  -27.3990  -29.7248   25.4881 H   0  0  0  0  0  0
  -27.8911  -30.4219   23.9634 H   0  0  0  0  0  0
  -27.2660  -33.3628   26.2074 H   0  0  0  0  0  0
  -28.3853  -32.6879   25.0329 H   0  0  0  0  0  0
  -28.0740  -31.8464   26.5442 H   0  0  0  0  0  0
  -28.2566  -38.0138   24.7624 H   0  0  0  0  0  0
  -28.1138  -36.2683   24.6124 H   0  0  0  0  0  0
  -27.2354  -37.1236   25.8873 H   0  0  0  0  0  0
  -20.9509  -29.8772   21.6748 H   0  0  0  0  0  0
  -26.0159  -38.2867   24.1493 H   0  0  0  0  0  0
  -27.9611  -20.0012   22.6012 H   0  0  0  0  0  0
  -28.4739  -17.6371   22.6615 H   0  0  0  0  0  0
  -30.6692  -21.3690   18.6521 H   0  0  0  0  0  0
  -29.0435  -21.0578   18.0336 H   0  0  0  0  0  0
  -30.3549  -19.9587   17.6316 H   0  0  0  0  0  0
  -29.7392  -23.5104   21.0296 H   0  0  0  0  0  0
  -29.3772  -23.2406   19.3581 H   0  0  0  0  0  0
  -27.3352  -24.5789   21.2840 H   0  0  0  0  0  0
  -27.1791  -24.4111   19.5717 H   0  0  0  0  0  0
  -28.8049  -15.5594   21.2761 H   0  0  0  0  0  0
  -27.6148  -22.0094   21.4019 H   0  0  0  0  0  0
  1 25  1  0  0  0
  1 30  2  0  0  0
  1 80  1  0  0  0
  2  3  1  0  0  0
  2 25  1  0  0  0
  2 83  1  0  0  0
  2 84  1  0  0  0
  3  4  1  0  0  0
  3 85  1  0  0  0
  3 86  1  0  0  0
  4  5  1  0  0  0
  4 87  1  0  0  0
  4 88  1  0  0  0
  5  6  1  0  0  0
  5 26  1  0  0  0
  5 89  1  0  0  0
  6 25  1  0  0  0
  6 90  1  0  0  0
  6 91  1  0  0  0
  7  8  2  0  0  0
  7 26  1  0  0  0
  7 29  1  0  0  0
  8  9  1  0  0  0
  8 22  1  0  0  0
  9 10  1  0  0  0
  9 27  2  0  0  0
 10 11  2  0  0  0
 10 15  1  0  0  0
 11 12  1  0  0  0
 11 92  1  0  0  0
 12 13  2  0  0  0
 12 93  1  0  0  0
 13 14  1  0  0  0
 13 31  1  0  0  0
 14 15  2  0  0  0
 14 94  1  0  0  0
 15 95  1  0  0  0
 16 17  2  0  0  0
 16 21  1  0  0  0
 16 31  1  0  0  0
 17 18  1  0  0  0
 17 96  1  0  0  0
 18 19  2  0  0  0
 18 97  1  0  0  0
 19 20  1  0  0  0
 19 24  1  0  0  0
 20 21  2  0  0  0
 20 98  1  0  0  0
 21 23  1  0  0  0
 22 28  1  0  0  0
 22 32  2  0  0  0
 26 27  1  0  0  0
 28 99  1  0  0  0
 28100  1  0  0  0
 29101  1  0  0  0
 29102  1  0  0  0
 33 34  1  0  0  0
 33 66  1  0  0  0
 33 70  2  0  0  0
 34 36  1  0  0  0
 34 59  1  0  0  0
 34103  1  0  0  0
 35 44  2  0  0  0
 35 45  1  0  0  0
 35 68  1  0  0  0
 36 56  1  0  0  0
 36104  1  0  0  0
 37 39  1  0  0  0
 37 47  1  0  0  0
 37 66  1  0  0  0
 37105  1  0  0  0
 38 43  2  0  0  0
 38 46  1  0  0  0
 38 47  1  0  0  0
 39 64  1  0  0  0
 39 67  2  0  0  0
 40 52  1  0  0  0
 40 53  2  0  0  0
 40 58  1  0  0  0
 41106  1  0  0  0
 41107  1  0  0  0
 41108  1  0  0  0
 41 48  1  0  0  0
 42 43  1  0  0  0
 42 66  1  0  0  0
 42109  1  0  0  0
 42110  1  0  0  0
 43 44  1  0  0  0
 44111  1  0  0  0
 45 46  2  0  0  0
 45112  1  0  0  0
 46113  1  0  0  0
 47114  1  0  0  0
 47115  1  0  0  0
 48 56  1  0  0  0
 48 65  1  0  0  0
 48116  1  0  0  0
 49 50  1  0  0  0
 49 53  1  0  0  0
 49 64  1  0  0  0
 49117  1  0  0  0
 50 51  1  0  0  0
 50118  1  0  0  0
 50119  1  0  0  0
 51 52  1  0  0  0
 51120  1  0  0  0
 51121  1  0  0  0
 52122  1  0  0  0
 52123  1  0  0  0
 53 54  1  0  0  0
 54 55  2  0  0  0
 54124  1  0  0  0
 55 57  1  0  0  0
 55125  1  0  0  0
 56 69  2  0  0  0
 57 58  2  0  0  0
 57126  1  0  0  0
 58127  1  0  0  0
 59 60  1  0  0  0
 59 61  1  0  0  0
 59 62  1  0  0  0
 60128  1  0  0  0
 60129  1  0  0  0
 60130  1  0  0  0
 61131  1  0  0  0
 61132  1  0  0  0
 61133  1  0  0  0
 62134  1  0  0  0
 62135  1  0  0  0
 62136  1  0  0  0
 63 65  1  0  0  0
 63137  1  0  0  0
 63138  1  0  0  0
 63139  1  0  0  0
 64140  1  0  0  0
 65141  1  0  0  0
 68 79  1  0  0  0
 71 72  2  0  0  0
 71 74  1  0  0  0
 71142  1  0  0  0
 72 75  1  0  0  0
 72143  1  0  0  0
 73 74  2  0  0  0
 73 76  1  0  0  0
 73 77  1  0  0  0
 74 81  1  0  0  0
 75 76  2  0  0  0
 75 80  1  0  0  0
 76 82  1  0  0  0
 77144  1  0  0  0
 77145  1  0  0  0
 77146  1  0  0  0
 78 79  1  0  0  0
 78 81  1  0  0  0
 78147  1  0  0  0
 78148  1  0  0  0
 79149  1  0  0  0
 79150  1  0  0  0
 80151  1  0  0  0
 81152  1  0  0  0
M  ISO  4   1 100  68 101  79 101  80 100
M  END
> <chiral flag>
0

> <version>
0

> <s_m_source_file>
/data/baiqing/PycharmProjects/Reinvent-master-3.2/result/LINK_invent/BTK/process_docking_weight1_custom_product_contain_oxygen_bond_distance_aromatic_linkinvent_7_9_3/rearranged_h_0008.sdf

> <i_m_source_file_index>
93

> <r_mmod_Potential_Energy-OPLS-2005>
399.987670898438

> <r_mmod_Stretch_Energy-OPLS-2005>
209.54328918457

> <r_mmod_Bend_Energy-OPLS-2005>
269.454132080078

> <r_mmod_Torsional_Energy-OPLS-2005>
230.433059692383

> <r_mmod_Improper_Torsional_Energy-OPLS-2005>
5.5460410118103

> <r_mmod_Van_der_Waal_Energy-OPLS-2005>
134.839538574219

> <r_mmod_Electrostatic_Energy-OPLS-2005>
-400.715972900391

> <r_mmod_Solvation_Energy-OPLS-2005>
-225.313018798828

> <b_mmod_Minimization_Converged-OPLS-2005>
0

> <r_mmod_RMS_Derivative-OPLS-2005>
3.20424365997314

$$$$
94
                    3D
 Structure written by MMmdl.
148156  0  0  1  0            999 V2000
  -30.5182  -14.9243   20.4273 C   0  0  0  0  0  0
  -30.4485  -12.5676   19.5002 C   0  0  0  0  0  0
  -29.5256  -12.5341   18.2581 C   0  0  0  0  0  0
  -28.0559  -12.3244   18.6711 C   0  0  0  0  0  0
  -27.6374  -13.2425   19.8489 C   0  0  2  0  0  0
  -28.6796  -13.2319   20.9887 C   0  0  0  0  0  0
  -25.2490  -13.8205   20.5707 C   0  0  0  0  0  0
  -24.1793  -13.0436   20.9212 C   0  0  0  0  0  0
  -24.6401  -11.6919   20.8745 C   0  0  0  0  0  0
  -23.9080  -10.4292   21.0404 C   0  0  0  0  0  0
  -24.3627   -9.4208   21.9183 C   0  0  0  0  0  0
  -23.6298   -8.2244   22.0754 C   0  0  0  0  0  0
  -22.4280   -8.0283   21.3545 C   0  0  0  0  0  0
  -21.9918   -9.0257   20.4646 C   0  0  0  0  0  0
  -22.7251  -10.2134   20.3054 C   0  0  0  0  0  0
  -21.6855   -6.0737   22.5279 C   0  0  0  0  0  0
  -21.4015   -6.5641   23.8213 C   0  0  0  0  0  0
  -21.3660   -5.6793   24.9174 C   0  0  0  0  0  0
  -21.6044   -4.3056   24.7225 C   0  0  0  0  0  0
  -21.8819   -3.8148   23.4346 C   0  0  0  0  0  0
  -21.9193   -4.6965   22.3402 C   0  0  0  0  0  0
  -22.7813  -13.5212   21.1871 C   0  0  0  0  0  0
  -22.1662   -4.2151   21.0980 F   0  0  0  0  0  0
  -21.5628   -3.4539   25.7737 F   0  0  0  0  0  0
  -29.9639  -13.6466   20.4064 N   0  0  0  0  0  0
  -26.2921  -12.9428   20.3276 N   0  0  0  0  0  0
  -25.9336  -11.6561   20.5746 N   0  0  0  0  0  0
  -22.0465  -12.8199   22.0428 N   0  0  0  0  0  0
  -25.4163  -15.1932   20.4141 N   0  0  0  0  0  0
  -31.6994  -15.0452   20.0829 O   0  0  0  0  0  0
  -21.6642   -6.8881   21.4242 O   0  0  0  0  0  0
  -22.3492  -14.5516   20.6719 O   0  0  0  0  0  0
  -24.6426  -31.8438   23.1879 C   0  0  0  0  0  0
  -25.9201  -32.4692   23.8268 C   0  0  1  0  0  0
  -27.2223  -27.1392   20.1425 C   0  0  0  0  0  0
  -25.5951  -33.8498   24.2185 N   0  0  0  0  0  0
  -23.4460  -30.4626   21.5332 C   0  0  2  0  0  0
  -24.8954  -28.8895   20.1072 C   0  0  0  0  0  0
  -22.7563  -29.4543   22.4859 C   0  0  0  0  0  0
  -18.0303  -28.1395   22.8479 C   0  0  0  0  0  0
  -24.1491  -36.7253   23.2642 C   0  0  0  0  0  0
  -26.0011  -30.7171   21.3868 C   0  0  0  0  0  0
  -26.0706  -29.3288   20.7274 C   0  0  0  0  0  0
  -27.2298  -28.4677   20.7317 C   0  0  0  0  0  0
  -26.0182  -26.7996   19.4846 C   0  0  0  0  0  0
  -24.8819  -27.6384   19.4725 C   0  0  0  0  0  0
  -23.6715  -29.7909   20.1521 C   0  0  0  0  0  0
  -25.4124  -36.3031   24.0316 C   0  0  1  0  0  0
  -20.5915  -28.3719   23.1238 C   0  0  2  0  0  0
  -20.6787  -26.9424   22.5404 C   0  0  0  0  0  0
  -19.5760  -26.6382   21.5213 C   0  0  0  0  0  0
  -18.1942  -26.7933   22.1627 C   0  0  0  0  0  0
  -19.1560  -28.8876   23.2850 C   0  0  0  0  0  0
  -18.9477  -30.1473   23.8875 C   0  0  0  0  0  0
  -17.6473  -30.6592   24.0559 C   0  0  0  0  0  0
  -25.9074  -34.9406   23.5060 C   0  0  0  0  0  0
  -16.5364  -29.9085   23.6336 C   0  0  0  0  0  0
  -16.7288  -28.6504   23.0358 C   0  0  0  0  0  0
  -26.4524  -31.6563   25.0712 C   0  0  0  0  0  0
  -25.3709  -31.3759   26.1410 C   0  0  0  0  0  0
  -27.0387  -30.2957   24.6298 C   0  0  0  0  0  0
  -27.6056  -32.4328   25.7496 C   0  0  0  0  0  0
  -27.5575  -37.1784   24.8466 C   0  0  0  0  0  0
  -21.4256  -29.3044   22.3609 N   0  0  0  0  0  0
  -26.4287  -37.3744   23.9408 N   0  0  0  0  0  0
  -24.7163  -31.0294   22.0911 N   0  0  0  0  0  0
  -23.4208  -28.8095   23.3011 O   0  0  0  0  0  0
  -28.2978  -26.1831   20.2513 O   0  0  0  0  0  0
  -26.5662  -34.8905   22.4640 O   0  0  0  0  0  0
  -23.5547  -32.1315   23.7102 O   0  0  0  0  0  0
  -30.4933  -18.3565   19.6582 C   0  0  0  0  0  0
  -28.5603  -19.8249   21.0345 C   0  0  0  0  0  0
  -29.6793  -17.5586   20.5240 C   0  0  0  0  0  0
  -29.3532  -20.6200   20.1431 C   0  0  0  0  0  0
  -30.3291  -19.7915   19.4747 C   0  0  0  0  0  0
  -28.7081  -18.3830   21.2002 C   0  0  0  0  0  0
  -28.3216  -24.7180   19.7170 C   0  0  0  0  0  0
  -28.5917  -23.2487   20.5102 C   0  0  0  0  0  0
  -29.6856  -16.0342   20.7086 N   0  0  0  0  0  0
  -29.2413  -22.0463   19.8039 O   0  0  0  0  0  0
  -31.1555  -20.3988   18.5893 F   0  0  0  0  0  0
  -27.8534  -17.7570   22.0444 F   0  0  0  0  0  0
  -31.4823  -12.7307   19.1917 H   0  0  0  0  0  0
  -30.4409  -11.6048   20.0137 H   0  0  0  0  0  0
  -29.8390  -11.7442   17.5741 H   0  0  0  0  0  0
  -29.6201  -13.4712   17.7072 H   0  0  0  0  0  0
  -27.9426  -11.2795   18.9621 H   0  0  0  0  0  0
  -27.3951  -12.4757   17.8167 H   0  0  0  0  0  0
  -27.6122  -14.2531   19.4405 H   0  0  0  0  0  0
  -28.7569  -12.2410   21.4389 H   0  0  0  0  0  0
  -28.3804  -13.9079   21.7911 H   0  0  0  0  0  0
  -25.2771   -9.5683   22.4760 H   0  0  0  0  0  0
  -24.0005   -7.4636   22.7475 H   0  0  0  0  0  0
  -21.0849   -8.8779   19.8952 H   0  0  0  0  0  0
  -22.3710  -10.9674   19.6164 H   0  0  0  0  0  0
  -21.2008   -7.6149   23.9716 H   0  0  0  0  0  0
  -21.1482   -6.0524   25.9077 H   0  0  0  0  0  0
  -22.0598   -2.7610   23.2846 H   0  0  0  0  0  0
  -22.4089  -11.9862   22.4814 H   0  0  0  0  0  0
  -21.1081  -13.1217   22.2636 H   0  0  0  0  0  0
  -24.6501  -15.8455   20.5392 H   0  0  0  0  0  0
  -26.2653  -15.6402   20.0942 H   0  0  0  0  0  0
  -26.7265  -32.5294   23.0994 H   0  0  0  0  0  0
  -25.0075  -33.9613   25.0317 H   0  0  0  0  0  0
  -22.7485  -31.2885   21.3788 H   0  0  0  0  0  0
  -23.3759  -35.9579   23.3293 H   0  0  0  0  0  0
  -24.3576  -36.8897   22.2059 H   0  0  0  0  0  0
  -23.7241  -37.6444   23.6687 H   0  0  0  0  0  0
  -26.1577  -31.4720   20.6150 H   0  0  0  0  0  0
  -26.8713  -30.7661   22.0297 H   0  0  0  0  0  0
  -28.1234  -28.7980   21.2425 H   0  0  0  0  0  0
  -25.8999  -25.8458   18.9982 H   0  0  0  0  0  0
  -23.9827  -27.2959   18.9789 H   0  0  0  0  0  0
  -23.8066  -30.5651   19.3960 H   0  0  0  0  0  0
  -22.7864  -29.2321   19.8428 H   0  0  0  0  0  0
  -25.1313  -36.1857   25.0808 H   0  0  0  0  0  0
  -21.0008  -28.3309   24.1359 H   0  0  0  0  0  0
  -20.5681  -26.2334   23.3622 H   0  0  0  0  0  0
  -21.6653  -26.7430   22.1201 H   0  0  0  0  0  0
  -19.6921  -25.6287   21.1255 H   0  0  0  0  0  0
  -19.6695  -27.3181   20.6733 H   0  0  0  0  0  0
  -17.4209  -26.6674   21.4033 H   0  0  0  0  0  0
  -18.0346  -26.0082   22.9031 H   0  0  0  0  0  0
  -19.7952  -30.7296   24.2233 H   0  0  0  0  0  0
  -17.5026  -31.6270   24.5165 H   0  0  0  0  0  0
  -15.5363  -30.2980   23.7673 H   0  0  0  0  0  0
  -15.8688  -28.0814   22.7087 H   0  0  0  0  0  0
  -24.5887  -30.7108   25.7731 H   0  0  0  0  0  0
  -24.8900  -32.2944   26.4783 H   0  0  0  0  0  0
  -25.7990  -30.8963   27.0221 H   0  0  0  0  0  0
  -26.3003  -29.6678   24.1300 H   0  0  0  0  0  0
  -27.3989  -29.7261   25.4875 H   0  0  0  0  0  0
  -27.8917  -30.4189   23.9622 H   0  0  0  0  0  0
  -27.2656  -33.3659   26.2001 H   0  0  0  0  0  0
  -28.3906  -32.6836   25.0349 H   0  0  0  0  0  0
  -28.0678  -31.8497   26.5471 H   0  0  0  0  0  0
  -28.2586  -38.0086   24.7511 H   0  0  0  0  0  0
  -28.1077  -36.2615   24.6296 H   0  0  0  0  0  0
  -27.2290  -37.1434   25.8869 H   0  0  0  0  0  0
  -20.9466  -29.8753   21.6784 H   0  0  0  0  0  0
  -26.0152  -38.2812   24.1410 H   0  0  0  0  0  0
  -31.2573  -17.8619   19.0776 H   0  0  0  0  0  0
  -27.7775  -20.3151   21.5926 H   0  0  0  0  0  0
  -27.4790  -24.5474   19.0542 H   0  0  0  0  0  0
  -29.1561  -24.7744   19.0182 H   0  0  0  0  0  0
  -27.6494  -22.9152   20.9451 H   0  0  0  0  0  0
  -29.2379  -23.4612   21.3619 H   0  0  0  0  0  0
  -28.8179  -15.7174   21.1150 H   0  0  0  0  0  0
  1 25  1  0  0  0
  1 30  2  0  0  0
  1 79  1  0  0  0
  2  3  1  0  0  0
  2 25  1  0  0  0
  2 83  1  0  0  0
  2 84  1  0  0  0
  3  4  1  0  0  0
  3 85  1  0  0  0
  3 86  1  0  0  0
  4  5  1  0  0  0
  4 87  1  0  0  0
  4 88  1  0  0  0
  5  6  1  0  0  0
  5 26  1  0  0  0
  5 89  1  0  0  0
  6 25  1  0  0  0
  6 90  1  0  0  0
  6 91  1  0  0  0
  7  8  2  0  0  0
  7 26  1  0  0  0
  7 29  1  0  0  0
  8  9  1  0  0  0
  8 22  1  0  0  0
  9 10  1  0  0  0
  9 27  2  0  0  0
 10 11  2  0  0  0
 10 15  1  0  0  0
 11 12  1  0  0  0
 11 92  1  0  0  0
 12 13  2  0  0  0
 12 93  1  0  0  0
 13 14  1  0  0  0
 13 31  1  0  0  0
 14 15  2  0  0  0
 14 94  1  0  0  0
 15 95  1  0  0  0
 16 17  2  0  0  0
 16 21  1  0  0  0
 16 31  1  0  0  0
 17 18  1  0  0  0
 17 96  1  0  0  0
 18 19  2  0  0  0
 18 97  1  0  0  0
 19 20  1  0  0  0
 19 24  1  0  0  0
 20 21  2  0  0  0
 20 98  1  0  0  0
 21 23  1  0  0  0
 22 28  1  0  0  0
 22 32  2  0  0  0
 26 27  1  0  0  0
 28 99  1  0  0  0
 28100  1  0  0  0
 29101  1  0  0  0
 29102  1  0  0  0
 33 34  1  0  0  0
 33 66  1  0  0  0
 33 70  2  0  0  0
 34 36  1  0  0  0
 34 59  1  0  0  0
 34103  1  0  0  0
 35 44  2  0  0  0
 35 45  1  0  0  0
 35 68  1  0  0  0
 36 56  1  0  0  0
 36104  1  0  0  0
 37 39  1  0  0  0
 37 47  1  0  0  0
 37 66  1  0  0  0
 37105  1  0  0  0
 38 43  2  0  0  0
 38 46  1  0  0  0
 38 47  1  0  0  0
 39 64  1  0  0  0
 39 67  2  0  0  0
 40 52  1  0  0  0
 40 53  2  0  0  0
 40 58  1  0  0  0
 41106  1  0  0  0
 41107  1  0  0  0
 41108  1  0  0  0
 41 48  1  0  0  0
 42 43  1  0  0  0
 42 66  1  0  0  0
 42109  1  0  0  0
 42110  1  0  0  0
 43 44  1  0  0  0
 44111  1  0  0  0
 45 46  2  0  0  0
 45112  1  0  0  0
 46113  1  0  0  0
 47114  1  0  0  0
 47115  1  0  0  0
 48 56  1  0  0  0
 48 65  1  0  0  0
 48116  1  0  0  0
 49 50  1  0  0  0
 49 53  1  0  0  0
 49 64  1  0  0  0
 49117  1  0  0  0
 50 51  1  0  0  0
 50118  1  0  0  0
 50119  1  0  0  0
 51 52  1  0  0  0
 51120  1  0  0  0
 51121  1  0  0  0
 52122  1  0  0  0
 52123  1  0  0  0
 53 54  1  0  0  0
 54 55  2  0  0  0
 54124  1  0  0  0
 55 57  1  0  0  0
 55125  1  0  0  0
 56 69  2  0  0  0
 57 58  2  0  0  0
 57126  1  0  0  0
 58127  1  0  0  0
 59 60  1  0  0  0
 59 61  1  0  0  0
 59 62  1  0  0  0
 60128  1  0  0  0
 60129  1  0  0  0
 60130  1  0  0  0
 61131  1  0  0  0
 61132  1  0  0  0
 61133  1  0  0  0
 62134  1  0  0  0
 62135  1  0  0  0
 62136  1  0  0  0
 63 65  1  0  0  0
 63137  1  0  0  0
 63138  1  0  0  0
 63139  1  0  0  0
 64140  1  0  0  0
 65141  1  0  0  0
 68 77  1  0  0  0
 71 73  2  0  0  0
 71 75  1  0  0  0
 71142  1  0  0  0
 72 74  1  0  0  0
 72 76  2  0  0  0
 72143  1  0  0  0
 73 76  1  0  0  0
 73 79  1  0  0  0
 74 75  2  0  0  0
 74 80  1  0  0  0
 75 81  1  0  0  0
 76 82  1  0  0  0
 77 78  1  0  0  0
 77144  1  0  0  0
 77145  1  0  0  0
 78 80  1  0  0  0
 78146  1  0  0  0
 78147  1  0  0  0
 79148  1  0  0  0
M  ISO  4   1 100  68 101  77 101  79 100
M  END
> <chiral flag>
0

> <version>
0

> <s_m_source_file>
/data/baiqing/PycharmProjects/Reinvent-master-3.2/result/LINK_invent/BTK/process_docking_weight1_custom_product_contain_oxygen_bond_distance_aromatic_linkinvent_7_9_3/rearranged_h_0008.sdf

> <i_m_source_file_index>
94

> <r_mmod_Potential_Energy-OPLS-2005>
455.152130126953

> <r_mmod_Stretch_Energy-OPLS-2005>
227.920120239258

> <r_mmod_Bend_Energy-OPLS-2005>
295.857421875

> <r_mmod_Torsional_Energy-OPLS-2005>
212.856811523438

> <r_mmod_Improper_Torsional_Energy-OPLS-2005>
3.46052241325378

> <r_mmod_Van_der_Waal_Energy-OPLS-2005>
130.192138671875

> <r_mmod_Electrostatic_Energy-OPLS-2005>
-386.322631835938

> <r_mmod_Solvation_Energy-OPLS-2005>
-209.379211425781

> <b_mmod_Minimization_Converged-OPLS-2005>
0

> <r_mmod_RMS_Derivative-OPLS-2005>
0.111098766326904

$$$$
95
                    3D
 Structure written by MMmdl.
156165  0  0  1  0            999 V2000
  -30.5511  -14.7815   20.4577 C   0  0  0  0  0  0
  -30.4505  -12.4783   19.4668 C   0  0  0  0  0  0
  -29.5163  -12.5192   18.2345 C   0  0  0  0  0  0
  -28.0419  -12.3321   18.6482 C   0  0  0  0  0  0
  -27.6446  -13.2250   19.8528 C   0  0  2  0  0  0
  -28.6916  -13.1379   20.9853 C   0  0  0  0  0  0
  -25.2528  -13.8183   20.5685 C   0  0  0  0  0  0
  -24.1819  -13.0431   20.9206 C   0  0  0  0  0  0
  -24.6403  -11.6909   20.8745 C   0  0  0  0  0  0
  -23.9076  -10.4290   21.0409 C   0  0  0  0  0  0
  -24.3624   -9.4205   21.9186 C   0  0  0  0  0  0
  -23.6294   -8.2243   22.0754 C   0  0  0  0  0  0
  -22.4275   -8.0284   21.3545 C   0  0  0  0  0  0
  -21.9914   -9.0260   20.4648 C   0  0  0  0  0  0
  -22.7248  -10.2137   20.3057 C   0  0  0  0  0  0
  -21.6854   -6.0738   22.5281 C   0  0  0  0  0  0
  -21.4016   -6.5642   23.8214 C   0  0  0  0  0  0
  -21.3657   -5.6792   24.9175 C   0  0  0  0  0  0
  -21.6044   -4.3054   24.7225 C   0  0  0  0  0  0
  -21.8818   -3.8148   23.4345 C   0  0  0  0  0  0
  -21.9191   -4.6965   22.3402 C   0  0  0  0  0  0
  -22.7839  -13.5217   21.1865 C   0  0  0  0  0  0
  -22.1658   -4.2151   21.0978 F   0  0  0  0  0  0
  -21.5632   -3.4540   25.7739 F   0  0  0  0  0  0
  -29.9899  -13.5218   20.4104 N   0  0  0  0  0  0
  -26.2952  -12.9373   20.3276 N   0  0  0  0  0  0
  -25.9330  -11.6522   20.5741 N   0  0  0  0  0  0
  -22.0487  -12.8209   22.0426 N   0  0  0  0  0  0
  -25.4172  -15.1914   20.4101 N   0  0  0  0  0  0
  -31.7367  -14.9435   20.1502 O   0  0  0  0  0  0
  -21.6637   -6.8883   21.4243 O   0  0  0  0  0  0
  -22.3516  -14.5517   20.6710 O   0  0  0  0  0  0
  -24.6345  -31.8516   23.1946 C   0  0  0  0  0  0
  -25.9154  -32.4737   23.8304 C   0  0  1  0  0  0
  -27.2251  -27.2375   20.1366 C   0  0  0  0  0  0
  -25.5934  -33.8540   24.2224 N   0  0  0  0  0  0
  -23.4324  -30.4723   21.5388 C   0  0  2  0  0  0
  -24.8799  -28.9098   20.1139 C   0  0  0  0  0  0
  -22.7514  -29.4584   22.4902 C   0  0  0  0  0  0
  -18.0295  -28.1392   22.8488 C   0  0  0  0  0  0
  -24.1490  -36.7275   23.2642 C   0  0  0  0  0  0
  -25.9796  -30.7592   21.3756 C   0  0  0  0  0  0
  -26.0533  -29.3788   20.7179 C   0  0  0  0  0  0
  -27.2301  -28.5587   20.7079 C   0  0  0  0  0  0
  -26.0237  -26.8329   19.5181 C   0  0  0  0  0  0
  -24.8715  -27.6461   19.5018 C   0  0  0  0  0  0
  -23.6520  -29.8007   20.1574 C   0  0  0  0  0  0
  -25.4121  -36.3057   24.0318 C   0  0  1  0  0  0
  -20.5901  -28.3704   23.1267 C   0  0  2  0  0  0
  -20.6781  -26.9419   22.5411 C   0  0  0  0  0  0
  -19.5752  -26.6385   21.5219 C   0  0  0  0  0  0
  -18.1933  -26.7933   22.1630 C   0  0  0  0  0  0
  -19.1550  -28.8867   23.2869 C   0  0  0  0  0  0
  -18.9467  -30.1470   23.8884 C   0  0  0  0  0  0
  -17.6464  -30.6589   24.0568 C   0  0  0  0  0  0
  -25.9062  -34.9432   23.5076 C   0  0  0  0  0  0
  -16.5357  -29.9084   23.6338 C   0  0  0  0  0  0
  -16.7282  -28.6507   23.0354 C   0  0  0  0  0  0
  -26.4508  -31.6580   25.0715 C   0  0  0  0  0  0
  -25.3719  -31.3738   26.1429 C   0  0  0  0  0  0
  -27.0366  -30.2995   24.6230 C   0  0  0  0  0  0
  -27.6052  -32.4335   25.7493 C   0  0  0  0  0  0
  -27.5577  -37.1792   24.8463 C   0  0  0  0  0  0
  -21.4218  -29.3043   22.3649 N   0  0  0  0  0  0
  -26.4290  -37.3762   23.9407 N   0  0  0  0  0  0
  -24.7013  -31.0461   22.0929 N   0  0  0  0  0  0
  -23.4202  -28.8135   23.3019 O   0  0  0  0  0  0
  -28.3358  -26.3549   20.1617 O   0  0  0  0  0  0
  -26.5640  -34.8917   22.4651 O   0  0  0  0  0  0
  -23.5489  -32.1345   23.7234 O   0  0  0  0  0  0
  -30.4293  -19.6848   20.8614 C   0  0  0  0  0  0
  -30.6303  -18.2545   20.9406 C   0  0  0  0  0  0
  -28.3161  -19.3494   19.8283 C   0  0  0  0  0  0
  -29.2640  -20.3073   20.3023 C   0  0  0  0  0  0
  -29.6592  -17.3144   20.4827 C   0  0  0  0  0  0
  -28.4957  -17.9263   19.9315 C   0  0  0  0  0  0
  -28.1045  -23.9183   19.0930 C   0  0  0  0  0  0
  -29.3708  -24.1905   21.1350 C   0  0  0  0  0  0
  -27.9898  -22.3540   19.3856 C   0  0  0  0  0  0
  -29.2961  -22.6203   21.4019 C   0  0  0  0  0  0
  -28.1808  -24.8539   20.3524 C   0  0  0  0  0  0
  -29.0769  -21.7646   20.2096 N   0  0  0  0  0  0
  -29.6664  -15.8321   20.6648 N   0  0  0  0  0  0
  -27.5012  -17.1130   19.4965 F   0  0  0  0  0  0
  -31.4858  -12.6375   19.1601 H   0  0  0  0  0  0
  -30.4233  -11.4963   19.9418 H   0  0  0  0  0  0
  -29.8030  -11.7503   17.5159 H   0  0  0  0  0  0
  -29.6307  -13.4748   17.7202 H   0  0  0  0  0  0
  -27.9029  -11.2818   18.9067 H   0  0  0  0  0  0
  -27.3834  -12.5255   17.8006 H   0  0  0  0  0  0
  -27.6387  -14.2484   19.4781 H   0  0  0  0  0  0
  -28.7376  -12.1270   21.3932 H   0  0  0  0  0  0
  -28.4199  -13.7862   21.8199 H   0  0  0  0  0  0
  -25.2771   -9.5679   22.4759 H   0  0  0  0  0  0
  -24.0005   -7.4632   22.7471 H   0  0  0  0  0  0
  -21.0848   -8.8785   19.8948 H   0  0  0  0  0  0
  -22.3713  -10.9680   19.6166 H   0  0  0  0  0  0
  -21.2009   -7.6150   23.9720 H   0  0  0  0  0  0
  -21.1479   -6.0522   25.9079 H   0  0  0  0  0  0
  -22.0597   -2.7610   23.2847 H   0  0  0  0  0  0
  -22.4113  -11.9871   22.4806 H   0  0  0  0  0  0
  -21.1103  -13.1229   22.2634 H   0  0  0  0  0  0
  -24.6365  -15.8292   20.5141 H   0  0  0  0  0  0
  -26.2432  -15.6503   20.0413 H   0  0  0  0  0  0
  -26.7223  -32.5378   23.1045 H   0  0  0  0  0  0
  -25.0073  -33.9669   25.0364 H   0  0  0  0  0  0
  -22.7307  -31.2955   21.3887 H   0  0  0  0  0  0
  -23.3757  -35.9601   23.3298 H   0  0  0  0  0  0
  -24.3575  -36.8911   22.2056 H   0  0  0  0  0  0
  -23.7238  -37.6469   23.6682 H   0  0  0  0  0  0
  -26.1209  -31.5194   20.6061 H   0  0  0  0  0  0
  -26.8556  -30.8085   22.0110 H   0  0  0  0  0  0
  -28.1331  -28.9178   21.1817 H   0  0  0  0  0  0
  -25.9559  -25.8636   19.0508 H   0  0  0  0  0  0
  -23.9720  -27.2789   19.0267 H   0  0  0  0  0  0
  -23.7785  -30.5741   19.3985 H   0  0  0  0  0  0
  -22.7699  -29.2342   19.8539 H   0  0  0  0  0  0
  -25.1306  -36.1895   25.0808 H   0  0  0  0  0  0
  -20.9994  -28.3289   24.1388 H   0  0  0  0  0  0
  -20.5687  -26.2314   23.3617 H   0  0  0  0  0  0
  -21.6647  -26.7438   22.1203 H   0  0  0  0  0  0
  -19.6912  -25.6294   21.1251 H   0  0  0  0  0  0
  -19.6690  -27.3196   20.6749 H   0  0  0  0  0  0
  -17.4202  -26.6692   21.4030 H   0  0  0  0  0  0
  -18.0325  -26.0075   22.9026 H   0  0  0  0  0  0
  -19.7942  -30.7296   24.2240 H   0  0  0  0  0  0
  -17.5015  -31.6267   24.5174 H   0  0  0  0  0  0
  -15.5356  -30.2981   23.7665 H   0  0  0  0  0  0
  -15.8686  -28.0823   22.7066 H   0  0  0  0  0  0
  -24.5896  -30.7089   25.7748 H   0  0  0  0  0  0
  -24.8912  -32.2912   26.4837 H   0  0  0  0  0  0
  -25.8021  -30.8919   27.0218 H   0  0  0  0  0  0
  -26.2962  -29.6729   24.1244 H   0  0  0  0  0  0
  -27.4024  -29.7272   25.4765 H   0  0  0  0  0  0
  -27.8847  -30.4260   23.9497 H   0  0  0  0  0  0
  -27.2650  -33.3644   26.2041 H   0  0  0  0  0  0
  -28.3874  -32.6881   25.0329 H   0  0  0  0  0  0
  -28.0711  -31.8483   26.5431 H   0  0  0  0  0  0
  -28.2587  -38.0097   24.7519 H   0  0  0  0  0  0
  -28.1081  -36.2627   24.6282 H   0  0  0  0  0  0
  -27.2294  -37.1432   25.8865 H   0  0  0  0  0  0
  -20.9408  -29.8752   21.6840 H   0  0  0  0  0  0
  -26.0163  -38.2829   24.1423 H   0  0  0  0  0  0
  -31.2164  -20.3184   21.2437 H   0  0  0  0  0  0
  -31.5354  -17.8860   21.4009 H   0  0  0  0  0  0
  -27.3935  -19.6944   19.3875 H   0  0  0  0  0  0
  -27.2586  -24.2089   18.4721 H   0  0  0  0  0  0
  -28.9851  -24.0919   18.4731 H   0  0  0  0  0  0
  -30.2959  -24.4018   20.5973 H   0  0  0  0  0  0
  -29.4766  -24.6961   22.0953 H   0  0  0  0  0  0
  -27.9499  -21.8270   18.4312 H   0  0  0  0  0  0
  -27.0371  -22.1553   19.8794 H   0  0  0  0  0  0
  -28.4884  -22.4228   22.1086 H   0  0  0  0  0  0
  -30.2127  -22.3101   21.9049 H   0  0  0  0  0  0
  -27.2770  -24.6980   20.9435 H   0  0  0  0  0  0
  -28.7330  -15.4709   20.7868 H   0  0  0  0  0  0
  1 25  1  0  0  0
  1 30  2  0  0  0
  1 83  1  0  0  0
  2  3  1  0  0  0
  2 25  1  0  0  0
  2 85  1  0  0  0
  2 86  1  0  0  0
  3  4  1  0  0  0
  3 87  1  0  0  0
  3 88  1  0  0  0
  4  5  1  0  0  0
  4 89  1  0  0  0
  4 90  1  0  0  0
  5  6  1  0  0  0
  5 26  1  0  0  0
  5 91  1  0  0  0
  6 25  1  0  0  0
  6 92  1  0  0  0
  6 93  1  0  0  0
  7  8  2  0  0  0
  7 26  1  0  0  0
  7 29  1  0  0  0
  8  9  1  0  0  0
  8 22  1  0  0  0
  9 10  1  0  0  0
  9 27  2  0  0  0
 10 11  2  0  0  0
 10 15  1  0  0  0
 11 12  1  0  0  0
 11 94  1  0  0  0
 12 13  2  0  0  0
 12 95  1  0  0  0
 13 14  1  0  0  0
 13 31  1  0  0  0
 14 15  2  0  0  0
 14 96  1  0  0  0
 15 97  1  0  0  0
 16 17  2  0  0  0
 16 21  1  0  0  0
 16 31  1  0  0  0
 17 18  1  0  0  0
 17 98  1  0  0  0
 18 19  2  0  0  0
 18 99  1  0  0  0
 19 20  1  0  0  0
 19 24  1  0  0  0
 20 21  2  0  0  0
 20100  1  0  0  0
 21 23  1  0  0  0
 22 28  1  0  0  0
 22 32  2  0  0  0
 26 27  1  0  0  0
 28101  1  0  0  0
 28102  1  0  0  0
 29103  1  0  0  0
 29104  1  0  0  0
 33 34  1  0  0  0
 33 66  1  0  0  0
 33 70  2  0  0  0
 34 36  1  0  0  0
 34 59  1  0  0  0
 34105  1  0  0  0
 35 44  2  0  0  0
 35 45  1  0  0  0
 35 68  1  0  0  0
 36 56  1  0  0  0
 36106  1  0  0  0
 37 39  1  0  0  0
 37 47  1  0  0  0
 37 66  1  0  0  0
 37107  1  0  0  0
 38 43  2  0  0  0
 38 46  1  0  0  0
 38 47  1  0  0  0
 39 64  1  0  0  0
 39 67  2  0  0  0
 40 52  1  0  0  0
 40 53  2  0  0  0
 40 58  1  0  0  0
 41108  1  0  0  0
 41109  1  0  0  0
 41110  1  0  0  0
 41 48  1  0  0  0
 42 43  1  0  0  0
 42 66  1  0  0  0
 42111  1  0  0  0
 42112  1  0  0  0
 43 44  1  0  0  0
 44113  1  0  0  0
 45 46  2  0  0  0
 45114  1  0  0  0
 46115  1  0  0  0
 47116  1  0  0  0
 47117  1  0  0  0
 48 56  1  0  0  0
 48 65  1  0  0  0
 48118  1  0  0  0
 49 50  1  0  0  0
 49 53  1  0  0  0
 49 64  1  0  0  0
 49119  1  0  0  0
 50 51  1  0  0  0
 50120  1  0  0  0
 50121  1  0  0  0
 51 52  1  0  0  0
 51122  1  0  0  0
 51123  1  0  0  0
 52124  1  0  0  0
 52125  1  0  0  0
 53 54  1  0  0  0
 54 55  2  0  0  0
 54126  1  0  0  0
 55 57  1  0  0  0
 55127  1  0  0  0
 56 69  2  0  0  0
 57 58  2  0  0  0
 57128  1  0  0  0
 58129  1  0  0  0
 59 60  1  0  0  0
 59 61  1  0  0  0
 59 62  1  0  0  0
 60130  1  0  0  0
 60131  1  0  0  0
 60132  1  0  0  0
 61133  1  0  0  0
 61134  1  0  0  0
 61135  1  0  0  0
 62136  1  0  0  0
 62137  1  0  0  0
 62138  1  0  0  0
 63 65  1  0  0  0
 63139  1  0  0  0
 63140  1  0  0  0
 63141  1  0  0  0
 64142  1  0  0  0
 65143  1  0  0  0
 68 81  1  0  0  0
 71 72  2  0  0  0
 71 74  1  0  0  0
 71144  1  0  0  0
 72 75  1  0  0  0
 72145  1  0  0  0
 73 74  2  0  0  0
 73 76  1  0  0  0
 73146  1  0  0  0
 74 82  1  0  0  0
 75 76  2  0  0  0
 75 83  1  0  0  0
 76 84  1  0  0  0
 77 79  1  0  0  0
 77 81  1  0  0  0
 77147  1  0  0  0
 77148  1  0  0  0
 78 80  1  0  0  0
 78 81  1  0  0  0
 78149  1  0  0  0
 78150  1  0  0  0
 79 82  1  0  0  0
 79151  1  0  0  0
 79152  1  0  0  0
 80 82  1  0  0  0
 80153  1  0  0  0
 80154  1  0  0  0
 81155  1  0  0  0
 83156  1  0  0  0
M  ISO  4   1 100  68 101  81 101  83 100
M  END
> <chiral flag>
0

> <version>
0

> <s_m_source_file>
/data/baiqing/PycharmProjects/Reinvent-master-3.2/result/LINK_invent/BTK/process_docking_weight1_custom_product_contain_oxygen_bond_distance_aromatic_linkinvent_7_9_3/rearranged_h_0008.sdf

> <i_m_source_file_index>
95

> <r_mmod_Potential_Energy-OPLS-2005>
170.554336547852

> <r_mmod_Stretch_Energy-OPLS-2005>
124.410308837891

> <r_mmod_Bend_Energy-OPLS-2005>
192.851425170898

> <r_mmod_Torsional_Energy-OPLS-2005>
257.186309814453

> <r_mmod_Improper_Torsional_Energy-OPLS-2005>
9.0206241607666

> <r_mmod_Van_der_Waal_Energy-OPLS-2005>
136.276718139648

> <r_mmod_Electrostatic_Energy-OPLS-2005>
-431.85888671875

> <r_mmod_Solvation_Energy-OPLS-2005>
-216.415161132812

> <b_mmod_Minimization_Converged-OPLS-2005>
0

> <r_mmod_RMS_Derivative-OPLS-2005>
0.520573854446411

$$$$
96
                    3D
 Structure written by MMmdl.
157166  0  0  1  0            999 V2000
  -30.6205  -14.6423   20.5761 C   0  0  0  0  0  0
  -30.4494  -12.4256   19.4339 C   0  0  0  0  0  0
  -29.5059  -12.5423   18.2131 C   0  0  0  0  0  0
  -28.0254  -12.3763   18.6191 C   0  0  0  0  0  0
  -27.6587  -13.2085   19.8763 C   0  0  2  0  0  0
  -28.7067  -12.9642   20.9789 C   0  0  0  0  0  0
  -25.2582  -13.8137   20.5685 C   0  0  0  0  0  0
  -24.1830  -13.0421   20.9175 C   0  0  0  0  0  0
  -24.6388  -11.6887   20.8728 C   0  0  0  0  0  0
  -23.9046  -10.4277   21.0400 C   0  0  0  0  0  0
  -24.3598   -9.4193   21.9185 C   0  0  0  0  0  0
  -23.6272   -8.2230   22.0753 C   0  0  0  0  0  0
  -22.4256   -8.0266   21.3543 C   0  0  0  0  0  0
  -21.9886   -9.0241   20.4650 C   0  0  0  0  0  0
  -22.7215  -10.2122   20.3056 C   0  0  0  0  0  0
  -21.6847   -6.0722   22.5275 C   0  0  0  0  0  0
  -21.4012   -6.5632   23.8209 C   0  0  0  0  0  0
  -21.3665   -5.6788   24.9173 C   0  0  0  0  0  0
  -21.6044   -4.3049   24.7227 C   0  0  0  0  0  0
  -21.8820   -3.8139   23.4348 C   0  0  0  0  0  0
  -21.9192   -4.6951   22.3403 C   0  0  0  0  0  0
  -22.7861  -13.5233   21.1841 C   0  0  0  0  0  0
  -22.1662   -4.2135   21.0980 F   0  0  0  0  0  0
  -21.5630   -3.4537   25.7745 F   0  0  0  0  0  0
  -30.0064  -13.4111   20.4483 N   0  0  0  0  0  0
  -26.3013  -12.9306   20.3369 N   0  0  0  0  0  0
  -25.9313  -11.6466   20.5747 N   0  0  0  0  0  0
  -22.0494  -12.8242   22.0406 N   0  0  0  0  0  0
  -25.4320  -15.1853   20.4114 N   0  0  0  0  0  0
  -31.7516  -14.8076   20.1020 O   0  0  0  0  0  0
  -21.6625   -6.8862   21.4237 O   0  0  0  0  0  0
  -22.3558  -14.5549   20.6697 O   0  0  0  0  0  0
  -24.6259  -31.8603   23.2031 C   0  0  0  0  0  0
  -25.9111  -32.4785   23.8350 C   0  0  1  0  0  0
  -27.2277  -27.3297   20.1064 C   0  0  0  0  0  0
  -25.5923  -33.8583   24.2277 N   0  0  0  0  0  0
  -23.4187  -30.4853   21.5455 C   0  0  2  0  0  0
  -24.8646  -28.9427   20.1110 C   0  0  0  0  0  0
  -22.7471  -29.4634   22.4937 C   0  0  0  0  0  0
  -18.0289  -28.1383   22.8489 C   0  0  0  0  0  0
  -24.1488  -36.7301   23.2640 C   0  0  0  0  0  0
  -25.9590  -30.7955   21.3714 C   0  0  0  0  0  0
  -26.0338  -29.4236   20.7131 C   0  0  0  0  0  0
  -27.2177  -28.6285   20.7021 C   0  0  0  0  0  0
  -26.0317  -26.9020   19.4815 C   0  0  0  0  0  0
  -24.8648  -27.6864   19.4882 C   0  0  0  0  0  0
  -23.6318  -29.8202   20.1608 C   0  0  0  0  0  0
  -25.4111  -36.3089   24.0331 C   0  0  1  0  0  0
  -20.5889  -28.3688   23.1283 C   0  0  2  0  0  0
  -20.6769  -26.9411   22.5410 C   0  0  0  0  0  0
  -19.5745  -26.6386   21.5209 C   0  0  0  0  0  0
  -18.1928  -26.7929   22.1624 C   0  0  0  0  0  0
  -19.1540  -28.8849   23.2884 C   0  0  0  0  0  0
  -18.9464  -30.1452   23.8901 C   0  0  0  0  0  0
  -17.6464  -30.6586   24.0566 C   0  0  0  0  0  0
  -25.9046  -34.9458   23.5103 C   0  0  0  0  0  0
  -16.5355  -29.9086   23.6329 C   0  0  0  0  0  0
  -16.7275  -28.6504   23.0348 C   0  0  0  0  0  0
  -26.4496  -31.6594   25.0719 C   0  0  0  0  0  0
  -25.3739  -31.3733   26.1457 C   0  0  0  0  0  0
  -27.0333  -30.3019   24.6162 C   0  0  0  0  0  0
  -27.6058  -32.4327   25.7486 C   0  0  0  0  0  0
  -27.5579  -37.1802   24.8463 C   0  0  0  0  0  0
  -21.4183  -29.3049   22.3679 N   0  0  0  0  0  0
  -26.4289  -37.3783   23.9410 N   0  0  0  0  0  0
  -24.6868  -31.0630   22.0973 N   0  0  0  0  0  0
  -23.4199  -28.8168   23.3009 O   0  0  0  0  0  0
  -28.3534  -26.4913   20.1514 O   0  0  0  0  0  0
  -26.5616  -34.8926   22.4670 O   0  0  0  0  0  0
  -23.5424  -32.1390   23.7369 O   0  0  0  0  0  0
  -30.3953  -19.2063   19.4178 C   0  0  0  0  0  0
  -30.4125  -17.7743   19.5065 C   0  0  0  0  0  0
  -29.5512  -19.3791   21.6784 C   0  0  0  0  0  0
  -29.5774  -17.9600   21.7492 C   0  0  0  0  0  0
  -29.9801  -20.0458   20.4999 C   0  0  0  0  0  0
  -30.0090  -17.1338   20.7053 C   0  0  0  0  0  0
  -29.1932  -17.1319   22.9362 C   0  0  0  0  0  0
  -29.2093  -15.6932   22.3748 C   0  0  0  0  0  0
  -30.1844  -21.6084   20.4811 C   0  0  0  0  0  0
  -29.3236  -24.0372   20.3362 C   0  0  0  0  0  0
  -28.1517  -25.0372   19.9548 C   0  0  0  0  0  0
  -29.9001  -15.7238   21.0686 N   0  0  0  0  0  0
  -29.0317  -22.5440   20.1984 N   0  3  0  0  0  0
  -31.4821  -12.5841   19.1193 H   0  0  0  0  0  0
  -30.4276  -11.4144   19.8426 H   0  0  0  0  0  0
  -29.7719  -11.8027   17.4562 H   0  0  0  0  0  0
  -29.6423  -13.5180   17.7443 H   0  0  0  0  0  0
  -27.8509  -11.3176   18.8151 H   0  0  0  0  0  0
  -27.3729  -12.6411   17.7863 H   0  0  0  0  0  0
  -27.7018  -14.2606   19.5936 H   0  0  0  0  0  0
  -28.7492  -11.8970   21.2030 H   0  0  0  0  0  0
  -28.4248  -13.3911   21.9325 H   0  0  0  0  0  0
  -25.2737   -9.5670   22.4764 H   0  0  0  0  0  0
  -23.9977   -7.4617   22.7474 H   0  0  0  0  0  0
  -21.0812   -8.8756   19.8966 H   0  0  0  0  0  0
  -22.3659  -10.9657   19.6166 H   0  0  0  0  0  0
  -21.2002   -7.6142   23.9706 H   0  0  0  0  0  0
  -21.1491   -6.0521   25.9075 H   0  0  0  0  0  0
  -22.0596   -2.7599   23.2851 H   0  0  0  0  0  0
  -22.4085  -11.9898   22.4806 H   0  0  0  0  0  0
  -21.1123  -13.1299   22.2621 H   0  0  0  0  0  0
  -24.6712  -15.8451   20.5275 H   0  0  0  0  0  0
  -26.2943  -15.6227   20.1111 H   0  0  0  0  0  0
  -26.7181  -32.5462   23.1101 H   0  0  0  0  0  0
  -25.0064  -33.9722   25.0418 H   0  0  0  0  0  0
  -22.7130  -31.3064   21.4028 H   0  0  0  0  0  0
  -23.3746  -35.9639   23.3301 H   0  0  0  0  0  0
  -24.3580  -36.8921   22.2054 H   0  0  0  0  0  0
  -23.7244  -37.6506   23.6659 H   0  0  0  0  0  0
  -26.0865  -31.5603   20.6039 H   0  0  0  0  0  0
  -26.8409  -30.8453   21.9982 H   0  0  0  0  0  0
  -28.1148  -28.9946   21.1819 H   0  0  0  0  0  0
  -25.9631  -25.9467   18.9839 H   0  0  0  0  0  0
  -23.9692  -27.3122   19.0113 H   0  0  0  0  0  0
  -23.7482  -30.5954   19.4024 H   0  0  0  0  0  0
  -22.7524  -29.2472   19.8610 H   0  0  0  0  0  0
  -25.1291  -36.1938   25.0822 H   0  0  0  0  0  0
  -20.9987  -28.3262   24.1401 H   0  0  0  0  0  0
  -20.5654  -26.2303   23.3612 H   0  0  0  0  0  0
  -21.6641  -26.7429   22.1216 H   0  0  0  0  0  0
  -19.6904  -25.6298   21.1236 H   0  0  0  0  0  0
  -19.6679  -27.3199   20.6741 H   0  0  0  0  0  0
  -17.4197  -26.6680   21.4027 H   0  0  0  0  0  0
  -18.0328  -26.0068   22.9016 H   0  0  0  0  0  0
  -19.7940  -30.7266   24.2272 H   0  0  0  0  0  0
  -17.5021  -31.6267   24.5167 H   0  0  0  0  0  0
  -15.5355  -30.2986   23.7652 H   0  0  0  0  0  0
  -15.8678  -28.0826   22.7053 H   0  0  0  0  0  0
  -24.5906  -30.7085   25.7792 H   0  0  0  0  0  0
  -24.8942  -32.2905   26.4888 H   0  0  0  0  0  0
  -25.8079  -30.8909   27.0225 H   0  0  0  0  0  0
  -26.2897  -29.6771   24.1202 H   0  0  0  0  0  0
  -27.4049  -29.7276   25.4658 H   0  0  0  0  0  0
  -27.8760  -30.4303   23.9366 H   0  0  0  0  0  0
  -27.2664  -33.3617   26.2079 H   0  0  0  0  0  0
  -28.3861  -32.6905   25.0312 H   0  0  0  0  0  0
  -28.0739  -31.8446   26.5390 H   0  0  0  0  0  0
  -28.2603  -38.0093   24.7511 H   0  0  0  0  0  0
  -28.1068  -36.2627   24.6285 H   0  0  0  0  0  0
  -27.2303  -37.1454   25.8868 H   0  0  0  0  0  0
  -20.9350  -29.8789   21.6911 H   0  0  0  0  0  0
  -26.0173  -38.2859   24.1407 H   0  0  0  0  0  0
  -30.7524  -19.6657   18.5060 H   0  0  0  0  0  0
  -30.7441  -17.1875   18.6610 H   0  0  0  0  0  0
  -29.2504  -19.9499   22.5465 H   0  0  0  0  0  0
  -28.2142  -17.4156   23.3262 H   0  0  0  0  0  0
  -29.9343  -17.2599   23.7262 H   0  0  0  0  0  0
  -28.1672  -15.4264   22.1976 H   0  0  0  0  0  0
  -29.6425  -14.9845   23.0829 H   0  0  0  0  0  0
  -30.9772  -21.8326   19.7663 H   0  0  0  0  0  0
  -30.5944  -21.8831   21.4539 H   0  0  0  0  0  0
  -29.6191  -24.2313   21.3678 H   0  0  0  0  0  0
  -30.1917  -24.2795   19.7226 H   0  0  0  0  0  0
  -27.2726  -24.7345   20.5258 H   0  0  0  0  0  0
  -27.9127  -24.8734   18.9033 H   0  0  0  0  0  0
  -28.2813  -22.2994   20.8243 H   0  0  0  0  0  0
  -28.7132  -22.3511   19.2622 H   0  0  0  0  0  0
  1 25  1  0  0  0
  1 30  2  0  0  0
  1 82  1  0  0  0
  2  3  1  0  0  0
  2 25  1  0  0  0
  2 84  1  0  0  0
  2 85  1  0  0  0
  3  4  1  0  0  0
  3 86  1  0  0  0
  3 87  1  0  0  0
  4  5  1  0  0  0
  4 88  1  0  0  0
  4 89  1  0  0  0
  5  6  1  0  0  0
  5 26  1  0  0  0
  5 90  1  0  0  0
  6 25  1  0  0  0
  6 91  1  0  0  0
  6 92  1  0  0  0
  7  8  2  0  0  0
  7 26  1  0  0  0
  7 29  1  0  0  0
  8  9  1  0  0  0
  8 22  1  0  0  0
  9 10  1  0  0  0
  9 27  2  0  0  0
 10 11  2  0  0  0
 10 15  1  0  0  0
 11 12  1  0  0  0
 11 93  1  0  0  0
 12 13  2  0  0  0
 12 94  1  0  0  0
 13 14  1  0  0  0
 13 31  1  0  0  0
 14 15  2  0  0  0
 14 95  1  0  0  0
 15 96  1  0  0  0
 16 17  2  0  0  0
 16 21  1  0  0  0
 16 31  1  0  0  0
 17 18  1  0  0  0
 17 97  1  0  0  0
 18 19  2  0  0  0
 18 98  1  0  0  0
 19 20  1  0  0  0
 19 24  1  0  0  0
 20 21  2  0  0  0
 20 99  1  0  0  0
 21 23  1  0  0  0
 22 28  1  0  0  0
 22 32  2  0  0  0
 26 27  1  0  0  0
 28100  1  0  0  0
 28101  1  0  0  0
 29102  1  0  0  0
 29103  1  0  0  0
 33 34  1  0  0  0
 33 66  1  0  0  0
 33 70  2  0  0  0
 34 36  1  0  0  0
 34 59  1  0  0  0
 34104  1  0  0  0
 35 44  2  0  0  0
 35 45  1  0  0  0
 35 68  1  0  0  0
 36 56  1  0  0  0
 36105  1  0  0  0
 37 39  1  0  0  0
 37 47  1  0  0  0
 37 66  1  0  0  0
 37106  1  0  0  0
 38 43  2  0  0  0
 38 46  1  0  0  0
 38 47  1  0  0  0
 39 64  1  0  0  0
 39 67  2  0  0  0
 40 52  1  0  0  0
 40 53  2  0  0  0
 40 58  1  0  0  0
 41107  1  0  0  0
 41108  1  0  0  0
 41109  1  0  0  0
 41 48  1  0  0  0
 42 43  1  0  0  0
 42 66  1  0  0  0
 42110  1  0  0  0
 42111  1  0  0  0
 43 44  1  0  0  0
 44112  1  0  0  0
 45 46  2  0  0  0
 45113  1  0  0  0
 46114  1  0  0  0
 47115  1  0  0  0
 47116  1  0  0  0
 48 56  1  0  0  0
 48 65  1  0  0  0
 48117  1  0  0  0
 49 50  1  0  0  0
 49 53  1  0  0  0
 49 64  1  0  0  0
 49118  1  0  0  0
 50 51  1  0  0  0
 50119  1  0  0  0
 50120  1  0  0  0
 51 52  1  0  0  0
 51121  1  0  0  0
 51122  1  0  0  0
 52123  1  0  0  0
 52124  1  0  0  0
 53 54  1  0  0  0
 54 55  2  0  0  0
 54125  1  0  0  0
 55 57  1  0  0  0
 55126  1  0  0  0
 56 69  2  0  0  0
 57 58  2  0  0  0
 57127  1  0  0  0
 58128  1  0  0  0
 59 60  1  0  0  0
 59 61  1  0  0  0
 59 62  1  0  0  0
 60129  1  0  0  0
 60130  1  0  0  0
 60131  1  0  0  0
 61132  1  0  0  0
 61133  1  0  0  0
 61134  1  0  0  0
 62135  1  0  0  0
 62136  1  0  0  0
 62137  1  0  0  0
 63 65  1  0  0  0
 63138  1  0  0  0
 63139  1  0  0  0
 63140  1  0  0  0
 64141  1  0  0  0
 65142  1  0  0  0
 68 81  1  0  0  0
 71 72  2  0  0  0
 71 75  1  0  0  0
 71143  1  0  0  0
 72 76  1  0  0  0
 72144  1  0  0  0
 73 74  1  0  0  0
 73 75  2  0  0  0
 73145  1  0  0  0
 74 76  2  0  0  0
 74 77  1  0  0  0
 75 79  1  0  0  0
 76 82  1  0  0  0
 77 78  1  0  0  0
 77146  1  0  0  0
 77147  1  0  0  0
 78 82  1  0  0  0
 78148  1  0  0  0
 78149  1  0  0  0
 79 83  1  0  0  0
 79150  1  0  0  0
 79151  1  0  0  0
 80 81  1  0  0  0
 80 83  1  0  0  0
 80152  1  0  0  0
 80153  1  0  0  0
 81154  1  0  0  0
 81155  1  0  0  0
 83156  1  0  0  0
 83157  1  0  0  0
M  CHG  1  83   1
M  ISO  4   1 100  68 101  81 101  82 100
M  END
> <chiral flag>
0

> <version>
0

> <s_m_source_file>
/data/baiqing/PycharmProjects/Reinvent-master-3.2/result/LINK_invent/BTK/process_docking_weight1_custom_product_contain_oxygen_bond_distance_aromatic_linkinvent_7_9_3/rearranged_h_0008.sdf

> <i_m_source_file_index>
96

> <r_mmod_Potential_Energy-OPLS-2005>
81.0370025634766

> <r_mmod_Stretch_Energy-OPLS-2005>
82.7277755737305

> <r_mmod_Bend_Energy-OPLS-2005>
195.338226318359

> <r_mmod_Torsional_Energy-OPLS-2005>
266.472625732422

> <r_mmod_Improper_Torsional_Energy-OPLS-2005>
5.95692014694214

> <r_mmod_Van_der_Waal_Energy-OPLS-2005>
145.477203369141

> <r_mmod_Electrostatic_Energy-OPLS-2005>
-207.272277832031

> <r_mmod_Solvation_Energy-OPLS-2005>
-451.157318115234

> <b_mmod_Minimization_Converged-OPLS-2005>
0

> <r_mmod_RMS_Derivative-OPLS-2005>
0.907592415809631

$$$$
97
                    3D
 Structure written by MMmdl.
141149  0  0  1  0            999 V2000
  -29.8900  -16.7395   20.2733 C   0  0  0  0  0  0
  -30.2906  -13.9280   19.5319 C   0  0  0  0  0  0
  -29.5764  -13.0154   18.4410 C   0  0  0  0  0  0
  -28.2629  -12.4154   18.9408 C   0  0  0  0  0  0
  -27.5742  -13.4594   19.8280 C   0  0  2  0  0  0
  -28.4996  -14.2251   20.8577 C   0  0  0  0  0  0
  -25.2140  -13.8558   20.6052 C   0  0  0  0  0  0
  -24.1663  -13.0503   20.9398 C   0  0  0  0  0  0
  -24.6568  -11.7074   20.8763 C   0  0  0  0  0  0
  -23.9285  -10.4343   21.0344 C   0  0  0  0  0  0
  -24.3754   -9.4240   21.9150 C   0  0  0  0  0  0
  -23.6376   -8.2293   22.0741 C   0  0  0  0  0  0
  -22.4345   -8.0333   21.3546 C   0  0  0  0  0  0
  -22.0028   -9.0324   20.4637 C   0  0  0  0  0  0
  -22.7417  -10.2175   20.3025 C   0  0  0  0  0  0
  -21.6885   -6.0762   22.5273 C   0  0  0  0  0  0
  -21.4034   -6.5650   23.8211 C   0  0  0  0  0  0
  -21.3675   -5.6795   24.9171 C   0  0  0  0  0  0
  -21.6054   -4.3057   24.7218 C   0  0  0  0  0  0
  -21.8815   -3.8158   23.4337 C   0  0  0  0  0  0
  -21.9197   -4.6983   22.3396 C   0  0  0  0  0  0
  -22.7615  -13.5085   21.1992 C   0  0  0  0  0  0
  -22.1657   -4.2162   21.0976 F   0  0  0  0  0  0
  -21.5631   -3.4539   25.7730 F   0  0  0  0  0  0
  -29.4687  -15.1869   20.1382 N   0  0  0  0  0  0
  -26.2828  -13.0217   20.3579 N   0  0  0  0  0  0
  -25.9589  -11.7104   20.5689 N   0  0  0  0  0  0
  -22.0306  -12.8014   22.0525 N   0  0  0  0  0  0
  -25.3491  -15.2339   20.4531 N   0  0  0  0  0  0
  -31.1364  -16.4523   20.2604 O   0  0  0  0  0  0
  -21.6678   -6.8935   21.4252 O   0  0  0  0  0  0
  -22.3240  -14.5372   20.6831 O   0  0  0  0  0  0
  -24.7558  -31.7082   23.0874 C   0  0  0  0  0  0
  -25.9753  -32.4030   23.7742 C   0  0  1  0  0  0
  -27.2666  -25.9356   20.2881 C   0  0  0  0  0  0
  -25.6020  -33.7896   24.1541 N   0  0  0  0  0  0
  -23.6157  -30.2713   21.4620 C   0  0  2  0  0  0
  -25.0771  -28.4421   20.1483 C   0  0  0  0  0  0
  -22.8074  -29.3844   22.4540 C   0  0  0  0  0  0
  -18.0385  -28.1451   22.8452 C   0  0  0  0  0  0
  -24.1480  -36.6948   23.2648 C   0  0  0  0  0  0
  -26.2179  -30.1842   21.4670 C   0  0  0  0  0  0
  -26.2760  -28.6608   20.8346 C   0  0  0  0  0  0
  -27.3177  -27.4687   20.8434 C   0  0  0  0  0  0
  -26.0297  -26.1208   19.5378 C   0  0  0  0  0  0
  -25.0387  -27.2011   19.4716 C   0  0  0  0  0  0
  -23.9092  -29.4900   20.1345 C   0  0  0  0  0  0
  -25.4128  -36.2630   24.0251 C   0  0  1  0  0  0
  -20.6057  -28.3850   23.0999 C   0  0  2  0  0  0
  -20.6826  -26.9461   22.5363 C   0  0  0  0  0  0
  -19.5770  -26.6349   21.5224 C   0  0  0  0  0  0
  -18.1984  -26.7946   22.1683 C   0  0  0  0  0  0
  -19.1673  -28.8999   23.2671 C   0  0  0  0  0  0
  -18.9570  -30.1575   23.8730 C   0  0  0  0  0  0
  -17.6546  -30.6633   24.0531 C   0  0  0  0  0  0
  -25.9201  -34.9056   23.4799 C   0  0  0  0  0  0
  -16.5432  -29.9098   23.6373 C   0  0  0  0  0  0
  -16.7361  -28.6516   23.0404 C   0  0  0  0  0  0
  -26.4697  -31.6385   25.0666 C   0  0  0  0  0  0
  -25.3614  -31.3872   26.1190 C   0  0  0  0  0  0
  -27.0779  -30.2677   24.7070 C   0  0  0  0  0  0
  -27.5986  -32.4460   25.7500 C   0  0  0  0  0  0
  -27.5598  -37.1506   24.8380 C   0  0  0  0  0  0
  -21.4667  -29.2954   22.3249 N   0  0  0  0  0  0
  -26.4124  -37.3549   23.9588 N   0  0  0  0  0  0
  -24.8976  -30.7732   22.0578 N   0  0  0  0  0  0
  -23.4150  -28.7609   23.3264 O   0  0  0  0  0  0
  -28.1793  -24.4010   20.2828 O   0  0  0  0  0  0
  -26.5967  -34.8802   22.4502 O   0  0  0  0  0  0
  -23.6413  -32.0531   23.5308 O   0  0  0  0  0  0
  -27.5275  -20.9040   19.7711 C   0  0  0  0  0  0
  -27.8392  -19.1803   20.1111 C   0  0  0  0  0  0
  -29.4781  -20.3938   20.3904 C   0  0  0  0  0  0
  -28.3460  -22.2357   20.4015 C   0  0  1  0  0  0
  -29.2436  -18.4566   20.2759 N   0  0  0  0  0  0
  -31.1788  -14.3286   19.0427 H   0  0  0  0  0  0
  -30.7125  -13.3067   20.3256 H   0  0  0  0  0  0
  -30.2468  -12.2241   18.1035 H   0  0  0  0  0  0
  -29.3695  -13.6345   17.5672 H   0  0  0  0  0  0
  -28.4814  -11.5281   19.5373 H   0  0  0  0  0  0
  -27.6268  -12.0999   18.1135 H   0  0  0  0  0  0
  -27.3034  -14.2272   19.1012 H   0  0  0  0  0  0
  -28.9851  -13.5397   21.5552 H   0  0  0  0  0  0
  -27.8813  -14.8534   21.4980 H   0  0  0  0  0  0
  -25.2890   -9.5681   22.4746 H   0  0  0  0  0  0
  -24.0062   -7.4677   22.7464 H   0  0  0  0  0  0
  -21.0957   -8.8875   19.8943 H   0  0  0  0  0  0
  -22.3889  -10.9712   19.6124 H   0  0  0  0  0  0
  -21.2031   -7.6156   23.9724 H   0  0  0  0  0  0
  -21.1502   -6.0520   25.9079 H   0  0  0  0  0  0
  -22.0579   -2.7615   23.2834 H   0  0  0  0  0  0
  -22.3963  -11.9704   22.4934 H   0  0  0  0  0  0
  -21.0888  -13.0939   22.2708 H   0  0  0  0  0  0
  -24.5769  -15.8756   20.5970 H   0  0  0  0  0  0
  -26.2033  -15.6963   20.1712 H   0  0  0  0  0  0
  -26.7943  -32.4378   23.0544 H   0  0  0  0  0  0
  -24.9955  -33.8820   24.9553 H   0  0  0  0  0  0
  -22.9879  -31.1267   21.2038 H   0  0  0  0  0  0
  -23.3953  -35.9044   23.2740 H   0  0  0  0  0  0
  -24.3660  -36.9237   22.2207 H   0  0  0  0  0  0
  -23.6925  -37.5776   23.7140 H   0  0  0  0  0  0
  -26.4959  -30.8559   20.6543 H   0  0  0  0  0  0
  -27.0444  -30.2719   22.1567 H   0  0  0  0  0  0
  -28.2143  -27.6918   21.4053 H   0  0  0  0  0  0
  -25.7488  -25.2504   18.9621 H   0  0  0  0  0  0
  -24.1629  -27.0036   18.8678 H   0  0  0  0  0  0
  -24.1460  -30.2159   19.3563 H   0  0  0  0  0  0
  -22.9996  -28.9947   19.7917 H   0  0  0  0  0  0
  -25.1297  -36.1214   25.0707 H   0  0  0  0  0  0
  -21.0108  -28.3519   24.1142 H   0  0  0  0  0  0
  -20.5710  -26.2491   23.3678 H   0  0  0  0  0  0
  -21.6660  -26.7343   22.1154 H   0  0  0  0  0  0
  -19.6913  -25.6223   21.1343 H   0  0  0  0  0  0
  -19.6671  -27.3090   20.6693 H   0  0  0  0  0  0
  -17.4207  -26.6625   21.4145 H   0  0  0  0  0  0
  -18.0442  -26.0153   22.9161 H   0  0  0  0  0  0
  -19.8050  -30.7436   24.2016 H   0  0  0  0  0  0
  -17.5105  -31.6311   24.5141 H   0  0  0  0  0  0
  -15.5431  -30.2953   23.7782 H   0  0  0  0  0  0
  -15.8769  -28.0774   22.7217 H   0  0  0  0  0  0
  -24.5449  -30.7800   25.7272 H   0  0  0  0  0  0
  -24.9322  -32.3207   26.4837 H   0  0  0  0  0  0
  -25.7537  -30.8579   26.9885 H   0  0  0  0  0  0
  -26.3620  -29.6018   24.2253 H   0  0  0  0  0  0
  -27.4129  -29.7453   25.6044 H   0  0  0  0  0  0
  -27.9619  -30.3693   24.0778 H   0  0  0  0  0  0
  -27.2310  -33.3729   26.1921 H   0  0  0  0  0  0
  -28.3809  -32.7146   25.0388 H   0  0  0  0  0  0
  -28.0703  -31.8820   26.5557 H   0  0  0  0  0  0
  -28.2033  -38.0313   24.8207 H   0  0  0  0  0  0
  -28.1649  -36.2985   24.5242 H   0  0  0  0  0  0
  -27.2497  -36.9887   25.8719 H   0  0  0  0  0  0
  -21.0147  -29.8477   21.6093 H   0  0  0  0  0  0
  -25.9845  -38.2432   24.2049 H   0  0  0  0  0  0
  -26.4698  -21.0714   19.9795 H   0  0  0  0  0  0
  -27.5871  -21.0087   18.6862 H   0  0  0  0  0  0
  -27.2992  -18.6047   19.3588 H   0  0  0  0  0  0
  -27.3111  -18.9508   21.0389 H   0  0  0  0  0  0
  -30.1315  -20.4911   21.2596 H   0  0  0  0  0  0
  -30.1717  -20.5543   19.5626 H   0  0  0  0  0  0
  -28.0327  -22.2325   21.4462 H   0  0  0  0  0  0
  1 25  1  0  0  0
  1 30  2  0  0  0
  1 75  1  0  0  0
  2  3  1  0  0  0
  2 25  1  0  0  0
  2 76  1  0  0  0
  2 77  1  0  0  0
  3  4  1  0  0  0
  3 78  1  0  0  0
  3 79  1  0  0  0
  4  5  1  0  0  0
  4 80  1  0  0  0
  4 81  1  0  0  0
  5  6  1  0  0  0
  5 26  1  0  0  0
  5 82  1  0  0  0
  6 25  1  0  0  0
  6 83  1  0  0  0
  6 84  1  0  0  0
  7  8  2  0  0  0
  7 26  1  0  0  0
  7 29  1  0  0  0
  8  9  1  0  0  0
  8 22  1  0  0  0
  9 10  1  0  0  0
  9 27  2  0  0  0
 10 11  2  0  0  0
 10 15  1  0  0  0
 11 12  1  0  0  0
 11 85  1  0  0  0
 12 13  2  0  0  0
 12 86  1  0  0  0
 13 14  1  0  0  0
 13 31  1  0  0  0
 14 15  2  0  0  0
 14 87  1  0  0  0
 15 88  1  0  0  0
 16 17  2  0  0  0
 16 21  1  0  0  0
 16 31  1  0  0  0
 17 18  1  0  0  0
 17 89  1  0  0  0
 18 19  2  0  0  0
 18 90  1  0  0  0
 19 20  1  0  0  0
 19 24  1  0  0  0
 20 21  2  0  0  0
 20 91  1  0  0  0
 21 23  1  0  0  0
 22 28  1  0  0  0
 22 32  2  0  0  0
 26 27  1  0  0  0
 28 92  1  0  0  0
 28 93  1  0  0  0
 29 94  1  0  0  0
 29 95  1  0  0  0
 33 34  1  0  0  0
 33 66  1  0  0  0
 33 70  2  0  0  0
 34 36  1  0  0  0
 34 59  1  0  0  0
 34 96  1  0  0  0
 35 44  2  0  0  0
 35 45  1  0  0  0
 35 68  1  0  0  0
 36 56  1  0  0  0
 36 97  1  0  0  0
 37 39  1  0  0  0
 37 47  1  0  0  0
 37 66  1  0  0  0
 37 98  1  0  0  0
 38 43  2  0  0  0
 38 46  1  0  0  0
 38 47  1  0  0  0
 39 64  1  0  0  0
 39 67  2  0  0  0
 40 52  1  0  0  0
 40 53  2  0  0  0
 40 58  1  0  0  0
 41 99  1  0  0  0
 41100  1  0  0  0
 41101  1  0  0  0
 41 48  1  0  0  0
 42 43  1  0  0  0
 42 66  1  0  0  0
 42102  1  0  0  0
 42103  1  0  0  0
 43 44  1  0  0  0
 44104  1  0  0  0
 45 46  2  0  0  0
 45105  1  0  0  0
 46106  1  0  0  0
 47107  1  0  0  0
 47108  1  0  0  0
 48 56  1  0  0  0
 48 65  1  0  0  0
 48109  1  0  0  0
 49 50  1  0  0  0
 49 53  1  0  0  0
 49 64  1  0  0  0
 49110  1  0  0  0
 50 51  1  0  0  0
 50111  1  0  0  0
 50112  1  0  0  0
 51 52  1  0  0  0
 51113  1  0  0  0
 51114  1  0  0  0
 52115  1  0  0  0
 52116  1  0  0  0
 53 54  1  0  0  0
 54 55  2  0  0  0
 54117  1  0  0  0
 55 57  1  0  0  0
 55118  1  0  0  0
 56 69  2  0  0  0
 57 58  2  0  0  0
 57119  1  0  0  0
 58120  1  0  0  0
 59 60  1  0  0  0
 59 61  1  0  0  0
 59 62  1  0  0  0
 60121  1  0  0  0
 60122  1  0  0  0
 60123  1  0  0  0
 61124  1  0  0  0
 61125  1  0  0  0
 61126  1  0  0  0
 62127  1  0  0  0
 62128  1  0  0  0
 62129  1  0  0  0
 63 65  1  0  0  0
 63130  1  0  0  0
 63131  1  0  0  0
 63132  1  0  0  0
 64133  1  0  0  0
 65134  1  0  0  0
 68 74  1  0  0  0
 71 72  1  0  0  0
 71 74  1  0  0  0
 71135  1  0  0  0
 71136  1  0  0  0
 72 75  1  0  0  0
 72137  1  0  0  0
 72138  1  0  0  0
 73 74  1  0  0  0
 73 75  1  0  0  0
 73139  1  0  0  0
 73140  1  0  0  0
 74141  1  0  0  0
M  ISO  4   1 100  68 101  74 101  75 100
M  END
> <chiral flag>
0

> <version>
0

> <s_m_source_file>
/data/baiqing/PycharmProjects/Reinvent-master-3.2/result/LINK_invent/BTK/process_docking_weight1_custom_product_contain_oxygen_bond_distance_aromatic_linkinvent_7_9_3/rearranged_h_0008.sdf

> <i_m_source_file_index>
97

> <r_mmod_Potential_Energy-OPLS-2005>
7751.3876953125

> <r_mmod_Stretch_Energy-OPLS-2005>
3068.3291015625

> <r_mmod_Bend_Energy-OPLS-2005>
1470.4921875

> <r_mmod_Torsional_Energy-OPLS-2005>
319.435943603516

> <r_mmod_Improper_Torsional_Energy-OPLS-2005>
5.2166919708252

> <r_mmod_Van_der_Waal_Energy-OPLS-2005>
120.777961730957

> <r_mmod_Electrostatic_Energy-OPLS-2005>
-295.966827392578

> <r_mmod_Solvation_Energy-OPLS-2005>
-230.603805541992

> <b_mmod_Minimization_Converged-OPLS-2005>
0

> <r_mmod_RMS_Derivative-OPLS-2005>
2.18929362297058

$$$$
98
                    3D
 Structure written by MMmdl.
150159  0  0  1  0            999 V2000
  -30.0774  -16.1814   20.2098 C   0  0  0  0  0  0
  -30.3749  -13.5064   19.4679 C   0  0  0  0  0  0
  -29.5587  -12.8012   18.3310 C   0  0  0  0  0  0
  -28.1832  -12.3296   18.8232 C   0  0  0  0  0  0
  -27.5745  -13.3665   19.7821 C   0  0  2  0  0  0
  -28.5709  -13.9373   20.8299 C   0  0  0  0  0  0
  -25.2234  -13.8363   20.5869 C   0  0  0  0  0  0
  -24.1733  -13.0397   20.9359 C   0  0  0  0  0  0
  -24.6527  -11.6947   20.8747 C   0  0  0  0  0  0
  -23.9245  -10.4248   21.0325 C   0  0  0  0  0  0
  -24.3737   -9.4165   21.9119 C   0  0  0  0  0  0
  -23.6351   -8.2247   22.0704 C   0  0  0  0  0  0
  -22.4301   -8.0314   21.3546 C   0  0  0  0  0  0
  -21.9964   -9.0294   20.4645 C   0  0  0  0  0  0
  -22.7381  -10.2125   20.3008 C   0  0  0  0  0  0
  -21.6858   -6.0756   22.5288 C   0  0  0  0  0  0
  -21.4060   -6.5662   23.8236 C   0  0  0  0  0  0
  -21.3656   -5.6797   24.9179 C   0  0  0  0  0  0
  -21.6016   -4.3063   24.7208 C   0  0  0  0  0  0
  -21.8815   -3.8149   23.4327 C   0  0  0  0  0  0
  -21.9186   -4.6982   22.3388 C   0  0  0  0  0  0
  -22.7726  -13.5050   21.1976 C   0  0  0  0  0  0
  -22.1643   -4.2185   21.0954 F   0  0  0  0  0  0
  -21.5571   -3.4557   25.7727 F   0  0  0  0  0  0
  -29.6175  -14.7288   20.0860 N   0  0  0  0  0  0
  -26.2784  -12.9820   20.3247 N   0  0  0  0  0  0
  -25.9491  -11.6818   20.5613 N   0  0  0  0  0  0
  -22.0389  -12.8027   22.0549 N   0  0  0  0  0  0
  -25.3602  -15.2164   20.4378 N   0  0  0  0  0  0
  -31.3153  -16.0119   20.3434 O   0  0  0  0  0  0
  -21.6637   -6.8922   21.4258 O   0  0  0  0  0  0
  -22.3362  -14.5304   20.6753 O   0  0  0  0  0  0
  -24.7253  -31.7499   23.1156 C   0  0  0  0  0  0
  -25.9616  -32.4240   23.7863 C   0  0  1  0  0  0
  -27.2367  -26.2914   20.2122 C   0  0  0  0  0  0
  -25.6008  -33.8088   24.1700 N   0  0  0  0  0  0
  -23.5663  -30.3355   21.4846 C   0  0  2  0  0  0
  -25.0182  -28.5874   20.1336 C   0  0  0  0  0  0
  -22.7939  -29.4069   22.4638 C   0  0  0  0  0  0
  -18.0359  -28.1448   22.8420 C   0  0  0  0  0  0
  -24.1491  -36.7048   23.2660 C   0  0  0  0  0  0
  -26.1635  -30.3389   21.4494 C   0  0  0  0  0  0
  -26.2179  -28.8596   20.8029 C   0  0  0  0  0  0
  -27.2901  -27.7532   20.7952 C   0  0  0  0  0  0
  -26.0032  -26.3385   19.4833 C   0  0  0  0  0  0
  -24.9722  -27.3540   19.4527 C   0  0  0  0  0  0
  -23.8400  -29.5951   20.1374 C   0  0  0  0  0  0
  -25.4161  -36.2772   24.0250 C   0  0  1  0  0  0
  -20.6009  -28.3833   23.1083 C   0  0  2  0  0  0
  -20.6821  -26.9451   22.5413 C   0  0  0  0  0  0
  -19.5801  -26.6351   21.5226 C   0  0  0  0  0  0
  -18.1978  -26.7961   22.1608 C   0  0  0  0  0  0
  -19.1635  -28.8971   23.2721 C   0  0  0  0  0  0
  -18.9527  -30.1528   23.8784 C   0  0  0  0  0  0
  -17.6526  -30.6619   24.0531 C   0  0  0  0  0  0
  -25.9154  -34.9167   23.4874 C   0  0  0  0  0  0
  -16.5409  -29.9099   23.6360 C   0  0  0  0  0  0
  -16.7328  -28.6520   23.0373 C   0  0  0  0  0  0
  -26.4650  -31.6454   25.0669 C   0  0  0  0  0  0
  -25.3602  -31.3947   26.1208 C   0  0  0  0  0  0
  -27.0662  -30.2738   24.6939 C   0  0  0  0  0  0
  -27.6000  -32.4441   25.7548 C   0  0  0  0  0  0
  -27.5551  -37.1700   24.8462 C   0  0  0  0  0  0
  -21.4535  -29.3003   22.3352 N   0  0  0  0  0  0
  -26.4262  -37.3567   23.9390 N   0  0  0  0  0  0
  -24.8469  -30.8517   22.0672 N   0  0  0  0  0  0
  -23.4159  -28.7740   23.3177 O   0  0  0  0  0  0
  -28.2065  -24.9356   20.0946 O   0  0  0  0  0  0
  -26.5885  -34.8826   22.4538 O   0  0  0  0  0  0
  -23.6176  -32.0772   23.5831 O   0  0  0  0  0  0
  -27.2933  -17.9517   18.4452 C   0  0  0  0  0  0
  -27.0831  -19.4831   18.4058 C   0  0  0  0  0  0
  -28.7861  -17.5572   18.5495 C   0  0  0  0  0  0
  -27.3392  -21.9453   19.5045 C   0  0  0  0  0  0
  -29.2745  -21.5284   20.1738 C   0  0  0  0  0  0
  -27.5134  -20.2350   19.6991 C   0  0  2  0  0  0
  -28.9074  -19.5826   20.2804 C   0  0  1  0  0  0
  -29.3493  -17.6882   19.9173 N   0  0  0  0  0  0
  -28.1575  -22.8805   20.3824 N   0  0  0  0  0  0
  -31.3070  -13.8657   19.0242 H   0  0  0  0  0  0
  -30.6925  -12.7969   20.2359 H   0  0  0  0  0  0
  -30.1163  -11.9634   17.9102 H   0  0  0  0  0  0
  -29.4211  -13.5145   17.5159 H   0  0  0  0  0  0
  -28.3228  -11.3866   19.3532 H   0  0  0  0  0  0
  -27.5157  -12.1292   17.9833 H   0  0  0  0  0  0
  -27.3493  -14.2054   19.1236 H   0  0  0  0  0  0
  -28.9743  -13.1595   21.4778 H   0  0  0  0  0  0
  -28.0521  -14.6339   21.4860 H   0  0  0  0  0  0
  -25.2867   -9.5603   22.4750 H   0  0  0  0  0  0
  -24.0030   -7.4585   22.7401 H   0  0  0  0  0  0
  -21.0875   -8.8879   19.8964 H   0  0  0  0  0  0
  -22.3850  -10.9681   19.6145 H   0  0  0  0  0  0
  -21.2145   -7.6182   23.9774 H   0  0  0  0  0  0
  -21.1457   -6.0505   25.9090 H   0  0  0  0  0  0
  -22.0599   -2.7615   23.2819 H   0  0  0  0  0  0
  -22.4043  -11.9796   22.5108 H   0  0  0  0  0  0
  -21.0955  -13.0958   22.2590 H   0  0  0  0  0  0
  -24.5669  -15.8359   20.5609 H   0  0  0  0  0  0
  -26.1862  -15.6949   20.1063 H   0  0  0  0  0  0
  -26.7764  -32.4615   23.0598 H   0  0  0  0  0  0
  -24.9941  -33.9060   24.9727 H   0  0  0  0  0  0
  -22.9164  -31.1835   21.2602 H   0  0  0  0  0  0
  -23.3780  -35.9355   23.3322 H   0  0  0  0  0  0
  -24.3487  -36.8737   22.2059 H   0  0  0  0  0  0
  -23.7226  -37.6200   23.6793 H   0  0  0  0  0  0
  -26.4228  -31.0413   20.6554 H   0  0  0  0  0  0
  -26.9947  -30.4099   22.1392 H   0  0  0  0  0  0
  -28.2062  -27.9978   21.3164 H   0  0  0  0  0  0
  -25.7815  -25.4491   18.9113 H   0  0  0  0  0  0
  -24.0828  -27.1309   18.8767 H   0  0  0  0  0  0
  -24.0551  -30.3374   19.3672 H   0  0  0  0  0  0
  -22.9348  -29.0841   19.8020 H   0  0  0  0  0  0
  -25.1397  -36.1504   25.0747 H   0  0  0  0  0  0
  -21.0055  -28.3510   24.1227 H   0  0  0  0  0  0
  -20.5665  -26.2462   23.3705 H   0  0  0  0  0  0
  -21.6693  -26.7325   22.1264 H   0  0  0  0  0  0
  -19.6954  -25.6226   21.1355 H   0  0  0  0  0  0
  -19.6778  -27.3089   20.6707 H   0  0  0  0  0  0
  -17.4241  -26.6659   21.4026 H   0  0  0  0  0  0
  -18.0365  -26.0147   22.9051 H   0  0  0  0  0  0
  -19.8018  -30.7362   24.2129 H   0  0  0  0  0  0
  -17.5086  -31.6296   24.5148 H   0  0  0  0  0  0
  -15.5414  -30.2968   23.7765 H   0  0  0  0  0  0
  -15.8726  -28.0793   22.7195 H   0  0  0  0  0  0
  -24.5770  -30.7338   25.7497 H   0  0  0  0  0  0
  -24.8818  -32.3230   26.4330 H   0  0  0  0  0  0
  -25.7624  -30.9259   27.0187 H   0  0  0  0  0  0
  -26.3462  -29.6200   24.2000 H   0  0  0  0  0  0
  -27.3947  -29.7410   25.5874 H   0  0  0  0  0  0
  -27.9494  -30.3762   24.0637 H   0  0  0  0  0  0
  -27.2416  -33.3803   26.1839 H   0  0  0  0  0  0
  -28.3926  -32.6907   25.0484 H   0  0  0  0  0  0
  -28.0533  -31.8780   26.5689 H   0  0  0  0  0  0
  -28.2569  -38.0000   24.7458 H   0  0  0  0  0  0
  -28.1050  -36.2512   24.6371 H   0  0  0  0  0  0
  -27.2244  -37.1402   25.8861 H   0  0  0  0  0  0
  -20.9954  -29.8525   21.6236 H   0  0  0  0  0  0
  -26.0079  -38.2622   24.1388 H   0  0  0  0  0  0
  -26.8925  -17.5302   17.5166 H   0  0  0  0  0  0
  -26.7030  -17.4849   19.2366 H   0  0  0  0  0  0
  -26.0285  -19.6755   18.1909 H   0  0  0  0  0  0
  -27.6249  -19.8794   17.5433 H   0  0  0  0  0  0
  -29.3811  -18.1681   17.8663 H   0  0  0  0  0  0
  -28.8787  -16.5467   18.1344 H   0  0  0  0  0  0
  -26.2881  -22.2274   19.5712 H   0  0  0  0  0  0
  -27.6203  -22.1837   18.4765 H   0  0  0  0  0  0
  -29.7027  -21.6738   19.1763 H   0  0  0  0  0  0
  -30.1275  -21.7319   20.8210 H   0  0  0  0  0  0
  -26.7736  -19.9561   20.4508 H   0  0  0  0  0  0
  -28.7973  -19.4941   21.3619 H   0  0  0  0  0  0
  1 25  1  0  0  0
  1 30  2  0  0  0
  1 78  1  0  0  0
  2  3  1  0  0  0
  2 25  1  0  0  0
  2 80  1  0  0  0
  2 81  1  0  0  0
  3  4  1  0  0  0
  3 82  1  0  0  0
  3 83  1  0  0  0
  4  5  1  0  0  0
  4 84  1  0  0  0
  4 85  1  0  0  0
  5  6  1  0  0  0
  5 26  1  0  0  0
  5 86  1  0  0  0
  6 25  1  0  0  0
  6 87  1  0  0  0
  6 88  1  0  0  0
  7  8  2  0  0  0
  7 26  1  0  0  0
  7 29  1  0  0  0
  8  9  1  0  0  0
  8 22  1  0  0  0
  9 10  1  0  0  0
  9 27  2  0  0  0
 10 11  2  0  0  0
 10 15  1  0  0  0
 11 12  1  0  0  0
 11 89  1  0  0  0
 12 13  2  0  0  0
 12 90  1  0  0  0
 13 14  1  0  0  0
 13 31  1  0  0  0
 14 15  2  0  0  0
 14 91  1  0  0  0
 15 92  1  0  0  0
 16 17  2  0  0  0
 16 21  1  0  0  0
 16 31  1  0  0  0
 17 18  1  0  0  0
 17 93  1  0  0  0
 18 19  2  0  0  0
 18 94  1  0  0  0
 19 20  1  0  0  0
 19 24  1  0  0  0
 20 21  2  0  0  0
 20 95  1  0  0  0
 21 23  1  0  0  0
 22 28  1  0  0  0
 22 32  2  0  0  0
 26 27  1  0  0  0
 28 96  1  0  0  0
 28 97  1  0  0  0
 29 98  1  0  0  0
 29 99  1  0  0  0
 33 34  1  0  0  0
 33 66  1  0  0  0
 33 70  2  0  0  0
 34 36  1  0  0  0
 34 59  1  0  0  0
 34100  1  0  0  0
 35 44  2  0  0  0
 35 45  1  0  0  0
 35 68  1  0  0  0
 36 56  1  0  0  0
 36101  1  0  0  0
 37 39  1  0  0  0
 37 47  1  0  0  0
 37 66  1  0  0  0
 37102  1  0  0  0
 38 43  2  0  0  0
 38 46  1  0  0  0
 38 47  1  0  0  0
 39 64  1  0  0  0
 39 67  2  0  0  0
 40 52  1  0  0  0
 40 53  2  0  0  0
 40 58  1  0  0  0
 41103  1  0  0  0
 41104  1  0  0  0
 41105  1  0  0  0
 41 48  1  0  0  0
 42 43  1  0  0  0
 42 66  1  0  0  0
 42106  1  0  0  0
 42107  1  0  0  0
 43 44  1  0  0  0
 44108  1  0  0  0
 45 46  2  0  0  0
 45109  1  0  0  0
 46110  1  0  0  0
 47111  1  0  0  0
 47112  1  0  0  0
 48 56  1  0  0  0
 48 65  1  0  0  0
 48113  1  0  0  0
 49 50  1  0  0  0
 49 53  1  0  0  0
 49 64  1  0  0  0
 49114  1  0  0  0
 50 51  1  0  0  0
 50115  1  0  0  0
 50116  1  0  0  0
 51 52  1  0  0  0
 51117  1  0  0  0
 51118  1  0  0  0
 52119  1  0  0  0
 52120  1  0  0  0
 53 54  1  0  0  0
 54 55  2  0  0  0
 54121  1  0  0  0
 55 57  1  0  0  0
 55122  1  0  0  0
 56 69  2  0  0  0
 57 58  2  0  0  0
 57123  1  0  0  0
 58124  1  0  0  0
 59 60  1  0  0  0
 59 61  1  0  0  0
 59 62  1  0  0  0
 60125  1  0  0  0
 60126  1  0  0  0
 60127  1  0  0  0
 61128  1  0  0  0
 61129  1  0  0  0
 61130  1  0  0  0
 62131  1  0  0  0
 62132  1  0  0  0
 62133  1  0  0  0
 63 65  1  0  0  0
 63134  1  0  0  0
 63135  1  0  0  0
 63136  1  0  0  0
 64137  1  0  0  0
 65138  1  0  0  0
 68 79  1  0  0  0
 71 72  1  0  0  0
 71 73  1  0  0  0
 71139  1  0  0  0
 71140  1  0  0  0
 72141  1  0  0  0
 72142  1  0  0  0
 72 76  1  0  0  0
 73 78  1  0  0  0
 73143  1  0  0  0
 73144  1  0  0  0
 74 76  1  0  0  0
 74 79  1  0  0  0
 74145  1  0  0  0
 74146  1  0  0  0
 75 79  1  0  0  0
 75147  1  0  0  0
 75148  1  0  0  0
 75 77  1  0  0  0
 76 77  1  0  0  0
 76149  1  0  0  0
 77 78  1  0  0  0
 77150  1  0  0  0
M  ISO  4   1 100  68 101  78 100  79 101
M  END
> <chiral flag>
0

> <version>
0

> <s_m_source_file>
/data/baiqing/PycharmProjects/Reinvent-master-3.2/result/LINK_invent/BTK/process_docking_weight1_custom_product_contain_oxygen_bond_distance_aromatic_linkinvent_7_9_3/rearranged_h_0008.sdf

> <i_m_source_file_index>
98

> <r_mmod_Potential_Energy-OPLS-2005>
5233.69775390625

> <r_mmod_Stretch_Energy-OPLS-2005>
2060.67333984375

> <r_mmod_Bend_Energy-OPLS-2005>
1192.68811035156

> <r_mmod_Torsional_Energy-OPLS-2005>
411.691162109375

> <r_mmod_Improper_Torsional_Energy-OPLS-2005>
10.30348777771

> <r_mmod_Van_der_Waal_Energy-OPLS-2005>
115.681259155273

> <r_mmod_Electrostatic_Energy-OPLS-2005>
-269.351623535156

> <r_mmod_Solvation_Energy-OPLS-2005>
-226.418350219727

> <b_mmod_Minimization_Converged-OPLS-2005>
0

> <r_mmod_RMS_Derivative-OPLS-2005>
6.87042474746704

$$$$
