0
                    3D
 Structure written by MMmdl.
153161  0  0  1  0            999 V2000
  -30.6115  -14.7219   20.4604 C   0  0  0  0  0  0
  -30.4303  -12.4340   19.4758 C   0  0  0  0  0  0
  -29.5121  -12.5086   18.2357 C   0  0  0  0  0  0
  -28.0343  -12.3442   18.6417 C   0  0  0  0  0  0
  -27.6438  -13.2311   19.8547 C   0  0  2  0  0  0
  -28.6877  -13.1391   20.9901 C   0  0  0  0  0  0
  -25.2516  -13.8200   20.5694 C   0  0  0  0  0  0
  -24.1802  -13.0438   20.9200 C   0  0  0  0  0  0
  -24.6395  -11.6919   20.8750 C   0  0  0  0  0  0
  -23.9078  -10.4297   21.0416 C   0  0  0  0  0  0
  -24.3626   -9.4212   21.9190 C   0  0  0  0  0  0
  -23.6293   -8.2252   22.0758 C   0  0  0  0  0  0
  -22.4278   -8.0290   21.3549 C   0  0  0  0  0  0
  -21.9913   -9.0269   20.4655 C   0  0  0  0  0  0
  -22.7248  -10.2143   20.3064 C   0  0  0  0  0  0
  -21.6846   -6.0747   22.5287 C   0  0  0  0  0  0
  -21.4015   -6.5646   23.8223 C   0  0  0  0  0  0
  -21.3662   -5.6791   24.9177 C   0  0  0  0  0  0
  -21.6045   -4.3056   24.7223 C   0  0  0  0  0  0
  -21.8815   -3.8154   23.4341 C   0  0  0  0  0  0
  -21.9192   -4.6977   22.3403 C   0  0  0  0  0  0
  -22.7827  -13.5235   21.1855 C   0  0  0  0  0  0
  -22.1655   -4.2158   21.0980 F   0  0  0  0  0  0
  -21.5626   -3.4537   25.7739 F   0  0  0  0  0  0
  -29.9932  -13.4911   20.4169 N   0  0  0  0  0  0
  -26.2939  -12.9405   20.3288 N   0  0  0  0  0  0
  -25.9321  -11.6550   20.5752 N   0  0  0  0  0  0
  -22.0448  -12.8243   22.0408 N   0  0  0  0  0  0
  -25.4201  -15.1929   20.4137 N   0  0  0  0  0  0
  -31.7946  -14.8145   20.1212 O   0  0  0  0  0  0
  -21.6637   -6.8889   21.4249 O   0  0  0  0  0  0
  -22.3521  -14.5537   20.6694 O   0  0  0  0  0  0
  -24.6305  -31.8536   23.1974 C   0  0  0  0  0  0
  -25.9136  -32.4748   23.8313 C   0  0  1  0  0  0
  -27.2191  -27.2561   20.1303 C   0  0  0  0  0  0
  -25.5926  -33.8548   24.2238 N   0  0  0  0  0  0
  -23.4272  -30.4752   21.5397 C   0  0  2  0  0  0
  -24.8768  -28.9221   20.1069 C   0  0  0  0  0  0
  -22.7497  -29.4590   22.4906 C   0  0  0  0  0  0
  -18.0286  -28.1384   22.8485 C   0  0  0  0  0  0
  -24.1486  -36.7276   23.2634 C   0  0  0  0  0  0
  -25.9725  -30.7658   21.3769 C   0  0  0  0  0  0
  -26.0464  -29.3876   20.7194 C   0  0  0  0  0  0
  -27.2196  -28.5664   20.7214 C   0  0  0  0  0  0
  -26.0266  -26.8598   19.4836 C   0  0  0  0  0  0
  -24.8726  -27.6677   19.4777 C   0  0  0  0  0  0
  -23.6458  -29.8075   20.1567 C   0  0  0  0  0  0
  -25.4113  -36.3058   24.0316 C   0  0  1  0  0  0
  -20.5890  -28.3690   23.1274 C   0  0  2  0  0  0
  -20.6767  -26.9406   22.5412 C   0  0  0  0  0  0
  -19.5746  -26.6383   21.5209 C   0  0  0  0  0  0
  -18.1932  -26.7924   22.1629 C   0  0  0  0  0  0
  -19.1540  -28.8854   23.2874 C   0  0  0  0  0  0
  -18.9463  -30.1457   23.8894 C   0  0  0  0  0  0
  -17.6460  -30.6588   24.0558 C   0  0  0  0  0  0
  -25.9060  -34.9432   23.5082 C   0  0  0  0  0  0
  -16.5351  -29.9081   23.6331 C   0  0  0  0  0  0
  -16.7275  -28.6497   23.0360 C   0  0  0  0  0  0
  -26.4501  -31.6573   25.0700 C   0  0  0  0  0  0
  -25.3724  -31.3730   26.1425 C   0  0  0  0  0  0
  -27.0335  -30.2978   24.6188 C   0  0  0  0  0  0
  -27.6052  -32.4310   25.7487 C   0  0  0  0  0  0
  -27.5574  -37.1789   24.8462 C   0  0  0  0  0  0
  -21.4203  -29.3032   22.3659 N   0  0  0  0  0  0
  -26.4283  -37.3762   23.9410 N   0  0  0  0  0  0
  -24.6956  -31.0500   22.0945 N   0  0  0  0  0  0
  -23.4196  -28.8141   23.3015 O   0  0  0  0  0  0
  -28.3084  -26.3560   20.2185 O   0  0  0  0  0  0
  -26.5640  -34.8908   22.4654 O   0  0  0  0  0  0
  -23.5461  -32.1369   23.7270 O   0  0  0  0  0  0
  -30.8702  -19.5298   19.6347 C   0  0  0  0  0  0
  -29.6846  -19.6390   20.3355 C   0  0  0  0  0  0
  -30.0844  -17.2722   20.4248 C   0  0  0  0  0  0
  -28.6709  -23.6019   20.5581 C   0  0  0  0  0  0
  -31.7013  -20.6232   19.0472 C   0  0  0  0  0  0
  -27.5976  -21.9303   18.8922 C   0  0  0  0  0  0
  -28.1619  -24.9205   19.7717 C   0  0  0  0  0  0
  -28.8050  -22.1480   19.8220 C   0  0  2  0  0  0
  -29.2710  -18.3246   20.7791 N   0  0  0  0  0  0
  -28.9988  -20.8922   20.6621 N   0  0  0  0  0  0
  -29.8356  -15.8419   20.7234 N   0  0  0  0  0  0
  -28.9790  -23.7032   21.7517 O   0  0  0  0  0  0
  -31.4568  -17.8712   19.5001 S   0  0  0  0  0  0
  -31.4749  -12.5427   19.1788 H   0  0  0  0  0  0
  -30.3575  -11.4520   19.9464 H   0  0  0  0  0  0
  -29.7868  -11.7404   17.5121 H   0  0  0  0  0  0
  -29.6521  -13.4661   17.7310 H   0  0  0  0  0  0
  -27.8746  -11.2937   18.8857 H   0  0  0  0  0  0
  -27.3830  -12.5587   17.7939 H   0  0  0  0  0  0
  -27.6462  -14.2584   19.4904 H   0  0  0  0  0  0
  -28.7147  -12.1305   21.4047 H   0  0  0  0  0  0
  -28.4274  -13.8008   21.8177 H   0  0  0  0  0  0
  -25.2770   -9.5682   22.4756 H   0  0  0  0  0  0
  -24.0004   -7.4639   22.7471 H   0  0  0  0  0  0
  -21.0843   -8.8801   19.8955 H   0  0  0  0  0  0
  -22.3721  -10.9685   19.6172 H   0  0  0  0  0  0
  -21.2012   -7.6151   23.9733 H   0  0  0  0  0  0
  -21.1480   -6.0516   25.9082 H   0  0  0  0  0  0
  -22.0591   -2.7615   23.2842 H   0  0  0  0  0  0
  -22.4050  -11.9921   22.4842 H   0  0  0  0  0  0
  -21.1069  -13.1287   22.2593 H   0  0  0  0  0  0
  -24.6482  -15.8410   20.5262 H   0  0  0  0  0  0
  -26.2635  -15.6413   20.0799 H   0  0  0  0  0  0
  -26.7190  -32.5393   23.1044 H   0  0  0  0  0  0
  -25.0033  -33.9680   25.0356 H   0  0  0  0  0  0
  -22.7216  -31.2964   21.3926 H   0  0  0  0  0  0
  -23.3746  -35.9615   23.3302 H   0  0  0  0  0  0
  -24.3573  -36.8905   22.2050 H   0  0  0  0  0  0
  -23.7257  -37.6477   23.6668 H   0  0  0  0  0  0
  -26.1086  -31.5248   20.6052 H   0  0  0  0  0  0
  -26.8503  -30.8162   22.0098 H   0  0  0  0  0  0
  -28.1130  -28.9153   21.2200 H   0  0  0  0  0  0
  -25.9537  -25.8967   19.0001 H   0  0  0  0  0  0
  -23.9763  -27.3075   18.9920 H   0  0  0  0  0  0
  -23.7682  -30.5822   19.3988 H   0  0  0  0  0  0
  -22.7647  -29.2383   19.8545 H   0  0  0  0  0  0
  -25.1300  -36.1882   25.0808 H   0  0  0  0  0  0
  -20.9983  -28.3264   24.1393 H   0  0  0  0  0  0
  -20.5653  -26.2295   23.3611 H   0  0  0  0  0  0
  -21.6635  -26.7418   22.1214 H   0  0  0  0  0  0
  -19.6905  -25.6294   21.1238 H   0  0  0  0  0  0
  -19.6690  -27.3194   20.6736 H   0  0  0  0  0  0
  -17.4195  -26.6670   21.4039 H   0  0  0  0  0  0
  -18.0344  -26.0062   22.9025 H   0  0  0  0  0  0
  -19.7935  -30.7276   24.2268 H   0  0  0  0  0  0
  -17.5012  -31.6272   24.5153 H   0  0  0  0  0  0
  -15.5354  -30.2985   23.7653 H   0  0  0  0  0  0
  -15.8673  -28.0814   22.7087 H   0  0  0  0  0  0
  -24.5914  -30.7055   25.7765 H   0  0  0  0  0  0
  -24.8897  -32.2898   26.4811 H   0  0  0  0  0  0
  -25.8046  -30.8943   27.0221 H   0  0  0  0  0  0
  -26.2917  -29.6749   24.1170 H   0  0  0  0  0  0
  -27.3956  -29.7217   25.4715 H   0  0  0  0  0  0
  -27.8825  -30.4241   23.9469 H   0  0  0  0  0  0
  -27.2657  -33.3620   26.2042 H   0  0  0  0  0  0
  -28.3885  -32.6855   25.0333 H   0  0  0  0  0  0
  -28.0687  -31.8438   26.5427 H   0  0  0  0  0  0
  -28.2578  -38.0097   24.7506 H   0  0  0  0  0  0
  -28.1081  -36.2621   24.6287 H   0  0  0  0  0  0
  -27.2285  -37.1436   25.8863 H   0  0  0  0  0  0
  -20.9386  -29.8746   21.6856 H   0  0  0  0  0  0
  -26.0149  -38.2826   24.1428 H   0  0  0  0  0  0
  -32.7167  -20.2787   18.8506 H   0  0  0  0  0  0
  -31.7736  -21.4704   19.7293 H   0  0  0  0  0  0
  -31.2781  -20.9674   18.1041 H   0  0  0  0  0  0
  -26.6746  -21.7861   19.4563 H   0  0  0  0  0  0
  -27.7392  -21.0538   18.2588 H   0  0  0  0  0  0
  -27.4463  -22.7758   18.2198 H   0  0  0  0  0  0
  -29.2440  -25.0226   19.6926 H   0  0  0  0  0  0
  -27.4454  -24.8812   20.5930 H   0  0  0  0  0  0
  -29.6745  -22.2275   19.1746 H   0  0  0  0  0  0
  -28.2963  -20.7958   21.3878 H   0  0  0  0  0  0
  -28.9101  -15.6387   21.0645 H   0  0  0  0  0  0
  1 25  1  0  0  0
  1 30  2  0  0  0
  1 81  1  0  0  0
  2  3  1  0  0  0
  2 25  1  0  0  0
  2 84  1  0  0  0
  2 85  1  0  0  0
  3  4  1  0  0  0
  3 86  1  0  0  0
  3 87  1  0  0  0
  4  5  1  0  0  0
  4 88  1  0  0  0
  4 89  1  0  0  0
  5  6  1  0  0  0
  5 26  1  0  0  0
  5 90  1  0  0  0
  6 25  1  0  0  0
  6 91  1  0  0  0
  6 92  1  0  0  0
  7  8  2  0  0  0
  7 26  1  0  0  0
  7 29  1  0  0  0
  8  9  1  0  0  0
  8 22  1  0  0  0
  9 10  1  0  0  0
  9 27  2  0  0  0
 10 11  2  0  0  0
 10 15  1  0  0  0
 11 12  1  0  0  0
 11 93  1  0  0  0
 12 13  2  0  0  0
 12 94  1  0  0  0
 13 14  1  0  0  0
 13 31  1  0  0  0
 14 15  2  0  0  0
 14 95  1  0  0  0
 15 96  1  0  0  0
 16 17  2  0  0  0
 16 21  1  0  0  0
 16 31  1  0  0  0
 17 18  1  0  0  0
 17 97  1  0  0  0
 18 19  2  0  0  0
 18 98  1  0  0  0
 19 20  1  0  0  0
 19 24  1  0  0  0
 20 21  2  0  0  0
 20 99  1  0  0  0
 21 23  1  0  0  0
 22 28  1  0  0  0
 22 32  2  0  0  0
 26 27  1  0  0  0
 28100  1  0  0  0
 28101  1  0  0  0
 29102  1  0  0  0
 29103  1  0  0  0
 33 34  1  0  0  0
 33 66  1  0  0  0
 33 70  2  0  0  0
 34 36  1  0  0  0
 34 59  1  0  0  0
 34104  1  0  0  0
 35 44  2  0  0  0
 35 45  1  0  0  0
 35 68  1  0  0  0
 36 56  1  0  0  0
 36105  1  0  0  0
 37 39  1  0  0  0
 37 47  1  0  0  0
 37 66  1  0  0  0
 37106  1  0  0  0
 38 43  2  0  0  0
 38 46  1  0  0  0
 38 47  1  0  0  0
 39 64  1  0  0  0
 39 67  2  0  0  0
 40 52  1  0  0  0
 40 53  2  0  0  0
 40 58  1  0  0  0
 41107  1  0  0  0
 41108  1  0  0  0
 41109  1  0  0  0
 41 48  1  0  0  0
 42 43  1  0  0  0
 42 66  1  0  0  0
 42110  1  0  0  0
 42111  1  0  0  0
 43 44  1  0  0  0
 44112  1  0  0  0
 45 46  2  0  0  0
 45113  1  0  0  0
 46114  1  0  0  0
 47115  1  0  0  0
 47116  1  0  0  0
 48 56  1  0  0  0
 48 65  1  0  0  0
 48117  1  0  0  0
 49 50  1  0  0  0
 49 53  1  0  0  0
 49 64  1  0  0  0
 49118  1  0  0  0
 50 51  1  0  0  0
 50119  1  0  0  0
 50120  1  0  0  0
 51 52  1  0  0  0
 51121  1  0  0  0
 51122  1  0  0  0
 52123  1  0  0  0
 52124  1  0  0  0
 53 54  1  0  0  0
 54 55  2  0  0  0
 54125  1  0  0  0
 55 57  1  0  0  0
 55126  1  0  0  0
 56 69  2  0  0  0
 57 58  2  0  0  0
 57127  1  0  0  0
 58128  1  0  0  0
 59 60  1  0  0  0
 59 61  1  0  0  0
 59 62  1  0  0  0
 60129  1  0  0  0
 60130  1  0  0  0
 60131  1  0  0  0
 61132  1  0  0  0
 61133  1  0  0  0
 61134  1  0  0  0
 62135  1  0  0  0
 62136  1  0  0  0
 62137  1  0  0  0
 63 65  1  0  0  0
 63138  1  0  0  0
 63139  1  0  0  0
 63140  1  0  0  0
 64141  1  0  0  0
 65142  1  0  0  0
 68 77  1  0  0  0
 71 72  2  0  0  0
 71 75  1  0  0  0
 71 83  1  0  0  0
 72 79  1  0  0  0
 72 80  1  0  0  0
 73 79  2  0  0  0
 73 81  1  0  0  0
 73 83  1  0  0  0
 74 77  1  0  0  0
 74 78  1  0  0  0
 74 82  2  0  0  0
 75143  1  0  0  0
 75144  1  0  0  0
 75145  1  0  0  0
 76146  1  0  0  0
 76147  1  0  0  0
 76148  1  0  0  0
 76 78  1  0  0  0
 77149  1  0  0  0
 77150  1  0  0  0
 78 80  1  0  0  0
 78151  1  0  0  0
 80152  1  0  0  0
 81153  1  0  0  0
M  ISO  4   1 100  68 101  77 101  81 100
M  END
> <chiral flag>
0

> <version>
0

> <s_m_source_file>
/data/baiqing/PycharmProjects/Reinvent-master-3.2/result/LINK_invent/BTK/process_docking_weight1_custom_product_contain_oxygen_bond_distance_aromatic_linkinvent_7_9_3/rearranged_h_0176.sdf

> <i_m_source_file_index>
1

> <r_mmod_Potential_Energy-OPLS-2005>
259.608337402344

> <r_mmod_Stretch_Energy-OPLS-2005>
123.329681396484

> <r_mmod_Bend_Energy-OPLS-2005>
369.531402587891

> <r_mmod_Torsional_Energy-OPLS-2005>
210.361221313477

> <r_mmod_Improper_Torsional_Energy-OPLS-2005>
5.60043287277222

> <r_mmod_Van_der_Waal_Energy-OPLS-2005>
122.263687133789

> <r_mmod_Electrostatic_Energy-OPLS-2005>
-417.172546386719

> <r_mmod_Solvation_Energy-OPLS-2005>
-235.831207275391

> <b_mmod_Minimization_Converged-OPLS-2005>
0

> <r_mmod_RMS_Derivative-OPLS-2005>
1.7569317817688

$$$$
1
                    3D
 Structure written by MMmdl.
149157  0  0  1  0            999 V2000
  -30.5870  -14.8032   20.4467 C   0  0  0  0  0  0
  -30.4374  -12.4898   19.4880 C   0  0  0  0  0  0
  -29.5198  -12.5230   18.2451 C   0  0  0  0  0  0
  -28.0460  -12.3361   18.6541 C   0  0  0  0  0  0
  -27.6416  -13.2398   19.8500 C   0  0  2  0  0  0
  -28.6835  -13.1906   20.9905 C   0  0  0  0  0  0
  -25.2502  -13.8197   20.5690 C   0  0  0  0  0  0
  -24.1804  -13.0438   20.9215 C   0  0  0  0  0  0
  -24.6402  -11.6920   20.8743 C   0  0  0  0  0  0
  -23.9077  -10.4296   21.0400 C   0  0  0  0  0  0
  -24.3630   -9.4209   21.9177 C   0  0  0  0  0  0
  -23.6306   -8.2242   22.0742 C   0  0  0  0  0  0
  -22.4283   -8.0286   21.3540 C   0  0  0  0  0  0
  -21.9923   -9.0259   20.4638 C   0  0  0  0  0  0
  -22.7251  -10.2135   20.3048 C   0  0  0  0  0  0
  -21.6858   -6.0739   22.5277 C   0  0  0  0  0  0
  -21.4024   -6.5638   23.8214 C   0  0  0  0  0  0
  -21.3668   -5.6786   24.9173 C   0  0  0  0  0  0
  -21.6044   -4.3047   24.7218 C   0  0  0  0  0  0
  -21.8819   -3.8147   23.4336 C   0  0  0  0  0  0
  -21.9195   -4.6970   22.3398 C   0  0  0  0  0  0
  -22.7825  -13.5218   21.1883 C   0  0  0  0  0  0
  -22.1661   -4.2154   21.0979 F   0  0  0  0  0  0
  -21.5631   -3.4529   25.7732 F   0  0  0  0  0  0
  -29.9842  -13.5586   20.4142 N   0  0  0  0  0  0
  -26.2939  -12.9422   20.3263 N   0  0  0  0  0  0
  -25.9338  -11.6562   20.5732 N   0  0  0  0  0  0
  -22.0469  -12.8207   22.0441 N   0  0  0  0  0  0
  -25.4174  -15.1923   20.4079 N   0  0  0  0  0  0
  -31.7707  -14.8969   20.1041 O   0  0  0  0  0  0
  -21.6645   -6.8881   21.4239 O   0  0  0  0  0  0
  -22.3505  -14.5525   20.6730 O   0  0  0  0  0  0
  -24.6352  -31.8518   23.1937 C   0  0  0  0  0  0
  -25.9150  -32.4739   23.8317 C   0  0  1  0  0  0
  -27.2187  -27.2228   20.1230 C   0  0  0  0  0  0
  -25.5925  -33.8541   24.2236 N   0  0  0  0  0  0
  -23.4328  -30.4730   21.5400 C   0  0  2  0  0  0
  -24.8769  -28.9143   20.1070 C   0  0  0  0  0  0
  -22.7519  -29.4589   22.4908 C   0  0  0  0  0  0
  -18.0287  -28.1374   22.8485 C   0  0  0  0  0  0
  -24.1484  -36.7289   23.2641 C   0  0  0  0  0  0
  -25.9810  -30.7537   21.3762 C   0  0  0  0  0  0
  -26.0509  -29.3723   20.7168 C   0  0  0  0  0  0
  -27.2192  -28.5392   20.7126 C   0  0  0  0  0  0
  -26.0140  -26.8397   19.4892 C   0  0  0  0  0  0
  -24.8669  -27.6583   19.4831 C   0  0  0  0  0  0
  -23.6491  -29.8048   20.1564 C   0  0  0  0  0  0
  -25.4110  -36.3066   24.0324 C   0  0  1  0  0  0
  -20.5892  -28.3697   23.1252 C   0  0  2  0  0  0
  -20.6762  -26.9408   22.5402 C   0  0  0  0  0  0
  -19.5736  -26.6372   21.5207 C   0  0  0  0  0  0
  -18.1920  -26.7912   22.1628 C   0  0  0  0  0  0
  -19.1539  -28.8848   23.2862 C   0  0  0  0  0  0
  -18.9465  -30.1445   23.8889 C   0  0  0  0  0  0
  -17.6463  -30.6575   24.0557 C   0  0  0  0  0  0
  -25.9062  -34.9439   23.5093 C   0  0  0  0  0  0
  -16.5353  -29.9076   23.6322 C   0  0  0  0  0  0
  -16.7273  -28.6486   23.0353 C   0  0  0  0  0  0
  -26.4491  -31.6574   25.0734 C   0  0  0  0  0  0
  -25.3707  -31.3735   26.1459 C   0  0  0  0  0  0
  -27.0340  -30.2977   24.6248 C   0  0  0  0  0  0
  -27.6039  -32.4316   25.7514 C   0  0  0  0  0  0
  -27.5582  -37.1793   24.8460 C   0  0  0  0  0  0
  -21.4219  -29.3050   22.3653 N   0  0  0  0  0  0
  -26.4282  -37.3773   23.9418 N   0  0  0  0  0  0
  -24.7029  -31.0449   22.0932 N   0  0  0  0  0  0
  -23.4198  -28.8135   23.3025 O   0  0  0  0  0  0
  -28.3236  -26.3294   20.2220 O   0  0  0  0  0  0
  -26.5658  -34.8923   22.4680 O   0  0  0  0  0  0
  -23.5490  -32.1358   23.7208 O   0  0  0  0  0  0
  -30.9843  -17.9430   19.6915 C   0  0  0  0  0  0
  -29.9671  -17.3963   20.4424 C   0  0  0  0  0  0
  -29.3962  -19.7627   20.4909 C   0  0  0  0  0  0
  -28.7434  -21.1453   20.9439 C   0  0  0  0  0  0
  -28.4459  -23.6527   20.6380 C   0  0  0  0  0  0
  -29.6355  -24.9479   18.7222 C   0  0  0  0  0  0
  -28.4003  -24.9245   19.6320 C   0  0  2  0  0  0
  -29.0869  -18.4641   20.8750 N   0  0  0  0  0  0
  -29.7988  -15.9300   20.7109 N   0  0  0  0  0  0
  -28.8686  -22.3631   20.2603 N   0  0  0  0  0  0
  -28.0556  -21.0677   21.9707 O   0  0  0  0  0  0
  -28.0542  -23.8866   21.7868 O   0  0  0  0  0  0
  -30.8689  -19.7087   19.5160 S   0  0  0  0  0  0
  -31.4788  -12.6173   19.1886 H   0  0  0  0  0  0
  -30.3864  -11.5152   19.9760 H   0  0  0  0  0  0
  -29.8163  -11.7478   17.5374 H   0  0  0  0  0  0
  -29.6379  -13.4738   17.7227 H   0  0  0  0  0  0
  -27.9110  -11.2882   18.9242 H   0  0  0  0  0  0
  -27.3888  -12.5146   17.8014 H   0  0  0  0  0  0
  -27.6278  -14.2592   19.4648 H   0  0  0  0  0  0
  -28.7288  -12.1939   21.4325 H   0  0  0  0  0  0
  -28.4023  -13.8692   21.7986 H   0  0  0  0  0  0
  -25.2778   -9.5689   22.4750 H   0  0  0  0  0  0
  -24.0022   -7.4632   22.7455 H   0  0  0  0  0  0
  -21.0852   -8.8783   19.8945 H   0  0  0  0  0  0
  -22.3711  -10.9680   19.6162 H   0  0  0  0  0  0
  -21.2020   -7.6146   23.9723 H   0  0  0  0  0  0
  -21.1495   -6.0511   25.9078 H   0  0  0  0  0  0
  -22.0592   -2.7608   23.2833 H   0  0  0  0  0  0
  -22.4083  -11.9875   22.4849 H   0  0  0  0  0  0
  -21.1082  -13.1219   22.2629 H   0  0  0  0  0  0
  -24.6445  -15.8418   20.5013 H   0  0  0  0  0  0
  -26.2591  -15.6317   20.0585 H   0  0  0  0  0  0
  -26.7236  -32.5367   23.1075 H   0  0  0  0  0  0
  -25.0026  -33.9674   25.0350 H   0  0  0  0  0  0
  -22.7326  -31.2977   21.3931 H   0  0  0  0  0  0
  -23.3750  -35.9616   23.3272 H   0  0  0  0  0  0
  -24.3586  -36.8947   22.2062 H   0  0  0  0  0  0
  -23.7222  -37.6476   23.6686 H   0  0  0  0  0  0
  -26.1226  -31.5104   20.6026 H   0  0  0  0  0  0
  -26.8577  -30.8038   22.0108 H   0  0  0  0  0  0
  -28.1167  -28.8885   21.2042 H   0  0  0  0  0  0
  -25.8983  -25.8782   19.0185 H   0  0  0  0  0  0
  -23.9658  -27.2968   19.0067 H   0  0  0  0  0  0
  -23.7759  -30.5808   19.4006 H   0  0  0  0  0  0
  -22.7656  -29.2401   19.8518 H   0  0  0  0  0  0
  -25.1285  -36.1919   25.0813 H   0  0  0  0  0  0
  -20.9981  -28.3271   24.1373 H   0  0  0  0  0  0
  -20.5626  -26.2323   23.3619 H   0  0  0  0  0  0
  -21.6632  -26.7406   22.1215 H   0  0  0  0  0  0
  -19.6894  -25.6280   21.1237 H   0  0  0  0  0  0
  -19.6651  -27.3181   20.6728 H   0  0  0  0  0  0
  -17.4184  -26.6651   21.4034 H   0  0  0  0  0  0
  -18.0329  -26.0049   22.9020 H   0  0  0  0  0  0
  -19.7942  -30.7253   24.2257 H   0  0  0  0  0  0
  -17.5020  -31.6255   24.5161 H   0  0  0  0  0  0
  -15.5349  -30.2979   23.7633 H   0  0  0  0  0  0
  -15.8675  -28.0796   22.7079 H   0  0  0  0  0  0
  -24.5853  -30.7120   25.7784 H   0  0  0  0  0  0
  -24.8945  -32.2913   26.4911 H   0  0  0  0  0  0
  -25.8014  -30.8882   27.0227 H   0  0  0  0  0  0
  -26.2933  -29.6722   24.1247 H   0  0  0  0  0  0
  -27.3969  -29.7239   25.4790 H   0  0  0  0  0  0
  -27.8837  -30.4227   23.9530 H   0  0  0  0  0  0
  -27.2627  -33.3601   26.2099 H   0  0  0  0  0  0
  -28.3844  -32.6893   25.0345 H   0  0  0  0  0  0
  -28.0718  -31.8447   26.5430 H   0  0  0  0  0  0
  -28.2574  -38.0115   24.7544 H   0  0  0  0  0  0
  -28.1099  -36.2653   24.6222 H   0  0  0  0  0  0
  -27.2324  -37.1370   25.8867 H   0  0  0  0  0  0
  -20.9404  -29.8806   21.6887 H   0  0  0  0  0  0
  -26.0159  -38.2845   24.1422 H   0  0  0  0  0  0
  -31.8046  -17.4237   19.2128 H   0  0  0  0  0  0
  -29.5553  -25.7575   17.9967 H   0  0  0  0  0  0
  -29.7412  -24.0224   18.1567 H   0  0  0  0  0  0
  -30.5485  -25.1045   19.2966 H   0  0  0  0  0  0
  -27.5623  -24.7266   18.9721 H   0  0  0  0  0  0
  -28.8964  -15.6849   21.0858 H   0  0  0  0  0  0
  -29.3096  -22.2914   19.3575 H   0  0  0  0  0  0
  1 25  1  0  0  0
  1 30  2  0  0  0
  1 79  1  0  0  0
  2  3  1  0  0  0
  2 25  1  0  0  0
  2 84  1  0  0  0
  2 85  1  0  0  0
  3  4  1  0  0  0
  3 86  1  0  0  0
  3 87  1  0  0  0
  4  5  1  0  0  0
  4 88  1  0  0  0
  4 89  1  0  0  0
  5  6  1  0  0  0
  5 26  1  0  0  0
  5 90  1  0  0  0
  6 25  1  0  0  0
  6 91  1  0  0  0
  6 92  1  0  0  0
  7  8  2  0  0  0
  7 26  1  0  0  0
  7 29  1  0  0  0
  8  9  1  0  0  0
  8 22  1  0  0  0
  9 10  1  0  0  0
  9 27  2  0  0  0
 10 11  2  0  0  0
 10 15  1  0  0  0
 11 12  1  0  0  0
 11 93  1  0  0  0
 12 13  2  0  0  0
 12 94  1  0  0  0
 13 14  1  0  0  0
 13 31  1  0  0  0
 14 15  2  0  0  0
 14 95  1  0  0  0
 15 96  1  0  0  0
 16 17  2  0  0  0
 16 21  1  0  0  0
 16 31  1  0  0  0
 17 18  1  0  0  0
 17 97  1  0  0  0
 18 19  2  0  0  0
 18 98  1  0  0  0
 19 20  1  0  0  0
 19 24  1  0  0  0
 20 21  2  0  0  0
 20 99  1  0  0  0
 21 23  1  0  0  0
 22 28  1  0  0  0
 22 32  2  0  0  0
 26 27  1  0  0  0
 28100  1  0  0  0
 28101  1  0  0  0
 29102  1  0  0  0
 29103  1  0  0  0
 33 34  1  0  0  0
 33 66  1  0  0  0
 33 70  2  0  0  0
 34 36  1  0  0  0
 34 59  1  0  0  0
 34104  1  0  0  0
 35 44  2  0  0  0
 35 45  1  0  0  0
 35 68  1  0  0  0
 36 56  1  0  0  0
 36105  1  0  0  0
 37 39  1  0  0  0
 37 47  1  0  0  0
 37 66  1  0  0  0
 37106  1  0  0  0
 38 43  2  0  0  0
 38 46  1  0  0  0
 38 47  1  0  0  0
 39 64  1  0  0  0
 39 67  2  0  0  0
 40 52  1  0  0  0
 40 53  2  0  0  0
 40 58  1  0  0  0
 41107  1  0  0  0
 41108  1  0  0  0
 41109  1  0  0  0
 41 48  1  0  0  0
 42 43  1  0  0  0
 42 66  1  0  0  0
 42110  1  0  0  0
 42111  1  0  0  0
 43 44  1  0  0  0
 44112  1  0  0  0
 45 46  2  0  0  0
 45113  1  0  0  0
 46114  1  0  0  0
 47115  1  0  0  0
 47116  1  0  0  0
 48 56  1  0  0  0
 48 65  1  0  0  0
 48117  1  0  0  0
 49 50  1  0  0  0
 49 53  1  0  0  0
 49 64  1  0  0  0
 49118  1  0  0  0
 50 51  1  0  0  0
 50119  1  0  0  0
 50120  1  0  0  0
 51 52  1  0  0  0
 51121  1  0  0  0
 51122  1  0  0  0
 52123  1  0  0  0
 52124  1  0  0  0
 53 54  1  0  0  0
 54 55  2  0  0  0
 54125  1  0  0  0
 55 57  1  0  0  0
 55126  1  0  0  0
 56 69  2  0  0  0
 57 58  2  0  0  0
 57127  1  0  0  0
 58128  1  0  0  0
 59 60  1  0  0  0
 59 61  1  0  0  0
 59 62  1  0  0  0
 60129  1  0  0  0
 60130  1  0  0  0
 60131  1  0  0  0
 61132  1  0  0  0
 61133  1  0  0  0
 61134  1  0  0  0
 62135  1  0  0  0
 62136  1  0  0  0
 62137  1  0  0  0
 63 65  1  0  0  0
 63138  1  0  0  0
 63139  1  0  0  0
 63140  1  0  0  0
 64141  1  0  0  0
 65142  1  0  0  0
 68 77  1  0  0  0
 71 72  2  0  0  0
 71 83  1  0  0  0
 71143  1  0  0  0
 72 78  1  0  0  0
 72 79  1  0  0  0
 73 74  1  0  0  0
 73 78  2  0  0  0
 73 83  1  0  0  0
 74 80  1  0  0  0
 74 81  2  0  0  0
 75 77  1  0  0  0
 75 80  1  0  0  0
 75 82  2  0  0  0
 76144  1  0  0  0
 76145  1  0  0  0
 76146  1  0  0  0
 76 77  1  0  0  0
 77147  1  0  0  0
 79148  1  0  0  0
 80149  1  0  0  0
M  ISO  4   1 100  68 101  77 101  79 100
M  END
> <chiral flag>
0

> <version>
0

> <s_m_source_file>
/data/baiqing/PycharmProjects/Reinvent-master-3.2/result/LINK_invent/BTK/process_docking_weight1_custom_product_contain_oxygen_bond_distance_aromatic_linkinvent_7_9_3/rearranged_h_0176.sdf

> <i_m_source_file_index>
2

> <r_mmod_Potential_Energy-OPLS-2005>
80.2024993896484

> <r_mmod_Stretch_Energy-OPLS-2005>
153.594818115234

> <r_mmod_Bend_Energy-OPLS-2005>
198.996307373047

> <r_mmod_Torsional_Energy-OPLS-2005>
240.997055053711

> <r_mmod_Improper_Torsional_Energy-OPLS-2005>
4.51731157302856

> <r_mmod_Van_der_Waal_Energy-OPLS-2005>
119.875991821289

> <r_mmod_Electrostatic_Energy-OPLS-2005>
-452.373077392578

> <r_mmod_Solvation_Energy-OPLS-2005>
-294.358001708984

> <b_mmod_Minimization_Converged-OPLS-2005>
0

> <r_mmod_RMS_Derivative-OPLS-2005>
1.77761650085449

$$$$
2
                    3D
 Structure written by MMmdl.
152160  0  0  1  0            999 V2000
  -30.6943  -14.4450   20.5961 C   0  0  0  0  0  0
  -30.4179  -12.2827   19.4374 C   0  0  0  0  0  0
  -29.5026  -12.5054   18.2149 C   0  0  0  0  0  0
  -28.0195  -12.3633   18.6156 C   0  0  0  0  0  0
  -27.6597  -13.2015   19.8725 C   0  0  2  0  0  0
  -28.6944  -12.9609   20.9974 C   0  0  0  0  0  0
  -25.2553  -13.8102   20.5688 C   0  0  0  0  0  0
  -24.1795  -13.0383   20.9113 C   0  0  0  0  0  0
  -24.6363  -11.6866   20.8678 C   0  0  0  0  0  0
  -23.9036  -10.4267   21.0358 C   0  0  0  0  0  0
  -24.3595   -9.4198   21.9152 C   0  0  0  0  0  0
  -23.6284   -8.2223   22.0738 C   0  0  0  0  0  0
  -22.4253   -8.0253   21.3544 C   0  0  0  0  0  0
  -21.9885   -9.0202   20.4622 C   0  0  0  0  0  0
  -22.7200  -10.2090   20.3020 C   0  0  0  0  0  0
  -21.6847   -6.0728   22.5289 C   0  0  0  0  0  0
  -21.4004   -6.5635   23.8219 C   0  0  0  0  0  0
  -21.3667   -5.6791   24.9185 C   0  0  0  0  0  0
  -21.6046   -4.3052   24.7234 C   0  0  0  0  0  0
  -21.8815   -3.8141   23.4353 C   0  0  0  0  0  0
  -21.9184   -4.6958   22.3407 C   0  0  0  0  0  0
  -22.7835  -13.5196   21.1825 C   0  0  0  0  0  0
  -22.1656   -4.2145   21.0985 F   0  0  0  0  0  0
  -21.5635   -3.4528   25.7746 F   0  0  0  0  0  0
  -30.0374  -13.2621   20.4644 N   0  0  0  0  0  0
  -26.2998  -12.9292   20.3328 N   0  0  0  0  0  0
  -25.9291  -11.6455   20.5708 N   0  0  0  0  0  0
  -22.0489  -12.8179   22.0395 N   0  0  0  0  0  0
  -25.4239  -15.1830   20.4299 N   0  0  0  0  0  0
  -31.7929  -14.6720   20.0841 O   0  0  0  0  0  0
  -21.6621   -6.8854   21.4249 O   0  0  0  0  0  0
  -22.3515  -14.5517   20.6709 O   0  0  0  0  0  0
  -24.6109  -31.8714   23.2101 C   0  0  0  0  0  0
  -25.9023  -32.4822   23.8406 C   0  0  1  0  0  0
  -27.2212  -27.4301   20.0872 C   0  0  0  0  0  0
  -25.5888  -33.8616   24.2320 N   0  0  0  0  0  0
  -23.3950  -30.4951   21.5516 C   0  0  2  0  0  0
  -24.8369  -28.9622   20.1144 C   0  0  0  0  0  0
  -22.7386  -29.4688   22.5016 C   0  0  0  0  0  0
  -18.0277  -28.1372   22.8512 C   0  0  0  0  0  0
  -24.1483  -36.7280   23.2636 C   0  0  0  0  0  0
  -25.9266  -30.8335   21.3649 C   0  0  0  0  0  0
  -25.9997  -29.4701   20.7063 C   0  0  0  0  0  0
  -27.1902  -28.7091   20.6918 C   0  0  0  0  0  0
  -26.0318  -26.9366   19.4985 C   0  0  0  0  0  0
  -24.8456  -27.6926   19.5144 C   0  0  0  0  0  0
  -23.5987  -29.8285   20.1666 C   0  0  0  0  0  0
  -25.4113  -36.3098   24.0337 C   0  0  1  0  0  0
  -20.5861  -28.3654   23.1341 C   0  0  2  0  0  0
  -20.6753  -26.9388   22.5444 C   0  0  0  0  0  0
  -19.5731  -26.6388   21.5227 C   0  0  0  0  0  0
  -18.1909  -26.7925   22.1637 C   0  0  0  0  0  0
  -19.1523  -28.8839   23.2923 C   0  0  0  0  0  0
  -18.9445  -30.1450   23.8917 C   0  0  0  0  0  0
  -17.6449  -30.6593   24.0567 C   0  0  0  0  0  0
  -25.9041  -34.9471   23.5122 C   0  0  0  0  0  0
  -16.5353  -29.9087   23.6316 C   0  0  0  0  0  0
  -16.7258  -28.6496   23.0352 C   0  0  0  0  0  0
  -26.4443  -31.6601   25.0732 C   0  0  0  0  0  0
  -25.3693  -31.3712   26.1464 C   0  0  0  0  0  0
  -27.0250  -30.3033   24.6126 C   0  0  0  0  0  0
  -27.6032  -32.4312   25.7482 C   0  0  0  0  0  0
  -27.5575  -37.1793   24.8474 C   0  0  0  0  0  0
  -21.4132  -29.3004   22.3719 N   0  0  0  0  0  0
  -26.4290  -37.3787   23.9408 N   0  0  0  0  0  0
  -24.6624  -31.0826   22.0987 N   0  0  0  0  0  0
  -23.4184  -28.8234   23.3048 O   0  0  0  0  0  0
  -28.4040  -26.7119   20.1071 O   0  0  0  0  0  0
  -26.5606  -34.8913   22.4684 O   0  0  0  0  0  0
  -23.5311  -32.1462   23.7500 O   0  0  0  0  0  0
  -28.6160  -18.7806   20.7108 C   0  0  0  0  0  0
  -31.0763  -17.5578   20.5895 C   0  0  0  0  0  0
  -29.9654  -16.7766   20.9640 C   0  0  0  0  0  0
  -28.7199  -17.4192   21.0333 C   0  0  0  0  0  0
  -29.7751  -19.4881   20.3380 C   0  0  0  0  0  0
  -29.7821  -23.1826   19.6730 C   0  0  0  0  0  0
  -29.7598  -21.9475   20.6193 C   0  0  0  0  0  0
  -29.6114  -24.5874   20.2716 C   0  0  0  0  0  0
  -28.3717  -25.3273   19.7289 C   0  0  0  0  0  0
  -30.9805  -18.8745   20.2813 N   0  0  0  0  0  0
  -30.0120  -15.3837   21.2689 N   0  0  0  0  0  0
  -29.6219  -20.8218   19.9050 N   0  0  0  0  0  0
  -29.9524  -23.0483   18.4540 O   0  0  0  0  0  0
  -29.8284  -22.0201   21.8528 O   0  0  0  0  0  0
  -27.6201  -16.7088   21.3791 F   0  0  0  0  0  0
  -31.4702  -12.3535   19.1605 H   0  0  0  0  0  0
  -30.2827  -11.2729   19.8294 H   0  0  0  0  0  0
  -29.7470  -11.7954   17.4237 H   0  0  0  0  0  0
  -29.6759  -13.4988   17.8014 H   0  0  0  0  0  0
  -27.8283  -11.3076   18.8134 H   0  0  0  0  0  0
  -27.3734  -12.6346   17.7781 H   0  0  0  0  0  0
  -27.7080  -14.2483   19.5748 H   0  0  0  0  0  0
  -28.6629  -11.9197   21.3200 H   0  0  0  0  0  0
  -28.4431  -13.5384   21.8865 H   0  0  0  0  0  0
  -25.2736   -9.5684   22.4720 H   0  0  0  0  0  0
  -23.9987   -7.4627   22.7466 H   0  0  0  0  0  0
  -21.0813   -8.8704   19.8938 H   0  0  0  0  0  0
  -22.3644  -10.9613   19.6112 H   0  0  0  0  0  0
  -21.1998   -7.6138   23.9728 H   0  0  0  0  0  0
  -21.1501   -6.0516   25.9091 H   0  0  0  0  0  0
  -22.0590   -2.7600   23.2851 H   0  0  0  0  0  0
  -22.4115  -11.9820   22.4745 H   0  0  0  0  0  0
  -21.1105  -13.1186   22.2616 H   0  0  0  0  0  0
  -24.6786  -15.8247   20.6715 H   0  0  0  0  0  0
  -26.3318  -15.6328   20.4018 H   0  0  0  0  0  0
  -26.7084  -32.5515   23.1149 H   0  0  0  0  0  0
  -25.0024  -33.9798   25.0457 H   0  0  0  0  0  0
  -22.6825  -31.3096   21.4157 H   0  0  0  0  0  0
  -23.3758  -35.9597   23.3316 H   0  0  0  0  0  0
  -24.3563  -36.8866   22.2041 H   0  0  0  0  0  0
  -23.7214  -37.6484   23.6637 H   0  0  0  0  0  0
  -26.0484  -31.6106   20.6091 H   0  0  0  0  0  0
  -26.8094  -30.8754   21.9907 H   0  0  0  0  0  0
  -28.0855  -29.0954   21.1559 H   0  0  0  0  0  0
  -25.9829  -25.9688   19.0241 H   0  0  0  0  0  0
  -23.9442  -27.2969   19.0659 H   0  0  0  0  0  0
  -23.6910  -30.5988   19.4002 H   0  0  0  0  0  0
  -22.7255  -29.2405   19.8808 H   0  0  0  0  0  0
  -25.1284  -36.1950   25.0832 H   0  0  0  0  0  0
  -20.9962  -28.3203   24.1456 H   0  0  0  0  0  0
  -20.5621  -26.2263   23.3618 H   0  0  0  0  0  0
  -21.6622  -26.7409   22.1249 H   0  0  0  0  0  0
  -19.6880  -25.6296   21.1231 H   0  0  0  0  0  0
  -19.6665  -27.3210   20.6758 H   0  0  0  0  0  0
  -17.4179  -26.6687   21.4036 H   0  0  0  0  0  0
  -18.0314  -26.0065   22.9032 H   0  0  0  0  0  0
  -19.7930  -30.7272   24.2277 H   0  0  0  0  0  0
  -17.5007  -31.6265   24.5158 H   0  0  0  0  0  0
  -15.5341  -30.2999   23.7629 H   0  0  0  0  0  0
  -15.8669  -28.0822   22.7064 H   0  0  0  0  0  0
  -24.5982  -30.6897   25.7831 H   0  0  0  0  0  0
  -24.8726  -32.2846   26.4764 H   0  0  0  0  0  0
  -25.8062  -30.9059   27.0308 H   0  0  0  0  0  0
  -26.2784  -29.6822   24.1160 H   0  0  0  0  0  0
  -27.3955  -29.7251   25.4599 H   0  0  0  0  0  0
  -27.8663  -30.4317   23.9300 H   0  0  0  0  0  0
  -27.2714  -33.3697   26.1939 H   0  0  0  0  0  0
  -28.3917  -32.6708   25.0328 H   0  0  0  0  0  0
  -28.0597  -31.8484   26.5487 H   0  0  0  0  0  0
  -28.2619  -38.0074   24.7522 H   0  0  0  0  0  0
  -28.1056  -36.2602   24.6315 H   0  0  0  0  0  0
  -27.2291  -37.1453   25.8883 H   0  0  0  0  0  0
  -20.9273  -29.8682   21.6915 H   0  0  0  0  0  0
  -26.0177  -38.2859   24.1433 H   0  0  0  0  0  0
  -27.6535  -19.2670   20.7320 H   0  0  0  0  0  0
  -32.0703  -17.1405   20.5324 H   0  0  0  0  0  0
  -29.5621  -24.5360   21.3596 H   0  0  0  0  0  0
  -30.5140  -25.1461   20.0249 H   0  0  0  0  0  0
  -27.4901  -24.8244   20.1309 H   0  0  0  0  0  0
  -28.3208  -25.2652   18.6401 H   0  0  0  0  0  0
  -29.1683  -15.0264   21.6916 H   0  0  0  0  0  0
  -29.5800  -20.9848   18.9097 H   0  0  0  0  0  0
  1 25  1  0  0  0
  1 30  2  0  0  0
  1 81  1  0  0  0
  2  3  1  0  0  0
  2 25  1  0  0  0
  2 86  1  0  0  0
  2 87  1  0  0  0
  3  4  1  0  0  0
  3 88  1  0  0  0
  3 89  1  0  0  0
  4  5  1  0  0  0
  4 90  1  0  0  0
  4 91  1  0  0  0
  5  6  1  0  0  0
  5 26  1  0  0  0
  5 92  1  0  0  0
  6 25  1  0  0  0
  6 93  1  0  0  0
  6 94  1  0  0  0
  7  8  2  0  0  0
  7 26  1  0  0  0
  7 29  1  0  0  0
  8  9  1  0  0  0
  8 22  1  0  0  0
  9 10  1  0  0  0
  9 27  2  0  0  0
 10 11  2  0  0  0
 10 15  1  0  0  0
 11 12  1  0  0  0
 11 95  1  0  0  0
 12 13  2  0  0  0
 12 96  1  0  0  0
 13 14  1  0  0  0
 13 31  1  0  0  0
 14 15  2  0  0  0
 14 97  1  0  0  0
 15 98  1  0  0  0
 16 17  2  0  0  0
 16 21  1  0  0  0
 16 31  1  0  0  0
 17 18  1  0  0  0
 17 99  1  0  0  0
 18 19  2  0  0  0
 18100  1  0  0  0
 19 20  1  0  0  0
 19 24  1  0  0  0
 20 21  2  0  0  0
 20101  1  0  0  0
 21 23  1  0  0  0
 22 28  1  0  0  0
 22 32  2  0  0  0
 26 27  1  0  0  0
 28102  1  0  0  0
 28103  1  0  0  0
 29104  1  0  0  0
 29105  1  0  0  0
 33 34  1  0  0  0
 33 66  1  0  0  0
 33 70  2  0  0  0
 34 36  1  0  0  0
 34 59  1  0  0  0
 34106  1  0  0  0
 35 44  2  0  0  0
 35 45  1  0  0  0
 35 68  1  0  0  0
 36 56  1  0  0  0
 36107  1  0  0  0
 37 39  1  0  0  0
 37 47  1  0  0  0
 37 66  1  0  0  0
 37108  1  0  0  0
 38 43  2  0  0  0
 38 46  1  0  0  0
 38 47  1  0  0  0
 39 64  1  0  0  0
 39 67  2  0  0  0
 40 52  1  0  0  0
 40 53  2  0  0  0
 40 58  1  0  0  0
 41109  1  0  0  0
 41110  1  0  0  0
 41111  1  0  0  0
 41 48  1  0  0  0
 42 43  1  0  0  0
 42 66  1  0  0  0
 42112  1  0  0  0
 42113  1  0  0  0
 43 44  1  0  0  0
 44114  1  0  0  0
 45 46  2  0  0  0
 45115  1  0  0  0
 46116  1  0  0  0
 47117  1  0  0  0
 47118  1  0  0  0
 48 56  1  0  0  0
 48 65  1  0  0  0
 48119  1  0  0  0
 49 50  1  0  0  0
 49 53  1  0  0  0
 49 64  1  0  0  0
 49120  1  0  0  0
 50 51  1  0  0  0
 50121  1  0  0  0
 50122  1  0  0  0
 51 52  1  0  0  0
 51123  1  0  0  0
 51124  1  0  0  0
 52125  1  0  0  0
 52126  1  0  0  0
 53 54  1  0  0  0
 54 55  2  0  0  0
 54127  1  0  0  0
 55 57  1  0  0  0
 55128  1  0  0  0
 56 69  2  0  0  0
 57 58  2  0  0  0
 57129  1  0  0  0
 58130  1  0  0  0
 59 60  1  0  0  0
 59 61  1  0  0  0
 59 62  1  0  0  0
 60131  1  0  0  0
 60132  1  0  0  0
 60133  1  0  0  0
 61134  1  0  0  0
 61135  1  0  0  0
 61136  1  0  0  0
 62137  1  0  0  0
 62138  1  0  0  0
 62139  1  0  0  0
 63 65  1  0  0  0
 63140  1  0  0  0
 63141  1  0  0  0
 63142  1  0  0  0
 64143  1  0  0  0
 65144  1  0  0  0
 68 79  1  0  0  0
 71 74  2  0  0  0
 71 75  1  0  0  0
 71145  1  0  0  0
 72 73  2  0  0  0
 72 80  1  0  0  0
 72146  1  0  0  0
 73 74  1  0  0  0
 73 81  1  0  0  0
 74 85  1  0  0  0
 75 80  2  0  0  0
 75 82  1  0  0  0
 76 77  1  0  0  0
 76 78  1  0  0  0
 76 83  2  0  0  0
 77 82  1  0  0  0
 77 84  2  0  0  0
 78 79  1  0  0  0
 78147  1  0  0  0
 78148  1  0  0  0
 79149  1  0  0  0
 79150  1  0  0  0
 81151  1  0  0  0
 82152  1  0  0  0
M  ISO  4   1 100  68 101  79 101  81 100
M  END
> <chiral flag>
0

> <version>
0

> <s_m_source_file>
/data/baiqing/PycharmProjects/Reinvent-master-3.2/result/LINK_invent/BTK/process_docking_weight1_custom_product_contain_oxygen_bond_distance_aromatic_linkinvent_7_9_3/rearranged_h_0176.sdf

> <i_m_source_file_index>
3

> <r_mmod_Potential_Energy-OPLS-2005>
-373.374603271484

> <r_mmod_Stretch_Energy-OPLS-2005>
35.1526985168457

> <r_mmod_Bend_Energy-OPLS-2005>
102.703895568848

> <r_mmod_Torsional_Energy-OPLS-2005>
254.550827026367

> <r_mmod_Improper_Torsional_Energy-OPLS-2005>
6.4797887802124

> <r_mmod_Van_der_Waal_Energy-OPLS-2005>
162.293151855469

> <r_mmod_Electrostatic_Energy-OPLS-2005>
-707.746704101562

> <r_mmod_Solvation_Energy-OPLS-2005>
-238.455200195312

> <b_mmod_Minimization_Converged-OPLS-2005>
0

> <r_mmod_RMS_Derivative-OPLS-2005>
4.10580110549927

$$$$
3
                    3D
 Structure written by MMmdl.
153161  0  0  1  0            999 V2000
  -30.6614  -14.5410   20.4739 C   0  0  0  0  0  0
  -30.4240  -12.3238   19.4436 C   0  0  0  0  0  0
  -29.5002  -12.4835   18.2167 C   0  0  0  0  0  0
  -28.0210  -12.3419   18.6276 C   0  0  0  0  0  0
  -27.6535  -13.2094   19.8612 C   0  0  2  0  0  0
  -28.6961  -13.0478   20.9915 C   0  0  0  0  0  0
  -25.2570  -13.8162   20.5669 C   0  0  0  0  0  0
  -24.1827  -13.0438   20.9179 C   0  0  0  0  0  0
  -24.6382  -11.6905   20.8734 C   0  0  0  0  0  0
  -23.9048  -10.4294   21.0405 C   0  0  0  0  0  0
  -24.3606   -9.4211   21.9183 C   0  0  0  0  0  0
  -23.6286   -8.2245   22.0754 C   0  0  0  0  0  0
  -22.4269   -8.0281   21.3543 C   0  0  0  0  0  0
  -21.9897   -9.0253   20.4647 C   0  0  0  0  0  0
  -22.7221  -10.2135   20.3057 C   0  0  0  0  0  0
  -21.6853   -6.0733   22.5276 C   0  0  0  0  0  0
  -21.4015   -6.5637   23.8210 C   0  0  0  0  0  0
  -21.3656   -5.6790   24.9172 C   0  0  0  0  0  0
  -21.6044   -4.3054   24.7221 C   0  0  0  0  0  0
  -21.8821   -3.8145   23.4343 C   0  0  0  0  0  0
  -21.9192   -4.6961   22.3400 C   0  0  0  0  0  0
  -22.7854  -13.5242   21.1846 C   0  0  0  0  0  0
  -22.1663   -4.2148   21.0976 F   0  0  0  0  0  0
  -21.5626   -3.4534   25.7732 F   0  0  0  0  0  0
  -30.0215  -13.3405   20.4287 N   0  0  0  0  0  0
  -26.2986  -12.9329   20.3302 N   0  0  0  0  0  0
  -25.9306  -11.6491   20.5750 N   0  0  0  0  0  0
  -22.0493  -12.8241   22.0405 N   0  0  0  0  0  0
  -25.4305  -15.1881   20.4078 N   0  0  0  0  0  0
  -31.8536  -14.6627   20.1825 O   0  0  0  0  0  0
  -21.6640   -6.8876   21.4238 O   0  0  0  0  0  0
  -22.3542  -14.5551   20.6697 O   0  0  0  0  0  0
  -24.6185  -31.8656   23.2076 C   0  0  0  0  0  0
  -25.9066  -32.4807   23.8379 C   0  0  1  0  0  0
  -27.2288  -27.3928   20.0977 C   0  0  0  0  0  0
  -25.5912  -33.8607   24.2312 N   0  0  0  0  0  0
  -23.4066  -30.4905   21.5497 C   0  0  2  0  0  0
  -24.8491  -28.9501   20.1167 C   0  0  0  0  0  0
  -22.7425  -29.4656   22.4979 C   0  0  0  0  0  0
  -18.0277  -28.1378   22.8489 C   0  0  0  0  0  0
  -24.1490  -36.7312   23.2639 C   0  0  0  0  0  0
  -25.9398  -30.8192   21.3651 C   0  0  0  0  0  0
  -26.0132  -29.4507   20.7109 C   0  0  0  0  0  0
  -27.2032  -28.6815   20.6931 C   0  0  0  0  0  0
  -26.0349  -26.9116   19.5100 C   0  0  0  0  0  0
  -24.8572  -27.6820   19.5143 C   0  0  0  0  0  0
  -23.6152  -29.8237   20.1644 C   0  0  0  0  0  0
  -25.4112  -36.3104   24.0335 C   0  0  1  0  0  0
  -20.5869  -28.3672   23.1309 C   0  0  2  0  0  0
  -20.6768  -26.9405   22.5415 C   0  0  0  0  0  0
  -19.5747  -26.6384   21.5212 C   0  0  0  0  0  0
  -18.1924  -26.7923   22.1622 C   0  0  0  0  0  0
  -19.1526  -28.8840   23.2896 C   0  0  0  0  0  0
  -18.9454  -30.1445   23.8910 C   0  0  0  0  0  0
  -17.6455  -30.6582   24.0566 C   0  0  0  0  0  0
  -25.9041  -34.9469   23.5122 C   0  0  0  0  0  0
  -16.5347  -29.9084   23.6324 C   0  0  0  0  0  0
  -16.7266  -28.6501   23.0346 C   0  0  0  0  0  0
  -26.4480  -31.6593   25.0719 C   0  0  0  0  0  0
  -25.3739  -31.3708   26.1465 C   0  0  0  0  0  0
  -27.0310  -30.3030   24.6113 C   0  0  0  0  0  0
  -27.6055  -32.4313   25.7480 C   0  0  0  0  0  0
  -27.5582  -37.1812   24.8465 C   0  0  0  0  0  0
  -21.4150  -29.3037   22.3715 N   0  0  0  0  0  0
  -26.4298  -37.3789   23.9405 N   0  0  0  0  0  0
  -24.6737  -31.0734   22.0989 N   0  0  0  0  0  0
  -23.4185  -28.8197   23.3029 O   0  0  0  0  0  0
  -28.4148  -26.6694   20.1055 O   0  0  0  0  0  0
  -26.5604  -34.8925   22.4684 O   0  0  0  0  0  0
  -23.5371  -32.1424   23.7456 O   0  0  0  0  0  0
  -29.3803  -18.0822   20.5304 C   0  0  0  0  0  0
  -29.4274  -19.3446   19.8600 C   0  0  0  0  0  0
  -29.9641  -16.9046   19.9659 C   0  0  0  0  0  0
  -30.0552  -19.4076   18.5919 C   0  0  0  0  0  0
  -30.5513  -17.0146   18.6752 C   0  0  0  0  0  0
  -30.6115  -18.2543   18.0138 C   0  0  0  0  0  0
  -27.9506  -22.8172   20.5503 C   0  0  0  0  0  0
  -29.1289  -21.8035   20.3213 C   0  0  0  0  0  0
  -28.2645  -24.2895   20.9209 C   0  0  0  0  0  0
  -28.4578  -25.2679   19.7268 C   0  0  0  0  0  0
  -28.7456  -20.5022   20.3844 N   0  0  0  0  0  0
  -29.8647  -15.6278   20.6467 N   0  0  0  0  0  0
  -26.7720  -22.4517   20.4590 O   0  0  0  0  0  0
  -30.2926  -22.1791   20.1420 O   0  0  0  0  0  0
  -30.0716  -20.5587   17.8760 F   0  0  0  0  0  0
  -31.0130  -15.9277   18.0106 F   0  0  0  0  0  0
  -31.1732  -18.3291   16.7822 F   0  0  0  0  0  0
  -31.4694  -12.4229   19.1448 H   0  0  0  0  0  0
  -30.3283  -11.3256   19.8728 H   0  0  0  0  0  0
  -29.7488  -11.7387   17.4595 H   0  0  0  0  0  0
  -29.6619  -13.4575   17.7521 H   0  0  0  0  0  0
  -27.8428  -11.2893   18.8508 H   0  0  0  0  0  0
  -27.3709  -12.5863   17.7868 H   0  0  0  0  0  0
  -27.6779  -14.2459   19.5250 H   0  0  0  0  0  0
  -28.6792  -12.0312   21.3866 H   0  0  0  0  0  0
  -28.4642  -13.7013   21.8342 H   0  0  0  0  0  0
  -25.2753   -9.5688   22.4753 H   0  0  0  0  0  0
  -23.9996   -7.4636   22.7471 H   0  0  0  0  0  0
  -21.0828   -8.8769   19.8954 H   0  0  0  0  0  0
  -22.3677  -10.9674   19.6166 H   0  0  0  0  0  0
  -21.2016   -7.6147   23.9713 H   0  0  0  0  0  0
  -21.1474   -6.0522   25.9075 H   0  0  0  0  0  0
  -22.0604   -2.7607   23.2844 H   0  0  0  0  0  0
  -22.4102  -11.9902   22.4800 H   0  0  0  0  0  0
  -21.1117  -13.1281   22.2611 H   0  0  0  0  0  0
  -24.6637  -15.8435   20.5139 H   0  0  0  0  0  0
  -26.2781  -15.6240   20.0683 H   0  0  0  0  0  0
  -26.7133  -32.5501   23.1135 H   0  0  0  0  0  0
  -25.0068  -33.9761   25.0462 H   0  0  0  0  0  0
  -22.6971  -31.3088   21.4107 H   0  0  0  0  0  0
  -23.3745  -35.9652   23.3314 H   0  0  0  0  0  0
  -24.3583  -36.8915   22.2051 H   0  0  0  0  0  0
  -23.7251  -37.6524   23.6647 H   0  0  0  0  0  0
  -26.0584  -31.5844   20.5967 H   0  0  0  0  0  0
  -26.8258  -30.8701   21.9864 H   0  0  0  0  0  0
  -28.1039  -29.0697   21.1481 H   0  0  0  0  0  0
  -25.9728  -25.9431   19.0404 H   0  0  0  0  0  0
  -23.9596  -27.2885   19.0571 H   0  0  0  0  0  0
  -23.7291  -30.5991   19.4058 H   0  0  0  0  0  0
  -22.7364  -29.2490   19.8662 H   0  0  0  0  0  0
  -25.1289  -36.1970   25.0828 H   0  0  0  0  0  0
  -20.9960  -28.3240   24.1429 H   0  0  0  0  0  0
  -20.5670  -26.2282   23.3605 H   0  0  0  0  0  0
  -21.6641  -26.7443   22.1212 H   0  0  0  0  0  0
  -19.6910  -25.6298   21.1235 H   0  0  0  0  0  0
  -19.6684  -27.3202   20.6748 H   0  0  0  0  0  0
  -17.4195  -26.6672   21.4022 H   0  0  0  0  0  0
  -18.0322  -26.0061   22.9013 H   0  0  0  0  0  0
  -19.7932  -30.7255   24.2284 H   0  0  0  0  0  0
  -17.5012  -31.6263   24.5165 H   0  0  0  0  0  0
  -15.5349  -30.2991   23.7639 H   0  0  0  0  0  0
  -15.8666  -28.0826   22.7052 H   0  0  0  0  0  0
  -24.5910  -30.7058   25.7802 H   0  0  0  0  0  0
  -24.8936  -32.2868   26.4915 H   0  0  0  0  0  0
  -25.8089  -30.8874   27.0221 H   0  0  0  0  0  0
  -26.2858  -29.6789   24.1166 H   0  0  0  0  0  0
  -27.4070  -29.7269   25.4578 H   0  0  0  0  0  0
  -27.8699  -30.4340   23.9274 H   0  0  0  0  0  0
  -27.2675  -33.3600   26.2088 H   0  0  0  0  0  0
  -28.3847  -32.6891   25.0295 H   0  0  0  0  0  0
  -28.0743  -31.8419   26.5370 H   0  0  0  0  0  0
  -28.2612  -38.0098   24.7500 H   0  0  0  0  0  0
  -28.1065  -36.2630   24.6305 H   0  0  0  0  0  0
  -27.2299  -37.1482   25.8868 H   0  0  0  0  0  0
  -20.9313  -29.8767   21.6941 H   0  0  0  0  0  0
  -26.0187  -38.2871   24.1391 H   0  0  0  0  0  0
  -28.8822  -18.0166   21.4871 H   0  0  0  0  0  0
  -29.1429  -24.3124   21.5650 H   0  0  0  0  0  0
  -27.4330  -24.6420   21.5300 H   0  0  0  0  0  0
  -27.8033  -25.0263   18.8916 H   0  0  0  0  0  0
  -29.4580  -25.0979   19.3273 H   0  0  0  0  0  0
  -27.7983  -20.3662   20.7136 H   0  0  0  0  0  0
  -28.9838  -15.4433   21.1012 H   0  0  0  0  0  0
  1 25  1  0  0  0
  1 30  2  0  0  0
  1 82  1  0  0  0
  2  3  1  0  0  0
  2 25  1  0  0  0
  2 88  1  0  0  0
  2 89  1  0  0  0
  3  4  1  0  0  0
  3 90  1  0  0  0
  3 91  1  0  0  0
  4  5  1  0  0  0
  4 92  1  0  0  0
  4 93  1  0  0  0
  5  6  1  0  0  0
  5 26  1  0  0  0
  5 94  1  0  0  0
  6 25  1  0  0  0
  6 95  1  0  0  0
  6 96  1  0  0  0
  7  8  2  0  0  0
  7 26  1  0  0  0
  7 29  1  0  0  0
  8  9  1  0  0  0
  8 22  1  0  0  0
  9 10  1  0  0  0
  9 27  2  0  0  0
 10 11  2  0  0  0
 10 15  1  0  0  0
 11 12  1  0  0  0
 11 97  1  0  0  0
 12 13  2  0  0  0
 12 98  1  0  0  0
 13 14  1  0  0  0
 13 31  1  0  0  0
 14 15  2  0  0  0
 14 99  1  0  0  0
 15100  1  0  0  0
 16 17  2  0  0  0
 16 21  1  0  0  0
 16 31  1  0  0  0
 17 18  1  0  0  0
 17101  1  0  0  0
 18 19  2  0  0  0
 18102  1  0  0  0
 19 20  1  0  0  0
 19 24  1  0  0  0
 20 21  2  0  0  0
 20103  1  0  0  0
 21 23  1  0  0  0
 22 28  1  0  0  0
 22 32  2  0  0  0
 26 27  1  0  0  0
 28104  1  0  0  0
 28105  1  0  0  0
 29106  1  0  0  0
 29107  1  0  0  0
 33 34  1  0  0  0
 33 66  1  0  0  0
 33 70  2  0  0  0
 34 36  1  0  0  0
 34 59  1  0  0  0
 34108  1  0  0  0
 35 44  2  0  0  0
 35 45  1  0  0  0
 35 68  1  0  0  0
 36 56  1  0  0  0
 36109  1  0  0  0
 37 39  1  0  0  0
 37 47  1  0  0  0
 37 66  1  0  0  0
 37110  1  0  0  0
 38 43  2  0  0  0
 38 46  1  0  0  0
 38 47  1  0  0  0
 39 64  1  0  0  0
 39 67  2  0  0  0
 40 52  1  0  0  0
 40 53  2  0  0  0
 40 58  1  0  0  0
 41111  1  0  0  0
 41112  1  0  0  0
 41113  1  0  0  0
 41 48  1  0  0  0
 42 43  1  0  0  0
 42 66  1  0  0  0
 42114  1  0  0  0
 42115  1  0  0  0
 43 44  1  0  0  0
 44116  1  0  0  0
 45 46  2  0  0  0
 45117  1  0  0  0
 46118  1  0  0  0
 47119  1  0  0  0
 47120  1  0  0  0
 48 56  1  0  0  0
 48 65  1  0  0  0
 48121  1  0  0  0
 49 50  1  0  0  0
 49 53  1  0  0  0
 49 64  1  0  0  0
 49122  1  0  0  0
 50 51  1  0  0  0
 50123  1  0  0  0
 50124  1  0  0  0
 51 52  1  0  0  0
 51125  1  0  0  0
 51126  1  0  0  0
 52127  1  0  0  0
 52128  1  0  0  0
 53 54  1  0  0  0
 54 55  2  0  0  0
 54129  1  0  0  0
 55 57  1  0  0  0
 55130  1  0  0  0
 56 69  2  0  0  0
 57 58  2  0  0  0
 57131  1  0  0  0
 58132  1  0  0  0
 59 60  1  0  0  0
 59 61  1  0  0  0
 59 62  1  0  0  0
 60133  1  0  0  0
 60134  1  0  0  0
 60135  1  0  0  0
 61136  1  0  0  0
 61137  1  0  0  0
 61138  1  0  0  0
 62139  1  0  0  0
 62140  1  0  0  0
 62141  1  0  0  0
 63 65  1  0  0  0
 63142  1  0  0  0
 63143  1  0  0  0
 63144  1  0  0  0
 64145  1  0  0  0
 65146  1  0  0  0
 68 80  1  0  0  0
 71 72  2  0  0  0
 71 73  1  0  0  0
 71147  1  0  0  0
 72 74  1  0  0  0
 72 81  1  0  0  0
 73 75  2  0  0  0
 73 82  1  0  0  0
 74 76  2  0  0  0
 74 85  1  0  0  0
 75 76  1  0  0  0
 75 86  1  0  0  0
 76 87  1  0  0  0
 77 78  1  0  0  0
 77 79  1  0  0  0
 77 83  2  0  0  0
 78 81  1  0  0  0
 78 84  2  0  0  0
 79 80  1  0  0  0
 79148  1  0  0  0
 79149  1  0  0  0
 80150  1  0  0  0
 80151  1  0  0  0
 81152  1  0  0  0
 82153  1  0  0  0
M  ISO  4   1 100  68 101  80 101  82 100
M  END
> <chiral flag>
0

> <version>
0

> <s_m_source_file>
/data/baiqing/PycharmProjects/Reinvent-master-3.2/result/LINK_invent/BTK/process_docking_weight1_custom_product_contain_oxygen_bond_distance_aromatic_linkinvent_7_9_3/rearranged_h_0176.sdf

> <i_m_source_file_index>
4

> <r_mmod_Potential_Energy-OPLS-2005>
-1.61742269992828

> <r_mmod_Stretch_Energy-OPLS-2005>
50.9768867492676

> <r_mmod_Bend_Energy-OPLS-2005>
111.999076843262

> <r_mmod_Torsional_Energy-OPLS-2005>
261.472686767578

> <r_mmod_Improper_Torsional_Energy-OPLS-2005>
6.95992088317871

> <r_mmod_Van_der_Waal_Energy-OPLS-2005>
155.88166809082

> <r_mmod_Electrostatic_Energy-OPLS-2005>
-374.941925048828

> <r_mmod_Solvation_Energy-OPLS-2005>
-239.137924194336

> <b_mmod_Minimization_Converged-OPLS-2005>
0

> <r_mmod_RMS_Derivative-OPLS-2005>
0.501926898956299

$$$$
4
                    3D
 Structure written by MMmdl.
155163  0  0  1  0            999 V2000
  -30.7254  -14.4931   20.5972 C   0  0  0  0  0  0
  -30.4195  -12.3347   19.4224 C   0  0  0  0  0  0
  -29.4908  -12.5136   18.2049 C   0  0  0  0  0  0
  -28.0153  -12.3624   18.6215 C   0  0  0  0  0  0
  -27.6572  -13.2105   19.8706 C   0  0  2  0  0  0
  -28.7002  -13.0208   20.9931 C   0  0  0  0  0  0
  -25.2579  -13.8168   20.5688 C   0  0  0  0  0  0
  -24.1832  -13.0441   20.9180 C   0  0  0  0  0  0
  -24.6391  -11.6908   20.8737 C   0  0  0  0  0  0
  -23.9058  -10.4293   21.0405 C   0  0  0  0  0  0
  -24.3615   -9.4209   21.9181 C   0  0  0  0  0  0
  -23.6295   -8.2243   22.0753 C   0  0  0  0  0  0
  -22.4274   -8.0282   21.3547 C   0  0  0  0  0  0
  -21.9908   -9.0253   20.4647 C   0  0  0  0  0  0
  -22.7234  -10.2132   20.3049 C   0  0  0  0  0  0
  -21.6856   -6.0734   22.5282 C   0  0  0  0  0  0
  -21.4017   -6.5638   23.8215 C   0  0  0  0  0  0
  -21.3654   -5.6791   24.9178 C   0  0  0  0  0  0
  -21.6043   -4.3054   24.7231 C   0  0  0  0  0  0
  -21.8821   -3.8146   23.4350 C   0  0  0  0  0  0
  -21.9194   -4.6963   22.3406 C   0  0  0  0  0  0
  -22.7855  -13.5237   21.1846 C   0  0  0  0  0  0
  -22.1664   -4.2145   21.0984 F   0  0  0  0  0  0
  -21.5620   -3.4538   25.7743 F   0  0  0  0  0  0
  -30.0287  -13.3289   20.4377 N   0  0  0  0  0  0
  -26.3009  -12.9339   20.3357 N   0  0  0  0  0  0
  -25.9318  -11.6496   20.5765 N   0  0  0  0  0  0
  -22.0495  -12.8224   22.0399 N   0  0  0  0  0  0
  -25.4314  -15.1885   20.4100 N   0  0  0  0  0  0
  -31.8284  -14.6777   20.0739 O   0  0  0  0  0  0
  -21.6640   -6.8877   21.4243 O   0  0  0  0  0  0
  -22.3539  -14.5542   20.6692 O   0  0  0  0  0  0
  -24.6187  -31.8662   23.2091 C   0  0  0  0  0  0
  -25.9071  -32.4809   23.8389 C   0  0  1  0  0  0
  -27.2236  -27.3994   20.1020 C   0  0  0  0  0  0
  -25.5915  -33.8608   24.2324 N   0  0  0  0  0  0
  -23.4082  -30.4915   21.5501 C   0  0  2  0  0  0
  -24.8551  -28.9612   20.1079 C   0  0  0  0  0  0
  -22.7438  -29.4651   22.4967 C   0  0  0  0  0  0
  -18.0279  -28.1381   22.8487 C   0  0  0  0  0  0
  -24.1491  -36.7308   23.2636 C   0  0  0  0  0  0
  -25.9419  -30.8214   21.3693 C   0  0  0  0  0  0
  -26.0191  -29.4553   20.7127 C   0  0  0  0  0  0
  -27.2089  -28.6815   20.7088 C   0  0  0  0  0  0
  -26.0468  -26.9449   19.4653 C   0  0  0  0  0  0
  -24.8658  -27.7066   19.4783 C   0  0  0  0  0  0
  -23.6183  -29.8305   20.1627 C   0  0  0  0  0  0
  -25.4109  -36.3101   24.0338 C   0  0  1  0  0  0
  -20.5874  -28.3672   23.1307 C   0  0  2  0  0  0
  -20.6769  -26.9404   22.5415 C   0  0  0  0  0  0
  -19.5746  -26.6389   21.5210 C   0  0  0  0  0  0
  -18.1925  -26.7930   22.1619 C   0  0  0  0  0  0
  -19.1529  -28.8843   23.2896 C   0  0  0  0  0  0
  -18.9453  -30.1448   23.8906 C   0  0  0  0  0  0
  -17.6454  -30.6585   24.0561 C   0  0  0  0  0  0
  -25.9041  -34.9467   23.5128 C   0  0  0  0  0  0
  -16.5345  -29.9083   23.6329 C   0  0  0  0  0  0
  -16.7269  -28.6501   23.0348 C   0  0  0  0  0  0
  -26.4483  -31.6589   25.0724 C   0  0  0  0  0  0
  -25.3741  -31.3701   26.1469 C   0  0  0  0  0  0
  -27.0311  -30.3024   24.6120 C   0  0  0  0  0  0
  -27.6061  -32.4304   25.7485 C   0  0  0  0  0  0
  -27.5585  -37.1805   24.8460 C   0  0  0  0  0  0
  -21.4161  -29.3035   22.3709 N   0  0  0  0  0  0
  -26.4288  -37.3792   23.9416 N   0  0  0  0  0  0
  -24.6746  -31.0742   22.1007 N   0  0  0  0  0  0
  -23.4201  -28.8184   23.3010 O   0  0  0  0  0  0
  -28.3310  -26.5648   20.1480 O   0  0  0  0  0  0
  -26.5596  -34.8923   22.4686 O   0  0  0  0  0  0
  -23.5372  -32.1425   23.7469 O   0  0  0  0  0  0
  -28.9185  -18.2526   19.1402 C   0  0  0  0  0  0
  -29.3070  -16.9080   19.4522 C   0  0  0  0  0  0
  -29.1018  -19.1266   20.1886 C   0  0  0  0  0  0
  -29.7624  -16.6820   20.7305 C   0  0  0  0  0  0
  -28.0697  -25.2533   20.5357 C   0  0  0  0  0  0
  -28.8557  -24.1667   20.3208 C   0  0  0  0  0  0
  -28.3750  -22.7981   20.7492 C   0  0  0  0  0  0
  -29.3158  -21.5254   20.7539 C   0  0  0  0  0  0
  -28.3548  -18.6574   17.8097 C   0  0  0  0  0  0
  -30.3664  -15.4646   22.7636 C   0  0  0  0  0  0
  -28.7136  -20.4423   20.2095 N   0  0  0  0  0  0
  -30.1370  -15.4887   21.3147 N   0  0  0  0  0  0
  -27.2013  -22.6292   21.1053 O   0  0  0  0  0  0
  -30.4520  -21.5191   21.2425 O   0  0  0  0  0  0
  -30.0442  -24.2892   19.7111 O   0  0  0  0  0  0
  -29.1804  -15.9520   18.5599 F   0  0  0  0  0  0
  -29.7763  -18.2452   21.5619 S   0  0  0  0  0  0
  -31.4624  -12.4341   19.1161 H   0  0  0  0  0  0
  -30.3265  -11.3269   19.8305 H   0  0  0  0  0  0
  -29.7368  -11.7854   17.4310 H   0  0  0  0  0  0
  -29.6495  -13.4967   17.7590 H   0  0  0  0  0  0
  -27.8384  -11.3067   18.8299 H   0  0  0  0  0  0
  -27.3596  -12.6220   17.7894 H   0  0  0  0  0  0
  -27.6891  -14.2539   19.5631 H   0  0  0  0  0  0
  -28.6849  -11.9930   21.3587 H   0  0  0  0  0  0
  -28.4480  -13.6431   21.8517 H   0  0  0  0  0  0
  -25.2765   -9.5687   22.4748 H   0  0  0  0  0  0
  -24.0009   -7.4634   22.7471 H   0  0  0  0  0  0
  -21.0837   -8.8771   19.8957 H   0  0  0  0  0  0
  -22.3696  -10.9667   19.6152 H   0  0  0  0  0  0
  -21.2014   -7.6147   23.9717 H   0  0  0  0  0  0
  -21.1467   -6.0522   25.9079 H   0  0  0  0  0  0
  -22.0601   -2.7611   23.2853 H   0  0  0  0  0  0
  -22.4107  -11.9877   22.4780 H   0  0  0  0  0  0
  -21.1112  -13.1247   22.2601 H   0  0  0  0  0  0
  -24.6703  -15.8500   20.5168 H   0  0  0  0  0  0
  -26.2925  -15.6199   20.1004 H   0  0  0  0  0  0
  -26.7137  -32.5516   23.1146 H   0  0  0  0  0  0
  -25.0081  -33.9763   25.0476 H   0  0  0  0  0  0
  -22.6977  -31.3096   21.4137 H   0  0  0  0  0  0
  -23.3753  -35.9638   23.3289 H   0  0  0  0  0  0
  -24.3595  -36.8931   22.2054 H   0  0  0  0  0  0
  -23.7241  -37.6511   23.6653 H   0  0  0  0  0  0
  -26.0614  -31.5881   20.6025 H   0  0  0  0  0  0
  -26.8275  -30.8715   21.9909 H   0  0  0  0  0  0
  -28.1016  -29.0489   21.1949 H   0  0  0  0  0  0
  -26.0317  -25.9806   18.9766 H   0  0  0  0  0  0
  -23.9745  -27.3230   19.0009 H   0  0  0  0  0  0
  -23.7276  -30.6087   19.4064 H   0  0  0  0  0  0
  -22.7408  -29.2538   19.8649 H   0  0  0  0  0  0
  -25.1280  -36.1960   25.0829 H   0  0  0  0  0  0
  -20.9969  -28.3240   24.1427 H   0  0  0  0  0  0
  -20.5678  -26.2275   23.3603 H   0  0  0  0  0  0
  -21.6640  -26.7452   22.1207 H   0  0  0  0  0  0
  -19.6910  -25.6304   21.1228 H   0  0  0  0  0  0
  -19.6688  -27.3207   20.6743 H   0  0  0  0  0  0
  -17.4201  -26.6689   21.4013 H   0  0  0  0  0  0
  -18.0316  -26.0069   22.9012 H   0  0  0  0  0  0
  -19.7929  -30.7259   24.2286 H   0  0  0  0  0  0
  -17.5009  -31.6268   24.5158 H   0  0  0  0  0  0
  -15.5344  -30.2982   23.7654 H   0  0  0  0  0  0
  -15.8670  -28.0822   22.7054 H   0  0  0  0  0  0
  -24.5921  -30.7039   25.7805 H   0  0  0  0  0  0
  -24.8923  -32.2856   26.4910 H   0  0  0  0  0  0
  -25.8096  -30.8877   27.0230 H   0  0  0  0  0  0
  -26.2859  -29.6783   24.1172 H   0  0  0  0  0  0
  -27.4064  -29.7263   25.4588 H   0  0  0  0  0  0
  -27.8705  -30.4321   23.9283 H   0  0  0  0  0  0
  -27.2690  -33.3602   26.2073 H   0  0  0  0  0  0
  -28.3866  -32.6863   25.0307 H   0  0  0  0  0  0
  -28.0732  -31.8418   26.5390 H   0  0  0  0  0  0
  -28.2588  -38.0116   24.7531 H   0  0  0  0  0  0
  -28.1095  -36.2651   24.6248 H   0  0  0  0  0  0
  -27.2314  -37.1417   25.8865 H   0  0  0  0  0  0
  -20.9323  -29.8755   21.6929 H   0  0  0  0  0  0
  -26.0176  -38.2868   24.1420 H   0  0  0  0  0  0
  -27.1189  -25.1626   21.0487 H   0  0  0  0  0  0
  -28.5404  -17.9019   17.0460 H   0  0  0  0  0  0
  -28.8004  -19.5871   17.4558 H   0  0  0  0  0  0
  -27.2767  -18.8057   17.8679 H   0  0  0  0  0  0
  -31.2665  -16.0257   23.0195 H   0  0  0  0  0  0
  -30.4912  -14.4498   23.1472 H   0  0  0  0  0  0
  -29.5234  -15.9032   23.2989 H   0  0  0  0  0  0
  -27.8241  -20.6552   19.7769 H   0  0  0  0  0  0
  -30.1586  -25.2117   19.5187 H   0  0  0  0  0  0
  1 25  1  0  0  0
  1 30  2  0  0  0
  1 82  1  0  0  0
  2  3  1  0  0  0
  2 25  1  0  0  0
  2 88  1  0  0  0
  2 89  1  0  0  0
  3  4  1  0  0  0
  3 90  1  0  0  0
  3 91  1  0  0  0
  4  5  1  0  0  0
  4 92  1  0  0  0
  4 93  1  0  0  0
  5  6  1  0  0  0
  5 26  1  0  0  0
  5 94  1  0  0  0
  6 25  1  0  0  0
  6 95  1  0  0  0
  6 96  1  0  0  0
  7  8  2  0  0  0
  7 26  1  0  0  0
  7 29  1  0  0  0
  8  9  1  0  0  0
  8 22  1  0  0  0
  9 10  1  0  0  0
  9 27  2  0  0  0
 10 11  2  0  0  0
 10 15  1  0  0  0
 11 12  1  0  0  0
 11 97  1  0  0  0
 12 13  2  0  0  0
 12 98  1  0  0  0
 13 14  1  0  0  0
 13 31  1  0  0  0
 14 15  2  0  0  0
 14 99  1  0  0  0
 15100  1  0  0  0
 16 17  2  0  0  0
 16 21  1  0  0  0
 16 31  1  0  0  0
 17 18  1  0  0  0
 17101  1  0  0  0
 18 19  2  0  0  0
 18102  1  0  0  0
 19 20  1  0  0  0
 19 24  1  0  0  0
 20 21  2  0  0  0
 20103  1  0  0  0
 21 23  1  0  0  0
 22 28  1  0  0  0
 22 32  2  0  0  0
 26 27  1  0  0  0
 28104  1  0  0  0
 28105  1  0  0  0
 29106  1  0  0  0
 29107  1  0  0  0
 33 34  1  0  0  0
 33 66  1  0  0  0
 33 70  2  0  0  0
 34 36  1  0  0  0
 34 59  1  0  0  0
 34108  1  0  0  0
 35 44  2  0  0  0
 35 45  1  0  0  0
 35 68  1  0  0  0
 36 56  1  0  0  0
 36109  1  0  0  0
 37 39  1  0  0  0
 37 47  1  0  0  0
 37 66  1  0  0  0
 37110  1  0  0  0
 38 43  2  0  0  0
 38 46  1  0  0  0
 38 47  1  0  0  0
 39 64  1  0  0  0
 39 67  2  0  0  0
 40 52  1  0  0  0
 40 53  2  0  0  0
 40 58  1  0  0  0
 41111  1  0  0  0
 41112  1  0  0  0
 41113  1  0  0  0
 41 48  1  0  0  0
 42 43  1  0  0  0
 42 66  1  0  0  0
 42114  1  0  0  0
 42115  1  0  0  0
 43 44  1  0  0  0
 44116  1  0  0  0
 45 46  2  0  0  0
 45117  1  0  0  0
 46118  1  0  0  0
 47119  1  0  0  0
 47120  1  0  0  0
 48 56  1  0  0  0
 48 65  1  0  0  0
 48121  1  0  0  0
 49 50  1  0  0  0
 49 53  1  0  0  0
 49 64  1  0  0  0
 49122  1  0  0  0
 50 51  1  0  0  0
 50123  1  0  0  0
 50124  1  0  0  0
 51 52  1  0  0  0
 51125  1  0  0  0
 51126  1  0  0  0
 52127  1  0  0  0
 52128  1  0  0  0
 53 54  1  0  0  0
 54 55  2  0  0  0
 54129  1  0  0  0
 55 57  1  0  0  0
 55130  1  0  0  0
 56 69  2  0  0  0
 57 58  2  0  0  0
 57131  1  0  0  0
 58132  1  0  0  0
 59 60  1  0  0  0
 59 61  1  0  0  0
 59 62  1  0  0  0
 60133  1  0  0  0
 60134  1  0  0  0
 60135  1  0  0  0
 61136  1  0  0  0
 61137  1  0  0  0
 61138  1  0  0  0
 62139  1  0  0  0
 62140  1  0  0  0
 62141  1  0  0  0
 63 65  1  0  0  0
 63142  1  0  0  0
 63143  1  0  0  0
 63144  1  0  0  0
 64145  1  0  0  0
 65146  1  0  0  0
 68 75  1  0  0  0
 71 72  1  0  0  0
 71 73  2  0  0  0
 71 79  1  0  0  0
 72 74  2  0  0  0
 72 86  1  0  0  0
 73 81  1  0  0  0
 73 87  1  0  0  0
 74 82  1  0  0  0
 74 87  1  0  0  0
 75 76  2  0  0  0
 75147  1  0  0  0
 76 77  1  0  0  0
 76 85  1  0  0  0
 77 78  1  0  0  0
 77 83  2  0  0  0
 78 81  1  0  0  0
 78 84  2  0  0  0
 79148  1  0  0  0
 79149  1  0  0  0
 79150  1  0  0  0
 80 82  1  0  0  0
 80151  1  0  0  0
 80152  1  0  0  0
 80153  1  0  0  0
 81154  1  0  0  0
 85155  1  0  0  0
M  ISO  4   1 100  68 101  75 101  82 100
M  END
> <chiral flag>
0

> <version>
0

> <s_m_source_file>
/data/baiqing/PycharmProjects/Reinvent-master-3.2/result/LINK_invent/BTK/process_docking_weight1_custom_product_contain_oxygen_bond_distance_aromatic_linkinvent_7_9_3/rearranged_h_0176.sdf

> <i_m_source_file_index>
5

> <r_mmod_Potential_Energy-OPLS-2005>
142.327545166016

> <r_mmod_Stretch_Energy-OPLS-2005>
49.6789207458496

> <r_mmod_Bend_Energy-OPLS-2005>
117.457717895508

> <r_mmod_Torsional_Energy-OPLS-2005>
281.971008300781

> <r_mmod_Improper_Torsional_Energy-OPLS-2005>
3.65717744827271

> <r_mmod_Van_der_Waal_Energy-OPLS-2005>
133.949554443359

> <r_mmod_Electrostatic_Energy-OPLS-2005>
-244.621017456055

> <r_mmod_Solvation_Energy-OPLS-2005>
-219.734100341797

> <b_mmod_Minimization_Converged-OPLS-2005>
0

> <r_mmod_RMS_Derivative-OPLS-2005>
0.844999730587006

$$$$
5
                    3D
 Structure written by MMmdl.
156164  0  0  1  0            999 V2000
  -30.6122  -14.7630   20.4733 C   0  0  0  0  0  0
  -30.4378  -12.4682   19.4650 C   0  0  0  0  0  0
  -29.5098  -12.4959   18.2314 C   0  0  0  0  0  0
  -28.0397  -12.3114   18.6569 C   0  0  0  0  0  0
  -27.6416  -13.2254   19.8460 C   0  0  2  0  0  0
  -28.6911  -13.1729   20.9773 C   0  0  0  0  0  0
  -25.2533  -13.8176   20.5690 C   0  0  0  0  0  0
  -24.1820  -13.0426   20.9215 C   0  0  0  0  0  0
  -24.6405  -11.6902   20.8748 C   0  0  0  0  0  0
  -23.9072  -10.4281   21.0408 C   0  0  0  0  0  0
  -24.3615   -9.4192   21.9186 C   0  0  0  0  0  0
  -23.6287   -8.2226   22.0757 C   0  0  0  0  0  0
  -22.4265   -8.0266   21.3551 C   0  0  0  0  0  0
  -21.9907   -9.0240   20.4647 C   0  0  0  0  0  0
  -22.7241  -10.2124   20.3056 C   0  0  0  0  0  0
  -21.6849   -6.0728   22.5279 C   0  0  0  0  0  0
  -21.4014   -6.5631   23.8214 C   0  0  0  0  0  0
  -21.3658   -5.6785   24.9176 C   0  0  0  0  0  0
  -21.6049   -4.3050   24.7228 C   0  0  0  0  0  0
  -21.8820   -3.8139   23.4350 C   0  0  0  0  0  0
  -21.9194   -4.6955   22.3405 C   0  0  0  0  0  0
  -22.7845  -13.5220   21.1845 C   0  0  0  0  0  0
  -22.1660   -4.2133   21.0986 F   0  0  0  0  0  0
  -21.5629   -3.4542   25.7748 F   0  0  0  0  0  0
  -29.9826  -13.5382   20.3836 N   0  0  0  0  0  0
  -26.2949  -12.9366   20.3284 N   0  0  0  0  0  0
  -25.9332  -11.6521   20.5761 N   0  0  0  0  0  0
  -22.0485  -12.8216   22.0399 N   0  0  0  0  0  0
  -25.4222  -15.1901   20.4114 N   0  0  0  0  0  0
  -31.8135  -14.8395   20.1951 O   0  0  0  0  0  0
  -21.6637   -6.8861   21.4237 O   0  0  0  0  0  0
  -22.3528  -14.5517   20.6671 O   0  0  0  0  0  0
  -24.6316  -31.8525   23.1951 C   0  0  0  0  0  0
  -25.9154  -32.4734   23.8290 C   0  0  1  0  0  0
  -27.2297  -27.2445   20.1398 C   0  0  0  0  0  0
  -25.5936  -33.8522   24.2233 N   0  0  0  0  0  0
  -23.4333  -30.4716   21.5369 C   0  0  2  0  0  0
  -24.8827  -28.9099   20.1192 C   0  0  0  0  0  0
  -22.7533  -29.4575   22.4877 C   0  0  0  0  0  0
  -18.0330  -28.1355   22.8437 C   0  0  0  0  0  0
  -24.1498  -36.7241   23.2636 C   0  0  0  0  0  0
  -25.9786  -30.7589   21.3807 C   0  0  0  0  0  0
  -26.0542  -29.3780   20.7275 C   0  0  0  0  0  0
  -27.2322  -28.5608   20.7197 C   0  0  0  0  0  0
  -26.0355  -26.8492   19.4979 C   0  0  0  0  0  0
  -24.8785  -27.6540   19.4936 C   0  0  0  0  0  0
  -23.6542  -29.7982   20.1560 C   0  0  0  0  0  0
  -25.4132  -36.3031   24.0306 C   0  0  1  0  0  0
  -20.5931  -28.3676   23.1214 C   0  0  2  0  0  0
  -20.6807  -26.9387   22.5366 C   0  0  0  0  0  0
  -19.5805  -26.6363   21.5144 C   0  0  0  0  0  0
  -18.1990  -26.7898   22.1561 C   0  0  0  0  0  0
  -19.1581  -28.8828   23.2814 C   0  0  0  0  0  0
  -18.9506  -30.1426   23.8833 C   0  0  0  0  0  0
  -17.6502  -30.6534   24.0538 C   0  0  0  0  0  0
  -25.9063  -34.9406   23.5072 C   0  0  0  0  0  0
  -16.5392  -29.9036   23.6309 C   0  0  0  0  0  0
  -16.7315  -28.6467   23.0309 C   0  0  0  0  0  0
  -26.4525  -31.6561   25.0687 C   0  0  0  0  0  0
  -25.3714  -31.3707   26.1393 C   0  0  0  0  0  0
  -27.0420  -30.2982   24.6195 C   0  0  0  0  0  0
  -27.6096  -32.4295   25.7442 C   0  0  0  0  0  0
  -27.5588  -37.1764   24.8468 C   0  0  0  0  0  0
  -21.4247  -29.3023   22.3609 N   0  0  0  0  0  0
  -26.4310  -37.3731   23.9398 N   0  0  0  0  0  0
  -24.7002  -31.0487   22.0918 N   0  0  0  0  0  0
  -23.4206  -28.8133   23.3020 O   0  0  0  0  0  0
  -28.3327  -26.3550   20.1620 O   0  0  0  0  0  0
  -26.5638  -34.8873   22.4642 O   0  0  0  0  0  0
  -23.5465  -32.1347   23.7219 O   0  0  0  0  0  0
  -31.0980  -17.4700   21.9979 C   0  0  0  0  0  0
  -31.4184  -18.7415   22.4955 C   0  0  0  0  0  0
  -30.8313  -19.8995   21.9533 C   0  0  0  0  0  0
  -30.1736  -17.3217   20.9504 C   0  0  0  0  0  0
  -29.8958  -19.7884   20.8950 C   0  0  0  0  0  0
  -29.0600  -22.2779   20.9009 C   0  0  0  0  0  0
  -31.8637  -23.5768   20.1227 C   0  0  0  0  0  0
  -30.6068  -24.3306   20.5999 C   0  0  0  0  0  0
  -28.1159  -24.8911   20.4990 C   0  0  0  0  0  0
  -29.2301  -23.7316   20.1975 C   0  0  2  0  0  0
  -29.5918  -18.4923   20.4290 N   0  0  0  0  0  0
  -29.4500  -21.0832   20.2966 N   0  0  0  0  0  0
  -29.8299  -15.9130   20.6011 N   0  0  0  0  0  0
  -28.5341  -22.2502   22.0174 O   0  0  0  0  0  0
  -32.3086  -18.8506   23.5123 F   0  0  0  0  0  0
  -31.2146  -21.1100   22.4364 F   0  0  0  0  0  0
  -29.2431  -23.5375   18.8754 F   0  0  0  0  0  0
  -31.4773  -12.6003   19.1608 H   0  0  0  0  0  0
  -30.3952  -11.4946   19.9565 H   0  0  0  0  0  0
  -29.7904  -11.7143   17.5251 H   0  0  0  0  0  0
  -29.6289  -13.4441   17.7046 H   0  0  0  0  0  0
  -27.9127  -11.2661   18.9419 H   0  0  0  0  0  0
  -27.3694  -12.4733   17.8110 H   0  0  0  0  0  0
  -27.6305  -14.2386   19.4443 H   0  0  0  0  0  0
  -28.7387  -12.1758   21.4196 H   0  0  0  0  0  0
  -28.4279  -13.8545   21.7871 H   0  0  0  0  0  0
  -25.2754   -9.5661   22.4765 H   0  0  0  0  0  0
  -23.9984   -7.4625   22.7491 H   0  0  0  0  0  0
  -21.0829   -8.8768   19.8959 H   0  0  0  0  0  0
  -22.3701  -10.9660   19.6162 H   0  0  0  0  0  0
  -21.2005   -7.6141   23.9708 H   0  0  0  0  0  0
  -21.1479   -6.0525   25.9081 H   0  0  0  0  0  0
  -22.0600   -2.7598   23.2868 H   0  0  0  0  0  0
  -22.4090  -11.9879   22.4788 H   0  0  0  0  0  0
  -21.1117  -13.1262   22.2609 H   0  0  0  0  0  0
  -24.6456  -15.8356   20.5092 H   0  0  0  0  0  0
  -26.2595  -15.6356   20.0581 H   0  0  0  0  0  0
  -26.7203  -32.5379   23.1010 H   0  0  0  0  0  0
  -25.0102  -33.9640   25.0398 H   0  0  0  0  0  0
  -22.7282  -31.2892   21.3806 H   0  0  0  0  0  0
  -23.3756  -35.9571   23.3304 H   0  0  0  0  0  0
  -24.3605  -36.8885   22.2047 H   0  0  0  0  0  0
  -23.7258  -37.6433   23.6684 H   0  0  0  0  0  0
  -26.1220  -31.5166   20.6101 H   0  0  0  0  0  0
  -26.8522  -30.8106   22.0179 H   0  0  0  0  0  0
  -28.1333  -28.9203   21.1965 H   0  0  0  0  0  0
  -25.9792  -25.9006   18.9864 H   0  0  0  0  0  0
  -23.9861  -27.2974   18.9983 H   0  0  0  0  0  0
  -23.7742  -30.5632   19.3878 H   0  0  0  0  0  0
  -22.7737  -29.2250   19.8595 H   0  0  0  0  0  0
  -25.1323  -36.1859   25.0798 H   0  0  0  0  0  0
  -21.0009  -28.3256   24.1337 H   0  0  0  0  0  0
  -20.5680  -26.2292   23.3582 H   0  0  0  0  0  0
  -21.6690  -26.7399   22.1198 H   0  0  0  0  0  0
  -19.6980  -25.6273   21.1192 H   0  0  0  0  0  0
  -19.6731  -27.3136   20.6635 H   0  0  0  0  0  0
  -17.4259  -26.6587   21.3970 H   0  0  0  0  0  0
  -18.0428  -26.0023   22.8945 H   0  0  0  0  0  0
  -19.7990  -30.7243   24.2170 H   0  0  0  0  0  0
  -17.5069  -31.6215   24.5160 H   0  0  0  0  0  0
  -15.5393  -30.2915   23.7671 H   0  0  0  0  0  0
  -15.8730  -28.0783   22.7009 H   0  0  0  0  0  0
  -24.5945  -30.6993   25.7732 H   0  0  0  0  0  0
  -24.8793  -32.2845   26.4707 H   0  0  0  0  0  0
  -25.7991  -30.8977   27.0242 H   0  0  0  0  0  0
  -26.3025  -29.6656   24.1270 H   0  0  0  0  0  0
  -27.4199  -29.7315   25.4722 H   0  0  0  0  0  0
  -27.8849  -30.4294   23.9408 H   0  0  0  0  0  0
  -27.2802  -33.3704   26.1853 H   0  0  0  0  0  0
  -28.3981  -32.6674   25.0287 H   0  0  0  0  0  0
  -28.0667  -31.8494   26.5470 H   0  0  0  0  0  0
  -28.2596  -38.0075   24.7562 H   0  0  0  0  0  0
  -28.1111  -36.2607   24.6282 H   0  0  0  0  0  0
  -27.2296  -37.1400   25.8871 H   0  0  0  0  0  0
  -20.9472  -29.8703   21.6763 H   0  0  0  0  0  0
  -26.0173  -38.2792   24.1410 H   0  0  0  0  0  0
  -31.5650  -16.6108   22.4545 H   0  0  0  0  0  0
  -32.7643  -24.0549   20.5117 H   0  0  0  0  0  0
  -31.9370  -23.5891   19.0358 H   0  0  0  0  0  0
  -31.8896  -22.5375   20.4490 H   0  0  0  0  0  0
  -30.6794  -25.3470   20.2129 H   0  0  0  0  0  0
  -30.6467  -24.4357   21.6873 H   0  0  0  0  0  0
  -27.1815  -24.5303   20.0711 H   0  0  0  0  0  0
  -27.9344  -24.8905   21.5744 H   0  0  0  0  0  0
  -29.6494  -21.1758   19.3114 H   0  0  0  0  0  0
  -28.8406  -15.7399   20.5226 H   0  0  0  0  0  0
  1 25  1  0  0  0
  1 30  2  0  0  0
  1 83  1  0  0  0
  2  3  1  0  0  0
  2 25  1  0  0  0
  2 88  1  0  0  0
  2 89  1  0  0  0
  3  4  1  0  0  0
  3 90  1  0  0  0
  3 91  1  0  0  0
  4  5  1  0  0  0
  4 92  1  0  0  0
  4 93  1  0  0  0
  5  6  1  0  0  0
  5 26  1  0  0  0
  5 94  1  0  0  0
  6 25  1  0  0  0
  6 95  1  0  0  0
  6 96  1  0  0  0
  7  8  2  0  0  0
  7 26  1  0  0  0
  7 29  1  0  0  0
  8  9  1  0  0  0
  8 22  1  0  0  0
  9 10  1  0  0  0
  9 27  2  0  0  0
 10 11  2  0  0  0
 10 15  1  0  0  0
 11 12  1  0  0  0
 11 97  1  0  0  0
 12 13  2  0  0  0
 12 98  1  0  0  0
 13 14  1  0  0  0
 13 31  1  0  0  0
 14 15  2  0  0  0
 14 99  1  0  0  0
 15100  1  0  0  0
 16 17  2  0  0  0
 16 21  1  0  0  0
 16 31  1  0  0  0
 17 18  1  0  0  0
 17101  1  0  0  0
 18 19  2  0  0  0
 18102  1  0  0  0
 19 20  1  0  0  0
 19 24  1  0  0  0
 20 21  2  0  0  0
 20103  1  0  0  0
 21 23  1  0  0  0
 22 28  1  0  0  0
 22 32  2  0  0  0
 26 27  1  0  0  0
 28104  1  0  0  0
 28105  1  0  0  0
 29106  1  0  0  0
 29107  1  0  0  0
 33 34  1  0  0  0
 33 66  1  0  0  0
 33 70  2  0  0  0
 34 36  1  0  0  0
 34 59  1  0  0  0
 34108  1  0  0  0
 35 44  2  0  0  0
 35 45  1  0  0  0
 35 68  1  0  0  0
 36 56  1  0  0  0
 36109  1  0  0  0
 37 39  1  0  0  0
 37 47  1  0  0  0
 37 66  1  0  0  0
 37110  1  0  0  0
 38 43  2  0  0  0
 38 46  1  0  0  0
 38 47  1  0  0  0
 39 64  1  0  0  0
 39 67  2  0  0  0
 40 52  1  0  0  0
 40 53  2  0  0  0
 40 58  1  0  0  0
 41111  1  0  0  0
 41112  1  0  0  0
 41113  1  0  0  0
 41 48  1  0  0  0
 42 43  1  0  0  0
 42 66  1  0  0  0
 42114  1  0  0  0
 42115  1  0  0  0
 43 44  1  0  0  0
 44116  1  0  0  0
 45 46  2  0  0  0
 45117  1  0  0  0
 46118  1  0  0  0
 47119  1  0  0  0
 47120  1  0  0  0
 48 56  1  0  0  0
 48 65  1  0  0  0
 48121  1  0  0  0
 49 50  1  0  0  0
 49 53  1  0  0  0
 49 64  1  0  0  0
 49122  1  0  0  0
 50 51  1  0  0  0
 50123  1  0  0  0
 50124  1  0  0  0
 51 52  1  0  0  0
 51125  1  0  0  0
 51126  1  0  0  0
 52127  1  0  0  0
 52128  1  0  0  0
 53 54  1  0  0  0
 54 55  2  0  0  0
 54129  1  0  0  0
 55 57  1  0  0  0
 55130  1  0  0  0
 56 69  2  0  0  0
 57 58  2  0  0  0
 57131  1  0  0  0
 58132  1  0  0  0
 59 60  1  0  0  0
 59 61  1  0  0  0
 59 62  1  0  0  0
 60133  1  0  0  0
 60134  1  0  0  0
 60135  1  0  0  0
 61136  1  0  0  0
 61137  1  0  0  0
 61138  1  0  0  0
 62139  1  0  0  0
 62140  1  0  0  0
 62141  1  0  0  0
 63 65  1  0  0  0
 63142  1  0  0  0
 63143  1  0  0  0
 63144  1  0  0  0
 64145  1  0  0  0
 65146  1  0  0  0
 68 79  1  0  0  0
 71 72  2  0  0  0
 71 74  1  0  0  0
 71147  1  0  0  0
 72 73  1  0  0  0
 72 85  1  0  0  0
 73 75  2  0  0  0
 73 86  1  0  0  0
 74 81  2  0  0  0
 74 83  1  0  0  0
 75 81  1  0  0  0
 75 82  1  0  0  0
 76 80  1  0  0  0
 76 82  1  0  0  0
 76 84  2  0  0  0
 77 78  1  0  0  0
 77148  1  0  0  0
 77149  1  0  0  0
 77150  1  0  0  0
 78 80  1  0  0  0
 78151  1  0  0  0
 78152  1  0  0  0
 79 80  1  0  0  0
 79153  1  0  0  0
 79154  1  0  0  0
 80 87  1  0  0  0
 82155  1  0  0  0
 83156  1  0  0  0
M  ISO  4   1 100  68 101  79 101  83 100
M  END
> <chiral flag>
0

> <version>
0

> <s_m_source_file>
/data/baiqing/PycharmProjects/Reinvent-master-3.2/result/LINK_invent/BTK/process_docking_weight1_custom_product_contain_oxygen_bond_distance_aromatic_linkinvent_7_9_3/rearranged_h_0176.sdf

> <i_m_source_file_index>
6

> <r_mmod_Potential_Energy-OPLS-2005>
112.234260559082

> <r_mmod_Stretch_Energy-OPLS-2005>
146.906127929688

> <r_mmod_Bend_Energy-OPLS-2005>
167.491897583008

> <r_mmod_Torsional_Energy-OPLS-2005>
275.376861572266

> <r_mmod_Improper_Torsional_Energy-OPLS-2005>
7.97254228591919

> <r_mmod_Van_der_Waal_Energy-OPLS-2005>
141.037063598633

> <r_mmod_Electrostatic_Energy-OPLS-2005>
-495.212280273438

> <r_mmod_Solvation_Energy-OPLS-2005>
-224.327102661133

> <b_mmod_Minimization_Converged-OPLS-2005>
0

> <r_mmod_RMS_Derivative-OPLS-2005>
3.05915570259094

$$$$
6
                    3D
 Structure written by MMmdl.
153161  0  0  1  0            999 V2000
  -29.2454  -16.3865   20.3353 C   0  0  0  0  0  0
  -30.1642  -13.7488   19.5763 C   0  0  0  0  0  0
  -29.5096  -12.8845   18.4271 C   0  0  0  0  0  0
  -28.1644  -12.2982   18.8674 C   0  0  0  0  0  0
  -27.4772  -13.3121   19.7922 C   0  0  2  0  0  0
  -28.3388  -13.8643   20.9327 C   0  0  0  0  0  0
  -25.1778  -13.8181   20.5728 C   0  0  0  0  0  0
  -24.1323  -13.0317   20.9406 C   0  0  0  0  0  0
  -24.6082  -11.6838   20.8854 C   0  0  0  0  0  0
  -23.8905  -10.4209   21.0476 C   0  0  0  0  0  0
  -24.3537   -9.4149   21.9224 C   0  0  0  0  0  0
  -23.6247   -8.2175   22.0767 C   0  0  0  0  0  0
  -22.4238   -8.0214   21.3547 C   0  0  0  0  0  0
  -21.9837   -9.0165   20.4651 C   0  0  0  0  0  0
  -22.7124  -10.2051   20.3075 C   0  0  0  0  0  0
  -21.6830   -6.0704   22.5288 C   0  0  0  0  0  0
  -21.3996   -6.5621   23.8216 C   0  0  0  0  0  0
  -21.3651   -5.6782   24.9182 C   0  0  0  0  0  0
  -21.6042   -4.3045   24.7236 C   0  0  0  0  0  0
  -21.8824   -3.8130   23.4361 C   0  0  0  0  0  0
  -21.9188   -4.6940   22.3414 C   0  0  0  0  0  0
  -22.7408  -13.5097   21.2044 C   0  0  0  0  0  0
  -22.1661   -4.2126   21.0991 F   0  0  0  0  0  0
  -21.5630   -3.4535   25.7753 F   0  0  0  0  0  0
  -29.2037  -14.8388   20.2525 N   0  0  0  0  0  0
  -26.1989  -12.9392   20.2945 N   0  0  0  0  0  0
  -25.8930  -11.6505   20.5587 N   0  0  0  0  0  0
  -22.0084  -12.8086   22.0589 N   0  0  0  0  0  0
  -25.3410  -15.1939   20.4047 N   0  0  0  0  0  0
  -30.5232  -16.4321   20.2141 O   0  0  0  0  0  0
  -21.6609   -6.8821   21.4241 O   0  0  0  0  0  0
  -22.3166  -14.5420   20.6863 O   0  0  0  0  0  0
  -24.7225  -31.6363   22.6340 C   0  0  0  0  0  0
  -25.9067  -32.3379   23.5411 C   0  0  1  0  0  0
  -26.4210  -28.1514   21.6535 C   0  0  0  0  0  0
  -25.5055  -33.7212   23.9686 N   0  0  0  0  0  0
  -24.2826  -29.1761   20.7336 C   0  0  2  0  0  0
  -25.6779  -28.9064   19.3229 C   0  0  0  0  0  0
  -23.8818  -27.3078   22.6296 C   0  0  0  0  0  0
  -18.1815  -28.0552   22.8174 C   0  0  0  0  0  0
  -24.1429  -36.6763   23.2788 C   0  0  0  0  0  0
  -26.0435  -31.0626   20.6635 C   0  0  0  0  0  0
  -26.5578  -29.7292   20.1258 C   0  0  0  0  0  0
  -27.3239  -29.0220   21.0466 C   0  0  0  0  0  0
  -26.1586  -27.1006   20.6569 C   0  0  0  0  0  0
  -25.7363  -27.5096   19.3895 C   0  0  0  0  0  0
  -24.3061  -29.2845   19.2538 C   0  0  0  0  0  0
  -25.4181  -36.2257   24.0117 C   0  0  1  0  0  0
  -20.8080  -27.4851   23.1435 C   0  0  2  0  0  0
  -20.3881  -26.2128   22.4913 C   0  0  0  0  0  0
  -19.3480  -26.3833   21.4176 C   0  0  0  0  0  0
  -18.0600  -26.7382   22.0982 C   0  0  0  0  0  0
  -19.4739  -28.5579   23.2677 C   0  0  0  0  0  0
  -19.2776  -29.8375   23.9262 C   0  0  0  0  0  0
  -18.0164  -30.5084   24.0699 C   0  0  0  0  0  0
  -25.9162  -34.8790   23.4213 C   0  0  0  0  0  0
  -16.8202  -29.9339   23.6206 C   0  0  0  0  0  0
  -16.9201  -28.6902   22.9990 C   0  0  0  0  0  0
  -26.4216  -31.6384   24.9093 C   0  0  0  0  0  0
  -25.3632  -31.4535   26.0285 C   0  0  0  0  0  0
  -27.0514  -30.2650   24.6401 C   0  0  0  0  0  0
  -27.5613  -32.4773   25.5652 C   0  0  0  0  0  0
  -27.5483  -37.1436   24.8473 C   0  0  0  0  0  0
  -22.4458  -27.2032   23.2525 N   0  0  0  0  0  0
  -26.4151  -37.3245   23.9452 N   0  0  0  0  0  0
  -24.7850  -30.8316   21.3574 N   0  0  0  0  0  0
  -24.3571  -27.3430   23.7552 O   0  0  0  0  0  0
  -25.3620  -28.9827   22.5439 O   0  0  0  0  0  0
  -26.6540  -34.8956   22.4368 O   0  0  0  0  0  0
  -23.6511  -32.0122   23.1416 O   0  0  0  0  0  0
  -25.8967  -21.3640   20.5404 C   0  0  0  0  0  0
  -24.5288  -21.2002   20.8643 C   0  0  0  0  0  0
  -24.1999  -24.1659   20.6670 C   0  0  0  0  0  0
  -22.4236  -27.4934   20.6895 C   0  0  0  0  0  0
  -23.9218  -19.8494   21.0400 C   0  0  0  0  0  0
  -22.4284  -29.7590   23.8347 C   0  0  0  0  0  0
  -27.4145  -19.7196   20.3819 C   0  0  0  0  0  0
  -22.9111  -29.3390   22.3650 C   0  0  1  0  0  0
  -25.4860  -23.1230   20.3937 N   0  0  0  0  0  0
  -23.2273  -25.9075   20.3890 N   0  0  0  0  0  0
  -28.0717  -17.7239   20.4091 N   0  0  0  0  0  0
  -21.5946  -27.8097   19.8364 O   0  0  0  0  0  0
  -23.2812  -22.6377   21.0625 S   0  0  0  0  0  0
  -31.0221  -14.2628   19.1406 H   0  0  0  0  0  0
  -30.6147  -13.0948   20.3253 H   0  0  0  0  0  0
  -30.1844  -12.0926   18.0987 H   0  0  0  0  0  0
  -29.3463  -13.5255   17.5595 H   0  0  0  0  0  0
  -28.3408  -11.3721   19.4154 H   0  0  0  0  0  0
  -27.5385  -12.0465   18.0104 H   0  0  0  0  0  0
  -27.2575  -14.1366   19.1097 H   0  0  0  0  0  0
  -28.8444  -13.0885   21.5096 H   0  0  0  0  0  0
  -27.7406  -14.4235   21.6533 H   0  0  0  0  0  0
  -25.2672   -9.5667   22.4799 H   0  0  0  0  0  0
  -23.9966   -7.4572   22.7483 H   0  0  0  0  0  0
  -21.0770   -8.8667   19.8960 H   0  0  0  0  0  0
  -22.3578  -10.9599   19.6197 H   0  0  0  0  0  0
  -21.1981   -7.6129   23.9709 H   0  0  0  0  0  0
  -21.1467   -6.0517   25.9082 H   0  0  0  0  0  0
  -22.0610   -2.7591   23.2871 H   0  0  0  0  0  0
  -22.3708  -11.9734   22.4955 H   0  0  0  0  0  0
  -21.0715  -13.1122   22.2831 H   0  0  0  0  0  0
  -24.5092  -15.7747   20.4235 H   0  0  0  0  0  0
  -26.0297  -15.5250   19.7438 H   0  0  0  0  0  0
  -26.8031  -32.4599   22.9445 H   0  0  0  0  0  0
  -24.8321  -33.7713   24.7188 H   0  0  0  0  0  0
  -23.3639  -29.6185   20.3028 H   0  0  0  0  0  0
  -23.3762  -35.9005   23.3187 H   0  0  0  0  0  0
  -24.3358  -36.8907   22.2262 H   0  0  0  0  0  0
  -23.7172  -37.5717   23.7319 H   0  0  0  0  0  0
  -25.8338  -31.7164   19.8163 H   0  0  0  0  0  0
  -26.8530  -31.5517   21.1896 H   0  0  0  0  0  0
  -27.8467  -29.6779   21.7232 H   0  0  0  0  0  0
  -25.9592  -26.0900   20.9729 H   0  0  0  0  0  0
  -25.1851  -26.8338   18.7501 H   0  0  0  0  0  0
  -24.2488  -30.2822   18.7903 H   0  0  0  0  0  0
  -23.7227  -28.5822   18.6486 H   0  0  0  0  0  0
  -25.1584  -36.0570   25.0585 H   0  0  0  0  0  0
  -20.6976  -27.2423   24.2023 H   0  0  0  0  0  0
  -19.9706  -25.5574   23.2589 H   0  0  0  0  0  0
  -21.2037  -25.6034   22.1051 H   0  0  0  0  0  0
  -19.2245  -25.4473   20.8735 H   0  0  0  0  0  0
  -19.5618  -27.1527   20.6872 H   0  0  0  0  0  0
  -17.2767  -26.7982   21.3408 H   0  0  0  0  0  0
  -17.7411  -25.9631   22.7994 H   0  0  0  0  0  0
  -20.0724  -30.3316   24.4467 H   0  0  0  0  0  0
  -17.9820  -31.4558   24.5910 H   0  0  0  0  0  0
  -15.8680  -30.4288   23.7535 H   0  0  0  0  0  0
  -16.0130  -28.2237   22.6384 H   0  0  0  0  0  0
  -24.6029  -30.7283   25.7748 H   0  0  0  0  0  0
  -24.8583  -32.3891   26.2683 H   0  0  0  0  0  0
  -25.8233  -31.0967   26.9515 H   0  0  0  0  0  0
  -26.2974  -29.4886   24.5620 H   0  0  0  0  0  0
  -27.6891  -29.9421   25.4639 H   0  0  0  0  0  0
  -27.6716  -30.2707   23.7490 H   0  0  0  0  0  0
  -27.2118  -33.4480   25.9181 H   0  0  0  0  0  0
  -28.3645  -32.6675   24.8512 H   0  0  0  0  0  0
  -28.0066  -31.9787   26.4274 H   0  0  0  0  0  0
  -28.2364  -37.9865   24.7614 H   0  0  0  0  0  0
  -28.1118  -36.2370   24.6196 H   0  0  0  0  0  0
  -27.2212  -37.0909   25.8877 H   0  0  0  0  0  0
  -22.6091  -26.7875   24.1604 H   0  0  0  0  0  0
  -25.9805  -38.2173   24.1617 H   0  0  0  0  0  0
  -24.6632  -19.0545   20.9586 H   0  0  0  0  0  0
  -23.1681  -19.6758   20.2715 H   0  0  0  0  0  0
  -23.4318  -19.7638   22.0094 H   0  0  0  0  0  0
  -21.9113  -30.7140   23.8332 H   0  0  0  0  0  0
  -23.3327  -29.8921   24.4101 H   0  0  0  0  0  0
  -21.8670  -29.1185   24.4989 H   0  0  0  0  0  0
  -28.1799  -20.1018   21.0567 H   0  0  0  0  0  0
  -27.8279  -19.9462   19.4005 H   0  0  0  0  0  0
  -22.4783  -30.2355   21.8988 H   0  0  0  0  0  0
  -22.8219  -25.7443   19.4772 H   0  0  0  0  0  0
  -27.2044  -17.2134   20.5010 H   0  0  0  0  0  0
  1 25  1  0  0  0
  1 30  2  0  0  0
  1 81  1  0  0  0
  2  3  1  0  0  0
  2 25  1  0  0  0
  2 84  1  0  0  0
  2 85  1  0  0  0
  3  4  1  0  0  0
  3 86  1  0  0  0
  3 87  1  0  0  0
  4  5  1  0  0  0
  4 88  1  0  0  0
  4 89  1  0  0  0
  5  6  1  0  0  0
  5 26  1  0  0  0
  5 90  1  0  0  0
  6 25  1  0  0  0
  6 91  1  0  0  0
  6 92  1  0  0  0
  7  8  2  0  0  0
  7 26  1  0  0  0
  7 29  1  0  0  0
  8  9  1  0  0  0
  8 22  1  0  0  0
  9 10  1  0  0  0
  9 27  2  0  0  0
 10 11  2  0  0  0
 10 15  1  0  0  0
 11 12  1  0  0  0
 11 93  1  0  0  0
 12 13  2  0  0  0
 12 94  1  0  0  0
 13 14  1  0  0  0
 13 31  1  0  0  0
 14 15  2  0  0  0
 14 95  1  0  0  0
 15 96  1  0  0  0
 16 17  2  0  0  0
 16 21  1  0  0  0
 16 31  1  0  0  0
 17 18  1  0  0  0
 17 97  1  0  0  0
 18 19  2  0  0  0
 18 98  1  0  0  0
 19 20  1  0  0  0
 19 24  1  0  0  0
 20 21  2  0  0  0
 20 99  1  0  0  0
 21 23  1  0  0  0
 22 28  1  0  0  0
 22 32  2  0  0  0
 26 27  1  0  0  0
 28100  1  0  0  0
 28101  1  0  0  0
 29102  1  0  0  0
 29103  1  0  0  0
 33 34  1  0  0  0
 33 66  1  0  0  0
 33 70  2  0  0  0
 34 36  1  0  0  0
 34 59  1  0  0  0
 34104  1  0  0  0
 35 44  2  0  0  0
 35 45  1  0  0  0
 35 68  1  0  0  0
 36 56  1  0  0  0
 36105  1  0  0  0
 37 39  1  0  0  0
 37 47  1  0  0  0
 37 66  1  0  0  0
 37106  1  0  0  0
 38 43  2  0  0  0
 38 46  1  0  0  0
 38 47  1  0  0  0
 39 64  1  0  0  0
 39 67  2  0  0  0
 40 52  1  0  0  0
 40 53  2  0  0  0
 40 58  1  0  0  0
 41107  1  0  0  0
 41108  1  0  0  0
 41109  1  0  0  0
 41 48  1  0  0  0
 42 43  1  0  0  0
 42 66  1  0  0  0
 42110  1  0  0  0
 42111  1  0  0  0
 43 44  1  0  0  0
 44112  1  0  0  0
 45 46  2  0  0  0
 45113  1  0  0  0
 46114  1  0  0  0
 47115  1  0  0  0
 47116  1  0  0  0
 48 56  1  0  0  0
 48 65  1  0  0  0
 48117  1  0  0  0
 49 50  1  0  0  0
 49 53  1  0  0  0
 49 64  1  0  0  0
 49118  1  0  0  0
 50 51  1  0  0  0
 50119  1  0  0  0
 50120  1  0  0  0
 51 52  1  0  0  0
 51121  1  0  0  0
 51122  1  0  0  0
 52123  1  0  0  0
 52124  1  0  0  0
 53 54  1  0  0  0
 54 55  2  0  0  0
 54125  1  0  0  0
 55 57  1  0  0  0
 55126  1  0  0  0
 56 69  2  0  0  0
 57 58  2  0  0  0
 57127  1  0  0  0
 58128  1  0  0  0
 59 60  1  0  0  0
 59 61  1  0  0  0
 59 62  1  0  0  0
 60129  1  0  0  0
 60130  1  0  0  0
 60131  1  0  0  0
 61132  1  0  0  0
 61133  1  0  0  0
 61134  1  0  0  0
 62135  1  0  0  0
 62136  1  0  0  0
 62137  1  0  0  0
 63 65  1  0  0  0
 63138  1  0  0  0
 63139  1  0  0  0
 63140  1  0  0  0
 64141  1  0  0  0
 65142  1  0  0  0
 68 78  1  0  0  0
 71 72  2  0  0  0
 71 77  1  0  0  0
 71 79  1  0  0  0
 72 75  1  0  0  0
 72 83  1  0  0  0
 73 79  2  0  0  0
 73 80  1  0  0  0
 73 83  1  0  0  0
 74 78  1  0  0  0
 74 80  1  0  0  0
 74 82  2  0  0  0
 75143  1  0  0  0
 75144  1  0  0  0
 75145  1  0  0  0
 76146  1  0  0  0
 76147  1  0  0  0
 76148  1  0  0  0
 76 78  1  0  0  0
 77 81  1  0  0  0
 77149  1  0  0  0
 77150  1  0  0  0
 78151  1  0  0  0
 80152  1  0  0  0
 81153  1  0  0  0
M  ISO  4   1 100  68 101  78 101  81 100
M  END
> <chiral flag>
0

> <version>
0

> <s_m_source_file>
/data/baiqing/PycharmProjects/Reinvent-master-3.2/result/LINK_invent/BTK/process_docking_weight1_custom_product_contain_oxygen_bond_distance_aromatic_linkinvent_7_9_3/rearranged_h_0176.sdf

> <i_m_source_file_index>
7

> <r_mmod_Potential_Energy-OPLS-2005>
20937.77734375

> <r_mmod_Stretch_Energy-OPLS-2005>
8889.505859375

> <r_mmod_Bend_Energy-OPLS-2005>
2300.09692382812

> <r_mmod_Torsional_Energy-OPLS-2005>
672.58154296875

> <r_mmod_Improper_Torsional_Energy-OPLS-2005>
124.422325134277

> <r_mmod_Van_der_Waal_Energy-OPLS-2005>
2477.95166015625

> <r_mmod_Electrostatic_Energy-OPLS-2005>
-475.232116699219

> <r_mmod_Solvation_Energy-OPLS-2005>
-241.618942260742

> <b_mmod_Minimization_Converged-OPLS-2005>
0

> <r_mmod_RMS_Derivative-OPLS-2005>
5.80319929122925

$$$$
7
                    3D
 Structure written by MMmdl.
165173  0  0  1  0            999 V2000
  -30.6410  -14.5500   20.5749 C   0  0  0  0  0  0
  -30.4466  -12.3560   19.4343 C   0  0  0  0  0  0
  -29.5086  -12.5096   18.2155 C   0  0  0  0  0  0
  -28.0287  -12.3543   18.6237 C   0  0  0  0  0  0
  -27.6631  -13.2007   19.8723 C   0  0  2  0  0  0
  -28.7047  -12.9858   20.9947 C   0  0  0  0  0  0
  -25.2621  -13.8132   20.5651 C   0  0  0  0  0  0
  -24.1859  -13.0420   20.9162 C   0  0  0  0  0  0
  -24.6404  -11.6892   20.8718 C   0  0  0  0  0  0
  -23.9067  -10.4275   21.0395 C   0  0  0  0  0  0
  -24.3623   -9.4190   21.9171 C   0  0  0  0  0  0
  -23.6294   -8.2230   22.0744 C   0  0  0  0  0  0
  -22.4275   -8.0266   21.3532 C   0  0  0  0  0  0
  -21.9906   -9.0240   20.4637 C   0  0  0  0  0  0
  -22.7241  -10.2118   20.3043 C   0  0  0  0  0  0
  -21.6847   -6.0733   22.5277 C   0  0  0  0  0  0
  -21.4010   -6.5636   23.8210 C   0  0  0  0  0  0
  -21.3660   -5.6787   24.9167 C   0  0  0  0  0  0
  -21.6048   -4.3051   24.7216 C   0  0  0  0  0  0
  -21.8829   -3.8143   23.4335 C   0  0  0  0  0  0
  -21.9195   -4.6962   22.3393 C   0  0  0  0  0  0
  -22.7896  -13.5238   21.1834 C   0  0  0  0  0  0
  -22.1663   -4.2152   21.0971 F   0  0  0  0  0  0
  -21.5633   -3.4533   25.7727 F   0  0  0  0  0  0
  -30.0286  -13.3359   20.4503 N   0  0  0  0  0  0
  -26.3038  -12.9281   20.3327 N   0  0  0  0  0  0
  -25.9324  -11.6456   20.5736 N   0  0  0  0  0  0
  -22.0550  -12.8204   22.0393 N   0  0  0  0  0  0
  -25.4370  -15.1839   20.4034 N   0  0  0  0  0  0
  -31.7746  -14.7611   20.1282 O   0  0  0  0  0  0
  -21.6629   -6.8870   21.4237 O   0  0  0  0  0  0
  -22.3575  -14.5540   20.6686 O   0  0  0  0  0  0
  -24.6169  -31.8650   23.2025 C   0  0  0  0  0  0
  -25.9033  -32.4793   23.8342 C   0  0  1  0  0  0
  -27.2297  -27.4054   20.1319 C   0  0  0  0  0  0
  -25.5877  -33.8594   24.2294 N   0  0  0  0  0  0
  -23.4074  -30.4884   21.5424 C   0  0  2  0  0  0
  -24.8573  -28.9514   20.1094 C   0  0  0  0  0  0
  -22.7434  -29.4657   22.4944 C   0  0  0  0  0  0
  -18.0311  -28.1425   22.8531 C   0  0  0  0  0  0
  -24.1500  -36.7299   23.2653 C   0  0  0  0  0  0
  -25.9387  -30.8269   21.3604 C   0  0  0  0  0  0
  -26.0166  -29.4597   20.7108 C   0  0  0  0  0  0
  -27.2078  -28.6963   20.7146 C   0  0  0  0  0  0
  -26.0595  -26.9197   19.5138 C   0  0  0  0  0  0
  -24.8758  -27.6833   19.5055 C   0  0  0  0  0  0
  -23.6195  -29.8198   20.1567 C   0  0  0  0  0  0
  -25.4111  -36.3079   24.0351 C   0  0  1  0  0  0
  -20.5894  -28.3713   23.1319 C   0  0  2  0  0  0
  -20.6805  -26.9442   22.5431 C   0  0  0  0  0  0
  -19.5776  -26.6424   21.5248 C   0  0  0  0  0  0
  -18.1958  -26.7982   22.1649 C   0  0  0  0  0  0
  -19.1555  -28.8897   23.2922 C   0  0  0  0  0  0
  -18.9481  -30.1516   23.8916 C   0  0  0  0  0  0
  -17.6474  -30.6632   24.0619 C   0  0  0  0  0  0
  -25.9039  -34.9449   23.5109 C   0  0  0  0  0  0
  -16.5375  -29.9142   23.6354 C   0  0  0  0  0  0
  -16.7297  -28.6567   23.0357 C   0  0  0  0  0  0
  -26.4457  -31.6559   25.0659 C   0  0  0  0  0  0
  -25.3695  -31.3691   26.1391 C   0  0  0  0  0  0
  -27.0283  -30.3002   24.6000 C   0  0  0  0  0  0
  -27.6018  -32.4294   25.7416 C   0  0  0  0  0  0
  -27.5585  -37.1796   24.8475 C   0  0  0  0  0  0
  -21.4162  -29.3042   22.3683 N   0  0  0  0  0  0
  -26.4296  -37.3757   23.9415 N   0  0  0  0  0  0
  -24.6717  -31.0755   22.0923 N   0  0  0  0  0  0
  -23.4164  -28.8221   23.3030 O   0  0  0  0  0  0
  -28.3546  -26.6010   20.1988 O   0  0  0  0  0  0
  -26.5637  -34.8893   22.4697 O   0  0  0  0  0  0
  -23.5360  -32.1406   23.7422 O   0  0  0  0  0  0
  -29.4101  -19.4264   20.8618 C   0  0  0  0  0  0
  -30.7445  -19.0827   21.0100 C   0  0  0  0  0  0
  -29.8956  -16.9511   20.9952 C   0  0  0  0  0  0
  -28.7758  -20.7475   20.6167 C   0  0  0  0  0  0
  -29.4525  -23.2993   20.3635 C   0  0  0  0  0  0
  -25.0705  -20.9451   19.6901 C   0  0  0  0  0  0
  -26.9209  -22.0142   18.3405 C   0  0  0  0  0  0
  -27.4751  -25.9032   22.4563 C   0  0  0  0  0  0
  -28.1807  -24.0906   20.7785 C   0  0  0  0  0  0
  -26.4594  -21.5920   19.7466 C   0  0  0  0  0  0
  -28.3940  -25.5807   21.2485 C   0  0  1  0  0  0
  -31.0068  -17.6983   21.0404 N   0  0  0  0  0  0
  -31.8166  -19.9757   21.0829 N   0  0  0  0  0  0
  -29.8501  -15.5163   21.1037 N   0  0  0  0  0  0
  -29.5983  -21.8472   20.5273 N   0  0  0  0  0  0
  -27.4347  -20.6972   20.3915 N   0  3  0  0  0  0
  -30.4444  -23.9177   19.9648 O   0  0  0  0  0  0
  -28.4364  -17.9488   20.8911 S   0  0  0  0  0  0
  -31.4886  -12.4898   19.1347 H   0  0  0  0  0  0
  -30.3844  -11.3488   19.8459 H   0  0  0  0  0  0
  -29.7657  -11.7737   17.4526 H   0  0  0  0  0  0
  -29.6594  -13.4878   17.7557 H   0  0  0  0  0  0
  -27.8510  -11.2976   18.8273 H   0  0  0  0  0  0
  -27.3773  -12.6138   17.7879 H   0  0  0  0  0  0
  -27.7022  -14.2452   19.5655 H   0  0  0  0  0  0
  -28.7075  -11.9404   21.3078 H   0  0  0  0  0  0
  -28.4508  -13.5531   21.8913 H   0  0  0  0  0  0
  -25.2789   -9.5651   22.4714 H   0  0  0  0  0  0
  -24.0015   -7.4617   22.7449 H   0  0  0  0  0  0
  -21.0843   -8.8754   19.8935 H   0  0  0  0  0  0
  -22.3722  -10.9642   19.6126 H   0  0  0  0  0  0
  -21.2001   -7.6146   23.9709 H   0  0  0  0  0  0
  -21.1474   -6.0515   25.9073 H   0  0  0  0  0  0
  -22.0612   -2.7605   23.2829 H   0  0  0  0  0  0
  -22.4201  -11.9865   22.4753 H   0  0  0  0  0  0
  -21.1160  -13.1179   22.2616 H   0  0  0  0  0  0
  -24.6665  -15.8365   20.4934 H   0  0  0  0  0  0
  -26.2731  -15.6092   20.0261 H   0  0  0  0  0  0
  -26.7097  -32.5557   23.1107 H   0  0  0  0  0  0
  -24.9951  -33.9744   25.0392 H   0  0  0  0  0  0
  -22.6948  -31.3043   21.3998 H   0  0  0  0  0  0
  -23.3728  -35.9669   23.3330 H   0  0  0  0  0  0
  -24.3622  -36.8888   22.2062 H   0  0  0  0  0  0
  -23.7257  -37.6515   23.6657 H   0  0  0  0  0  0
  -26.0503  -31.5878   20.5871 H   0  0  0  0  0  0
  -26.8236  -30.8850   21.9802 H   0  0  0  0  0  0
  -28.0964  -29.0750   21.2016 H   0  0  0  0  0  0
  -26.0555  -25.9391   19.0646 H   0  0  0  0  0  0
  -23.9853  -27.2810   19.0420 H   0  0  0  0  0  0
  -23.7310  -30.5921   19.3930 H   0  0  0  0  0  0
  -22.7439  -29.2385   19.8610 H   0  0  0  0  0  0
  -25.1276  -36.1939   25.0842 H   0  0  0  0  0  0
  -21.0028  -28.3317   24.1427 H   0  0  0  0  0  0
  -20.5780  -26.2306   23.3612 H   0  0  0  0  0  0
  -21.6676  -26.7538   22.1186 H   0  0  0  0  0  0
  -19.6906  -25.6332   21.1287 H   0  0  0  0  0  0
  -19.6722  -27.3253   20.6786 H   0  0  0  0  0  0
  -17.4224  -26.6798   21.4041 H   0  0  0  0  0  0
  -18.0354  -26.0113   22.9022 H   0  0  0  0  0  0
  -19.7949  -30.7393   24.2217 H   0  0  0  0  0  0
  -17.5022  -31.6296   24.5270 H   0  0  0  0  0  0
  -15.5379  -30.3061   23.7642 H   0  0  0  0  0  0
  -15.8709  -28.0914   22.6997 H   0  0  0  0  0  0
  -24.5870  -30.7043   25.7714 H   0  0  0  0  0  0
  -24.8900  -32.2877   26.4788 H   0  0  0  0  0  0
  -25.8026  -30.8875   27.0166 H   0  0  0  0  0  0
  -26.2826  -29.6747   24.1083 H   0  0  0  0  0  0
  -27.4111  -29.7218   25.4416 H   0  0  0  0  0  0
  -27.8618  -30.4325   23.9101 H   0  0  0  0  0  0
  -27.2607  -33.3584   26.2001 H   0  0  0  0  0  0
  -28.3807  -32.6870   25.0223 H   0  0  0  0  0  0
  -28.0692  -31.8409   26.5319 H   0  0  0  0  0  0
  -28.2589  -38.0095   24.7515 H   0  0  0  0  0  0
  -28.1078  -36.2624   24.6309 H   0  0  0  0  0  0
  -27.2333  -37.1475   25.8885 H   0  0  0  0  0  0
  -20.9310  -29.8703   21.6870 H   0  0  0  0  0  0
  -26.0171  -38.2837   24.1389 H   0  0  0  0  0  0
  -24.3301  -21.6758   19.3638 H   0  0  0  0  0  0
  -24.7528  -20.5777   20.6660 H   0  0  0  0  0  0
  -25.0377  -20.1157   18.9827 H   0  0  0  0  0  0
  -28.0035  -22.1056   18.2612 H   0  0  0  0  0  0
  -26.6105  -21.2915   17.5850 H   0  0  0  0  0  0
  -26.4904  -22.9755   18.0646 H   0  0  0  0  0  0
  -27.6245  -25.1922   23.2702 H   0  0  0  0  0  0
  -26.4208  -25.8512   22.1874 H   0  0  0  0  0  0
  -27.6670  -26.8970   22.8633 H   0  0  0  0  0  0
  -27.7312  -23.5320   21.6002 H   0  0  0  0  0  0
  -27.4752  -24.1229   19.9545 H   0  0  0  0  0  0
  -26.3278  -22.4543   20.3900 H   0  0  0  0  0  0
  -29.4070  -25.6548   21.6459 H   0  0  0  0  0  0
  -31.8084  -20.5413   21.9273 H   0  0  0  0  0  0
  -32.7086  -19.4891   21.0828 H   0  0  0  0  0  0
  -28.9643  -15.1543   21.4192 H   0  0  0  0  0  0
  -30.5419  -21.4817   20.4725 H   0  0  0  0  0  0
  -27.0417  -19.7830   20.5704 H   0  0  0  0  0  0
  1 25  1  0  0  0
  1 30  2  0  0  0
  1 84  1  0  0  0
  2  3  1  0  0  0
  2 25  1  0  0  0
  2 89  1  0  0  0
  2 90  1  0  0  0
  3  4  1  0  0  0
  3 91  1  0  0  0
  3 92  1  0  0  0
  4  5  1  0  0  0
  4 93  1  0  0  0
  4 94  1  0  0  0
  5  6  1  0  0  0
  5 26  1  0  0  0
  5 95  1  0  0  0
  6 25  1  0  0  0
  6 96  1  0  0  0
  6 97  1  0  0  0
  7  8  2  0  0  0
  7 26  1  0  0  0
  7 29  1  0  0  0
  8  9  1  0  0  0
  8 22  1  0  0  0
  9 10  1  0  0  0
  9 27  2  0  0  0
 10 11  2  0  0  0
 10 15  1  0  0  0
 11 12  1  0  0  0
 11 98  1  0  0  0
 12 13  2  0  0  0
 12 99  1  0  0  0
 13 14  1  0  0  0
 13 31  1  0  0  0
 14 15  2  0  0  0
 14100  1  0  0  0
 15101  1  0  0  0
 16 17  2  0  0  0
 16 21  1  0  0  0
 16 31  1  0  0  0
 17 18  1  0  0  0
 17102  1  0  0  0
 18 19  2  0  0  0
 18103  1  0  0  0
 19 20  1  0  0  0
 19 24  1  0  0  0
 20 21  2  0  0  0
 20104  1  0  0  0
 21 23  1  0  0  0
 22 28  1  0  0  0
 22 32  2  0  0  0
 26 27  1  0  0  0
 28105  1  0  0  0
 28106  1  0  0  0
 29107  1  0  0  0
 29108  1  0  0  0
 33 34  1  0  0  0
 33 66  1  0  0  0
 33 70  2  0  0  0
 34 36  1  0  0  0
 34 59  1  0  0  0
 34109  1  0  0  0
 35 44  2  0  0  0
 35 45  1  0  0  0
 35 68  1  0  0  0
 36 56  1  0  0  0
 36110  1  0  0  0
 37 39  1  0  0  0
 37 47  1  0  0  0
 37 66  1  0  0  0
 37111  1  0  0  0
 38 43  2  0  0  0
 38 46  1  0  0  0
 38 47  1  0  0  0
 39 64  1  0  0  0
 39 67  2  0  0  0
 40 52  1  0  0  0
 40 53  2  0  0  0
 40 58  1  0  0  0
 41112  1  0  0  0
 41113  1  0  0  0
 41114  1  0  0  0
 41 48  1  0  0  0
 42 43  1  0  0  0
 42 66  1  0  0  0
 42115  1  0  0  0
 42116  1  0  0  0
 43 44  1  0  0  0
 44117  1  0  0  0
 45 46  2  0  0  0
 45118  1  0  0  0
 46119  1  0  0  0
 47120  1  0  0  0
 47121  1  0  0  0
 48 56  1  0  0  0
 48 65  1  0  0  0
 48122  1  0  0  0
 49 50  1  0  0  0
 49 53  1  0  0  0
 49 64  1  0  0  0
 49123  1  0  0  0
 50 51  1  0  0  0
 50124  1  0  0  0
 50125  1  0  0  0
 51 52  1  0  0  0
 51126  1  0  0  0
 51127  1  0  0  0
 52128  1  0  0  0
 52129  1  0  0  0
 53 54  1  0  0  0
 54 55  2  0  0  0
 54130  1  0  0  0
 55 57  1  0  0  0
 55131  1  0  0  0
 56 69  2  0  0  0
 57 58  2  0  0  0
 57132  1  0  0  0
 58133  1  0  0  0
 59 60  1  0  0  0
 59 61  1  0  0  0
 59 62  1  0  0  0
 60134  1  0  0  0
 60135  1  0  0  0
 60136  1  0  0  0
 61137  1  0  0  0
 61138  1  0  0  0
 61139  1  0  0  0
 62140  1  0  0  0
 62141  1  0  0  0
 62142  1  0  0  0
 63 65  1  0  0  0
 63143  1  0  0  0
 63144  1  0  0  0
 63145  1  0  0  0
 64146  1  0  0  0
 65147  1  0  0  0
 68 81  1  0  0  0
 71 72  2  0  0  0
 71 74  1  0  0  0
 71 88  1  0  0  0
 72 82  1  0  0  0
 72 83  1  0  0  0
 73 82  2  0  0  0
 73 84  1  0  0  0
 73 88  1  0  0  0
 74 85  1  0  0  0
 74 86  2  0  0  0
 75 79  1  0  0  0
 75 85  1  0  0  0
 75 87  2  0  0  0
 76148  1  0  0  0
 76149  1  0  0  0
 76150  1  0  0  0
 76 80  1  0  0  0
 77 80  1  0  0  0
 77151  1  0  0  0
 77152  1  0  0  0
 77153  1  0  0  0
 78154  1  0  0  0
 78155  1  0  0  0
 78156  1  0  0  0
 78 81  1  0  0  0
 79 81  1  0  0  0
 79157  1  0  0  0
 79158  1  0  0  0
 80 86  1  0  0  0
 80159  1  0  0  0
 81160  1  0  0  0
 83161  1  0  0  0
 83162  1  0  0  0
 84163  1  0  0  0
 85164  1  0  0  0
 86165  1  0  0  0
M  CHG  1  86   1
M  ISO  4   1 100  68 101  81 101  84 100
M  END
> <chiral flag>
0

> <version>
0

> <s_m_source_file>
/data/baiqing/PycharmProjects/Reinvent-master-3.2/result/LINK_invent/BTK/process_docking_weight1_custom_product_contain_oxygen_bond_distance_aromatic_linkinvent_7_9_3/rearranged_h_0176.sdf

> <i_m_source_file_index>
8

> <r_mmod_Potential_Energy-OPLS-2005>
-126.870231628418

> <r_mmod_Stretch_Energy-OPLS-2005>
55.206657409668

> <r_mmod_Bend_Energy-OPLS-2005>
191.489990234375

> <r_mmod_Torsional_Energy-OPLS-2005>
271.882934570312

> <r_mmod_Improper_Torsional_Energy-OPLS-2005>
12.7895679473877

> <r_mmod_Van_der_Waal_Energy-OPLS-2005>
132.775466918945

> <r_mmod_Electrostatic_Energy-OPLS-2005>
-334.726409912109

> <r_mmod_Solvation_Energy-OPLS-2005>
-480.976135253906

> <b_mmod_Minimization_Converged-OPLS-2005>
0

> <r_mmod_RMS_Derivative-OPLS-2005>
3.36025953292847

$$$$
8
                    3D
 Structure written by MMmdl.
156164  0  0  1  0            999 V2000
  -30.6625  -14.6017   20.5216 C   0  0  0  0  0  0
  -30.4314  -12.3769   19.4560 C   0  0  0  0  0  0
  -29.5031  -12.4959   18.2290 C   0  0  0  0  0  0
  -28.0293  -12.3308   18.6436 C   0  0  0  0  0  0
  -27.6516  -13.2142   19.8622 C   0  0  2  0  0  0
  -28.6951  -13.0825   20.9954 C   0  0  0  0  0  0
  -25.2542  -13.8135   20.5667 C   0  0  0  0  0  0
  -24.1820  -13.0418   20.9209 C   0  0  0  0  0  0
  -24.6399  -11.6889   20.8765 C   0  0  0  0  0  0
  -23.9071  -10.4283   21.0417 C   0  0  0  0  0  0
  -24.3619   -9.4195   21.9187 C   0  0  0  0  0  0
  -23.6291   -8.2232   22.0752 C   0  0  0  0  0  0
  -22.4272   -8.0282   21.3535 C   0  0  0  0  0  0
  -21.9908   -9.0261   20.4636 C   0  0  0  0  0  0
  -22.7250  -10.2138   20.3053 C   0  0  0  0  0  0
  -21.6856   -6.0739   22.5277 C   0  0  0  0  0  0
  -21.4016   -6.5637   23.8216 C   0  0  0  0  0  0
  -21.3656   -5.6785   24.9169 C   0  0  0  0  0  0
  -21.6041   -4.3052   24.7216 C   0  0  0  0  0  0
  -21.8827   -3.8152   23.4337 C   0  0  0  0  0  0
  -21.9196   -4.6967   22.3395 C   0  0  0  0  0  0
  -22.7845  -13.5215   21.1848 C   0  0  0  0  0  0
  -22.1661   -4.2155   21.0969 F   0  0  0  0  0  0
  -21.5617   -3.4528   25.7723 F   0  0  0  0  0  0
  -30.0143  -13.4022   20.4305 N   0  0  0  0  0  0
  -26.2977  -12.9329   20.3311 N   0  0  0  0  0  0
  -25.9325  -11.6491   20.5799 N   0  0  0  0  0  0
  -22.0481  -12.8209   22.0408 N   0  0  0  0  0  0
  -25.4197  -15.1831   20.3986 N   0  0  0  0  0  0
  -31.8244  -14.7390   20.1291 O   0  0  0  0  0  0
  -21.6634   -6.8881   21.4240 O   0  0  0  0  0  0
  -22.3523  -14.5520   20.6704 O   0  0  0  0  0  0
  -24.6206  -31.8612   23.2050 C   0  0  0  0  0  0
  -25.9077  -32.4785   23.8356 C   0  0  1  0  0  0
  -27.2328  -27.3584   20.1126 C   0  0  0  0  0  0
  -25.5909  -33.8584   24.2294 N   0  0  0  0  0  0
  -23.4112  -30.4854   21.5471 C   0  0  2  0  0  0
  -24.8588  -28.9392   20.1150 C   0  0  0  0  0  0
  -22.7432  -29.4635   22.4967 C   0  0  0  0  0  0
  -18.0267  -28.1365   22.8482 C   0  0  0  0  0  0
  -24.1492  -36.7301   23.2640 C   0  0  0  0  0  0
  -25.9467  -30.8038   21.3684 C   0  0  0  0  0  0
  -26.0227  -29.4319   20.7172 C   0  0  0  0  0  0
  -27.2107  -28.6515   20.7090 C   0  0  0  0  0  0
  -26.0461  -26.8990   19.4951 C   0  0  0  0  0  0
  -24.8706  -27.6758   19.4986 C   0  0  0  0  0  0
  -23.6235  -29.8154   20.1636 C   0  0  0  0  0  0
  -25.4115  -36.3087   24.0330 C   0  0  1  0  0  0
  -20.5875  -28.3653   23.1307 C   0  0  2  0  0  0
  -20.6764  -26.9399   22.5407 C   0  0  0  0  0  0
  -19.5754  -26.6405   21.5182 C   0  0  0  0  0  0
  -18.1925  -26.7931   22.1585 C   0  0  0  0  0  0
  -19.1524  -28.8818   23.2896 C   0  0  0  0  0  0
  -18.9453  -30.1414   23.8915 C   0  0  0  0  0  0
  -17.6453  -30.6559   24.0560 C   0  0  0  0  0  0
  -25.9040  -34.9454   23.5110 C   0  0  0  0  0  0
  -16.5344  -29.9085   23.6304 C   0  0  0  0  0  0
  -16.7263  -28.6494   23.0337 C   0  0  0  0  0  0
  -26.4483  -31.6578   25.0706 C   0  0  0  0  0  0
  -25.3733  -31.3702   26.1441 C   0  0  0  0  0  0
  -27.0322  -30.3015   24.6122 C   0  0  0  0  0  0
  -27.6040  -32.4309   25.7473 C   0  0  0  0  0  0
  -27.5577  -37.1811   24.8465 C   0  0  0  0  0  0
  -21.4151  -29.3023   22.3702 N   0  0  0  0  0  0
  -26.4297  -37.3781   23.9398 N   0  0  0  0  0  0
  -24.6783  -31.0662   22.0980 N   0  0  0  0  0  0
  -23.4185  -28.8184   23.3036 O   0  0  0  0  0  0
  -28.3932  -26.5830   20.1076 O   0  0  0  0  0  0
  -26.5614  -34.8916   22.4681 O   0  0  0  0  0  0
  -23.5383  -32.1386   23.7417 O   0  0  0  0  0  0
  -29.5295  -19.6390   20.7428 C   0  0  0  0  0  0
  -27.8878  -17.8482   20.5504 C   0  0  0  0  0  0
  -27.1796  -20.1829   20.4260 C   0  0  0  0  0  0
  -29.2357  -18.2281   20.7146 C   0  0  0  0  0  0
  -28.5030  -20.6409   20.6256 C   0  0  0  0  0  0
  -26.8736  -18.8112   20.4027 C   0  0  0  0  0  0
  -28.1306  -24.4475   21.2189 C   0  0  0  0  0  0
  -28.3436  -25.1801   20.0856 C   0  0  0  0  0  0
  -27.9800  -22.9727   21.3783 C   0  0  0  0  0  0
  -28.5647  -24.6211   18.6920 C   0  0  0  0  0  0
  -30.3361  -17.1243   20.8499 C   0  0  0  0  0  0
  -28.7343  -22.0838   20.6628 N   0  0  0  0  0  0
  -29.9174  -15.6830   20.8822 N   0  0  0  0  0  0
  -27.2115  -22.5511   22.2490 O   0  0  0  0  0  0
  -27.9433  -25.1245   22.3606 O   0  0  0  0  0  0
  -25.5885  -18.4164   20.2325 F   0  0  0  0  0  0
  -31.4718  -12.4942   19.1472 H   0  0  0  0  0  0
  -30.3615  -11.3842   19.9043 H   0  0  0  0  0  0
  -29.7670  -11.7444   17.4845 H   0  0  0  0  0  0
  -29.6450  -13.4661   17.7498 H   0  0  0  0  0  0
  -27.8741  -11.2805   18.8918 H   0  0  0  0  0  0
  -27.3701  -12.5420   17.8021 H   0  0  0  0  0  0
  -27.6692  -14.2463   19.5127 H   0  0  0  0  0  0
  -28.6997  -12.0689   21.3972 H   0  0  0  0  0  0
  -28.4445  -13.7352   21.8338 H   0  0  0  0  0  0
  -25.2764   -9.5670   22.4760 H   0  0  0  0  0  0
  -24.0000   -7.4619   22.7464 H   0  0  0  0  0  0
  -21.0843   -8.8796   19.8929 H   0  0  0  0  0  0
  -22.3723  -10.9681   19.6166 H   0  0  0  0  0  0
  -21.2011   -7.6147   23.9719 H   0  0  0  0  0  0
  -21.1464   -6.0507   25.9071 H   0  0  0  0  0  0
  -22.0613   -2.7613   23.2833 H   0  0  0  0  0  0
  -22.4117  -11.9876   22.4791 H   0  0  0  0  0  0
  -21.1103  -13.1243   22.2628 H   0  0  0  0  0  0
  -24.6536  -15.8371   20.5117 H   0  0  0  0  0  0
  -26.2320  -15.6027   19.9712 H   0  0  0  0  0  0
  -26.7142  -32.5472   23.1096 H   0  0  0  0  0  0
  -25.0028  -33.9738   25.0417 H   0  0  0  0  0  0
  -22.7038  -31.3052   21.4071 H   0  0  0  0  0  0
  -23.3744  -35.9644   23.3310 H   0  0  0  0  0  0
  -24.3571  -36.8913   22.2050 H   0  0  0  0  0  0
  -23.7258  -37.6515   23.6653 H   0  0  0  0  0  0
  -26.0678  -31.5661   20.5978 H   0  0  0  0  0  0
  -26.8298  -30.8563   21.9923 H   0  0  0  0  0  0
  -28.1093  -29.0319   21.1746 H   0  0  0  0  0  0
  -26.0195  -25.9318   19.0115 H   0  0  0  0  0  0
  -23.9759  -27.2948   19.0261 H   0  0  0  0  0  0
  -23.7327  -30.5892   19.4016 H   0  0  0  0  0  0
  -22.7453  -29.2376   19.8721 H   0  0  0  0  0  0
  -25.1300  -36.1938   25.0825 H   0  0  0  0  0  0
  -20.9966  -28.3232   24.1432 H   0  0  0  0  0  0
  -20.5698  -26.2255   23.3575 H   0  0  0  0  0  0
  -21.6627  -26.7435   22.1184 H   0  0  0  0  0  0
  -19.6874  -25.6332   21.1165 H   0  0  0  0  0  0
  -19.6700  -27.3252   20.6741 H   0  0  0  0  0  0
  -17.4235  -26.6739   21.3939 H   0  0  0  0  0  0
  -18.0295  -26.0053   22.8944 H   0  0  0  0  0  0
  -19.7949  -30.7194   24.2302 H   0  0  0  0  0  0
  -17.5011  -31.6221   24.5191 H   0  0  0  0  0  0
  -15.5343  -30.2984   23.7608 H   0  0  0  0  0  0
  -15.8657  -28.0820   22.7049 H   0  0  0  0  0  0
  -24.5902  -30.7057   25.7771 H   0  0  0  0  0  0
  -24.8926  -32.2869   26.4878 H   0  0  0  0  0  0
  -25.8065  -30.8869   27.0207 H   0  0  0  0  0  0
  -26.2892  -29.6760   24.1163 H   0  0  0  0  0  0
  -27.4063  -29.7262   25.4599 H   0  0  0  0  0  0
  -27.8731  -30.4310   23.9301 H   0  0  0  0  0  0
  -27.2651  -33.3597   26.2067 H   0  0  0  0  0  0
  -28.3843  -32.6889   25.0300 H   0  0  0  0  0  0
  -28.0719  -31.8425   26.5376 H   0  0  0  0  0  0
  -28.2618  -38.0089   24.7494 H   0  0  0  0  0  0
  -28.1058  -36.2621   24.6323 H   0  0  0  0  0  0
  -27.2289  -37.1497   25.8871 H   0  0  0  0  0  0
  -20.9313  -29.8725   21.6911 H   0  0  0  0  0  0
  -26.0179  -38.2860   24.1388 H   0  0  0  0  0  0
  -30.5564  -19.9499   20.8713 H   0  0  0  0  0  0
  -27.6159  -16.8073   20.5252 H   0  0  0  0  0  0
  -26.3750  -20.8891   20.2918 H   0  0  0  0  0  0
  -27.7618  -23.9377   18.4169 H   0  0  0  0  0  0
  -29.5137  -24.0849   18.6460 H   0  0  0  0  0  0
  -28.5929  -25.4220   17.9520 H   0  0  0  0  0  0
  -30.9055  -17.3200   21.7592 H   0  0  0  0  0  0
  -31.0360  -17.2654   20.0237 H   0  0  0  0  0  0
  -29.5114  -22.4501   20.1305 H   0  0  0  0  0  0
  -28.9744  -15.4865   21.1794 H   0  0  0  0  0  0
  -27.6399  -24.4766   22.9886 H   0  0  0  0  0  0
  1 25  1  0  0  0
  1 30  2  0  0  0
  1 83  1  0  0  0
  2  3  1  0  0  0
  2 25  1  0  0  0
  2 87  1  0  0  0
  2 88  1  0  0  0
  3  4  1  0  0  0
  3 89  1  0  0  0
  3 90  1  0  0  0
  4  5  1  0  0  0
  4 91  1  0  0  0
  4 92  1  0  0  0
  5  6  1  0  0  0
  5 26  1  0  0  0
  5 93  1  0  0  0
  6 25  1  0  0  0
  6 94  1  0  0  0
  6 95  1  0  0  0
  7  8  2  0  0  0
  7 26  1  0  0  0
  7 29  1  0  0  0
  8  9  1  0  0  0
  8 22  1  0  0  0
  9 10  1  0  0  0
  9 27  2  0  0  0
 10 11  2  0  0  0
 10 15  1  0  0  0
 11 12  1  0  0  0
 11 96  1  0  0  0
 12 13  2  0  0  0
 12 97  1  0  0  0
 13 14  1  0  0  0
 13 31  1  0  0  0
 14 15  2  0  0  0
 14 98  1  0  0  0
 15 99  1  0  0  0
 16 17  2  0  0  0
 16 21  1  0  0  0
 16 31  1  0  0  0
 17 18  1  0  0  0
 17100  1  0  0  0
 18 19  2  0  0  0
 18101  1  0  0  0
 19 20  1  0  0  0
 19 24  1  0  0  0
 20 21  2  0  0  0
 20102  1  0  0  0
 21 23  1  0  0  0
 22 28  1  0  0  0
 22 32  2  0  0  0
 26 27  1  0  0  0
 28103  1  0  0  0
 28104  1  0  0  0
 29105  1  0  0  0
 29106  1  0  0  0
 33 34  1  0  0  0
 33 66  1  0  0  0
 33 70  2  0  0  0
 34 36  1  0  0  0
 34 59  1  0  0  0
 34107  1  0  0  0
 35 44  2  0  0  0
 35 45  1  0  0  0
 35 68  1  0  0  0
 36 56  1  0  0  0
 36108  1  0  0  0
 37 39  1  0  0  0
 37 47  1  0  0  0
 37 66  1  0  0  0
 37109  1  0  0  0
 38 43  2  0  0  0
 38 46  1  0  0  0
 38 47  1  0  0  0
 39 64  1  0  0  0
 39 67  2  0  0  0
 40 52  1  0  0  0
 40 53  2  0  0  0
 40 58  1  0  0  0
 41110  1  0  0  0
 41111  1  0  0  0
 41112  1  0  0  0
 41 48  1  0  0  0
 42 43  1  0  0  0
 42 66  1  0  0  0
 42113  1  0  0  0
 42114  1  0  0  0
 43 44  1  0  0  0
 44115  1  0  0  0
 45 46  2  0  0  0
 45116  1  0  0  0
 46117  1  0  0  0
 47118  1  0  0  0
 47119  1  0  0  0
 48 56  1  0  0  0
 48 65  1  0  0  0
 48120  1  0  0  0
 49 50  1  0  0  0
 49 53  1  0  0  0
 49 64  1  0  0  0
 49121  1  0  0  0
 50 51  1  0  0  0
 50122  1  0  0  0
 50123  1  0  0  0
 51 52  1  0  0  0
 51124  1  0  0  0
 51125  1  0  0  0
 52126  1  0  0  0
 52127  1  0  0  0
 53 54  1  0  0  0
 54 55  2  0  0  0
 54128  1  0  0  0
 55 57  1  0  0  0
 55129  1  0  0  0
 56 69  2  0  0  0
 57 58  2  0  0  0
 57130  1  0  0  0
 58131  1  0  0  0
 59 60  1  0  0  0
 59 61  1  0  0  0
 59 62  1  0  0  0
 60132  1  0  0  0
 60133  1  0  0  0
 60134  1  0  0  0
 61135  1  0  0  0
 61136  1  0  0  0
 61137  1  0  0  0
 62138  1  0  0  0
 62139  1  0  0  0
 62140  1  0  0  0
 63 65  1  0  0  0
 63141  1  0  0  0
 63142  1  0  0  0
 63143  1  0  0  0
 64144  1  0  0  0
 65145  1  0  0  0
 68 78  1  0  0  0
 71 74  2  0  0  0
 71 75  1  0  0  0
 71146  1  0  0  0
 72 74  1  0  0  0
 72 76  2  0  0  0
 72147  1  0  0  0
 73 75  2  0  0  0
 73 76  1  0  0  0
 73148  1  0  0  0
 74 81  1  0  0  0
 75 82  1  0  0  0
 76 86  1  0  0  0
 77 78  2  0  0  0
 77 79  1  0  0  0
 77 85  1  0  0  0
 78 80  1  0  0  0
 79 82  1  0  0  0
 79 84  2  0  0  0
 80149  1  0  0  0
 80150  1  0  0  0
 80151  1  0  0  0
 81 83  1  0  0  0
 81152  1  0  0  0
 81153  1  0  0  0
 82154  1  0  0  0
 83155  1  0  0  0
 85156  1  0  0  0
M  ISO  4   1 100  68 101  78 101  83 100
M  END
> <chiral flag>
0

> <version>
0

> <s_m_source_file>
/data/baiqing/PycharmProjects/Reinvent-master-3.2/result/LINK_invent/BTK/process_docking_weight1_custom_product_contain_oxygen_bond_distance_aromatic_linkinvent_7_9_3/rearranged_h_0176.sdf

> <i_m_source_file_index>
9

> <r_mmod_Potential_Energy-OPLS-2005>
-29.6463737487793

> <r_mmod_Stretch_Energy-OPLS-2005>
66.5903778076172

> <r_mmod_Bend_Energy-OPLS-2005>
133.904922485352

> <r_mmod_Torsional_Energy-OPLS-2005>
248.729415893555

> <r_mmod_Improper_Torsional_Energy-OPLS-2005>
5.73590564727783

> <r_mmod_Van_der_Waal_Energy-OPLS-2005>
146.308151245117

> <r_mmod_Electrostatic_Energy-OPLS-2005>
-442.405120849609

> <r_mmod_Solvation_Energy-OPLS-2005>
-222.025802612305

> <b_mmod_Minimization_Converged-OPLS-2005>
0

> <r_mmod_RMS_Derivative-OPLS-2005>
2.43954253196716

$$$$
9
                    3D
 Structure written by MMmdl.
153161  0  0  1  0            999 V2000
  -30.5823  -14.8217   20.4548 C   0  0  0  0  0  0
  -30.4389  -12.5090   19.4713 C   0  0  0  0  0  0
  -29.5123  -12.5126   18.2352 C   0  0  0  0  0  0
  -28.0411  -12.3202   18.6547 C   0  0  0  0  0  0
  -27.6350  -13.2347   19.8410 C   0  0  2  0  0  0
  -28.6826  -13.2076   20.9739 C   0  0  0  0  0  0
  -25.2487  -13.8193   20.5700 C   0  0  0  0  0  0
  -24.1791  -13.0432   20.9221 C   0  0  0  0  0  0
  -24.6391  -11.6914   20.8754 C   0  0  0  0  0  0
  -23.9071  -10.4290   21.0408 C   0  0  0  0  0  0
  -24.3621   -9.4204   21.9184 C   0  0  0  0  0  0
  -23.6295   -8.2241   22.0754 C   0  0  0  0  0  0
  -22.4277   -8.0280   21.3545 C   0  0  0  0  0  0
  -21.9913   -9.0252   20.4646 C   0  0  0  0  0  0
  -22.7243  -10.2130   20.3056 C   0  0  0  0  0  0
  -21.6853   -6.0735   22.5279 C   0  0  0  0  0  0
  -21.4013   -6.5638   23.8212 C   0  0  0  0  0  0
  -21.3661   -5.6791   24.9174 C   0  0  0  0  0  0
  -21.6045   -4.3055   24.7226 C   0  0  0  0  0  0
  -21.8818   -3.8146   23.4347 C   0  0  0  0  0  0
  -21.9193   -4.6964   22.3404 C   0  0  0  0  0  0
  -22.7812  -13.5211   21.1875 C   0  0  0  0  0  0
  -22.1660   -4.2149   21.0981 F   0  0  0  0  0  0
  -21.5631   -3.4538   25.7738 F   0  0  0  0  0  0
  -29.9689  -13.5854   20.3764 N   0  0  0  0  0  0
  -26.2908  -12.9405   20.3252 N   0  0  0  0  0  0
  -25.9320  -11.6547   20.5744 N   0  0  0  0  0  0
  -22.0458  -12.8204   22.0434 N   0  0  0  0  0  0
  -25.4142  -15.1922   20.4112 N   0  0  0  0  0  0
  -31.7867  -14.9042   20.1951 O   0  0  0  0  0  0
  -21.6642   -6.8877   21.4240 O   0  0  0  0  0  0
  -22.3497  -14.5516   20.6718 O   0  0  0  0  0  0
  -24.6353  -31.8511   23.1938 C   0  0  0  0  0  0
  -25.9158  -32.4734   23.8305 C   0  0  1  0  0  0
  -27.2227  -27.2192   20.1461 C   0  0  0  0  0  0
  -25.5936  -33.8536   24.2227 N   0  0  0  0  0  0
  -23.4351  -30.4706   21.5380 C   0  0  2  0  0  0
  -24.8842  -28.9024   20.1186 C   0  0  0  0  0  0
  -22.7524  -29.4584   22.4902 C   0  0  0  0  0  0
  -18.0295  -28.1393   22.8483 C   0  0  0  0  0  0
  -24.1490  -36.7276   23.2641 C   0  0  0  0  0  0
  -25.9836  -30.7504   21.3797 C   0  0  0  0  0  0
  -26.0577  -29.3655   20.7290 C   0  0  0  0  0  0
  -27.2321  -28.5380   20.7276 C   0  0  0  0  0  0
  -26.0261  -26.8270   19.5136 C   0  0  0  0  0  0
  -24.8744  -27.6417   19.4999 C   0  0  0  0  0  0
  -23.6578  -29.7970   20.1579 C   0  0  0  0  0  0
  -25.4119  -36.3057   24.0321 C   0  0  1  0  0  0
  -20.5903  -28.3709   23.1260 C   0  0  2  0  0  0
  -20.6784  -26.9423   22.5408 C   0  0  0  0  0  0
  -19.5758  -26.6384   21.5214 C   0  0  0  0  0  0
  -18.1939  -26.7932   22.1626 C   0  0  0  0  0  0
  -19.1550  -28.8868   23.2865 C   0  0  0  0  0  0
  -18.9470  -30.1466   23.8887 C   0  0  0  0  0  0
  -17.6468  -30.6592   24.0561 C   0  0  0  0  0  0
  -25.9063  -34.9429   23.5081 C   0  0  0  0  0  0
  -16.5359  -29.9087   23.6334 C   0  0  0  0  0  0
  -16.7281  -28.6506   23.0355 C   0  0  0  0  0  0
  -26.4507  -31.6576   25.0716 C   0  0  0  0  0  0
  -25.3713  -31.3743   26.1427 C   0  0  0  0  0  0
  -27.0359  -30.2984   24.6236 C   0  0  0  0  0  0
  -27.6052  -32.4326   25.7495 C   0  0  0  0  0  0
  -27.5579  -37.1793   24.8463 C   0  0  0  0  0  0
  -21.4227  -29.3047   22.3642 N   0  0  0  0  0  0
  -26.4289  -37.3763   23.9408 N   0  0  0  0  0  0
  -24.7039  -31.0436   22.0933 N   0  0  0  0  0  0
  -23.4201  -28.8135   23.3029 O   0  0  0  0  0  0
  -28.3107  -26.3069   20.1136 O   0  0  0  0  0  0
  -26.5646  -34.8914   22.4657 O   0  0  0  0  0  0
  -23.5492  -32.1351   23.7207 O   0  0  0  0  0  0
  -29.4368  -18.6048   20.3054 C   0  0  0  0  0  0
  -31.2583  -18.9530   22.4058 C   0  0  0  0  0  0
  -29.6892  -19.9757   20.7715 C   0  0  0  0  0  0
  -30.0724  -17.4041   20.8712 C   0  0  0  0  0  0
  -30.6317  -20.0854   21.8220 C   0  0  0  0  0  0
  -30.9687  -17.6409   21.9404 C   0  0  0  0  0  0
  -32.2248  -19.1860   23.5131 C   0  0  0  0  0  0
  -28.1909  -24.9575   20.6044 C   0  0  0  0  0  0
  -28.7615  -23.7750   20.1135 C   0  0  0  0  0  0
  -28.6871  -22.4181   20.8172 C   0  0  0  0  0  0
  -32.8852  -18.3072   24.1458 N   0  0  0  0  0  0
  -29.1820  -21.2703   20.1846 N   0  0  0  0  0  0
  -29.7780  -15.9706   20.5144 N   0  0  0  0  0  0
  -28.1766  -22.3015   21.9334 O   0  0  0  0  0  0
  -29.4545  -23.8360   18.9679 O   0  0  0  0  0  0
  -30.9790  -21.3250   22.2557 F   0  0  0  0  0  0
  -31.5319  -16.5730   22.5623 F   0  0  0  0  0  0
  -31.4748  -12.6567   19.1616 H   0  0  0  0  0  0
  -30.4107  -11.5424   19.9768 H   0  0  0  0  0  0
  -29.8093  -11.7287   17.5370 H   0  0  0  0  0  0
  -29.6203  -13.4570   17.6992 H   0  0  0  0  0  0
  -27.9156  -11.2743   18.9370 H   0  0  0  0  0  0
  -27.3792  -12.4861   17.8039 H   0  0  0  0  0  0
  -27.6136  -14.2475   19.4386 H   0  0  0  0  0  0
  -28.7421  -12.2187   21.4311 H   0  0  0  0  0  0
  -28.4076  -13.9011   21.7705 H   0  0  0  0  0  0
  -25.2764   -9.5683   22.4761 H   0  0  0  0  0  0
  -24.0004   -7.4633   22.7472 H   0  0  0  0  0  0
  -21.0845   -8.8769   19.8953 H   0  0  0  0  0  0
  -22.3698  -10.9668   19.6167 H   0  0  0  0  0  0
  -21.2005   -7.6145   23.9717 H   0  0  0  0  0  0
  -21.1484   -6.0521   25.9077 H   0  0  0  0  0  0
  -22.0597   -2.7609   23.2846 H   0  0  0  0  0  0
  -22.4073  -11.9869   22.4830 H   0  0  0  0  0  0
  -21.1073  -13.1223   22.2633 H   0  0  0  0  0  0
  -24.6406  -15.8385   20.5243 H   0  0  0  0  0  0
  -26.2494  -15.6384   20.0568 H   0  0  0  0  0  0
  -26.7225  -32.5372   23.1045 H   0  0  0  0  0  0
  -25.0061  -33.9663   25.0357 H   0  0  0  0  0  0
  -22.7341  -31.2940   21.3857 H   0  0  0  0  0  0
  -23.3755  -35.9605   23.3296 H   0  0  0  0  0  0
  -24.3579  -36.8910   22.2057 H   0  0  0  0  0  0
  -23.7240  -37.6470   23.6676 H   0  0  0  0  0  0
  -26.1254  -31.5052   20.6050 H   0  0  0  0  0  0
  -26.8597  -30.8044   22.0144 H   0  0  0  0  0  0
  -28.1360  -28.8922   21.2025 H   0  0  0  0  0  0
  -25.9783  -25.8591   19.0345 H   0  0  0  0  0  0
  -23.9764  -27.2809   19.0172 H   0  0  0  0  0  0
  -23.7898  -30.5692   19.3992 H   0  0  0  0  0  0
  -22.7748  -29.2336   19.8511 H   0  0  0  0  0  0
  -25.1304  -36.1897   25.0814 H   0  0  0  0  0  0
  -20.9993  -28.3291   24.1381 H   0  0  0  0  0  0
  -20.5683  -26.2322   23.3618 H   0  0  0  0  0  0
  -21.6650  -26.7442   22.1201 H   0  0  0  0  0  0
  -19.6920  -25.6291   21.1253 H   0  0  0  0  0  0
  -19.6695  -27.3187   20.6737 H   0  0  0  0  0  0
  -17.4208  -26.6678   21.4029 H   0  0  0  0  0  0
  -18.0340  -26.0077   22.9025 H   0  0  0  0  0  0
  -19.7946  -30.7285   24.2252 H   0  0  0  0  0  0
  -17.5021  -31.6271   24.5165 H   0  0  0  0  0  0
  -15.5360  -30.2985   23.7663 H   0  0  0  0  0  0
  -15.8682  -28.0819   22.7078 H   0  0  0  0  0  0
  -24.5880  -30.7107   25.7744 H   0  0  0  0  0  0
  -24.8917  -32.2920   26.4840 H   0  0  0  0  0  0
  -25.8011  -30.8915   27.0212 H   0  0  0  0  0  0
  -26.2953  -29.6724   24.1246 H   0  0  0  0  0  0
  -27.4003  -29.7262   25.4778 H   0  0  0  0  0  0
  -27.8848  -30.4244   23.9512 H   0  0  0  0  0  0
  -27.2653  -33.3632   26.2052 H   0  0  0  0  0  0
  -28.3874  -32.6877   25.0332 H   0  0  0  0  0  0
  -28.0709  -31.8464   26.5428 H   0  0  0  0  0  0
  -28.2588  -38.0098   24.7518 H   0  0  0  0  0  0
  -28.1084  -36.2629   24.6280 H   0  0  0  0  0  0
  -27.2300  -37.1426   25.8867 H   0  0  0  0  0  0
  -20.9427  -29.8754   21.6823 H   0  0  0  0  0  0
  -26.0163  -38.2834   24.1415 H   0  0  0  0  0  0
  -28.7383  -18.4715   19.4923 H   0  0  0  0  0  0
  -32.3725  -20.2303   23.8003 H   0  0  0  0  0  0
  -27.5965  -24.9419   21.5088 H   0  0  0  0  0  0
  -32.6706  -17.3753   23.7988 H   0  0  0  0  0  0
  -29.4003  -21.4180   19.2087 H   0  0  0  0  0  0
  -28.7985  -15.7715   20.3918 H   0  0  0  0  0  0
  -29.4258  -24.7391   18.6778 H   0  0  0  0  0  0
  1 25  1  0  0  0
  1 30  2  0  0  0
  1 83  1  0  0  0
  2  3  1  0  0  0
  2 25  1  0  0  0
  2 88  1  0  0  0
  2 89  1  0  0  0
  3  4  1  0  0  0
  3 90  1  0  0  0
  3 91  1  0  0  0
  4  5  1  0  0  0
  4 92  1  0  0  0
  4 93  1  0  0  0
  5  6  1  0  0  0
  5 26  1  0  0  0
  5 94  1  0  0  0
  6 25  1  0  0  0
  6 95  1  0  0  0
  6 96  1  0  0  0
  7  8  2  0  0  0
  7 26  1  0  0  0
  7 29  1  0  0  0
  8  9  1  0  0  0
  8 22  1  0  0  0
  9 10  1  0  0  0
  9 27  2  0  0  0
 10 11  2  0  0  0
 10 15  1  0  0  0
 11 12  1  0  0  0
 11 97  1  0  0  0
 12 13  2  0  0  0
 12 98  1  0  0  0
 13 14  1  0  0  0
 13 31  1  0  0  0
 14 15  2  0  0  0
 14 99  1  0  0  0
 15100  1  0  0  0
 16 17  2  0  0  0
 16 21  1  0  0  0
 16 31  1  0  0  0
 17 18  1  0  0  0
 17101  1  0  0  0
 18 19  2  0  0  0
 18102  1  0  0  0
 19 20  1  0  0  0
 19 24  1  0  0  0
 20 21  2  0  0  0
 20103  1  0  0  0
 21 23  1  0  0  0
 22 28  1  0  0  0
 22 32  2  0  0  0
 26 27  1  0  0  0
 28104  1  0  0  0
 28105  1  0  0  0
 29106  1  0  0  0
 29107  1  0  0  0
 33 34  1  0  0  0
 33 66  1  0  0  0
 33 70  2  0  0  0
 34 36  1  0  0  0
 34 59  1  0  0  0
 34108  1  0  0  0
 35 44  2  0  0  0
 35 45  1  0  0  0
 35 68  1  0  0  0
 36 56  1  0  0  0
 36109  1  0  0  0
 37 39  1  0  0  0
 37 47  1  0  0  0
 37 66  1  0  0  0
 37110  1  0  0  0
 38 43  2  0  0  0
 38 46  1  0  0  0
 38 47  1  0  0  0
 39 64  1  0  0  0
 39 67  2  0  0  0
 40 52  1  0  0  0
 40 53  2  0  0  0
 40 58  1  0  0  0
 41111  1  0  0  0
 41112  1  0  0  0
 41113  1  0  0  0
 41 48  1  0  0  0
 42 43  1  0  0  0
 42 66  1  0  0  0
 42114  1  0  0  0
 42115  1  0  0  0
 43 44  1  0  0  0
 44116  1  0  0  0
 45 46  2  0  0  0
 45117  1  0  0  0
 46118  1  0  0  0
 47119  1  0  0  0
 47120  1  0  0  0
 48 56  1  0  0  0
 48 65  1  0  0  0
 48121  1  0  0  0
 49 50  1  0  0  0
 49 53  1  0  0  0
 49 64  1  0  0  0
 49122  1  0  0  0
 50 51  1  0  0  0
 50123  1  0  0  0
 50124  1  0  0  0
 51 52  1  0  0  0
 51125  1  0  0  0
 51126  1  0  0  0
 52127  1  0  0  0
 52128  1  0  0  0
 53 54  1  0  0  0
 54 55  2  0  0  0
 54129  1  0  0  0
 55 57  1  0  0  0
 55130  1  0  0  0
 56 69  2  0  0  0
 57 58  2  0  0  0
 57131  1  0  0  0
 58132  1  0  0  0
 59 60  1  0  0  0
 59 61  1  0  0  0
 59 62  1  0  0  0
 60133  1  0  0  0
 60134  1  0  0  0
 60135  1  0  0  0
 61136  1  0  0  0
 61137  1  0  0  0
 61138  1  0  0  0
 62139  1  0  0  0
 62140  1  0  0  0
 62141  1  0  0  0
 63 65  1  0  0  0
 63142  1  0  0  0
 63143  1  0  0  0
 63144  1  0  0  0
 64145  1  0  0  0
 65146  1  0  0  0
 68 78  1  0  0  0
 71 73  2  0  0  0
 71 74  1  0  0  0
 71147  1  0  0  0
 72 75  2  0  0  0
 72 76  1  0  0  0
 72 77  1  0  0  0
 73 75  1  0  0  0
 73 82  1  0  0  0
 74 76  2  0  0  0
 74 83  1  0  0  0
 75 86  1  0  0  0
 76 87  1  0  0  0
 77 81  2  0  0  0
 77148  1  0  0  0
 78 79  2  0  0  0
 78149  1  0  0  0
 79 80  1  0  0  0
 79 85  1  0  0  0
 80 82  1  0  0  0
 80 84  2  0  0  0
 81150  1  0  0  0
 82151  1  0  0  0
 83152  1  0  0  0
 85153  1  0  0  0
M  ISO  4   1 100  68 101  78 101  83 100
M  END
> <chiral flag>
0

> <version>
0

> <s_m_source_file>
/data/baiqing/PycharmProjects/Reinvent-master-3.2/result/LINK_invent/BTK/process_docking_weight1_custom_product_contain_oxygen_bond_distance_aromatic_linkinvent_7_9_3/rearranged_h_0176.sdf

> <i_m_source_file_index>
10

> <r_mmod_Potential_Energy-OPLS-2005>
153.064453125

> <r_mmod_Stretch_Energy-OPLS-2005>
154.706573486328

> <r_mmod_Bend_Energy-OPLS-2005>
166.859558105469

> <r_mmod_Torsional_Energy-OPLS-2005>
261.844146728516

> <r_mmod_Improper_Torsional_Energy-OPLS-2005>
9.56692314147949

> <r_mmod_Van_der_Waal_Energy-OPLS-2005>
146.309005737305

> <r_mmod_Electrostatic_Energy-OPLS-2005>
-453.385986328125

> <r_mmod_Solvation_Energy-OPLS-2005>
-249.583908081055

> <b_mmod_Minimization_Converged-OPLS-2005>
0

> <r_mmod_RMS_Derivative-OPLS-2005>
0.365834623575211

$$$$
10
                    3D
 Structure written by MMmdl.
159167  0  0  1  0            999 V2000
  -30.6104  -14.6736   20.5005 C   0  0  0  0  0  0
  -30.4450  -12.4147   19.4607 C   0  0  0  0  0  0
  -29.5127  -12.5123   18.2309 C   0  0  0  0  0  0
  -28.0371  -12.3425   18.6439 C   0  0  0  0  0  0
  -27.6548  -13.2191   19.8654 C   0  0  2  0  0  0
  -28.6987  -13.0823   20.9967 C   0  0  0  0  0  0
  -25.2578  -13.8166   20.5693 C   0  0  0  0  0  0
  -24.1842  -13.0438   20.9196 C   0  0  0  0  0  0
  -24.6400  -11.6903   20.8742 C   0  0  0  0  0  0
  -23.9058  -10.4297   21.0409 C   0  0  0  0  0  0
  -24.3611   -9.4215   21.9195 C   0  0  0  0  0  0
  -23.6292   -8.2248   22.0766 C   0  0  0  0  0  0
  -22.4275   -8.0280   21.3546 C   0  0  0  0  0  0
  -21.9907   -9.0252   20.4654 C   0  0  0  0  0  0
  -22.7230  -10.2137   20.3061 C   0  0  0  0  0  0
  -21.6855   -6.0733   22.5279 C   0  0  0  0  0  0
  -21.4010   -6.5641   23.8211 C   0  0  0  0  0  0
  -21.3661   -5.6794   24.9176 C   0  0  0  0  0  0
  -21.6047   -4.3057   24.7229 C   0  0  0  0  0  0
  -21.8818   -3.8144   23.4349 C   0  0  0  0  0  0
  -21.9197   -4.6964   22.3405 C   0  0  0  0  0  0
  -22.7867  -13.5243   21.1848 C   0  0  0  0  0  0
  -22.1674   -4.2145   21.0988 F   0  0  0  0  0  0
  -21.5632   -3.4541   25.7746 F   0  0  0  0  0  0
  -30.0136  -13.4370   20.4371 N   0  0  0  0  0  0
  -26.3006  -12.9349   20.3326 N   0  0  0  0  0  0
  -25.9336  -11.6502   20.5762 N   0  0  0  0  0  0
  -22.0481  -12.8250   22.0397 N   0  0  0  0  0  0
  -25.4295  -15.1889   20.4107 N   0  0  0  0  0  0
  -31.7644  -14.8427   20.0920 O   0  0  0  0  0  0
  -21.6644   -6.8877   21.4242 O   0  0  0  0  0  0
  -22.3568  -14.5558   20.6695 O   0  0  0  0  0  0
  -24.6290  -31.8587   23.2018 C   0  0  0  0  0  0
  -25.9126  -32.4773   23.8348 C   0  0  1  0  0  0
  -27.2176  -27.2903   20.1180 C   0  0  0  0  0  0
  -25.5936  -33.8575   24.2273 N   0  0  0  0  0  0
  -23.4231  -30.4843   21.5460 C   0  0  2  0  0  0
  -24.8690  -28.9410   20.1091 C   0  0  0  0  0  0
  -22.7492  -29.4621   22.4929 C   0  0  0  0  0  0
  -18.0286  -28.1385   22.8485 C   0  0  0  0  0  0
  -24.1488  -36.7294   23.2640 C   0  0  0  0  0  0
  -25.9687  -30.7817   21.3765 C   0  0  0  0  0  0
  -26.0418  -29.4078   20.7164 C   0  0  0  0  0  0
  -27.2194  -28.5952   20.7103 C   0  0  0  0  0  0
  -26.0213  -26.8950   19.4704 C   0  0  0  0  0  0
  -24.8627  -27.6917   19.4755 C   0  0  0  0  0  0
  -23.6386  -29.8240   20.1606 C   0  0  0  0  0  0
  -25.4112  -36.3079   24.0326 C   0  0  1  0  0  0
  -20.5893  -28.3690   23.1269 C   0  0  2  0  0  0
  -20.6783  -26.9409   22.5408 C   0  0  0  0  0  0
  -19.5757  -26.6380   21.5216 C   0  0  0  0  0  0
  -18.1933  -26.7929   22.1622 C   0  0  0  0  0  0
  -19.1542  -28.8852   23.2873 C   0  0  0  0  0  0
  -18.9468  -30.1455   23.8885 C   0  0  0  0  0  0
  -17.6471  -30.6586   24.0554 C   0  0  0  0  0  0
  -25.9054  -34.9446   23.5096 C   0  0  0  0  0  0
  -16.5360  -29.9083   23.6332 C   0  0  0  0  0  0
  -16.7276  -28.6502   23.0351 C   0  0  0  0  0  0
  -26.4495  -31.6593   25.0729 C   0  0  0  0  0  0
  -25.3721  -31.3738   26.1449 C   0  0  0  0  0  0
  -27.0341  -30.3010   24.6206 C   0  0  0  0  0  0
  -27.6049  -32.4331   25.7505 C   0  0  0  0  0  0
  -27.5571  -37.1799   24.8464 C   0  0  0  0  0  0
  -21.4204  -29.3040   22.3664 N   0  0  0  0  0  0
  -26.4288  -37.3778   23.9407 N   0  0  0  0  0  0
  -24.6930  -31.0578   22.0986 N   0  0  0  0  0  0
  -23.4211  -28.8147   23.3002 O   0  0  0  0  0  0
  -28.3056  -26.3928   20.1923 O   0  0  0  0  0  0
  -26.5623  -34.8914   22.4664 O   0  0  0  0  0  0
  -23.5445  -32.1398   23.7330 O   0  0  0  0  0  0
  -29.4968  -19.6708   20.2561 C   0  0  0  0  0  0
  -28.8144  -18.8790   19.3525 C   0  0  0  0  0  0
  -29.7594  -17.1083   20.4986 C   0  0  0  0  0  0
  -29.6924  -21.1850   20.3049 C   0  0  0  0  0  0
  -29.0034  -23.8327   20.5405 C   0  0  0  0  0  0
  -25.8890  -22.4248   20.5215 C   0  0  0  0  0  0
  -27.7583  -20.7632   22.7915 C   0  0  0  0  0  0
  -27.9725  -24.9419   20.0426 C   0  0  0  0  0  0
  -27.2518  -21.9950   19.9215 C   0  0  0  0  0  0
  -28.3229  -22.1046   22.2715 C   0  0  0  0  0  0
  -28.5667  -22.2733   20.7329 C   0  0  0  0  0  0
  -28.9110  -17.4752   19.5278 N   0  0  0  0  0  0
  -29.8241  -15.7119   20.9317 N   0  0  0  0  0  0
  -30.8259  -21.5883   20.0290 O   0  0  0  0  0  0
  -30.1279  -24.2152   20.8834 O   0  0  0  0  0  0
  -28.1213  -19.3731   18.3538 F   0  0  0  0  0  0
  -30.4468  -18.5675   21.2996 S   0  0  0  0  0  0
  -31.4845  -12.5498   19.1566 H   0  0  0  0  0  0
  -30.3954  -11.4207   19.9084 H   0  0  0  0  0  0
  -29.7809  -11.7563   17.4923 H   0  0  0  0  0  0
  -29.6469  -13.4778   17.7408 H   0  0  0  0  0  0
  -27.8854  -11.2896   18.8859 H   0  0  0  0  0  0
  -27.3801  -12.5592   17.8010 H   0  0  0  0  0  0
  -27.6701  -14.2534   19.5202 H   0  0  0  0  0  0
  -28.7174  -12.0605   21.3786 H   0  0  0  0  0  0
  -28.4359  -13.7091   21.8495 H   0  0  0  0  0  0
  -25.2754   -9.5699   22.4771 H   0  0  0  0  0  0
  -24.0001   -7.4645   22.7488 H   0  0  0  0  0  0
  -21.0838   -8.8764   19.8962 H   0  0  0  0  0  0
  -22.3680  -10.9675   19.6173 H   0  0  0  0  0  0
  -21.1991   -7.6147   23.9711 H   0  0  0  0  0  0
  -21.1494   -6.0530   25.9081 H   0  0  0  0  0  0
  -22.0595   -2.7606   23.2852 H   0  0  0  0  0  0
  -22.4074  -11.9910   22.4809 H   0  0  0  0  0  0
  -21.1108  -13.1316   22.2580 H   0  0  0  0  0  0
  -24.6580  -15.8391   20.5122 H   0  0  0  0  0  0
  -26.2738  -15.6296   20.0677 H   0  0  0  0  0  0
  -26.7192  -32.5423   23.1090 H   0  0  0  0  0  0
  -25.0092  -33.9725   25.0421 H   0  0  0  0  0  0
  -22.7178  -31.3055   21.4036 H   0  0  0  0  0  0
  -23.3751  -35.9626   23.3312 H   0  0  0  0  0  0
  -24.3582  -36.8916   22.2056 H   0  0  0  0  0  0
  -23.7244  -37.6498   23.6660 H   0  0  0  0  0  0
  -26.1032  -31.5458   20.6091 H   0  0  0  0  0  0
  -26.8487  -30.8291   22.0062 H   0  0  0  0  0  0
  -28.1152  -28.9450   21.2037 H   0  0  0  0  0  0
  -25.9425  -25.9477   18.9594 H   0  0  0  0  0  0
  -23.9657  -27.3334   18.9879 H   0  0  0  0  0  0
  -23.7583  -30.6024   19.4068 H   0  0  0  0  0  0
  -22.7571  -29.2567   19.8576 H   0  0  0  0  0  0
  -25.1290  -36.1933   25.0819 H   0  0  0  0  0  0
  -20.9978  -28.3283   24.1392 H   0  0  0  0  0  0
  -20.5695  -26.2304   23.3616 H   0  0  0  0  0  0
  -21.6648  -26.7451   22.1186 H   0  0  0  0  0  0
  -19.6928  -25.6291   21.1248 H   0  0  0  0  0  0
  -19.6695  -27.3187   20.6743 H   0  0  0  0  0  0
  -17.4205  -26.6677   21.4024 H   0  0  0  0  0  0
  -18.0323  -26.0074   22.9016 H   0  0  0  0  0  0
  -19.7945  -30.7267   24.2258 H   0  0  0  0  0  0
  -17.5025  -31.6265   24.5156 H   0  0  0  0  0  0
  -15.5357  -30.2977   23.7659 H   0  0  0  0  0  0
  -15.8679  -28.0811   22.7074 H   0  0  0  0  0  0
  -24.5899  -30.7082   25.7787 H   0  0  0  0  0  0
  -24.8899  -32.2904   26.4853 H   0  0  0  0  0  0
  -25.8029  -30.8937   27.0244 H   0  0  0  0  0  0
  -26.2923  -29.6757   24.1227 H   0  0  0  0  0  0
  -27.4033  -29.7261   25.4712 H   0  0  0  0  0  0
  -27.8791  -30.4294   23.9438 H   0  0  0  0  0  0
  -27.2662  -33.3639   26.2062 H   0  0  0  0  0  0
  -28.3868  -32.6889   25.0345 H   0  0  0  0  0  0
  -28.0707  -31.8477   26.5443 H   0  0  0  0  0  0
  -28.2585  -38.0096   24.7500 H   0  0  0  0  0  0
  -28.1062  -36.2624   24.6294 H   0  0  0  0  0  0
  -27.2287  -37.1458   25.8867 H   0  0  0  0  0  0
  -20.9387  -29.8773   21.6879 H   0  0  0  0  0  0
  -26.0167  -38.2850   24.1415 H   0  0  0  0  0  0
  -25.4204  -21.6010   21.0591 H   0  0  0  0  0  0
  -25.1925  -22.7075   19.7321 H   0  0  0  0  0  0
  -25.9368  -23.2515   21.2246 H   0  0  0  0  0  0
  -27.4317  -20.8685   23.8266 H   0  0  0  0  0  0
  -28.5013  -19.9698   22.7890 H   0  0  0  0  0  0
  -26.9016  -20.4124   22.2209 H   0  0  0  0  0  0
  -27.0532  -24.7873   20.5969 H   0  0  0  0  0  0
  -27.7579  -24.7442   18.9929 H   0  0  0  0  0  0
  -27.3553  -22.4448   18.9329 H   0  0  0  0  0  0
  -27.1385  -20.9357   19.7215 H   0  0  0  0  0  0
  -29.2604  -22.2938   22.7986 H   0  0  0  0  0  0
  -27.6592  -22.8956   22.6200 H   0  0  0  0  0  0
  -28.9525  -15.3754   21.3081 H   0  0  0  0  0  0
  1 25  1  0  0  0
  1 30  2  0  0  0
  1 83  1  0  0  0
  2  3  1  0  0  0
  2 25  1  0  0  0
  2 88  1  0  0  0
  2 89  1  0  0  0
  3  4  1  0  0  0
  3 90  1  0  0  0
  3 91  1  0  0  0
  4  5  1  0  0  0
  4 92  1  0  0  0
  4 93  1  0  0  0
  5  6  1  0  0  0
  5 26  1  0  0  0
  5 94  1  0  0  0
  6 25  1  0  0  0
  6 95  1  0  0  0
  6 96  1  0  0  0
  7  8  2  0  0  0
  7 26  1  0  0  0
  7 29  1  0  0  0
  8  9  1  0  0  0
  8 22  1  0  0  0
  9 10  1  0  0  0
  9 27  2  0  0  0
 10 11  2  0  0  0
 10 15  1  0  0  0
 11 12  1  0  0  0
 11 97  1  0  0  0
 12 13  2  0  0  0
 12 98  1  0  0  0
 13 14  1  0  0  0
 13 31  1  0  0  0
 14 15  2  0  0  0
 14 99  1  0  0  0
 15100  1  0  0  0
 16 17  2  0  0  0
 16 21  1  0  0  0
 16 31  1  0  0  0
 17 18  1  0  0  0
 17101  1  0  0  0
 18 19  2  0  0  0
 18102  1  0  0  0
 19 20  1  0  0  0
 19 24  1  0  0  0
 20 21  2  0  0  0
 20103  1  0  0  0
 21 23  1  0  0  0
 22 28  1  0  0  0
 22 32  2  0  0  0
 26 27  1  0  0  0
 28104  1  0  0  0
 28105  1  0  0  0
 29106  1  0  0  0
 29107  1  0  0  0
 33 34  1  0  0  0
 33 66  1  0  0  0
 33 70  2  0  0  0
 34 36  1  0  0  0
 34 59  1  0  0  0
 34108  1  0  0  0
 35 44  2  0  0  0
 35 45  1  0  0  0
 35 68  1  0  0  0
 36 56  1  0  0  0
 36109  1  0  0  0
 37 39  1  0  0  0
 37 47  1  0  0  0
 37 66  1  0  0  0
 37110  1  0  0  0
 38 43  2  0  0  0
 38 46  1  0  0  0
 38 47  1  0  0  0
 39 64  1  0  0  0
 39 67  2  0  0  0
 40 52  1  0  0  0
 40 53  2  0  0  0
 40 58  1  0  0  0
 41111  1  0  0  0
 41112  1  0  0  0
 41113  1  0  0  0
 41 48  1  0  0  0
 42 43  1  0  0  0
 42 66  1  0  0  0
 42114  1  0  0  0
 42115  1  0  0  0
 43 44  1  0  0  0
 44116  1  0  0  0
 45 46  2  0  0  0
 45117  1  0  0  0
 46118  1  0  0  0
 47119  1  0  0  0
 47120  1  0  0  0
 48 56  1  0  0  0
 48 65  1  0  0  0
 48121  1  0  0  0
 49 50  1  0  0  0
 49 53  1  0  0  0
 49 64  1  0  0  0
 49122  1  0  0  0
 50 51  1  0  0  0
 50123  1  0  0  0
 50124  1  0  0  0
 51 52  1  0  0  0
 51125  1  0  0  0
 51126  1  0  0  0
 52127  1  0  0  0
 52128  1  0  0  0
 53 54  1  0  0  0
 54 55  2  0  0  0
 54129  1  0  0  0
 55 57  1  0  0  0
 55130  1  0  0  0
 56 69  2  0  0  0
 57 58  2  0  0  0
 57131  1  0  0  0
 58132  1  0  0  0
 59 60  1  0  0  0
 59 61  1  0  0  0
 59 62  1  0  0  0
 60133  1  0  0  0
 60134  1  0  0  0
 60135  1  0  0  0
 61136  1  0  0  0
 61137  1  0  0  0
 61138  1  0  0  0
 62139  1  0  0  0
 62140  1  0  0  0
 62141  1  0  0  0
 63 65  1  0  0  0
 63142  1  0  0  0
 63143  1  0  0  0
 63144  1  0  0  0
 64145  1  0  0  0
 65146  1  0  0  0
 68 78  1  0  0  0
 71 72  2  0  0  0
 71 74  1  0  0  0
 71 87  1  0  0  0
 72 82  1  0  0  0
 72 86  1  0  0  0
 73 82  2  0  0  0
 73 83  1  0  0  0
 73 87  1  0  0  0
 74 81  1  0  0  0
 74 84  2  0  0  0
 75 78  1  0  0  0
 75 81  1  0  0  0
 75 85  2  0  0  0
 76 79  1  0  0  0
 76147  1  0  0  0
 76148  1  0  0  0
 76149  1  0  0  0
 77 80  1  0  0  0
 77150  1  0  0  0
 77151  1  0  0  0
 77152  1  0  0  0
 78153  1  0  0  0
 78154  1  0  0  0
 79155  1  0  0  0
 79156  1  0  0  0
 79 81  1  0  0  0
 80 81  1  0  0  0
 80157  1  0  0  0
 80158  1  0  0  0
 83159  1  0  0  0
M  ISO  4   1 100  68 101  78 101  83 100
M  END
> <chiral flag>
0

> <version>
0

> <s_m_source_file>
/data/baiqing/PycharmProjects/Reinvent-master-3.2/result/LINK_invent/BTK/process_docking_weight1_custom_product_contain_oxygen_bond_distance_aromatic_linkinvent_7_9_3/rearranged_h_0176.sdf

> <i_m_source_file_index>
11

> <r_mmod_Potential_Energy-OPLS-2005>
201.282699584961

> <r_mmod_Stretch_Energy-OPLS-2005>
113.293586730957

> <r_mmod_Bend_Energy-OPLS-2005>
161.929183959961

> <r_mmod_Torsional_Energy-OPLS-2005>
297.291046142578

> <r_mmod_Improper_Torsional_Energy-OPLS-2005>
8.19354152679443

> <r_mmod_Van_der_Waal_Energy-OPLS-2005>
134.13737487793

> <r_mmod_Electrostatic_Energy-OPLS-2005>
-336.363006591797

> <r_mmod_Solvation_Energy-OPLS-2005>
-240.696792602539

> <b_mmod_Minimization_Converged-OPLS-2005>
0

> <r_mmod_RMS_Derivative-OPLS-2005>
1.51492977142334

$$$$
11
                    3D
 Structure written by MMmdl.
151159  0  0  1  0            999 V2000
  -30.7058  -14.4419   20.6238 C   0  0  0  0  0  0
  -30.4293  -12.3013   19.4105 C   0  0  0  0  0  0
  -29.4951  -12.5142   18.2022 C   0  0  0  0  0  0
  -28.0155  -12.3724   18.6133 C   0  0  0  0  0  0
  -27.6659  -13.1998   19.8790 C   0  0  2  0  0  0
  -28.7061  -12.9484   20.9921 C   0  0  0  0  0  0
  -25.2614  -13.8145   20.5682 C   0  0  0  0  0  0
  -24.1848  -13.0436   20.9163 C   0  0  0  0  0  0
  -24.6390  -11.6899   20.8723 C   0  0  0  0  0  0
  -23.9052  -10.4290   21.0400 C   0  0  0  0  0  0
  -24.3607   -9.4207   21.9180 C   0  0  0  0  0  0
  -23.6285   -8.2244   22.0751 C   0  0  0  0  0  0
  -22.4266   -8.0280   21.3544 C   0  0  0  0  0  0
  -21.9898   -9.0250   20.4648 C   0  0  0  0  0  0
  -22.7224  -10.2131   20.3053 C   0  0  0  0  0  0
  -21.6850   -6.0735   22.5280 C   0  0  0  0  0  0
  -21.4013   -6.5640   23.8214 C   0  0  0  0  0  0
  -21.3658   -5.6792   24.9176 C   0  0  0  0  0  0
  -21.6044   -4.3053   24.7228 C   0  0  0  0  0  0
  -21.8819   -3.8146   23.4346 C   0  0  0  0  0  0
  -21.9192   -4.6964   22.3403 C   0  0  0  0  0  0
  -22.7874  -13.5248   21.1831 C   0  0  0  0  0  0
  -22.1660   -4.2151   21.0979 F   0  0  0  0  0  0
  -21.5627   -3.4532   25.7737 F   0  0  0  0  0  0
  -30.0397  -13.2667   20.4486 N   0  0  0  0  0  0
  -26.3047  -12.9301   20.3380 N   0  0  0  0  0  0
  -25.9314  -11.6464   20.5757 N   0  0  0  0  0  0
  -22.0505  -12.8250   22.0392 N   0  0  0  0  0  0
  -25.4359  -15.1858   20.4097 N   0  0  0  0  0  0
  -31.8022  -14.6475   20.0938 O   0  0  0  0  0  0
  -21.6635   -6.8878   21.4242 O   0  0  0  0  0  0
  -22.3560  -14.5550   20.6675 O   0  0  0  0  0  0
  -24.6132  -31.8690   23.2100 C   0  0  0  0  0  0
  -25.9032  -32.4825   23.8394 C   0  0  1  0  0  0
  -27.2387  -27.4419   20.0808 C   0  0  0  0  0  0
  -25.5895  -33.8625   24.2327 N   0  0  0  0  0  0
  -23.3999  -30.4931   21.5510 C   0  0  2  0  0  0
  -24.8436  -28.9566   20.1180 C   0  0  0  0  0  0
  -22.7399  -29.4669   22.4998 C   0  0  0  0  0  0
  -18.0272  -28.1371   22.8493 C   0  0  0  0  0  0
  -24.1489  -36.7317   23.2637 C   0  0  0  0  0  0
  -25.9283  -30.8339   21.3630 C   0  0  0  0  0  0
  -26.0033  -29.4679   20.7117 C   0  0  0  0  0  0
  -27.1985  -28.7154   20.6940 C   0  0  0  0  0  0
  -26.0502  -26.9347   19.5020 C   0  0  0  0  0  0
  -24.8607  -27.6872   19.5160 C   0  0  0  0  0  0
  -23.6065  -29.8239   20.1659 C   0  0  0  0  0  0
  -25.4109  -36.3119   24.0341 C   0  0  1  0  0  0
  -20.5861  -28.3658   23.1324 C   0  0  2  0  0  0
  -20.6763  -26.9398   22.5413 C   0  0  0  0  0  0
  -19.5745  -26.6385   21.5208 C   0  0  0  0  0  0
  -18.1924  -26.7919   22.1620 C   0  0  0  0  0  0
  -19.1519  -28.8832   23.2906 C   0  0  0  0  0  0
  -18.9449  -30.1438   23.8917 C   0  0  0  0  0  0
  -17.6454  -30.6582   24.0562 C   0  0  0  0  0  0
  -25.9033  -34.9483   23.5131 C   0  0  0  0  0  0
  -16.5344  -29.9086   23.6322 C   0  0  0  0  0  0
  -16.7262  -28.6499   23.0349 C   0  0  0  0  0  0
  -26.4467  -31.6598   25.0716 C   0  0  0  0  0  0
  -25.3738  -31.3698   26.1463 C   0  0  0  0  0  0
  -27.0287  -30.3045   24.6079 C   0  0  0  0  0  0
  -27.6053  -32.4311   25.7471 C   0  0  0  0  0  0
  -27.5584  -37.1813   24.8469 C   0  0  0  0  0  0
  -21.4129  -29.3032   22.3735 N   0  0  0  0  0  0
  -26.4299  -37.3800   23.9409 N   0  0  0  0  0  0
  -24.6656  -31.0796   22.0997 N   0  0  0  0  0  0
  -23.4176  -28.8215   23.3038 O   0  0  0  0  0  0
  -28.4424  -26.7623   20.0714 O   0  0  0  0  0  0
  -26.5595  -34.8935   22.4693 O   0  0  0  0  0  0
  -23.5331  -32.1444   23.7505 O   0  0  0  0  0  0
  -27.5231  -19.0652   22.1745 C   0  0  0  0  0  0
  -28.0992  -17.7699   22.2423 C   0  0  0  0  0  0
  -29.0431  -17.6418   21.2589 C   0  0  0  0  0  0
  -28.1925  -19.6681   21.1474 C   0  0  0  0  0  0
  -29.8924  -16.5619   20.7689 C   0  0  0  0  0  0
  -27.9168  -23.0139   19.5452 C   0  0  0  0  0  0
  -28.6906  -21.7575   20.0185 C   0  0  0  0  0  0
  -28.1402  -24.3244   20.3108 C   0  0  0  0  0  0
  -28.5545  -25.5007   19.4004 C   0  0  0  0  0  0
  -29.9698  -15.4022   21.3055 N   0  0  0  0  0  0
  -27.8968  -20.9136   20.6966 N   0  0  0  0  0  0
  -27.1087  -22.9587   18.6110 O   0  0  0  0  0  0
  -29.8912  -21.5818   19.7815 O   0  0  0  0  0  0
  -29.1238  -18.8348   20.5776 O   0  0  0  0  0  0
  -27.7317  -16.8048   23.1202 F   0  0  0  0  0  0
  -31.4724  -12.4050   19.1064 H   0  0  0  0  0  0
  -30.3336  -11.2835   19.7923 H   0  0  0  0  0  0
  -29.7326  -11.7988   17.4139 H   0  0  0  0  0  0
  -29.6641  -13.5056   17.7785 H   0  0  0  0  0  0
  -27.8217  -11.3156   18.7992 H   0  0  0  0  0  0
  -27.3657  -12.6583   17.7857 H   0  0  0  0  0  0
  -27.7221  -14.2527   19.6022 H   0  0  0  0  0  0
  -28.6812  -11.9035   21.3031 H   0  0  0  0  0  0
  -28.4583  -13.5169   21.8899 H   0  0  0  0  0  0
  -25.2752   -9.5682   22.4755 H   0  0  0  0  0  0
  -23.9995   -7.4635   22.7466 H   0  0  0  0  0  0
  -21.0828   -8.8763   19.8957 H   0  0  0  0  0  0
  -22.3675  -10.9669   19.6161 H   0  0  0  0  0  0
  -21.2005   -7.6147   23.9718 H   0  0  0  0  0  0
  -21.1482   -6.0522   25.9080 H   0  0  0  0  0  0
  -22.0603   -2.7609   23.2845 H   0  0  0  0  0  0
  -22.4110  -11.9918   22.4797 H   0  0  0  0  0  0
  -21.1128  -13.1286   22.2601 H   0  0  0  0  0  0
  -24.6826  -15.8506   20.5447 H   0  0  0  0  0  0
  -26.3098  -15.6197   20.1425 H   0  0  0  0  0  0
  -26.7100  -32.5532   23.1153 H   0  0  0  0  0  0
  -25.0064  -33.9796   25.0485 H   0  0  0  0  0  0
  -22.6885  -31.3095   21.4123 H   0  0  0  0  0  0
  -23.3750  -35.9650   23.3316 H   0  0  0  0  0  0
  -24.3585  -36.8908   22.2048 H   0  0  0  0  0  0
  -23.7240  -37.6527   23.6636 H   0  0  0  0  0  0
  -26.0429  -31.6000   20.5947 H   0  0  0  0  0  0
  -26.8158  -30.8857   21.9817 H   0  0  0  0  0  0
  -28.0968  -29.1133   21.1457 H   0  0  0  0  0  0
  -26.0128  -25.9621   19.0351 H   0  0  0  0  0  0
  -23.9655  -27.2840   19.0628 H   0  0  0  0  0  0
  -23.7141  -30.5970   19.4043 H   0  0  0  0  0  0
  -22.7300  -29.2437   19.8721 H   0  0  0  0  0  0
  -25.1285  -36.1992   25.0834 H   0  0  0  0  0  0
  -20.9954  -28.3216   24.1445 H   0  0  0  0  0  0
  -20.5670  -26.2264   23.3592 H   0  0  0  0  0  0
  -21.6637  -26.7449   22.1205 H   0  0  0  0  0  0
  -19.6910  -25.6303   21.1226 H   0  0  0  0  0  0
  -19.6687  -27.3205   20.6747 H   0  0  0  0  0  0
  -17.4192  -26.6666   21.4021 H   0  0  0  0  0  0
  -18.0330  -26.0054   22.9012 H   0  0  0  0  0  0
  -19.7927  -30.7243   24.2298 H   0  0  0  0  0  0
  -17.5012  -31.6268   24.5154 H   0  0  0  0  0  0
  -15.5346  -30.2995   23.7639 H   0  0  0  0  0  0
  -15.8657  -28.0824   22.7060 H   0  0  0  0  0  0
  -24.5914  -30.7043   25.7794 H   0  0  0  0  0  0
  -24.8922  -32.2851   26.4920 H   0  0  0  0  0  0
  -25.8092  -30.8857   27.0212 H   0  0  0  0  0  0
  -26.2820  -29.6815   24.1140 H   0  0  0  0  0  0
  -27.4070  -29.7273   25.4525 H   0  0  0  0  0  0
  -27.8655  -30.4367   23.9215 H   0  0  0  0  0  0
  -27.2682  -33.3600   26.2086 H   0  0  0  0  0  0
  -28.3838  -32.6886   25.0275 H   0  0  0  0  0  0
  -28.0748  -31.8406   26.5348 H   0  0  0  0  0  0
  -28.2616  -38.0097   24.7508 H   0  0  0  0  0  0
  -28.1067  -36.2630   24.6307 H   0  0  0  0  0  0
  -27.2302  -37.1475   25.8872 H   0  0  0  0  0  0
  -20.9283  -29.8748   21.6959 H   0  0  0  0  0  0
  -26.0196  -38.2886   24.1389 H   0  0  0  0  0  0
  -26.7344  -19.4821   22.7832 H   0  0  0  0  0  0
  -30.4536  -16.8099   19.8611 H   0  0  0  0  0  0
  -28.8843  -24.1733   21.0925 H   0  0  0  0  0  0
  -27.2045  -24.5611   20.8152 H   0  0  0  0  0  0
  -28.0297  -25.5060   18.4445 H   0  0  0  0  0  0
  -29.6051  -25.3757   19.1367 H   0  0  0  0  0  0
  -26.9638  -21.2569   20.8785 H   0  0  0  0  0  0
  1 25  1  0  0  0
  1 30  2  0  0  0
  1 80  1  0  0  0
  2  3  1  0  0  0
  2 25  1  0  0  0
  2 86  1  0  0  0
  2 87  1  0  0  0
  3  4  1  0  0  0
  3 88  1  0  0  0
  3 89  1  0  0  0
  4  5  1  0  0  0
  4 90  1  0  0  0
  4 91  1  0  0  0
  5  6  1  0  0  0
  5 26  1  0  0  0
  5 92  1  0  0  0
  6 25  1  0  0  0
  6 93  1  0  0  0
  6 94  1  0  0  0
  7  8  2  0  0  0
  7 26  1  0  0  0
  7 29  1  0  0  0
  8  9  1  0  0  0
  8 22  1  0  0  0
  9 10  1  0  0  0
  9 27  2  0  0  0
 10 11  2  0  0  0
 10 15  1  0  0  0
 11 12  1  0  0  0
 11 95  1  0  0  0
 12 13  2  0  0  0
 12 96  1  0  0  0
 13 14  1  0  0  0
 13 31  1  0  0  0
 14 15  2  0  0  0
 14 97  1  0  0  0
 15 98  1  0  0  0
 16 17  2  0  0  0
 16 21  1  0  0  0
 16 31  1  0  0  0
 17 18  1  0  0  0
 17 99  1  0  0  0
 18 19  2  0  0  0
 18100  1  0  0  0
 19 20  1  0  0  0
 19 24  1  0  0  0
 20 21  2  0  0  0
 20101  1  0  0  0
 21 23  1  0  0  0
 22 28  1  0  0  0
 22 32  2  0  0  0
 26 27  1  0  0  0
 28102  1  0  0  0
 28103  1  0  0  0
 29104  1  0  0  0
 29105  1  0  0  0
 33 34  1  0  0  0
 33 66  1  0  0  0
 33 70  2  0  0  0
 34 36  1  0  0  0
 34 59  1  0  0  0
 34106  1  0  0  0
 35 44  2  0  0  0
 35 45  1  0  0  0
 35 68  1  0  0  0
 36 56  1  0  0  0
 36107  1  0  0  0
 37 39  1  0  0  0
 37 47  1  0  0  0
 37 66  1  0  0  0
 37108  1  0  0  0
 38 43  2  0  0  0
 38 46  1  0  0  0
 38 47  1  0  0  0
 39 64  1  0  0  0
 39 67  2  0  0  0
 40 52  1  0  0  0
 40 53  2  0  0  0
 40 58  1  0  0  0
 41109  1  0  0  0
 41110  1  0  0  0
 41111  1  0  0  0
 41 48  1  0  0  0
 42 43  1  0  0  0
 42 66  1  0  0  0
 42112  1  0  0  0
 42113  1  0  0  0
 43 44  1  0  0  0
 44114  1  0  0  0
 45 46  2  0  0  0
 45115  1  0  0  0
 46116  1  0  0  0
 47117  1  0  0  0
 47118  1  0  0  0
 48 56  1  0  0  0
 48 65  1  0  0  0
 48119  1  0  0  0
 49 50  1  0  0  0
 49 53  1  0  0  0
 49 64  1  0  0  0
 49120  1  0  0  0
 50 51  1  0  0  0
 50121  1  0  0  0
 50122  1  0  0  0
 51 52  1  0  0  0
 51123  1  0  0  0
 51124  1  0  0  0
 52125  1  0  0  0
 52126  1  0  0  0
 53 54  1  0  0  0
 54 55  2  0  0  0
 54127  1  0  0  0
 55 57  1  0  0  0
 55128  1  0  0  0
 56 69  2  0  0  0
 57 58  2  0  0  0
 57129  1  0  0  0
 58130  1  0  0  0
 59 60  1  0  0  0
 59 61  1  0  0  0
 59 62  1  0  0  0
 60131  1  0  0  0
 60132  1  0  0  0
 60133  1  0  0  0
 61134  1  0  0  0
 61135  1  0  0  0
 61136  1  0  0  0
 62137  1  0  0  0
 62138  1  0  0  0
 62139  1  0  0  0
 63 65  1  0  0  0
 63140  1  0  0  0
 63141  1  0  0  0
 63142  1  0  0  0
 64143  1  0  0  0
 65144  1  0  0  0
 68 79  1  0  0  0
 71 72  1  0  0  0
 71 74  2  0  0  0
 71145  1  0  0  0
 72 73  2  0  0  0
 72 85  1  0  0  0
 73 75  1  0  0  0
 73 84  1  0  0  0
 74 81  1  0  0  0
 74 84  1  0  0  0
 75 80  2  0  0  0
 75146  1  0  0  0
 76 77  1  0  0  0
 76 78  1  0  0  0
 76 82  2  0  0  0
 77 81  1  0  0  0
 77 83  2  0  0  0
 78 79  1  0  0  0
 78147  1  0  0  0
 78148  1  0  0  0
 79149  1  0  0  0
 79150  1  0  0  0
 81151  1  0  0  0
M  ISO  4   1 100  68 101  79 101  80 100
M  END
> <chiral flag>
0

> <version>
0

> <s_m_source_file>
/data/baiqing/PycharmProjects/Reinvent-master-3.2/result/LINK_invent/BTK/process_docking_weight1_custom_product_contain_oxygen_bond_distance_aromatic_linkinvent_7_9_3/rearranged_h_0176.sdf

> <i_m_source_file_index>
12

> <r_mmod_Potential_Energy-OPLS-2005>
-106.304931640625

> <r_mmod_Stretch_Energy-OPLS-2005>
34.9238624572754

> <r_mmod_Bend_Energy-OPLS-2005>
113.33504486084

> <r_mmod_Torsional_Energy-OPLS-2005>
174.42106628418

> <r_mmod_Improper_Torsional_Energy-OPLS-2005>
3.63574647903442

> <r_mmod_Van_der_Waal_Energy-OPLS-2005>
134.531097412109

> <r_mmod_Electrostatic_Energy-OPLS-2005>
-350.753509521484

> <r_mmod_Solvation_Energy-OPLS-2005>
-226.283050537109

> <b_mmod_Minimization_Converged-OPLS-2005>
0

> <r_mmod_RMS_Derivative-OPLS-2005>
0.815754890441895

$$$$
12
                    3D
 Structure written by MMmdl.
158166  0  0  1  0            999 V2000
  -30.6679  -14.4932   20.5625 C   0  0  0  0  0  0
  -30.4352  -12.3157   19.4227 C   0  0  0  0  0  0
  -29.5007  -12.4955   18.2071 C   0  0  0  0  0  0
  -28.0235  -12.3343   18.6204 C   0  0  0  0  0  0
  -27.6610  -13.1730   19.8714 C   0  0  2  0  0  0
  -28.7033  -12.9684   20.9940 C   0  0  0  0  0  0
  -25.2632  -13.8082   20.5630 C   0  0  0  0  0  0
  -24.1846  -13.0423   20.9167 C   0  0  0  0  0  0
  -24.6354  -11.6876   20.8741 C   0  0  0  0  0  0
  -23.9013  -10.4288   21.0427 C   0  0  0  0  0  0
  -24.3584   -9.4207   21.9202 C   0  0  0  0  0  0
  -23.6270   -8.2232   22.0759 C   0  0  0  0  0  0
  -22.4250   -8.0283   21.3543 C   0  0  0  0  0  0
  -21.9875   -9.0259   20.4649 C   0  0  0  0  0  0
  -22.7191  -10.2140   20.3066 C   0  0  0  0  0  0
  -21.6856   -6.0735   22.5293 C   0  0  0  0  0  0
  -21.4016   -6.5638   23.8223 C   0  0  0  0  0  0
  -21.3643   -5.6786   24.9186 C   0  0  0  0  0  0
  -21.6040   -4.3052   24.7235 C   0  0  0  0  0  0
  -21.8814   -3.8145   23.4363 C   0  0  0  0  0  0
  -21.9194   -4.6968   22.3410 C   0  0  0  0  0  0
  -22.7881  -13.5276   21.1839 C   0  0  0  0  0  0
  -22.1665   -4.2151   21.0993 F   0  0  0  0  0  0
  -21.5621   -3.4537   25.7751 F   0  0  0  0  0  0
  -30.0324  -13.2939   20.4452 N   0  0  0  0  0  0
  -26.3006  -12.9166   20.3315 N   0  0  0  0  0  0
  -25.9260  -11.6373   20.5758 N   0  0  0  0  0  0
  -22.0498  -12.8298   22.0395 N   0  0  0  0  0  0
  -25.4422  -15.1788   20.3986 N   0  0  0  0  0  0
  -31.7991  -14.6946   20.1059 O   0  0  0  0  0  0
  -21.6616   -6.8879   21.4249 O   0  0  0  0  0  0
  -22.3587  -14.5584   20.6676 O   0  0  0  0  0  0
  -24.6130  -31.8681   23.2107 C   0  0  0  0  0  0
  -25.9027  -32.4827   23.8392 C   0  0  1  0  0  0
  -27.2454  -27.4405   20.0857 C   0  0  0  0  0  0
  -25.5893  -33.8625   24.2329 N   0  0  0  0  0  0
  -23.4010  -30.4912   21.5495 C   0  0  2  0  0  0
  -24.8483  -28.9543   20.1156 C   0  0  0  0  0  0
  -22.7399  -29.4657   22.4981 C   0  0  0  0  0  0
  -18.0271  -28.1378   22.8488 C   0  0  0  0  0  0
  -24.1486  -36.7311   23.2639 C   0  0  0  0  0  0
  -25.9288  -30.8328   21.3641 C   0  0  0  0  0  0
  -26.0057  -29.4665   20.7123 C   0  0  0  0  0  0
  -27.1997  -28.7121   20.7018 C   0  0  0  0  0  0
  -26.0600  -26.9309   19.5037 C   0  0  0  0  0  0
  -24.8691  -27.6833   19.5164 C   0  0  0  0  0  0
  -23.6111  -29.8229   20.1634 C   0  0  0  0  0  0
  -25.4108  -36.3112   24.0334 C   0  0  1  0  0  0
  -20.5861  -28.3663   23.1323 C   0  0  2  0  0  0
  -20.6766  -26.9402   22.5423 C   0  0  0  0  0  0
  -19.5748  -26.6387   21.5216 C   0  0  0  0  0  0
  -18.1922  -26.7930   22.1617 C   0  0  0  0  0  0
  -19.1521  -28.8837   23.2908 C   0  0  0  0  0  0
  -18.9450  -30.1437   23.8923 C   0  0  0  0  0  0
  -17.6457  -30.6588   24.0571 C   0  0  0  0  0  0
  -25.9032  -34.9477   23.5129 C   0  0  0  0  0  0
  -16.5345  -29.9091   23.6329 C   0  0  0  0  0  0
  -16.7263  -28.6508   23.0350 C   0  0  0  0  0  0
  -26.4472  -31.6614   25.0715 C   0  0  0  0  0  0
  -25.3754  -31.3724   26.1478 C   0  0  0  0  0  0
  -27.0303  -30.3058   24.6090 C   0  0  0  0  0  0
  -27.6055  -32.4340   25.7466 C   0  0  0  0  0  0
  -27.5582  -37.1809   24.8462 C   0  0  0  0  0  0
  -21.4131  -29.3023   22.3715 N   0  0  0  0  0  0
  -26.4295  -37.3794   23.9407 N   0  0  0  0  0  0
  -24.6656  -31.0782   22.1004 N   0  0  0  0  0  0
  -23.4171  -28.8204   23.3029 O   0  0  0  0  0  0
  -28.4455  -26.7556   20.1121 O   0  0  0  0  0  0
  -26.5586  -34.8928   22.4685 O   0  0  0  0  0  0
  -23.5328  -32.1428   23.7507 O   0  0  0  0  0  0
  -28.8224  -18.6345   19.5392 C   0  0  0  0  0  0
  -30.7299  -19.0406   20.9496 C   0  0  0  0  0  0
  -29.7393  -19.5552   20.0782 C   0  0  0  0  0  0
  -28.9099  -17.2773   19.8916 C   0  0  0  0  0  0
  -29.9424  -16.8411   20.7529 C   0  0  0  0  0  0
  -28.9449  -24.3419   19.9854 C   0  0  0  0  0  0
  -30.1281  -22.0405   20.2264 C   0  0  0  0  0  0
  -31.4160  -24.0814   19.5067 C   0  0  0  0  0  0
  -29.7319  -23.0850   17.9180 C   0  0  0  0  0  0
  -28.6958  -25.6600   19.2171 C   0  0  0  0  0  0
  -30.0362  -23.3780   19.4138 C   0  0  0  0  0  0
  -30.8310  -17.7256   21.2760 N   0  0  0  0  0  0
  -29.6374  -20.9194   19.6577 N   0  0  0  0  0  0
  -29.9243  -15.4677   21.1181 N   0  0  0  0  0  0
  -28.2913  -24.0884   21.0039 O   0  0  0  0  0  0
  -30.6676  -22.0205   21.3359 O   0  0  0  0  0  0
  -27.9988  -16.4106   19.3952 F   0  0  0  0  0  0
  -31.4787  -12.4322   19.1226 H   0  0  0  0  0  0
  -30.3592  -11.3040   19.8229 H   0  0  0  0  0  0
  -29.7510  -11.7742   17.4281 H   0  0  0  0  0  0
  -29.6524  -13.4836   17.7679 H   0  0  0  0  0  0
  -27.8488  -11.2768   18.8224 H   0  0  0  0  0  0
  -27.3712  -12.5972   17.7869 H   0  0  0  0  0  0
  -27.7000  -14.2050   19.5514 H   0  0  0  0  0  0
  -28.6924  -11.9305   21.3289 H   0  0  0  0  0  0
  -28.4508  -13.5564   21.8778 H   0  0  0  0  0  0
  -25.2746   -9.5687   22.4758 H   0  0  0  0  0  0
  -24.0005   -7.4611   22.7452 H   0  0  0  0  0  0
  -21.0809   -8.8765   19.8944 H   0  0  0  0  0  0
  -22.3661  -10.9684   19.6160 H   0  0  0  0  0  0
  -21.2004   -7.6142   23.9737 H   0  0  0  0  0  0
  -21.1462   -6.0513   25.9089 H   0  0  0  0  0  0
  -22.0601   -2.7613   23.2859 H   0  0  0  0  0  0
  -22.4113  -11.9989   22.4838 H   0  0  0  0  0  0
  -21.1110  -13.1359   22.2565 H   0  0  0  0  0  0
  -24.6711  -15.8316   20.4671 H   0  0  0  0  0  0
  -26.2872  -15.6040   20.0288 H   0  0  0  0  0  0
  -26.7089  -32.5543   23.1153 H   0  0  0  0  0  0
  -25.0065  -33.9790   25.0486 H   0  0  0  0  0  0
  -22.6892  -31.3073   21.4100 H   0  0  0  0  0  0
  -23.3751  -35.9644   23.3318 H   0  0  0  0  0  0
  -24.3579  -36.8911   22.2052 H   0  0  0  0  0  0
  -23.7242  -37.6520   23.6646 H   0  0  0  0  0  0
  -26.0381  -31.6000   20.5961 H   0  0  0  0  0  0
  -26.8169  -30.8881   21.9817 H   0  0  0  0  0  0
  -28.0939  -29.1057   21.1652 H   0  0  0  0  0  0
  -26.0207  -25.9489   19.0572 H   0  0  0  0  0  0
  -23.9717  -27.2771   19.0696 H   0  0  0  0  0  0
  -23.7223  -30.5984   19.4037 H   0  0  0  0  0  0
  -22.7353  -29.2436   19.8665 H   0  0  0  0  0  0
  -25.1289  -36.1979   25.0827 H   0  0  0  0  0  0
  -20.9950  -28.3235   24.1448 H   0  0  0  0  0  0
  -20.5680  -26.2267   23.3603 H   0  0  0  0  0  0
  -21.6639  -26.7451   22.1218 H   0  0  0  0  0  0
  -19.6912  -25.6305   21.1236 H   0  0  0  0  0  0
  -19.6702  -27.3207   20.6756 H   0  0  0  0  0  0
  -17.4201  -26.6686   21.4013 H   0  0  0  0  0  0
  -18.0313  -26.0063   22.9001 H   0  0  0  0  0  0
  -19.7926  -30.7244   24.2314 H   0  0  0  0  0  0
  -17.5013  -31.6273   24.5161 H   0  0  0  0  0  0
  -15.5348  -30.3007   23.7639 H   0  0  0  0  0  0
  -15.8659  -28.0837   22.7059 H   0  0  0  0  0  0
  -24.5900  -30.7102   25.7820 H   0  0  0  0  0  0
  -24.8981  -32.2890   26.4957 H   0  0  0  0  0  0
  -25.8112  -30.8866   27.0216 H   0  0  0  0  0  0
  -26.2836  -29.6814   24.1171 H   0  0  0  0  0  0
  -27.4108  -29.7303   25.4539 H   0  0  0  0  0  0
  -27.8657  -30.4385   23.9210 H   0  0  0  0  0  0
  -27.2667  -33.3611   26.2102 H   0  0  0  0  0  0
  -28.3821  -32.6956   25.0266 H   0  0  0  0  0  0
  -28.0778  -31.8440   26.5333 H   0  0  0  0  0  0
  -28.2613  -38.0093   24.7501 H   0  0  0  0  0  0
  -28.1063  -36.2628   24.6295 H   0  0  0  0  0  0
  -27.2300  -37.1470   25.8864 H   0  0  0  0  0  0
  -20.9283  -29.8733   21.6933 H   0  0  0  0  0  0
  -26.0189  -38.2869   24.1420 H   0  0  0  0  0  0
  -28.0460  -18.9580   18.8625 H   0  0  0  0  0  0
  -31.4899  -19.6743   21.3805 H   0  0  0  0  0  0
  -31.5308  -24.6274   20.4451 H   0  0  0  0  0  0
  -31.5715  -24.7928   18.6961 H   0  0  0  0  0  0
  -32.2391  -23.3675   19.4497 H   0  0  0  0  0  0
  -28.7170  -22.7124   17.7716 H   0  0  0  0  0  0
  -30.4225  -22.3485   17.5029 H   0  0  0  0  0  0
  -29.8311  -23.9742   17.2957 H   0  0  0  0  0  0
  -27.9159  -25.5113   18.4745 H   0  0  0  0  0  0
  -29.5909  -25.9125   18.6497 H   0  0  0  0  0  0
  -29.1389  -21.0758   18.7920 H   0  0  0  0  0  0
  -29.0212  -15.1354   21.4142 H   0  0  0  0  0  0
  1 25  1  0  0  0
  1 30  2  0  0  0
  1 84  1  0  0  0
  2  3  1  0  0  0
  2 25  1  0  0  0
  2 88  1  0  0  0
  2 89  1  0  0  0
  3  4  1  0  0  0
  3 90  1  0  0  0
  3 91  1  0  0  0
  4  5  1  0  0  0
  4 92  1  0  0  0
  4 93  1  0  0  0
  5  6  1  0  0  0
  5 26  1  0  0  0
  5 94  1  0  0  0
  6 25  1  0  0  0
  6 95  1  0  0  0
  6 96  1  0  0  0
  7  8  2  0  0  0
  7 26  1  0  0  0
  7 29  1  0  0  0
  8  9  1  0  0  0
  8 22  1  0  0  0
  9 10  1  0  0  0
  9 27  2  0  0  0
 10 11  2  0  0  0
 10 15  1  0  0  0
 11 12  1  0  0  0
 11 97  1  0  0  0
 12 13  2  0  0  0
 12 98  1  0  0  0
 13 14  1  0  0  0
 13 31  1  0  0  0
 14 15  2  0  0  0
 14 99  1  0  0  0
 15100  1  0  0  0
 16 17  2  0  0  0
 16 21  1  0  0  0
 16 31  1  0  0  0
 17 18  1  0  0  0
 17101  1  0  0  0
 18 19  2  0  0  0
 18102  1  0  0  0
 19 20  1  0  0  0
 19 24  1  0  0  0
 20 21  2  0  0  0
 20103  1  0  0  0
 21 23  1  0  0  0
 22 28  1  0  0  0
 22 32  2  0  0  0
 26 27  1  0  0  0
 28104  1  0  0  0
 28105  1  0  0  0
 29106  1  0  0  0
 29107  1  0  0  0
 33 34  1  0  0  0
 33 66  1  0  0  0
 33 70  2  0  0  0
 34 36  1  0  0  0
 34 59  1  0  0  0
 34108  1  0  0  0
 35 44  2  0  0  0
 35 45  1  0  0  0
 35 68  1  0  0  0
 36 56  1  0  0  0
 36109  1  0  0  0
 37 39  1  0  0  0
 37 47  1  0  0  0
 37 66  1  0  0  0
 37110  1  0  0  0
 38 43  2  0  0  0
 38 46  1  0  0  0
 38 47  1  0  0  0
 39 64  1  0  0  0
 39 67  2  0  0  0
 40 52  1  0  0  0
 40 53  2  0  0  0
 40 58  1  0  0  0
 41111  1  0  0  0
 41112  1  0  0  0
 41113  1  0  0  0
 41 48  1  0  0  0
 42 43  1  0  0  0
 42 66  1  0  0  0
 42114  1  0  0  0
 42115  1  0  0  0
 43 44  1  0  0  0
 44116  1  0  0  0
 45 46  2  0  0  0
 45117  1  0  0  0
 46118  1  0  0  0
 47119  1  0  0  0
 47120  1  0  0  0
 48 56  1  0  0  0
 48 65  1  0  0  0
 48121  1  0  0  0
 49 50  1  0  0  0
 49 53  1  0  0  0
 49 64  1  0  0  0
 49122  1  0  0  0
 50 51  1  0  0  0
 50123  1  0  0  0
 50124  1  0  0  0
 51 52  1  0  0  0
 51125  1  0  0  0
 51126  1  0  0  0
 52127  1  0  0  0
 52128  1  0  0  0
 53 54  1  0  0  0
 54 55  2  0  0  0
 54129  1  0  0  0
 55 57  1  0  0  0
 55130  1  0  0  0
 56 69  2  0  0  0
 57 58  2  0  0  0
 57131  1  0  0  0
 58132  1  0  0  0
 59 60  1  0  0  0
 59 61  1  0  0  0
 59 62  1  0  0  0
 60133  1  0  0  0
 60134  1  0  0  0
 60135  1  0  0  0
 61136  1  0  0  0
 61137  1  0  0  0
 61138  1  0  0  0
 62139  1  0  0  0
 62140  1  0  0  0
 62141  1  0  0  0
 63 65  1  0  0  0
 63142  1  0  0  0
 63143  1  0  0  0
 63144  1  0  0  0
 64145  1  0  0  0
 65146  1  0  0  0
 68 80  1  0  0  0
 71 73  2  0  0  0
 71 74  1  0  0  0
 71147  1  0  0  0
 72 73  1  0  0  0
 72 82  2  0  0  0
 72148  1  0  0  0
 73 83  1  0  0  0
 74 75  2  0  0  0
 74 87  1  0  0  0
 75 82  1  0  0  0
 75 84  1  0  0  0
 76 80  1  0  0  0
 76 81  1  0  0  0
 76 85  2  0  0  0
 77 81  1  0  0  0
 77 83  1  0  0  0
 77 86  2  0  0  0
 78149  1  0  0  0
 78150  1  0  0  0
 78151  1  0  0  0
 78 81  1  0  0  0
 79 81  1  0  0  0
 79152  1  0  0  0
 79153  1  0  0  0
 79154  1  0  0  0
 80155  1  0  0  0
 80156  1  0  0  0
 83157  1  0  0  0
 84158  1  0  0  0
M  ISO  4   1 100  68 101  80 101  84 100
M  END
> <chiral flag>
0

> <version>
0

> <s_m_source_file>
/data/baiqing/PycharmProjects/Reinvent-master-3.2/result/LINK_invent/BTK/process_docking_weight1_custom_product_contain_oxygen_bond_distance_aromatic_linkinvent_7_9_3/rearranged_h_0176.sdf

> <i_m_source_file_index>
13

> <r_mmod_Potential_Energy-OPLS-2005>
-138.586975097656

> <r_mmod_Stretch_Energy-OPLS-2005>
43.2059745788574

> <r_mmod_Bend_Energy-OPLS-2005>
115.233055114746

> <r_mmod_Torsional_Energy-OPLS-2005>
267.878204345703

> <r_mmod_Improper_Torsional_Energy-OPLS-2005>
5.97474336624146

> <r_mmod_Van_der_Waal_Energy-OPLS-2005>
169.379806518555

> <r_mmod_Electrostatic_Energy-OPLS-2005>
-489.075866699219

> <r_mmod_Solvation_Energy-OPLS-2005>
-265.884552001953

> <b_mmod_Minimization_Converged-OPLS-2005>
0

> <r_mmod_RMS_Derivative-OPLS-2005>
1.82401096820831

$$$$
13
                    3D
 Structure written by MMmdl.
157165  0  0  1  0            999 V2000
  -30.6852  -14.5634   20.5165 C   0  0  0  0  0  0
  -30.4089  -12.3463   19.4408 C   0  0  0  0  0  0
  -29.4982  -12.4989   18.2052 C   0  0  0  0  0  0
  -28.0116  -12.3769   18.5973 C   0  0  0  0  0  0
  -27.6432  -13.2202   19.8456 C   0  0  2  0  0  0
  -28.6809  -13.0544   20.9700 C   0  0  0  0  0  0
  -25.2497  -13.8199   20.5612 C   0  0  0  0  0  0
  -24.1775  -13.0448   20.9146 C   0  0  0  0  0  0
  -24.6357  -11.6920   20.8693 C   0  0  0  0  0  0
  -23.9038  -10.4302   21.0411 C   0  0  0  0  0  0
  -24.3602   -9.4230   21.9196 C   0  0  0  0  0  0
  -23.6311   -8.2244   22.0762 C   0  0  0  0  0  0
  -22.4281   -8.0279   21.3566 C   0  0  0  0  0  0
  -21.9912   -9.0237   20.4656 C   0  0  0  0  0  0
  -22.7217  -10.2132   20.3074 C   0  0  0  0  0  0
  -21.6865   -6.0751   22.5284 C   0  0  0  0  0  0
  -21.4004   -6.5653   23.8222 C   0  0  0  0  0  0
  -21.3662   -5.6792   24.9169 C   0  0  0  0  0  0
  -21.6064   -4.3067   24.7218 C   0  0  0  0  0  0
  -21.8811   -3.8166   23.4333 C   0  0  0  0  0  0
  -21.9193   -4.6991   22.3392 C   0  0  0  0  0  0
  -22.7786  -13.5236   21.1819 C   0  0  0  0  0  0
  -22.1653   -4.2175   21.0961 F   0  0  0  0  0  0
  -21.5654   -3.4539   25.7725 F   0  0  0  0  0  0
  -30.0103  -13.3716   20.4256 N   0  0  0  0  0  0
  -26.2921  -12.9382   20.3191 N   0  0  0  0  0  0
  -25.9283  -11.6537   20.5634 N   0  0  0  0  0  0
  -22.0454  -12.8242   22.0413 N   0  0  0  0  0  0
  -25.4161  -15.1913   20.4031 N   0  0  0  0  0  0
  -31.8122  -14.6929   20.0300 O   0  0  0  0  0  0
  -21.6655   -6.8889   21.4244 O   0  0  0  0  0  0
  -22.3448  -14.5523   20.6649 O   0  0  0  0  0  0
  -24.6208  -31.8612   23.2017 C   0  0  0  0  0  0
  -25.9088  -32.4769   23.8327 C   0  0  1  0  0  0
  -27.2463  -27.3740   20.0782 C   0  0  0  0  0  0
  -25.5921  -33.8568   24.2250 N   0  0  0  0  0  0
  -23.4120  -30.4848   21.5420 C   0  0  2  0  0  0
  -24.8573  -28.9397   20.1128 C   0  0  0  0  0  0
  -22.7431  -29.4644   22.4946 C   0  0  0  0  0  0
  -18.0282  -28.1370   22.8479 C   0  0  0  0  0  0
  -24.1487  -36.7295   23.2640 C   0  0  0  0  0  0
  -25.9478  -30.8085   21.3616 C   0  0  0  0  0  0
  -26.0253  -29.4392   20.7029 C   0  0  0  0  0  0
  -27.2162  -28.6665   20.6790 C   0  0  0  0  0  0
  -26.0392  -26.8976   19.5108 C   0  0  0  0  0  0
  -24.8632  -27.6693   19.5175 C   0  0  0  0  0  0
  -23.6221  -29.8107   20.1603 C   0  0  0  0  0  0
  -25.4113  -36.3073   24.0329 C   0  0  1  0  0  0
  -20.5873  -28.3665   23.1286 C   0  0  2  0  0  0
  -20.6762  -26.9387   22.5423 C   0  0  0  0  0  0
  -19.5759  -26.6361   21.5208 C   0  0  0  0  0  0
  -18.1927  -26.7911   22.1604 C   0  0  0  0  0  0
  -19.1527  -28.8839   23.2879 C   0  0  0  0  0  0
  -18.9458  -30.1434   23.8899 C   0  0  0  0  0  0
  -17.6468  -30.6579   24.0542 C   0  0  0  0  0  0
  -25.9062  -34.9447   23.5089 C   0  0  0  0  0  0
  -16.5352  -29.9087   23.6320 C   0  0  0  0  0  0
  -16.7268  -28.6494   23.0351 C   0  0  0  0  0  0
  -26.4487  -31.6585   25.0698 C   0  0  0  0  0  0
  -25.3723  -31.3736   26.1433 C   0  0  0  0  0  0
  -27.0325  -30.3007   24.6136 C   0  0  0  0  0  0
  -27.6033  -32.4324   25.7487 C   0  0  0  0  0  0
  -27.5586  -37.1788   24.8447 C   0  0  0  0  0  0
  -21.4155  -29.3029   22.3678 N   0  0  0  0  0  0
  -26.4271  -37.3784   23.9427 N   0  0  0  0  0  0
  -24.6797  -31.0670   22.0934 N   0  0  0  0  0  0
  -23.4179  -28.8189   23.3010 O   0  0  0  0  0  0
  -28.4145  -26.6074   20.1272 O   0  0  0  0  0  0
  -26.5628  -34.8924   22.4653 O   0  0  0  0  0  0
  -23.5387  -32.1384   23.7385 O   0  0  0  0  0  0
  -29.1735  -16.5187   18.9118 C   0  0  0  0  0  0
  -29.6146  -16.7551   20.1983 C   0  0  0  0  0  0
  -29.1406  -18.9293   19.4724 C   0  0  0  0  0  0
  -28.7483  -22.7811   19.4691 C   0  0  0  0  0  0
  -29.0924  -21.4165   20.2155 C   0  0  0  0  0  0
  -29.9858  -15.7626   22.4295 C   0  0  0  0  0  0
  -29.8551  -13.8917   24.2137 C   0  0  0  0  0  0
  -28.8134  -24.1408   20.2363 C   0  0  0  0  0  0
  -30.7657  -14.8038   23.3712 C   0  0  0  0  0  0
  -28.6197  -25.4520   19.3817 C   0  0  2  0  0  0
  -29.5887  -18.1632   20.5000 N   0  0  0  0  0  0
  -28.9738  -20.3590   19.3772 N   0  0  0  0  0  0
  -30.0514  -15.6503   21.0685 N   0  0  0  0  0  0
  -28.4030  -22.7541   18.2796 O   0  0  0  0  0  0
  -29.4185  -21.3573   21.4063 O   0  0  0  0  0  0
  -29.2723  -16.6050   22.9869 O   0  0  0  0  0  0
  -29.7408  -25.6259   18.6347 F   0  0  0  0  0  0
  -28.7285  -17.9695   18.0602 S   0  0  0  0  0  0
  -31.4578  -12.4247   19.1490 H   0  0  0  0  0  0
  -30.2950  -11.3480   19.8664 H   0  0  0  0  0  0
  -29.7448  -11.7406   17.4615 H   0  0  0  0  0  0
  -29.6839  -13.4563   17.7230 H   0  0  0  0  0  0
  -27.8029  -11.3211   18.7755 H   0  0  0  0  0  0
  -27.3784  -12.6631   17.7549 H   0  0  0  0  0  0
  -27.6590  -14.2607   19.5313 H   0  0  0  0  0  0
  -28.6649  -12.0326   21.3516 H   0  0  0  0  0  0
  -28.3976  -13.6909   21.8052 H   0  0  0  0  0  0
  -25.2753   -9.5747   22.4744 H   0  0  0  0  0  0
  -24.0084   -7.4630   22.7440 H   0  0  0  0  0  0
  -21.0875   -8.8740   19.8931 H   0  0  0  0  0  0
  -22.3678  -10.9673   19.6180 H   0  0  0  0  0  0
  -21.1972   -7.6143   23.9742 H   0  0  0  0  0  0
  -21.1506   -6.0502   25.9078 H   0  0  0  0  0  0
  -22.0591   -2.7635   23.2795 H   0  0  0  0  0  0
  -22.4092  -11.9909   22.4787 H   0  0  0  0  0  0
  -21.1076  -13.1263   22.2658 H   0  0  0  0  0  0
  -24.6404  -15.8355   20.5047 H   0  0  0  0  0  0
  -26.2736  -15.6460   20.1162 H   0  0  0  0  0  0
  -26.7161  -32.5470   23.1089 H   0  0  0  0  0  0
  -25.0033  -33.9704   25.0361 H   0  0  0  0  0  0
  -22.7034  -31.3038   21.3968 H   0  0  0  0  0  0
  -23.3757  -35.9618   23.3244 H   0  0  0  0  0  0
  -24.3585  -36.8969   22.2067 H   0  0  0  0  0  0
  -23.7219  -37.6471   23.6692 H   0  0  0  0  0  0
  -26.0734  -31.5772   20.5972 H   0  0  0  0  0  0
  -26.8313  -30.8550   21.9881 H   0  0  0  0  0  0
  -28.1172  -29.0520   21.1365 H   0  0  0  0  0  0
  -25.9497  -25.9135   19.0798 H   0  0  0  0  0  0
  -23.9595  -27.2663   19.0805 H   0  0  0  0  0  0
  -23.7281  -30.5790   19.3934 H   0  0  0  0  0  0
  -22.7464  -29.2287   19.8692 H   0  0  0  0  0  0
  -25.1283  -36.1903   25.0815 H   0  0  0  0  0  0
  -20.9978  -28.3256   24.1404 H   0  0  0  0  0  0
  -20.5620  -26.2298   23.3631 H   0  0  0  0  0  0
  -21.6638  -26.7406   22.1247 H   0  0  0  0  0  0
  -19.6910  -25.6263   21.1260 H   0  0  0  0  0  0
  -19.6701  -27.3149   20.6724 H   0  0  0  0  0  0
  -17.4202  -26.6656   21.3992 H   0  0  0  0  0  0
  -18.0319  -26.0052   22.8999 H   0  0  0  0  0  0
  -19.7952  -30.7222   24.2286 H   0  0  0  0  0  0
  -17.5044  -31.6267   24.5132 H   0  0  0  0  0  0
  -15.5357  -30.2988   23.7651 H   0  0  0  0  0  0
  -15.8664  -28.0818   22.7066 H   0  0  0  0  0  0
  -24.5865  -30.7127   25.7761 H   0  0  0  0  0  0
  -24.8972  -32.2924   26.4881 H   0  0  0  0  0  0
  -25.8062  -30.8883   27.0182 H   0  0  0  0  0  0
  -26.2889  -29.6764   24.1173 H   0  0  0  0  0  0
  -27.4027  -29.7268   25.4639 H   0  0  0  0  0  0
  -27.8755  -30.4277   23.9338 H   0  0  0  0  0  0
  -27.2611  -33.3604   26.2075 H   0  0  0  0  0  0
  -28.3858  -32.6910   25.0344 H   0  0  0  0  0  0
  -28.0681  -31.8443   26.5406 H   0  0  0  0  0  0
  -28.2547  -38.0143   24.7567 H   0  0  0  0  0  0
  -28.1124  -36.2671   24.6146 H   0  0  0  0  0  0
  -27.2320  -37.1302   25.8850 H   0  0  0  0  0  0
  -20.9319  -29.8765   21.6903 H   0  0  0  0  0  0
  -26.0136  -38.2838   24.1477 H   0  0  0  0  0  0
  -29.0764  -15.5825   18.3809 H   0  0  0  0  0  0
  -30.3919  -13.5240   25.0871 H   0  0  0  0  0  0
  -29.5258  -13.0154   23.6549 H   0  0  0  0  0  0
  -28.9643  -14.4130   24.5710 H   0  0  0  0  0  0
  -29.7737  -24.1855   20.7471 H   0  0  0  0  0  0
  -28.0520  -24.1082   21.0116 H   0  0  0  0  0  0
  -31.3205  -15.4450   24.0552 H   0  0  0  0  0  0
  -31.5375  -14.2066   22.8868 H   0  0  0  0  0  0
  -27.8257  -25.2886   18.6603 H   0  0  0  0  0  0
  -28.6739  -20.6777   18.4634 H   0  0  0  0  0  0
  1 25  1  0  0  0
  1 30  2  0  0  0
  1 83  1  0  0  0
  2  3  1  0  0  0
  2 25  1  0  0  0
  2 89  1  0  0  0
  2 90  1  0  0  0
  3  4  1  0  0  0
  3 91  1  0  0  0
  3 92  1  0  0  0
  4  5  1  0  0  0
  4 93  1  0  0  0
  4 94  1  0  0  0
  5  6  1  0  0  0
  5 26  1  0  0  0
  5 95  1  0  0  0
  6 25  1  0  0  0
  6 96  1  0  0  0
  6 97  1  0  0  0
  7  8  2  0  0  0
  7 26  1  0  0  0
  7 29  1  0  0  0
  8  9  1  0  0  0
  8 22  1  0  0  0
  9 10  1  0  0  0
  9 27  2  0  0  0
 10 11  2  0  0  0
 10 15  1  0  0  0
 11 12  1  0  0  0
 11 98  1  0  0  0
 12 13  2  0  0  0
 12 99  1  0  0  0
 13 14  1  0  0  0
 13 31  1  0  0  0
 14 15  2  0  0  0
 14100  1  0  0  0
 15101  1  0  0  0
 16 17  2  0  0  0
 16 21  1  0  0  0
 16 31  1  0  0  0
 17 18  1  0  0  0
 17102  1  0  0  0
 18 19  2  0  0  0
 18103  1  0  0  0
 19 20  1  0  0  0
 19 24  1  0  0  0
 20 21  2  0  0  0
 20104  1  0  0  0
 21 23  1  0  0  0
 22 28  1  0  0  0
 22 32  2  0  0  0
 26 27  1  0  0  0
 28105  1  0  0  0
 28106  1  0  0  0
 29107  1  0  0  0
 29108  1  0  0  0
 33 34  1  0  0  0
 33 66  1  0  0  0
 33 70  2  0  0  0
 34 36  1  0  0  0
 34 59  1  0  0  0
 34109  1  0  0  0
 35 44  2  0  0  0
 35 45  1  0  0  0
 35 68  1  0  0  0
 36 56  1  0  0  0
 36110  1  0  0  0
 37 39  1  0  0  0
 37 47  1  0  0  0
 37 66  1  0  0  0
 37111  1  0  0  0
 38 43  2  0  0  0
 38 46  1  0  0  0
 38 47  1  0  0  0
 39 64  1  0  0  0
 39 67  2  0  0  0
 40 52  1  0  0  0
 40 53  2  0  0  0
 40 58  1  0  0  0
 41112  1  0  0  0
 41113  1  0  0  0
 41114  1  0  0  0
 41 48  1  0  0  0
 42 43  1  0  0  0
 42 66  1  0  0  0
 42115  1  0  0  0
 42116  1  0  0  0
 43 44  1  0  0  0
 44117  1  0  0  0
 45 46  2  0  0  0
 45118  1  0  0  0
 46119  1  0  0  0
 47120  1  0  0  0
 47121  1  0  0  0
 48 56  1  0  0  0
 48 65  1  0  0  0
 48122  1  0  0  0
 49 50  1  0  0  0
 49 53  1  0  0  0
 49 64  1  0  0  0
 49123  1  0  0  0
 50 51  1  0  0  0
 50124  1  0  0  0
 50125  1  0  0  0
 51 52  1  0  0  0
 51126  1  0  0  0
 51127  1  0  0  0
 52128  1  0  0  0
 52129  1  0  0  0
 53 54  1  0  0  0
 54 55  2  0  0  0
 54130  1  0  0  0
 55 57  1  0  0  0
 55131  1  0  0  0
 56 69  2  0  0  0
 57 58  2  0  0  0
 57132  1  0  0  0
 58133  1  0  0  0
 59 60  1  0  0  0
 59 61  1  0  0  0
 59 62  1  0  0  0
 60134  1  0  0  0
 60135  1  0  0  0
 60136  1  0  0  0
 61137  1  0  0  0
 61138  1  0  0  0
 61139  1  0  0  0
 62140  1  0  0  0
 62141  1  0  0  0
 62142  1  0  0  0
 63 65  1  0  0  0
 63143  1  0  0  0
 63144  1  0  0  0
 63145  1  0  0  0
 64146  1  0  0  0
 65147  1  0  0  0
 68 80  1  0  0  0
 71 72  2  0  0  0
 71 88  1  0  0  0
 71148  1  0  0  0
 72 81  1  0  0  0
 72 83  1  0  0  0
 73 81  2  0  0  0
 73 82  1  0  0  0
 73 88  1  0  0  0
 74 75  1  0  0  0
 74 78  1  0  0  0
 74 84  2  0  0  0
 75 82  1  0  0  0
 75 85  2  0  0  0
 76 79  1  0  0  0
 76 83  1  0  0  0
 76 86  2  0  0  0
 77 79  1  0  0  0
 77149  1  0  0  0
 77150  1  0  0  0
 77151  1  0  0  0
 78 80  1  0  0  0
 78152  1  0  0  0
 78153  1  0  0  0
 79154  1  0  0  0
 79155  1  0  0  0
 80 87  1  0  0  0
 80156  1  0  0  0
 82157  1  0  0  0
M  ISO  4   1 100  68 101  80 101  83 100
M  END
> <chiral flag>
0

> <version>
0

> <s_m_source_file>
/data/baiqing/PycharmProjects/Reinvent-master-3.2/result/LINK_invent/BTK/process_docking_weight1_custom_product_contain_oxygen_bond_distance_aromatic_linkinvent_7_9_3/rearranged_h_0176.sdf

> <i_m_source_file_index>
14

> <r_mmod_Potential_Energy-OPLS-2005>
20.071720123291

> <r_mmod_Stretch_Energy-OPLS-2005>
70.650146484375

> <r_mmod_Bend_Energy-OPLS-2005>
164.646942138672

> <r_mmod_Torsional_Energy-OPLS-2005>
255.219131469727

> <r_mmod_Improper_Torsional_Energy-OPLS-2005>
3.03352689743042

> <r_mmod_Van_der_Waal_Energy-OPLS-2005>
140.768692016602

> <r_mmod_Electrostatic_Energy-OPLS-2005>
-406.148284912109

> <r_mmod_Solvation_Energy-OPLS-2005>
-235.387084960938

> <b_mmod_Minimization_Converged-OPLS-2005>
0

> <r_mmod_RMS_Derivative-OPLS-2005>
4.20557928085327

$$$$
14
                    3D
 Structure written by MMmdl.
157165  0  0  1  0            999 V2000
  -30.7523  -14.6132   20.3825 C   0  0  0  0  0  0
  -30.4242  -12.3553   19.4574 C   0  0  0  0  0  0
  -29.5024  -12.4562   18.2272 C   0  0  0  0  0  0
  -28.0300  -12.3142   18.6566 C   0  0  0  0  0  0
  -27.6583  -13.2295   19.8512 C   0  0  2  0  0  0
  -28.7197  -13.1715   20.9730 C   0  0  0  0  0  0
  -25.2627  -13.8227   20.5695 C   0  0  0  0  0  0
  -24.1899  -13.0455   20.9214 C   0  0  0  0  0  0
  -24.6467  -11.6933   20.8796 C   0  0  0  0  0  0
  -23.9127  -10.4295   21.0436 C   0  0  0  0  0  0
  -24.3656   -9.4220   21.9210 C   0  0  0  0  0  0
  -23.6316   -8.2250   22.0777 C   0  0  0  0  0  0
  -22.4303   -8.0260   21.3557 C   0  0  0  0  0  0
  -21.9945   -9.0273   20.4634 C   0  0  0  0  0  0
  -22.7309  -10.2155   20.3058 C   0  0  0  0  0  0
  -21.6845   -6.0759   22.5279 C   0  0  0  0  0  0
  -21.4015   -6.5661   23.8224 C   0  0  0  0  0  0
  -21.3662   -5.6798   24.9161 C   0  0  0  0  0  0
  -21.6035   -4.3081   24.7213 C   0  0  0  0  0  0
  -21.8819   -3.8173   23.4349 C   0  0  0  0  0  0
  -21.9201   -4.6976   22.3395 C   0  0  0  0  0  0
  -22.7883  -13.5204   21.1855 C   0  0  0  0  0  0
  -22.1664   -4.2178   21.0982 F   0  0  0  0  0  0
  -21.5618   -3.4546   25.7737 F   0  0  0  0  0  0
  -30.0422  -13.4369   20.3809 N   0  0  0  0  0  0
  -26.3080  -12.9409   20.3398 N   0  0  0  0  0  0
  -25.9426  -11.6582   20.5814 N   0  0  0  0  0  0
  -22.0516  -12.8175   22.0371 N   0  0  0  0  0  0
  -25.4269  -15.1895   20.4034 N   0  0  0  0  0  0
  -31.9472  -14.6357   20.0891 O   0  0  0  0  0  0
  -21.6645   -6.8913   21.4254 O   0  0  0  0  0  0
  -22.3567  -14.5516   20.6673 O   0  0  0  0  0  0
  -24.6148  -31.8580   23.2075 C   0  0  0  0  0  0
  -25.8997  -32.4904   23.8362 C   0  0  1  0  0  0
  -27.2125  -27.3757   20.1329 C   0  0  0  0  0  0
  -25.5896  -33.8681   24.2281 N   0  0  0  0  0  0
  -23.4247  -30.4896   21.5460 C   0  0  2  0  0  0
  -24.8508  -28.9568   20.1148 C   0  0  0  0  0  0
  -22.7522  -29.4641   22.4886 C   0  0  0  0  0  0
  -18.0275  -28.1394   22.8369 C   0  0  0  0  0  0
  -24.1453  -36.7303   23.2680 C   0  0  0  0  0  0
  -25.9547  -30.8133   21.3810 C   0  0  0  0  0  0
  -26.0213  -29.4582   20.7026 C   0  0  0  0  0  0
  -27.2042  -28.6800   20.6895 C   0  0  0  0  0  0
  -26.0242  -26.9025   19.5360 C   0  0  0  0  0  0
  -24.8551  -27.6786   19.5284 C   0  0  0  0  0  0
  -23.6328  -29.8412   20.1632 C   0  0  0  0  0  0
  -25.4066  -36.3139   24.0353 C   0  0  1  0  0  0
  -20.5902  -28.3683   23.1233 C   0  0  2  0  0  0
  -20.6739  -26.9395   22.5414 C   0  0  0  0  0  0
  -19.5739  -26.6384   21.5225 C   0  0  0  0  0  0
  -18.1895  -26.7937   22.1551 C   0  0  0  0  0  0
  -19.1516  -28.8819   23.2851 C   0  0  0  0  0  0
  -18.9474  -30.1428   23.8833 C   0  0  0  0  0  0
  -17.6483  -30.6553   24.0510 C   0  0  0  0  0  0
  -25.9054  -34.9527   23.5088 C   0  0  0  0  0  0
  -16.5340  -29.9060   23.6371 C   0  0  0  0  0  0
  -16.7277  -28.6488   23.0360 C   0  0  0  0  0  0
  -26.4401  -31.6789   25.0783 C   0  0  0  0  0  0
  -25.3641  -31.3952   26.1566 C   0  0  0  0  0  0
  -27.0403  -30.3151   24.6448 C   0  0  0  0  0  0
  -27.5953  -32.4611   25.7583 C   0  0  0  0  0  0
  -27.5548  -37.1732   24.8449 C   0  0  0  0  0  0
  -21.4179  -29.3038   22.3580 N   0  0  0  0  0  0
  -26.4218  -37.3807   23.9427 N   0  0  0  0  0  0
  -24.6823  -31.0808   22.0923 N   0  0  0  0  0  0
  -23.4199  -28.8069   23.2945 O   0  0  0  0  0  0
  -28.3606  -26.5986   20.2117 O   0  0  0  0  0  0
  -26.5684  -34.8942   22.4703 O   0  0  0  0  0  0
  -23.5297  -32.1501   23.7286 O   0  0  0  0  0  0
  -30.1660  -18.2639   20.6526 C   0  0  0  0  0  0
  -30.4082  -19.5562   20.0800 C   0  0  0  0  0  0
  -30.9582  -19.5930   18.7842 C   0  0  0  0  0  0
  -30.4166  -17.0638   19.9185 C   0  0  0  0  0  0
  -31.1600  -18.3708   18.1107 C   0  0  0  0  0  0
  -29.6617  -21.9389   20.4732 C   0  0  0  0  0  0
  -27.4029  -24.8807   21.7740 C   0  0  0  0  0  0
  -29.7491  -24.6790   20.6674 C   0  0  0  0  0  0
  -30.2091  -23.2450   21.1370 C   0  0  1  0  0  0
  -28.2609  -25.1722   20.5201 C   0  0  2  0  0  0
  -30.9025  -17.1504   18.6576 N   0  0  0  0  0  0
  -30.2451  -20.7714   20.8475 N   0  0  0  0  0  0
  -30.0750  -15.7874   20.5206 N   0  0  0  0  0  0
  -28.7018  -21.9864   19.6951 O   0  0  0  0  0  0
  -30.3035  -23.1180   22.5546 O   0  0  0  0  0  0
  -31.3300  -20.7708   18.2084 F   0  0  0  0  0  0
  -31.6561  -18.3973   16.8448 F   0  0  0  0  0  0
  -31.4663  -12.4195   19.1520 H   0  0  0  0  0  0
  -30.3351  -11.3792   19.9393 H   0  0  0  0  0  0
  -29.7580  -11.6772   17.5067 H   0  0  0  0  0  0
  -29.6577  -13.4094   17.7237 H   0  0  0  0  0  0
  -27.8770  -11.2721   18.9253 H   0  0  0  0  0  0
  -27.3741  -12.5101   17.8063 H   0  0  0  0  0  0
  -27.6579  -14.2439   19.4606 H   0  0  0  0  0  0
  -28.7154  -12.1928   21.4576 H   0  0  0  0  0  0
  -28.4878  -13.8898   21.7594 H   0  0  0  0  0  0
  -25.2779   -9.5665   22.4816 H   0  0  0  0  0  0
  -24.0000   -7.4633   22.7480 H   0  0  0  0  0  0
  -21.0909   -8.8780   19.8931 H   0  0  0  0  0  0
  -22.3771  -10.9680   19.6169 H   0  0  0  0  0  0
  -21.2008   -7.6160   23.9724 H   0  0  0  0  0  0
  -21.1475   -6.0534   25.9066 H   0  0  0  0  0  0
  -22.0602   -2.7639   23.2825 H   0  0  0  0  0  0
  -22.4103  -11.9828   22.4761 H   0  0  0  0  0  0
  -21.1130  -13.1204   22.2538 H   0  0  0  0  0  0
  -24.6493  -15.8347   20.4688 H   0  0  0  0  0  0
  -26.2675  -15.6237   20.0394 H   0  0  0  0  0  0
  -26.7100  -32.5393   23.1191 H   0  0  0  0  0  0
  -24.9998  -33.9920   25.0363 H   0  0  0  0  0  0
  -22.7098  -31.3039   21.4024 H   0  0  0  0  0  0
  -23.3795  -35.9600   23.3415 H   0  0  0  0  0  0
  -24.3513  -36.8911   22.2113 H   0  0  0  0  0  0
  -23.7121  -37.6457   23.6649 H   0  0  0  0  0  0
  -26.1312  -31.6033   20.6507 H   0  0  0  0  0  0
  -26.8199  -30.8141   22.0234 H   0  0  0  0  0  0
  -28.1037  -29.0583   21.1481 H   0  0  0  0  0  0
  -25.9880  -25.9119   19.1034 H   0  0  0  0  0  0
  -23.9529  -27.2829   19.0843 H   0  0  0  0  0  0
  -23.7648  -30.6331   19.4247 H   0  0  0  0  0  0
  -22.7347  -29.3149   19.8384 H   0  0  0  0  0  0
  -25.1230  -36.2032   25.0858 H   0  0  0  0  0  0
  -20.9935  -28.3220   24.1439 H   0  0  0  0  0  0
  -20.5677  -26.2266   23.3593 H   0  0  0  0  0  0
  -21.6554  -26.7473   22.1118 H   0  0  0  0  0  0
  -19.7001  -25.6348   21.1251 H   0  0  0  0  0  0
  -19.6713  -27.3152   20.6742 H   0  0  0  0  0  0
  -17.4199  -26.6737   21.3984 H   0  0  0  0  0  0
  -18.0146  -26.0158   22.8985 H   0  0  0  0  0  0
  -19.8026  -30.7188   24.2185 H   0  0  0  0  0  0
  -17.5122  -31.6254   24.5086 H   0  0  0  0  0  0
  -15.5352  -30.2894   23.7825 H   0  0  0  0  0  0
  -15.8723  -28.0811   22.7083 H   0  0  0  0  0  0
  -24.5600  -30.7571   25.7883 H   0  0  0  0  0  0
  -24.9121  -32.3198   26.5122 H   0  0  0  0  0  0
  -25.7869  -30.8925   27.0284 H   0  0  0  0  0  0
  -26.3034  -29.6743   24.1535 H   0  0  0  0  0  0
  -27.4199  -29.7503   25.5044 H   0  0  0  0  0  0
  -27.8863  -30.4602   23.9686 H   0  0  0  0  0  0
  -27.2487  -33.3899   26.2146 H   0  0  0  0  0  0
  -28.3704  -32.7294   25.0387 H   0  0  0  0  0  0
  -28.0766  -31.8881   26.5571 H   0  0  0  0  0  0
  -28.2507  -38.0091   24.7532 H   0  0  0  0  0  0
  -28.1110  -36.2553   24.6205 H   0  0  0  0  0  0
  -27.2272  -37.1373   25.8878 H   0  0  0  0  0  0
  -20.9199  -29.8828   21.6925 H   0  0  0  0  0  0
  -26.0177  -38.2910   24.1483 H   0  0  0  0  0  0
  -29.7786  -18.1887   21.6496 H   0  0  0  0  0  0
  -27.3270  -23.8040   21.9355 H   0  0  0  0  0  0
  -26.3827  -25.2383   21.6418 H   0  0  0  0  0  0
  -27.8170  -25.3362   22.6876 H   0  0  0  0  0  0
  -30.2355  -24.8256   19.7020 H   0  0  0  0  0  0
  -30.2475  -25.3952   21.3249 H   0  0  0  0  0  0
  -31.2539  -23.2568   20.8293 H   0  0  0  0  0  0
  -27.8006  -24.6689   19.6723 H   0  0  0  0  0  0
  -30.7553  -20.8149   21.7194 H   0  0  0  0  0  0
  -29.1719  -15.7628   20.9552 H   0  0  0  0  0  0
  -29.4482  -23.2549   22.9486 H   0  0  0  0  0  0
  1 25  1  0  0  0
  1 30  2  0  0  0
  1 83  1  0  0  0
  2  3  1  0  0  0
  2 25  1  0  0  0
  2 88  1  0  0  0
  2 89  1  0  0  0
  3  4  1  0  0  0
  3 90  1  0  0  0
  3 91  1  0  0  0
  4  5  1  0  0  0
  4 92  1  0  0  0
  4 93  1  0  0  0
  5  6  1  0  0  0
  5 26  1  0  0  0
  5 94  1  0  0  0
  6 25  1  0  0  0
  6 95  1  0  0  0
  6 96  1  0  0  0
  7  8  2  0  0  0
  7 26  1  0  0  0
  7 29  1  0  0  0
  8  9  1  0  0  0
  8 22  1  0  0  0
  9 10  1  0  0  0
  9 27  2  0  0  0
 10 11  2  0  0  0
 10 15  1  0  0  0
 11 12  1  0  0  0
 11 97  1  0  0  0
 12 13  2  0  0  0
 12 98  1  0  0  0
 13 14  1  0  0  0
 13 31  1  0  0  0
 14 15  2  0  0  0
 14 99  1  0  0  0
 15100  1  0  0  0
 16 17  2  0  0  0
 16 21  1  0  0  0
 16 31  1  0  0  0
 17 18  1  0  0  0
 17101  1  0  0  0
 18 19  2  0  0  0
 18102  1  0  0  0
 19 20  1  0  0  0
 19 24  1  0  0  0
 20 21  2  0  0  0
 20103  1  0  0  0
 21 23  1  0  0  0
 22 28  1  0  0  0
 22 32  2  0  0  0
 26 27  1  0  0  0
 28104  1  0  0  0
 28105  1  0  0  0
 29106  1  0  0  0
 29107  1  0  0  0
 33 34  1  0  0  0
 33 66  1  0  0  0
 33 70  2  0  0  0
 34 36  1  0  0  0
 34 59  1  0  0  0
 34108  1  0  0  0
 35 44  2  0  0  0
 35 45  1  0  0  0
 35 68  1  0  0  0
 36 56  1  0  0  0
 36109  1  0  0  0
 37 39  1  0  0  0
 37 47  1  0  0  0
 37 66  1  0  0  0
 37110  1  0  0  0
 38 43  2  0  0  0
 38 46  1  0  0  0
 38 47  1  0  0  0
 39 64  1  0  0  0
 39 67  2  0  0  0
 40 52  1  0  0  0
 40 53  2  0  0  0
 40 58  1  0  0  0
 41111  1  0  0  0
 41112  1  0  0  0
 41113  1  0  0  0
 41 48  1  0  0  0
 42 43  1  0  0  0
 42 66  1  0  0  0
 42114  1  0  0  0
 42115  1  0  0  0
 43 44  1  0  0  0
 44116  1  0  0  0
 45 46  2  0  0  0
 45117  1  0  0  0
 46118  1  0  0  0
 47119  1  0  0  0
 47120  1  0  0  0
 48 56  1  0  0  0
 48 65  1  0  0  0
 48121  1  0  0  0
 49 50  1  0  0  0
 49 53  1  0  0  0
 49 64  1  0  0  0
 49122  1  0  0  0
 50 51  1  0  0  0
 50123  1  0  0  0
 50124  1  0  0  0
 51 52  1  0  0  0
 51125  1  0  0  0
 51126  1  0  0  0
 52127  1  0  0  0
 52128  1  0  0  0
 53 54  1  0  0  0
 54 55  2  0  0  0
 54129  1  0  0  0
 55 57  1  0  0  0
 55130  1  0  0  0
 56 69  2  0  0  0
 57 58  2  0  0  0
 57131  1  0  0  0
 58132  1  0  0  0
 59 60  1  0  0  0
 59 61  1  0  0  0
 59 62  1  0  0  0
 60133  1  0  0  0
 60134  1  0  0  0
 60135  1  0  0  0
 61136  1  0  0  0
 61137  1  0  0  0
 61138  1  0  0  0
 62139  1  0  0  0
 62140  1  0  0  0
 62141  1  0  0  0
 63 65  1  0  0  0
 63142  1  0  0  0
 63143  1  0  0  0
 63144  1  0  0  0
 64145  1  0  0  0
 65146  1  0  0  0
 68 80  1  0  0  0
 71 72  2  0  0  0
 71 74  1  0  0  0
 71147  1  0  0  0
 72 73  1  0  0  0
 72 82  1  0  0  0
 73 75  2  0  0  0
 73 86  1  0  0  0
 74 81  2  0  0  0
 74 83  1  0  0  0
 75 81  1  0  0  0
 75 87  1  0  0  0
 76 79  1  0  0  0
 76 82  1  0  0  0
 76 84  2  0  0  0
 77148  1  0  0  0
 77149  1  0  0  0
 77150  1  0  0  0
 77 80  1  0  0  0
 78 79  1  0  0  0
 78 80  1  0  0  0
 78151  1  0  0  0
 78152  1  0  0  0
 79 85  1  0  0  0
 79153  1  0  0  0
 80154  1  0  0  0
 82155  1  0  0  0
 83156  1  0  0  0
 85157  1  0  0  0
M  ISO  4   1 100  68 101  80 101  83 100
M  END
> <chiral flag>
0

> <version>
0

> <s_m_source_file>
/data/baiqing/PycharmProjects/Reinvent-master-3.2/result/LINK_invent/BTK/process_docking_weight1_custom_product_contain_oxygen_bond_distance_aromatic_linkinvent_7_9_3/rearranged_h_0176.sdf

> <i_m_source_file_index>
15

> <r_mmod_Potential_Energy-OPLS-2005>
-61.192024230957

> <r_mmod_Stretch_Energy-OPLS-2005>
60.2756195068359

> <r_mmod_Bend_Energy-OPLS-2005>
149.5380859375

> <r_mmod_Torsional_Energy-OPLS-2005>
279.621215820312

> <r_mmod_Improper_Torsional_Energy-OPLS-2005>
6.46628761291504

> <r_mmod_Van_der_Waal_Energy-OPLS-2005>
142.07666015625

> <r_mmod_Electrostatic_Energy-OPLS-2005>
-496.453033447266

> <r_mmod_Solvation_Energy-OPLS-2005>
-252.568588256836

> <b_mmod_Minimization_Converged-OPLS-2005>
0

> <r_mmod_RMS_Derivative-OPLS-2005>
15.3440961837769

$$$$
15
                    3D
 Structure written by MMmdl.
154162  0  0  1  0            999 V2000
  -30.6466  -14.5318   20.5695 C   0  0  0  0  0  0
  -30.4432  -12.3443   19.4242 C   0  0  0  0  0  0
  -29.5014  -12.5186   18.2115 C   0  0  0  0  0  0
  -28.0223  -12.3672   18.6221 C   0  0  0  0  0  0
  -27.6656  -13.2034   19.8802 C   0  0  2  0  0  0
  -28.7082  -12.9711   20.9986 C   0  0  0  0  0  0
  -25.2620  -13.8150   20.5697 C   0  0  0  0  0  0
  -24.1862  -13.0443   20.9202 C   0  0  0  0  0  0
  -24.6418  -11.6903   20.8762 C   0  0  0  0  0  0
  -23.9085  -10.4301   21.0426 C   0  0  0  0  0  0
  -24.3634   -9.4193   21.9193 C   0  0  0  0  0  0
  -23.6302   -8.2234   22.0751 C   0  0  0  0  0  0
  -22.4268   -8.0296   21.3551 C   0  0  0  0  0  0
  -21.9925   -9.0264   20.4639 C   0  0  0  0  0  0
  -22.7273  -10.2135   20.3057 C   0  0  0  0  0  0
  -21.6849   -6.0756   22.5295 C   0  0  0  0  0  0
  -21.4016   -6.5645   23.8231 C   0  0  0  0  0  0
  -21.3653   -5.6789   24.9192 C   0  0  0  0  0  0
  -21.6039   -4.3060   24.7240 C   0  0  0  0  0  0
  -21.8811   -3.8164   23.4353 C   0  0  0  0  0  0
  -21.9191   -4.6987   22.3411 C   0  0  0  0  0  0
  -22.7883  -13.5241   21.1860 C   0  0  0  0  0  0
  -22.1646   -4.2178   21.0984 F   0  0  0  0  0  0
  -21.5623   -3.4542   25.7746 F   0  0  0  0  0  0
  -30.0360  -13.3158   20.4543 N   0  0  0  0  0  0
  -26.3050  -12.9304   20.3398 N   0  0  0  0  0  0
  -25.9345  -11.6474   20.5787 N   0  0  0  0  0  0
  -22.0524  -12.8220   22.0405 N   0  0  0  0  0  0
  -25.4381  -15.1874   20.4099 N   0  0  0  0  0  0
  -31.7477  -14.7787   20.0691 O   0  0  0  0  0  0
  -21.6625   -6.8893   21.4249 O   0  0  0  0  0  0
  -22.3546  -14.5537   20.6702 O   0  0  0  0  0  0
  -24.6229  -31.8609   23.2067 C   0  0  0  0  0  0
  -25.9107  -32.4768   23.8376 C   0  0  1  0  0  0
  -27.2412  -27.3996   20.1002 C   0  0  0  0  0  0
  -25.5938  -33.8562   24.2307 N   0  0  0  0  0  0
  -23.4130  -30.4886   21.5430 C   0  0  2  0  0  0
  -24.8626  -28.9447   20.1157 C   0  0  0  0  0  0
  -22.7398  -29.4702   22.4939 C   0  0  0  0  0  0
  -18.0264  -28.1398   22.8489 C   0  0  0  0  0  0
  -24.1488  -36.7301   23.2638 C   0  0  0  0  0  0
  -25.9461  -30.8176   21.3665 C   0  0  0  0  0  0
  -26.0254  -29.4502   20.7129 C   0  0  0  0  0  0
  -27.2210  -28.6856   20.7033 C   0  0  0  0  0  0
  -26.0652  -26.9198   19.4927 C   0  0  0  0  0  0
  -24.8796  -27.6796   19.5018 C   0  0  0  0  0  0
  -23.6246  -29.8134   20.1629 C   0  0  0  0  0  0
  -25.4101  -36.3073   24.0335 C   0  0  1  0  0  0
  -20.5861  -28.3723   23.1265 C   0  0  2  0  0  0
  -20.6771  -26.9450   22.5411 C   0  0  0  0  0  0
  -19.5752  -26.6392   21.5213 C   0  0  0  0  0  0
  -18.1916  -26.7937   22.1610 C   0  0  0  0  0  0
  -19.1517  -28.8871   23.2879 C   0  0  0  0  0  0
  -18.9459  -30.1464   23.8915 C   0  0  0  0  0  0
  -17.6461  -30.6614   24.0574 C   0  0  0  0  0  0
  -25.9033  -34.9446   23.5109 C   0  0  0  0  0  0
  -16.5340  -29.9113   23.6349 C   0  0  0  0  0  0
  -16.7255  -28.6526   23.0369 C   0  0  0  0  0  0
  -26.4526  -31.6556   25.0713 C   0  0  0  0  0  0
  -25.3778  -31.3669   26.1442 C   0  0  0  0  0  0
  -27.0395  -30.2972   24.6195 C   0  0  0  0  0  0
  -27.6082  -32.4286   25.7495 C   0  0  0  0  0  0
  -27.5574  -37.1771   24.8454 C   0  0  0  0  0  0
  -21.4122  -29.3084   22.3645 N   0  0  0  0  0  0
  -26.4264  -37.3769   23.9437 N   0  0  0  0  0  0
  -24.6784  -31.0698   22.0968 N   0  0  0  0  0  0
  -23.4139  -28.8238   23.3004 O   0  0  0  0  0  0
  -28.3505  -26.5729   20.0912 O   0  0  0  0  0  0
  -26.5608  -34.8915   22.4678 O   0  0  0  0  0  0
  -23.5414  -32.1369   23.7456 O   0  0  0  0  0  0
  -30.5414  -17.6854   20.1224 C   0  0  0  0  0  0
  -28.6402  -18.9573   21.6830 C   0  0  0  0  0  0
  -29.8223  -16.8956   21.0474 C   0  0  0  0  0  0
  -28.8740  -17.5679   21.8394 C   0  0  0  0  0  0
  -29.3973  -19.6793   20.7164 C   0  0  0  0  0  0
  -28.5082  -25.7672   21.2044 C   0  0  0  0  0  0
  -28.8676  -24.4513   21.2767 C   0  0  0  0  0  0
  -29.1346  -23.5245   20.1174 C   0  0  0  0  0  0
  -29.8936  -22.1492   20.3751 C   0  0  0  0  0  0
  -27.6088  -19.6662   22.5623 C   0  0  0  0  0  0
  -30.3341  -19.0238   19.9699 N   0  0  0  0  0  0
  -29.9154  -15.4664   21.2143 N   0  0  0  0  0  0
  -29.0787  -21.0715   20.4938 N   0  0  0  0  0  0
  -28.7822  -23.7977   18.9653 O   0  0  0  0  0  0
  -31.1274  -22.1000   20.4473 O   0  0  0  0  0  0
  -28.9828  -23.9039   22.4986 O   0  0  0  0  0  0
  -28.1771  -16.8302   22.7409 F   0  0  0  0  0  0
  -26.8690  -18.8466   23.3090 F   0  0  0  0  0  0
  -28.2506  -20.5025   23.3785 F   0  0  0  0  0  0
  -26.7711  -20.3752   21.8025 F   0  0  0  0  0  0
  -31.4841  -12.4807   19.1232 H   0  0  0  0  0  0
  -30.3781  -11.3277   19.8154 H   0  0  0  0  0  0
  -29.7470  -11.7907   17.4380 H   0  0  0  0  0  0
  -29.6527  -13.5021   17.7659 H   0  0  0  0  0  0
  -27.8384  -11.3093   18.8193 H   0  0  0  0  0  0
  -27.3701  -12.6397   17.7909 H   0  0  0  0  0  0
  -27.7120  -14.2528   19.5891 H   0  0  0  0  0  0
  -28.6976  -11.9244   21.3087 H   0  0  0  0  0  0
  -28.4555  -13.5321   21.8984 H   0  0  0  0  0  0
  -25.2782   -9.5655   22.4766 H   0  0  0  0  0  0
  -24.0015   -7.4614   22.7458 H   0  0  0  0  0  0
  -21.0863   -8.8798   19.8941 H   0  0  0  0  0  0
  -22.3763  -10.9673   19.6155 H   0  0  0  0  0  0
  -21.1999   -7.6152   23.9756 H   0  0  0  0  0  0
  -21.1468   -6.0519   25.9102 H   0  0  0  0  0  0
  -22.0597   -2.7627   23.2853 H   0  0  0  0  0  0
  -22.4128  -11.9883   22.4801 H   0  0  0  0  0  0
  -21.1140  -13.1215   22.2620 H   0  0  0  0  0  0
  -24.6802  -15.8522   20.5197 H   0  0  0  0  0  0
  -26.2947  -15.6133   20.0797 H   0  0  0  0  0  0
  -26.7188  -32.5474   23.1148 H   0  0  0  0  0  0
  -25.0140  -33.9711   25.0488 H   0  0  0  0  0  0
  -22.7095  -31.3104   21.3938 H   0  0  0  0  0  0
  -23.3747  -35.9625   23.3236 H   0  0  0  0  0  0
  -24.3605  -36.8991   22.2064 H   0  0  0  0  0  0
  -23.7241  -37.6483   23.6698 H   0  0  0  0  0  0
  -26.0701  -31.5853   20.6024 H   0  0  0  0  0  0
  -26.8286  -30.8659   21.9921 H   0  0  0  0  0  0
  -28.1160  -29.0719   21.1706 H   0  0  0  0  0  0
  -26.0663  -25.9431   19.0284 H   0  0  0  0  0  0
  -23.9855  -27.2828   19.0392 H   0  0  0  0  0  0
  -23.7342  -30.5870   19.4028 H   0  0  0  0  0  0
  -22.7482  -29.2326   19.8691 H   0  0  0  0  0  0
  -25.1277  -36.1903   25.0815 H   0  0  0  0  0  0
  -20.9963  -28.3327   24.1371 H   0  0  0  0  0  0
  -20.5684  -26.2343   23.3629 H   0  0  0  0  0  0
  -21.6631  -26.7487   22.1159 H   0  0  0  0  0  0
  -19.6941  -25.6293   21.1268 H   0  0  0  0  0  0
  -19.6713  -27.3198   20.6728 H   0  0  0  0  0  0
  -17.4189  -26.6704   21.4007 H   0  0  0  0  0  0
  -18.0330  -26.0064   22.8995 H   0  0  0  0  0  0
  -19.7934  -30.7281   24.2280 H   0  0  0  0  0  0
  -17.5029  -31.6302   24.5157 H   0  0  0  0  0  0
  -15.5354  -30.3044   23.7677 H   0  0  0  0  0  0
  -15.8642  -28.0873   22.7094 H   0  0  0  0  0  0
  -24.5982  -30.6982   25.7770 H   0  0  0  0  0  0
  -24.8952  -32.2819   26.4875 H   0  0  0  0  0  0
  -25.8123  -30.8851   27.0208 H   0  0  0  0  0  0
  -26.2989  -29.6656   24.1272 H   0  0  0  0  0  0
  -27.4126  -29.7300   25.4737 H   0  0  0  0  0  0
  -27.8836  -30.4225   23.9407 H   0  0  0  0  0  0
  -27.2693  -33.3585   26.2080 H   0  0  0  0  0  0
  -28.3913  -32.6834   25.0332 H   0  0  0  0  0  0
  -28.0738  -31.8400   26.5417 H   0  0  0  0  0  0
  -28.2502  -38.0144   24.7576 H   0  0  0  0  0  0
  -28.1157  -36.2681   24.6157 H   0  0  0  0  0  0
  -27.2327  -37.1271   25.8860 H   0  0  0  0  0  0
  -20.9298  -29.8758   21.6809 H   0  0  0  0  0  0
  -26.0138  -38.2824   24.1484 H   0  0  0  0  0  0
  -31.2757  -17.2497   19.4594 H   0  0  0  0  0  0
  -28.3154  -26.3392   22.1026 H   0  0  0  0  0  0
  -29.1490  -15.0730   21.7414 H   0  0  0  0  0  0
  -28.0946  -21.3027   20.4921 H   0  0  0  0  0  0
  -28.7868  -24.5789   23.1360 H   0  0  0  0  0  0
  1 25  1  0  0  0
  1 30  2  0  0  0
  1 82  1  0  0  0
  2  3  1  0  0  0
  2 25  1  0  0  0
  2 91  1  0  0  0
  2 92  1  0  0  0
  3  4  1  0  0  0
  3 93  1  0  0  0
  3 94  1  0  0  0
  4  5  1  0  0  0
  4 95  1  0  0  0
  4 96  1  0  0  0
  5  6  1  0  0  0
  5 26  1  0  0  0
  5 97  1  0  0  0
  6 25  1  0  0  0
  6 98  1  0  0  0
  6 99  1  0  0  0
  7  8  2  0  0  0
  7 26  1  0  0  0
  7 29  1  0  0  0
  8  9  1  0  0  0
  8 22  1  0  0  0
  9 10  1  0  0  0
  9 27  2  0  0  0
 10 11  2  0  0  0
 10 15  1  0  0  0
 11 12  1  0  0  0
 11100  1  0  0  0
 12 13  2  0  0  0
 12101  1  0  0  0
 13 14  1  0  0  0
 13 31  1  0  0  0
 14 15  2  0  0  0
 14102  1  0  0  0
 15103  1  0  0  0
 16 17  2  0  0  0
 16 21  1  0  0  0
 16 31  1  0  0  0
 17 18  1  0  0  0
 17104  1  0  0  0
 18 19  2  0  0  0
 18105  1  0  0  0
 19 20  1  0  0  0
 19 24  1  0  0  0
 20 21  2  0  0  0
 20106  1  0  0  0
 21 23  1  0  0  0
 22 28  1  0  0  0
 22 32  2  0  0  0
 26 27  1  0  0  0
 28107  1  0  0  0
 28108  1  0  0  0
 29109  1  0  0  0
 29110  1  0  0  0
 33 34  1  0  0  0
 33 66  1  0  0  0
 33 70  2  0  0  0
 34 36  1  0  0  0
 34 59  1  0  0  0
 34111  1  0  0  0
 35 44  2  0  0  0
 35 45  1  0  0  0
 35 68  1  0  0  0
 36 56  1  0  0  0
 36112  1  0  0  0
 37 39  1  0  0  0
 37 47  1  0  0  0
 37 66  1  0  0  0
 37113  1  0  0  0
 38 43  2  0  0  0
 38 46  1  0  0  0
 38 47  1  0  0  0
 39 64  1  0  0  0
 39 67  2  0  0  0
 40 52  1  0  0  0
 40 53  2  0  0  0
 40 58  1  0  0  0
 41114  1  0  0  0
 41115  1  0  0  0
 41116  1  0  0  0
 41 48  1  0  0  0
 42 43  1  0  0  0
 42 66  1  0  0  0
 42117  1  0  0  0
 42118  1  0  0  0
 43 44  1  0  0  0
 44119  1  0  0  0
 45 46  2  0  0  0
 45120  1  0  0  0
 46121  1  0  0  0
 47122  1  0  0  0
 47123  1  0  0  0
 48 56  1  0  0  0
 48 65  1  0  0  0
 48124  1  0  0  0
 49 50  1  0  0  0
 49 53  1  0  0  0
 49 64  1  0  0  0
 49125  1  0  0  0
 50 51  1  0  0  0
 50126  1  0  0  0
 50127  1  0  0  0
 51 52  1  0  0  0
 51128  1  0  0  0
 51129  1  0  0  0
 52130  1  0  0  0
 52131  1  0  0  0
 53 54  1  0  0  0
 54 55  2  0  0  0
 54132  1  0  0  0
 55 57  1  0  0  0
 55133  1  0  0  0
 56 69  2  0  0  0
 57 58  2  0  0  0
 57134  1  0  0  0
 58135  1  0  0  0
 59 60  1  0  0  0
 59 61  1  0  0  0
 59 62  1  0  0  0
 60136  1  0  0  0
 60137  1  0  0  0
 60138  1  0  0  0
 61139  1  0  0  0
 61140  1  0  0  0
 61141  1  0  0  0
 62142  1  0  0  0
 62143  1  0  0  0
 62144  1  0  0  0
 63 65  1  0  0  0
 63145  1  0  0  0
 63146  1  0  0  0
 63147  1  0  0  0
 64148  1  0  0  0
 65149  1  0  0  0
 68 76  1  0  0  0
 71 73  2  0  0  0
 71 81  1  0  0  0
 71150  1  0  0  0
 72 74  2  0  0  0
 72 75  1  0  0  0
 72 80  1  0  0  0
 73 74  1  0  0  0
 73 82  1  0  0  0
 74 87  1  0  0  0
 75 81  2  0  0  0
 75 83  1  0  0  0
 76 77  2  0  0  0
 76151  1  0  0  0
 77 78  1  0  0  0
 77 86  1  0  0  0
 78 79  1  0  0  0
 78 84  2  0  0  0
 79 83  1  0  0  0
 79 85  2  0  0  0
 80 88  1  0  0  0
 80 89  1  0  0  0
 80 90  1  0  0  0
 82152  1  0  0  0
 83153  1  0  0  0
 86154  1  0  0  0
M  ISO  4   1 100  68 101  76 101  82 100
M  END
> <chiral flag>
0

> <version>
0

> <s_m_source_file>
/data/baiqing/PycharmProjects/Reinvent-master-3.2/result/LINK_invent/BTK/process_docking_weight1_custom_product_contain_oxygen_bond_distance_aromatic_linkinvent_7_9_3/rearranged_h_0176.sdf

> <i_m_source_file_index>
16

> <r_mmod_Potential_Energy-OPLS-2005>
-179.792404174805

> <r_mmod_Stretch_Energy-OPLS-2005>
54.0432052612305

> <r_mmod_Bend_Energy-OPLS-2005>
129.119934082031

> <r_mmod_Torsional_Energy-OPLS-2005>
245.728561401367

> <r_mmod_Improper_Torsional_Energy-OPLS-2005>
3.65405225753784

> <r_mmod_Van_der_Waal_Energy-OPLS-2005>
147.998153686523

> <r_mmod_Electrostatic_Energy-OPLS-2005>
-525.769409179688

> <r_mmod_Solvation_Energy-OPLS-2005>
-256.051055908203

> <b_mmod_Minimization_Converged-OPLS-2005>
0

> <r_mmod_RMS_Derivative-OPLS-2005>
3.3007287979126

$$$$
16
                    3D
 Structure written by MMmdl.
152160  0  0  1  0            999 V2000
  -30.7219  -14.5007   20.5669 C   0  0  0  0  0  0
  -30.4127  -12.3296   19.4293 C   0  0  0  0  0  0
  -29.4900  -12.5076   18.2072 C   0  0  0  0  0  0
  -28.0133  -12.3658   18.6223 C   0  0  0  0  0  0
  -27.6552  -13.2195   19.8690 C   0  0  2  0  0  0
  -28.6990  -13.0424   20.9941 C   0  0  0  0  0  0
  -25.2553  -13.8183   20.5690 C   0  0  0  0  0  0
  -24.1818  -13.0438   20.9158 C   0  0  0  0  0  0
  -24.6395  -11.6910   20.8731 C   0  0  0  0  0  0
  -23.9070  -10.4285   21.0397 C   0  0  0  0  0  0
  -24.3621   -9.4201   21.9176 C   0  0  0  0  0  0
  -23.6289   -8.2243   22.0752 C   0  0  0  0  0  0
  -22.4274   -8.0278   21.3544 C   0  0  0  0  0  0
  -21.9909   -9.0251   20.4647 C   0  0  0  0  0  0
  -22.7239  -10.2127   20.3049 C   0  0  0  0  0  0
  -21.6853   -6.0729   22.5276 C   0  0  0  0  0  0
  -21.4017   -6.5639   23.8208 C   0  0  0  0  0  0
  -21.3658   -5.6792   24.9173 C   0  0  0  0  0  0
  -21.6042   -4.3055   24.7223 C   0  0  0  0  0  0
  -21.8819   -3.8144   23.4346 C   0  0  0  0  0  0
  -21.9194   -4.6956   22.3403 C   0  0  0  0  0  0
  -22.7840  -13.5225   21.1832 C   0  0  0  0  0  0
  -22.1661   -4.2142   21.0979 F   0  0  0  0  0  0
  -21.5625   -3.4539   25.7736 F   0  0  0  0  0  0
  -30.0231  -13.3390   20.4301 N   0  0  0  0  0  0
  -26.3001  -12.9385   20.3367 N   0  0  0  0  0  0
  -25.9335  -11.6529   20.5778 N   0  0  0  0  0  0
  -22.0493  -12.8216   22.0396 N   0  0  0  0  0  0
  -25.4265  -15.1899   20.4124 N   0  0  0  0  0  0
  -31.8598  -14.6328   20.1097 O   0  0  0  0  0  0
  -21.6641   -6.8871   21.4239 O   0  0  0  0  0  0
  -22.3514  -14.5531   20.6682 O   0  0  0  0  0  0
  -24.6167  -31.8668   23.2089 C   0  0  0  0  0  0
  -25.9052  -32.4817   23.8388 C   0  0  1  0  0  0
  -27.2269  -27.4124   20.1050 C   0  0  0  0  0  0
  -25.5900  -33.8618   24.2314 N   0  0  0  0  0  0
  -23.4059  -30.4911   21.5496 C   0  0  2  0  0  0
  -24.8534  -28.9572   20.1121 C   0  0  0  0  0  0
  -22.7419  -29.4658   22.4979 C   0  0  0  0  0  0
  -18.0265  -28.1379   22.8488 C   0  0  0  0  0  0
  -24.1484  -36.7311   23.2632 C   0  0  0  0  0  0
  -25.9378  -30.8268   21.3655 C   0  0  0  0  0  0
  -26.0163  -29.4605   20.7111 C   0  0  0  0  0  0
  -27.2101  -28.6964   20.7029 C   0  0  0  0  0  0
  -26.0504  -26.9352   19.4888 C   0  0  0  0  0  0
  -24.8664  -27.6949   19.4948 C   0  0  0  0  0  0
  -23.6157  -29.8249   20.1641 C   0  0  0  0  0  0
  -25.4107  -36.3110   24.0333 C   0  0  1  0  0  0
  -20.5864  -28.3669   23.1314 C   0  0  2  0  0  0
  -20.6762  -26.9402   22.5421 C   0  0  0  0  0  0
  -19.5748  -26.6384   21.5213 C   0  0  0  0  0  0
  -18.1920  -26.7928   22.1610 C   0  0  0  0  0  0
  -19.1517  -28.8837   23.2903 C   0  0  0  0  0  0
  -18.9451  -30.1444   23.8914 C   0  0  0  0  0  0
  -17.6457  -30.6587   24.0567 C   0  0  0  0  0  0
  -25.9039  -34.9477   23.5122 C   0  0  0  0  0  0
  -16.5344  -29.9091   23.6332 C   0  0  0  0  0  0
  -16.7254  -28.6508   23.0349 C   0  0  0  0  0  0
  -26.4472  -31.6603   25.0720 C   0  0  0  0  0  0
  -25.3738  -31.3733   26.1474 C   0  0  0  0  0  0
  -27.0286  -30.3033   24.6110 C   0  0  0  0  0  0
  -27.6049  -32.4324   25.7476 C   0  0  0  0  0  0
  -27.5590  -37.1800   24.8452 C   0  0  0  0  0  0
  -21.4143  -29.3037   22.3717 N   0  0  0  0  0  0
  -26.4286  -37.3805   23.9420 N   0  0  0  0  0  0
  -24.6721  -31.0754   22.0998 N   0  0  0  0  0  0
  -23.4189  -28.8198   23.3025 O   0  0  0  0  0  0
  -28.3474  -26.6033   20.1289 O   0  0  0  0  0  0
  -26.5607  -34.8936   22.4687 O   0  0  0  0  0  0
  -23.5356  -32.1418   23.7480 O   0  0  0  0  0  0
  -28.3350  -19.8496   21.5924 C   0  0  0  0  0  0
  -28.7048  -18.4818   21.8325 C   0  0  0  0  0  0
  -29.9160  -18.1302   21.2878 C   0  0  0  0  0  0
  -29.2664  -20.5802   20.8823 C   0  0  0  0  0  0
  -28.1602  -25.3436   20.6795 C   0  0  0  0  0  0
  -28.8366  -24.2238   20.3219 C   0  0  0  0  0  0
  -28.5269  -22.9339   20.9711 C   0  0  0  0  0  0
  -30.7350  -16.8533   21.4230 C   0  0  0  0  0  0
  -27.8827  -17.6430   22.5971 N   0  0  0  0  0  0
  -29.2758  -21.9035   20.5126 N   0  0  0  0  0  0
  -30.0843  -15.5547   21.1259 N   0  0  0  0  0  0
  -27.6742  -22.7909   21.8514 O   0  0  0  0  0  0
  -29.7813  -24.2901   19.3700 O   0  0  0  0  0  0
  -30.5899  -19.5145   20.4387 S   0  0  0  0  0  0
  -31.4587  -12.4136   19.1287 H   0  0  0  0  0  0
  -30.3062  -11.3268   19.8462 H   0  0  0  0  0  0
  -29.7340  -11.7716   17.4399 H   0  0  0  0  0  0
  -29.6557  -13.4877   17.7558 H   0  0  0  0  0  0
  -27.8291  -11.3115   18.8302 H   0  0  0  0  0  0
  -27.3603  -12.6278   17.7883 H   0  0  0  0  0  0
  -27.6855  -14.2630   19.5528 H   0  0  0  0  0  0
  -28.6820  -12.0195   21.3731 H   0  0  0  0  0  0
  -28.4621  -13.6783   21.8481 H   0  0  0  0  0  0
  -25.2765   -9.5673   22.4755 H   0  0  0  0  0  0
  -23.9987   -7.4636   22.7484 H   0  0  0  0  0  0
  -21.0832   -8.8771   19.8963 H   0  0  0  0  0  0
  -22.3692  -10.9666   19.6159 H   0  0  0  0  0  0
  -21.2011   -7.6148   23.9707 H   0  0  0  0  0  0
  -21.1482   -6.0526   25.9072 H   0  0  0  0  0  0
  -22.0602   -2.7604   23.2850 H   0  0  0  0  0  0
  -22.4105  -11.9865   22.4770 H   0  0  0  0  0  0
  -21.1120  -13.1245   22.2619 H   0  0  0  0  0  0
  -24.6723  -15.8516   20.5574 H   0  0  0  0  0  0
  -26.3043  -15.6399   20.1848 H   0  0  0  0  0  0
  -26.7120  -32.5518   23.1152 H   0  0  0  0  0  0
  -25.0062  -33.9779   25.0465 H   0  0  0  0  0  0
  -22.6968  -31.3095   21.4105 H   0  0  0  0  0  0
  -23.3756  -35.9635   23.3286 H   0  0  0  0  0  0
  -24.3585  -36.8937   22.2051 H   0  0  0  0  0  0
  -23.7226  -37.6507   23.6658 H   0  0  0  0  0  0
  -26.0521  -31.5930   20.5980 H   0  0  0  0  0  0
  -26.8247  -30.8796   21.9851 H   0  0  0  0  0  0
  -28.1062  -29.0760   21.1739 H   0  0  0  0  0  0
  -26.0462  -25.9638   19.0154 H   0  0  0  0  0  0
  -23.9740  -27.3030   19.0258 H   0  0  0  0  0  0
  -23.7257  -30.6005   19.4058 H   0  0  0  0  0  0
  -22.7390  -29.2468   19.8666 H   0  0  0  0  0  0
  -25.1286  -36.1966   25.0826 H   0  0  0  0  0  0
  -20.9947  -28.3230   24.1438 H   0  0  0  0  0  0
  -20.5651  -26.2282   23.3613 H   0  0  0  0  0  0
  -21.6639  -26.7442   22.1220 H   0  0  0  0  0  0
  -19.6918  -25.6297   21.1239 H   0  0  0  0  0  0
  -19.6701  -27.3202   20.6752 H   0  0  0  0  0  0
  -17.4200  -26.6685   21.4001 H   0  0  0  0  0  0
  -18.0310  -26.0058   22.8990 H   0  0  0  0  0  0
  -19.7929  -30.7252   24.2294 H   0  0  0  0  0  0
  -17.5014  -31.6271   24.5157 H   0  0  0  0  0  0
  -15.5351  -30.3006   23.7655 H   0  0  0  0  0  0
  -15.8647  -28.0842   22.7065 H   0  0  0  0  0  0
  -24.5911  -30.7072   25.7826 H   0  0  0  0  0  0
  -24.8934  -32.2900   26.4906 H   0  0  0  0  0  0
  -25.8091  -30.8921   27.0240 H   0  0  0  0  0  0
  -26.2826  -29.6806   24.1157 H   0  0  0  0  0  0
  -27.4029  -29.7265   25.4577 H   0  0  0  0  0  0
  -27.8680  -30.4332   23.9276 H   0  0  0  0  0  0
  -27.2670  -33.3624   26.2063 H   0  0  0  0  0  0
  -28.3855  -32.6880   25.0297 H   0  0  0  0  0  0
  -28.0720  -31.8439   26.5384 H   0  0  0  0  0  0
  -28.2580  -38.0124   24.7548 H   0  0  0  0  0  0
  -28.1114  -36.2663   24.6206 H   0  0  0  0  0  0
  -27.2323  -37.1354   25.8855 H   0  0  0  0  0  0
  -20.9305  -29.8769   21.6944 H   0  0  0  0  0  0
  -26.0170  -38.2873   24.1465 H   0  0  0  0  0  0
  -27.4091  -20.2558   21.9739 H   0  0  0  0  0  0
  -27.3919  -25.3428   21.4446 H   0  0  0  0  0  0
  -31.0986  -16.7921   22.4491 H   0  0  0  0  0  0
  -31.6349  -16.9705   20.8166 H   0  0  0  0  0  0
  -27.1406  -18.0812   23.1334 H   0  0  0  0  0  0
  -28.3277  -16.8936   23.1146 H   0  0  0  0  0  0
  -29.9690  -22.1872   19.8313 H   0  0  0  0  0  0
  -29.1287  -15.4291   21.4229 H   0  0  0  0  0  0
  -29.8167  -25.1947   19.0845 H   0  0  0  0  0  0
  1 25  1  0  0  0
  1 30  2  0  0  0
  1 81  1  0  0  0
  2  3  1  0  0  0
  2 25  1  0  0  0
  2 85  1  0  0  0
  2 86  1  0  0  0
  3  4  1  0  0  0
  3 87  1  0  0  0
  3 88  1  0  0  0
  4  5  1  0  0  0
  4 89  1  0  0  0
  4 90  1  0  0  0
  5  6  1  0  0  0
  5 26  1  0  0  0
  5 91  1  0  0  0
  6 25  1  0  0  0
  6 92  1  0  0  0
  6 93  1  0  0  0
  7  8  2  0  0  0
  7 26  1  0  0  0
  7 29  1  0  0  0
  8  9  1  0  0  0
  8 22  1  0  0  0
  9 10  1  0  0  0
  9 27  2  0  0  0
 10 11  2  0  0  0
 10 15  1  0  0  0
 11 12  1  0  0  0
 11 94  1  0  0  0
 12 13  2  0  0  0
 12 95  1  0  0  0
 13 14  1  0  0  0
 13 31  1  0  0  0
 14 15  2  0  0  0
 14 96  1  0  0  0
 15 97  1  0  0  0
 16 17  2  0  0  0
 16 21  1  0  0  0
 16 31  1  0  0  0
 17 18  1  0  0  0
 17 98  1  0  0  0
 18 19  2  0  0  0
 18 99  1  0  0  0
 19 20  1  0  0  0
 19 24  1  0  0  0
 20 21  2  0  0  0
 20100  1  0  0  0
 21 23  1  0  0  0
 22 28  1  0  0  0
 22 32  2  0  0  0
 26 27  1  0  0  0
 28101  1  0  0  0
 28102  1  0  0  0
 29103  1  0  0  0
 29104  1  0  0  0
 33 34  1  0  0  0
 33 66  1  0  0  0
 33 70  2  0  0  0
 34 36  1  0  0  0
 34 59  1  0  0  0
 34105  1  0  0  0
 35 44  2  0  0  0
 35 45  1  0  0  0
 35 68  1  0  0  0
 36 56  1  0  0  0
 36106  1  0  0  0
 37 39  1  0  0  0
 37 47  1  0  0  0
 37 66  1  0  0  0
 37107  1  0  0  0
 38 43  2  0  0  0
 38 46  1  0  0  0
 38 47  1  0  0  0
 39 64  1  0  0  0
 39 67  2  0  0  0
 40 52  1  0  0  0
 40 53  2  0  0  0
 40 58  1  0  0  0
 41108  1  0  0  0
 41109  1  0  0  0
 41110  1  0  0  0
 41 48  1  0  0  0
 42 43  1  0  0  0
 42 66  1  0  0  0
 42111  1  0  0  0
 42112  1  0  0  0
 43 44  1  0  0  0
 44113  1  0  0  0
 45 46  2  0  0  0
 45114  1  0  0  0
 46115  1  0  0  0
 47116  1  0  0  0
 47117  1  0  0  0
 48 56  1  0  0  0
 48 65  1  0  0  0
 48118  1  0  0  0
 49 50  1  0  0  0
 49 53  1  0  0  0
 49 64  1  0  0  0
 49119  1  0  0  0
 50 51  1  0  0  0
 50120  1  0  0  0
 50121  1  0  0  0
 51 52  1  0  0  0
 51122  1  0  0  0
 51123  1  0  0  0
 52124  1  0  0  0
 52125  1  0  0  0
 53 54  1  0  0  0
 54 55  2  0  0  0
 54126  1  0  0  0
 55 57  1  0  0  0
 55127  1  0  0  0
 56 69  2  0  0  0
 57 58  2  0  0  0
 57128  1  0  0  0
 58129  1  0  0  0
 59 60  1  0  0  0
 59 61  1  0  0  0
 59 62  1  0  0  0
 60130  1  0  0  0
 60131  1  0  0  0
 60132  1  0  0  0
 61133  1  0  0  0
 61134  1  0  0  0
 61135  1  0  0  0
 62136  1  0  0  0
 62137  1  0  0  0
 62138  1  0  0  0
 63 65  1  0  0  0
 63139  1  0  0  0
 63140  1  0  0  0
 63141  1  0  0  0
 64142  1  0  0  0
 65143  1  0  0  0
 68 75  1  0  0  0
 71 72  1  0  0  0
 71 74  2  0  0  0
 71144  1  0  0  0
 72 73  2  0  0  0
 72 79  1  0  0  0
 73 78  1  0  0  0
 73 84  1  0  0  0
 74 80  1  0  0  0
 74 84  1  0  0  0
 75 76  2  0  0  0
 75145  1  0  0  0
 76 77  1  0  0  0
 76 83  1  0  0  0
 77 80  1  0  0  0
 77 82  2  0  0  0
 78 81  1  0  0  0
 78146  1  0  0  0
 78147  1  0  0  0
 79148  1  0  0  0
 79149  1  0  0  0
 80150  1  0  0  0
 81151  1  0  0  0
 83152  1  0  0  0
M  ISO  4   1 100  68 101  75 101  81 100
M  END
> <chiral flag>
0

> <version>
0

> <s_m_source_file>
/data/baiqing/PycharmProjects/Reinvent-master-3.2/result/LINK_invent/BTK/process_docking_weight1_custom_product_contain_oxygen_bond_distance_aromatic_linkinvent_7_9_3/rearranged_h_0176.sdf

> <i_m_source_file_index>
17

> <r_mmod_Potential_Energy-OPLS-2005>
-152.472915649414

> <r_mmod_Stretch_Energy-OPLS-2005>
41.3442153930664

> <r_mmod_Bend_Energy-OPLS-2005>
108.427291870117

> <r_mmod_Torsional_Energy-OPLS-2005>
204.169403076172

> <r_mmod_Improper_Torsional_Energy-OPLS-2005>
6.54826927185059

> <r_mmod_Van_der_Waal_Energy-OPLS-2005>
136.70149230957

> <r_mmod_Electrostatic_Energy-OPLS-2005>
-446.498901367188

> <r_mmod_Solvation_Energy-OPLS-2005>
-222.441192626953

> <b_mmod_Minimization_Converged-OPLS-2005>
0

> <r_mmod_RMS_Derivative-OPLS-2005>
1.09411311149597

$$$$
17
                    3D
 Structure written by MMmdl.
152160  0  0  1  0            999 V2000
  -30.6117  -14.7742   20.4518 C   0  0  0  0  0  0
  -30.4273  -12.4715   19.4900 C   0  0  0  0  0  0
  -29.5142  -12.5046   18.2454 C   0  0  0  0  0  0
  -28.0401  -12.3287   18.6523 C   0  0  0  0  0  0
  -27.6391  -13.2370   19.8462 C   0  0  2  0  0  0
  -28.6769  -13.1992   20.9878 C   0  0  0  0  0  0
  -25.2499  -13.8206   20.5649 C   0  0  0  0  0  0
  -24.1809  -13.0449   20.9185 C   0  0  0  0  0  0
  -24.6415  -11.6922   20.8749 C   0  0  0  0  0  0
  -23.9093  -10.4301   21.0424 C   0  0  0  0  0  0
  -24.3647   -9.4207   21.9187 C   0  0  0  0  0  0
  -23.6320   -8.2245   22.0756 C   0  0  0  0  0  0
  -22.4298   -8.0295   21.3542 C   0  0  0  0  0  0
  -21.9928   -9.0270   20.4648 C   0  0  0  0  0  0
  -22.7264  -10.2147   20.3061 C   0  0  0  0  0  0
  -21.6861   -6.0744   22.5278 C   0  0  0  0  0  0
  -21.4023   -6.5644   23.8209 C   0  0  0  0  0  0
  -21.3668   -5.6798   24.9167 C   0  0  0  0  0  0
  -21.6042   -4.3056   24.7209 C   0  0  0  0  0  0
  -21.8830   -3.8150   23.4328 C   0  0  0  0  0  0
  -21.9198   -4.6970   22.3389 C   0  0  0  0  0  0
  -22.7835  -13.5218   21.1859 C   0  0  0  0  0  0
  -22.1659   -4.2159   21.0961 F   0  0  0  0  0  0
  -21.5632   -3.4536   25.7718 F   0  0  0  0  0  0
  -29.9769  -13.5500   20.4059 N   0  0  0  0  0  0
  -26.2933  -12.9422   20.3236 N   0  0  0  0  0  0
  -25.9349  -11.6558   20.5758 N   0  0  0  0  0  0
  -22.0476  -12.8228   22.0416 N   0  0  0  0  0  0
  -25.4185  -15.1932   20.4046 N   0  0  0  0  0  0
  -31.8115  -14.8100   20.1604 O   0  0  0  0  0  0
  -21.6657   -6.8895   21.4241 O   0  0  0  0  0  0
  -22.3523  -14.5521   20.6692 O   0  0  0  0  0  0
  -24.6310  -31.8531   23.1956 C   0  0  0  0  0  0
  -25.9141  -32.4743   23.8306 C   0  0  1  0  0  0
  -27.2283  -27.2567   20.1341 C   0  0  0  0  0  0
  -25.5949  -33.8553   24.2240 N   0  0  0  0  0  0
  -23.4285  -30.4745   21.5371 C   0  0  2  0  0  0
  -24.8789  -28.9204   20.1062 C   0  0  0  0  0  0
  -22.7507  -29.4589   22.4876 C   0  0  0  0  0  0
  -18.0300  -28.1394   22.8476 C   0  0  0  0  0  0
  -24.1501  -36.7285   23.2628 C   0  0  0  0  0  0
  -25.9740  -30.7693   21.3725 C   0  0  0  0  0  0
  -26.0479  -29.3904   20.7160 C   0  0  0  0  0  0
  -27.2216  -28.5708   20.7167 C   0  0  0  0  0  0
  -26.0319  -26.8524   19.4971 C   0  0  0  0  0  0
  -24.8782  -27.6624   19.4835 C   0  0  0  0  0  0
  -23.6484  -29.8058   20.1538 C   0  0  0  0  0  0
  -25.4124  -36.3057   24.0314 C   0  0  1  0  0  0
  -20.5905  -28.3710   23.1255 C   0  0  2  0  0  0
  -20.6790  -26.9426   22.5394 C   0  0  0  0  0  0
  -19.5765  -26.6386   21.5209 C   0  0  0  0  0  0
  -18.1946  -26.7930   22.1622 C   0  0  0  0  0  0
  -19.1548  -28.8870   23.2863 C   0  0  0  0  0  0
  -18.9469  -30.1468   23.8885 C   0  0  0  0  0  0
  -17.6465  -30.6590   24.0564 C   0  0  0  0  0  0
  -25.9064  -34.9433   23.5073 C   0  0  0  0  0  0
  -16.5355  -29.9080   23.6329 C   0  0  0  0  0  0
  -16.7289  -28.6500   23.0346 C   0  0  0  0  0  0
  -26.4515  -31.6567   25.0693 C   0  0  0  0  0  0
  -25.3735  -31.3731   26.1411 C   0  0  0  0  0  0
  -27.0366  -30.2980   24.6186 C   0  0  0  0  0  0
  -27.6061  -32.4311   25.7473 C   0  0  0  0  0  0
  -27.5587  -37.1778   24.8446 C   0  0  0  0  0  0
  -21.4211  -29.3047   22.3633 N   0  0  0  0  0  0
  -26.4283  -37.3765   23.9412 N   0  0  0  0  0  0
  -24.6972  -31.0502   22.0920 N   0  0  0  0  0  0
  -23.4201  -28.8137   23.2981 O   0  0  0  0  0  0
  -28.3409  -26.3871   20.2458 O   0  0  0  0  0  0
  -26.5632  -34.8907   22.4638 O   0  0  0  0  0  0
  -23.5461  -32.1352   23.7253 O   0  0  0  0  0  0
  -31.1910  -17.6895   19.4640 C   0  0  0  0  0  0
  -30.1051  -17.3823   20.3027 C   0  0  0  0  0  0
  -31.4230  -19.0077   19.0663 C   0  0  0  0  0  0
  -29.6241  -19.7647   20.2412 C   0  0  0  0  0  0
  -28.5347  -23.6885   20.5143 C   0  0  0  0  0  0
  -27.7218  -22.0756   18.6991 C   0  0  0  0  0  0
  -28.4194  -25.0222   19.6115 C   0  0  0  0  0  0
  -28.7866  -22.2400   19.8006 C   0  0  2  0  0  0
  -29.3281  -18.4922   20.6786 N   0  0  0  0  0  0
  -30.6441  -20.0290   19.4496 N   0  0  0  0  0  0
  -29.8581  -15.9402   20.6551 N   0  0  0  0  0  0
  -28.8706  -20.9376   20.6021 N   0  0  0  0  0  0
  -28.4244  -23.7788   21.7402 O   0  0  0  0  0  0
  -32.4729  -19.2761   18.2544 F   0  0  0  0  0  0
  -31.4688  -12.5847   19.1857 H   0  0  0  0  0  0
  -30.3644  -11.5030   19.9878 H   0  0  0  0  0  0
  -29.8048  -11.7190   17.5474 H   0  0  0  0  0  0
  -29.6444  -13.4510   17.7198 H   0  0  0  0  0  0
  -27.9005  -11.2813   18.9220 H   0  0  0  0  0  0
  -27.3878  -12.5135   17.7972 H   0  0  0  0  0  0
  -27.6255  -14.2563   19.4571 H   0  0  0  0  0  0
  -28.7192  -12.2129   21.4531 H   0  0  0  0  0  0
  -28.4020  -13.9006   21.7769 H   0  0  0  0  0  0
  -25.2798   -9.5688   22.4754 H   0  0  0  0  0  0
  -24.0034   -7.4645   22.7484 H   0  0  0  0  0  0
  -21.0840   -8.8798   19.8971 H   0  0  0  0  0  0
  -22.3721  -10.9688   19.6178 H   0  0  0  0  0  0
  -21.2022   -7.6155   23.9708 H   0  0  0  0  0  0
  -21.1477   -6.0521   25.9068 H   0  0  0  0  0  0
  -22.0602   -2.7613   23.2814 H   0  0  0  0  0  0
  -22.4098  -11.9905   22.4817 H   0  0  0  0  0  0
  -21.1105  -13.1263   22.2630 H   0  0  0  0  0  0
  -24.6447  -15.8415   20.5056 H   0  0  0  0  0  0
  -26.2589  -15.6312   20.0513 H   0  0  0  0  0  0
  -26.7196  -32.5403   23.1034 H   0  0  0  0  0  0
  -25.0114  -33.9699   25.0398 H   0  0  0  0  0  0
  -22.7250  -31.2965   21.3882 H   0  0  0  0  0  0
  -23.3773  -35.9595   23.3223 H   0  0  0  0  0  0
  -24.3606  -36.8982   22.2050 H   0  0  0  0  0  0
  -23.7228  -37.6454   23.6709 H   0  0  0  0  0  0
  -26.1072  -31.5300   20.6024 H   0  0  0  0  0  0
  -26.8517  -30.8226   22.0043 H   0  0  0  0  0  0
  -28.1201  -28.9277   21.2022 H   0  0  0  0  0  0
  -25.9380  -25.8840   19.0333 H   0  0  0  0  0  0
  -23.9816  -27.2969   19.0026 H   0  0  0  0  0  0
  -23.7705  -30.5806   19.3956 H   0  0  0  0  0  0
  -22.7680  -29.2360   19.8497 H   0  0  0  0  0  0
  -25.1297  -36.1871   25.0802 H   0  0  0  0  0  0
  -21.0016  -28.3294   24.1372 H   0  0  0  0  0  0
  -20.5714  -26.2321   23.3605 H   0  0  0  0  0  0
  -21.6652  -26.7465   22.1169 H   0  0  0  0  0  0
  -19.6928  -25.6296   21.1247 H   0  0  0  0  0  0
  -19.6694  -27.3189   20.6733 H   0  0  0  0  0  0
  -17.4216  -26.6674   21.4030 H   0  0  0  0  0  0
  -18.0355  -26.0081   22.9029 H   0  0  0  0  0  0
  -19.7943  -30.7292   24.2241 H   0  0  0  0  0  0
  -17.5017  -31.6268   24.5166 H   0  0  0  0  0  0
  -15.5354  -30.2977   23.7673 H   0  0  0  0  0  0
  -15.8689  -28.0828   22.7057 H   0  0  0  0  0  0
  -24.5913  -30.7082   25.7726 H   0  0  0  0  0  0
  -24.8938  -32.2921   26.4796 H   0  0  0  0  0  0
  -25.8044  -30.8922   27.0202 H   0  0  0  0  0  0
  -26.2947  -29.6703   24.1238 H   0  0  0  0  0  0
  -27.4075  -29.7261   25.4698 H   0  0  0  0  0  0
  -27.8810  -30.4235   23.9403 H   0  0  0  0  0  0
  -27.2670  -33.3629   26.2009 H   0  0  0  0  0  0
  -28.3906  -32.6837   25.0328 H   0  0  0  0  0  0
  -28.0697  -31.8464   26.5428 H   0  0  0  0  0  0
  -28.2533  -38.0142   24.7584 H   0  0  0  0  0  0
  -28.1160  -36.2681   24.6161 H   0  0  0  0  0  0
  -27.2330  -37.1273   25.8851 H   0  0  0  0  0  0
  -20.9404  -29.8749   21.6816 H   0  0  0  0  0  0
  -26.0152  -38.2816   24.1479 H   0  0  0  0  0  0
  -31.8680  -16.9385   19.0931 H   0  0  0  0  0  0
  -27.9150  -22.7527   17.8675 H   0  0  0  0  0  0
  -26.7182  -22.2887   19.0724 H   0  0  0  0  0  0
  -27.7110  -21.0656   18.2890 H   0  0  0  0  0  0
  -27.6428  -24.8730   18.8687 H   0  0  0  0  0  0
  -29.3394  -25.0391   19.0289 H   0  0  0  0  0  0
  -29.7485  -22.3350   19.2956 H   0  0  0  0  0  0
  -28.9351  -15.7577   21.0133 H   0  0  0  0  0  0
  -28.1134  -20.7773   21.2567 H   0  0  0  0  0  0
  1 25  1  0  0  0
  1 30  2  0  0  0
  1 81  1  0  0  0
  2  3  1  0  0  0
  2 25  1  0  0  0
  2 85  1  0  0  0
  2 86  1  0  0  0
  3  4  1  0  0  0
  3 87  1  0  0  0
  3 88  1  0  0  0
  4  5  1  0  0  0
  4 89  1  0  0  0
  4 90  1  0  0  0
  5  6  1  0  0  0
  5 26  1  0  0  0
  5 91  1  0  0  0
  6 25  1  0  0  0
  6 92  1  0  0  0
  6 93  1  0  0  0
  7  8  2  0  0  0
  7 26  1  0  0  0
  7 29  1  0  0  0
  8  9  1  0  0  0
  8 22  1  0  0  0
  9 10  1  0  0  0
  9 27  2  0  0  0
 10 11  2  0  0  0
 10 15  1  0  0  0
 11 12  1  0  0  0
 11 94  1  0  0  0
 12 13  2  0  0  0
 12 95  1  0  0  0
 13 14  1  0  0  0
 13 31  1  0  0  0
 14 15  2  0  0  0
 14 96  1  0  0  0
 15 97  1  0  0  0
 16 17  2  0  0  0
 16 21  1  0  0  0
 16 31  1  0  0  0
 17 18  1  0  0  0
 17 98  1  0  0  0
 18 19  2  0  0  0
 18 99  1  0  0  0
 19 20  1  0  0  0
 19 24  1  0  0  0
 20 21  2  0  0  0
 20100  1  0  0  0
 21 23  1  0  0  0
 22 28  1  0  0  0
 22 32  2  0  0  0
 26 27  1  0  0  0
 28101  1  0  0  0
 28102  1  0  0  0
 29103  1  0  0  0
 29104  1  0  0  0
 33 34  1  0  0  0
 33 66  1  0  0  0
 33 70  2  0  0  0
 34 36  1  0  0  0
 34 59  1  0  0  0
 34105  1  0  0  0
 35 44  2  0  0  0
 35 45  1  0  0  0
 35 68  1  0  0  0
 36 56  1  0  0  0
 36106  1  0  0  0
 37 39  1  0  0  0
 37 47  1  0  0  0
 37 66  1  0  0  0
 37107  1  0  0  0
 38 43  2  0  0  0
 38 46  1  0  0  0
 38 47  1  0  0  0
 39 64  1  0  0  0
 39 67  2  0  0  0
 40 52  1  0  0  0
 40 53  2  0  0  0
 40 58  1  0  0  0
 41108  1  0  0  0
 41109  1  0  0  0
 41110  1  0  0  0
 41 48  1  0  0  0
 42 43  1  0  0  0
 42 66  1  0  0  0
 42111  1  0  0  0
 42112  1  0  0  0
 43 44  1  0  0  0
 44113  1  0  0  0
 45 46  2  0  0  0
 45114  1  0  0  0
 46115  1  0  0  0
 47116  1  0  0  0
 47117  1  0  0  0
 48 56  1  0  0  0
 48 65  1  0  0  0
 48118  1  0  0  0
 49 50  1  0  0  0
 49 53  1  0  0  0
 49 64  1  0  0  0
 49119  1  0  0  0
 50 51  1  0  0  0
 50120  1  0  0  0
 50121  1  0  0  0
 51 52  1  0  0  0
 51122  1  0  0  0
 51123  1  0  0  0
 52124  1  0  0  0
 52125  1  0  0  0
 53 54  1  0  0  0
 54 55  2  0  0  0
 54126  1  0  0  0
 55 57  1  0  0  0
 55127  1  0  0  0
 56 69  2  0  0  0
 57 58  2  0  0  0
 57128  1  0  0  0
 58129  1  0  0  0
 59 60  1  0  0  0
 59 61  1  0  0  0
 59 62  1  0  0  0
 60130  1  0  0  0
 60131  1  0  0  0
 60132  1  0  0  0
 61133  1  0  0  0
 61134  1  0  0  0
 61135  1  0  0  0
 62136  1  0  0  0
 62137  1  0  0  0
 62138  1  0  0  0
 63 65  1  0  0  0
 63139  1  0  0  0
 63140  1  0  0  0
 63141  1  0  0  0
 64142  1  0  0  0
 65143  1  0  0  0
 68 77  1  0  0  0
 71 72  2  0  0  0
 71 73  1  0  0  0
 71144  1  0  0  0
 72 79  1  0  0  0
 72 81  1  0  0  0
 73 80  2  0  0  0
 73 84  1  0  0  0
 74 79  2  0  0  0
 74 80  1  0  0  0
 74 82  1  0  0  0
 75 77  1  0  0  0
 75 78  1  0  0  0
 75 83  2  0  0  0
 76145  1  0  0  0
 76146  1  0  0  0
 76147  1  0  0  0
 76 78  1  0  0  0
 77148  1  0  0  0
 77149  1  0  0  0
 78 82  1  0  0  0
 78150  1  0  0  0
 81151  1  0  0  0
 82152  1  0  0  0
M  ISO  4   1 100  68 101  77 101  81 100
M  END
> <chiral flag>
0

> <version>
0

> <s_m_source_file>
/data/baiqing/PycharmProjects/Reinvent-master-3.2/result/LINK_invent/BTK/process_docking_weight1_custom_product_contain_oxygen_bond_distance_aromatic_linkinvent_7_9_3/rearranged_h_0176.sdf

> <i_m_source_file_index>
18

> <r_mmod_Potential_Energy-OPLS-2005>
-335.981140136719

> <r_mmod_Stretch_Energy-OPLS-2005>
140.713760375977

> <r_mmod_Bend_Energy-OPLS-2005>
188.954559326172

> <r_mmod_Torsional_Energy-OPLS-2005>
210.189498901367

> <r_mmod_Improper_Torsional_Energy-OPLS-2005>
5.05468034744263

> <r_mmod_Van_der_Waal_Energy-OPLS-2005>
152.809494018555

> <r_mmod_Electrostatic_Energy-OPLS-2005>
-878.437744140625

> <r_mmod_Solvation_Energy-OPLS-2005>
-249.128387451172

> <b_mmod_Minimization_Converged-OPLS-2005>
0

> <r_mmod_RMS_Derivative-OPLS-2005>
2.6897931098938

$$$$
18
                    3D
 Structure written by MMmdl.
159167  0  0  1  0            999 V2000
  -30.6822  -14.4745   20.5401 C   0  0  0  0  0  0
  -30.4264  -12.3046   19.4168 C   0  0  0  0  0  0
  -29.4942  -12.5154   18.2064 C   0  0  0  0  0  0
  -28.0153  -12.3738   18.6198 C   0  0  0  0  0  0
  -27.6589  -13.2019   19.8832 C   0  0  2  0  0  0
  -28.7038  -12.9808   21.0013 C   0  0  0  0  0  0
  -25.2595  -13.8177   20.5766 C   0  0  0  0  0  0
  -24.1827  -13.0440   20.9188 C   0  0  0  0  0  0
  -24.6373  -11.6903   20.8722 C   0  0  0  0  0  0
  -23.9038  -10.4297   21.0388 C   0  0  0  0  0  0
  -24.3602   -9.4229   21.9175 C   0  0  0  0  0  0
  -23.6288   -8.2258   22.0760 C   0  0  0  0  0  0
  -22.4270   -8.0292   21.3552 C   0  0  0  0  0  0
  -21.9891   -9.0254   20.4641 C   0  0  0  0  0  0
  -22.7207  -10.2141   20.3039 C   0  0  0  0  0  0
  -21.6859   -6.0736   22.5277 C   0  0  0  0  0  0
  -21.4004   -6.5635   23.8209 C   0  0  0  0  0  0
  -21.3664   -5.6788   24.9176 C   0  0  0  0  0  0
  -21.6044   -4.3046   24.7228 C   0  0  0  0  0  0
  -21.8818   -3.8141   23.4356 C   0  0  0  0  0  0
  -21.9191   -4.6958   22.3404 C   0  0  0  0  0  0
  -22.7841  -13.5242   21.1857 C   0  0  0  0  0  0
  -22.1662   -4.2144   21.0976 F   0  0  0  0  0  0
  -21.5649   -3.4531   25.7747 F   0  0  0  0  0  0
  -30.0358  -13.2801   20.4482 N   0  0  0  0  0  0
  -26.3011  -12.9306   20.3419 N   0  0  0  0  0  0
  -25.9297  -11.6473   20.5760 N   0  0  0  0  0  0
  -22.0477  -12.8216   22.0399 N   0  0  0  0  0  0
  -25.4308  -15.1899   20.4274 N   0  0  0  0  0  0
  -31.8351  -14.6458   20.1310 O   0  0  0  0  0  0
  -21.6648   -6.8878   21.4236 O   0  0  0  0  0  0
  -22.3511  -14.5550   20.6739 O   0  0  0  0  0  0
  -24.6140  -31.8675   23.2122 C   0  0  0  0  0  0
  -25.9042  -32.4824   23.8400 C   0  0  1  0  0  0
  -27.2321  -27.4588   20.0953 C   0  0  0  0  0  0
  -25.5887  -33.8618   24.2329 N   0  0  0  0  0  0
  -23.4006  -30.4921   21.5526 C   0  0  2  0  0  0
  -24.8454  -28.9590   20.1173 C   0  0  0  0  0  0
  -22.7405  -29.4661   22.5010 C   0  0  0  0  0  0
  -18.0266  -28.1389   22.8519 C   0  0  0  0  0  0
  -24.1472  -36.7324   23.2632 C   0  0  0  0  0  0
  -25.9266  -30.8452   21.3562 C   0  0  0  0  0  0
  -26.0060  -29.4803   20.7042 C   0  0  0  0  0  0
  -27.2077  -28.7400   20.6835 C   0  0  0  0  0  0
  -26.0603  -26.9441   19.5023 C   0  0  0  0  0  0
  -24.8660  -27.6896   19.5121 C   0  0  0  0  0  0
  -23.6052  -29.8218   20.1685 C   0  0  0  0  0  0
  -25.4100  -36.3122   24.0332 C   0  0  1  0  0  0
  -20.5860  -28.3659   23.1332 C   0  0  2  0  0  0
  -20.6750  -26.9392   22.5427 C   0  0  0  0  0  0
  -19.5728  -26.6386   21.5227 C   0  0  0  0  0  0
  -18.1904  -26.7935   22.1636 C   0  0  0  0  0  0
  -19.1520  -28.8849   23.2920 C   0  0  0  0  0  0
  -18.9444  -30.1460   23.8919 C   0  0  0  0  0  0
  -17.6445  -30.6598   24.0576 C   0  0  0  0  0  0
  -25.9028  -34.9474   23.5130 C   0  0  0  0  0  0
  -16.5339  -29.9100   23.6343 C   0  0  0  0  0  0
  -16.7250  -28.6516   23.0370 C   0  0  0  0  0  0
  -26.4465  -31.6616   25.0733 C   0  0  0  0  0  0
  -25.3731  -31.3705   26.1488 C   0  0  0  0  0  0
  -27.0285  -30.3061   24.6090 C   0  0  0  0  0  0
  -27.6037  -32.4331   25.7503 C   0  0  0  0  0  0
  -27.5590  -37.1799   24.8459 C   0  0  0  0  0  0
  -21.4129  -29.3029   22.3739 N   0  0  0  0  0  0
  -26.4295  -37.3813   23.9418 N   0  0  0  0  0  0
  -24.6660  -31.0808   22.0994 N   0  0  0  0  0  0
  -23.4175  -28.8205   23.3056 O   0  0  0  0  0  0
  -28.3807  -26.7078   20.1017 O   0  0  0  0  0  0
  -26.5603  -34.8932   22.4693 O   0  0  0  0  0  0
  -23.5341  -32.1389   23.7552 O   0  0  0  0  0  0
  -29.3016  -16.5787   18.8586 C   0  0  0  0  0  0
  -29.1814  -17.7084   18.0364 C   0  0  0  0  0  0
  -29.5331  -18.9602   18.5658 C   0  0  0  0  0  0
  -29.7950  -16.7080   20.1744 C   0  0  0  0  0  0
  -29.9615  -19.0474   19.9073 C   0  0  0  0  0  0
  -30.6309  -22.4398   21.4240 C   0  0  0  0  0  0
  -30.2439  -20.9457   21.5124 C   0  0  0  0  0  0
  -28.6896  -17.5700   16.6094 C   0  0  0  0  0  0
  -29.5358  -23.4671   21.7466 C   0  0  0  0  0  0
  -28.3396  -25.6338   21.0488 C   0  0  0  0  0  0
  -29.3071  -24.5093   20.6261 C   0  0  2  0  0  0
  -30.0839  -17.9349   20.6919 N   0  0  0  0  0  0
  -30.2785  -20.3692   20.3031 N   0  0  0  0  0  0
  -29.9114  -15.5091   20.9302 N   0  0  0  0  0  0
  -31.7700  -22.7959   21.0994 O   0  0  0  0  0  0
  -29.9552  -20.3995   22.5839 O   0  0  0  0  0  0
  -28.7181  -23.8572   19.5123 O   0  0  0  0  0  0
  -29.4483  -20.0750   17.7973 F   0  0  0  0  0  0
  -31.4659  -12.4229   19.1033 H   0  0  0  0  0  0
  -30.3405  -11.2865   19.8004 H   0  0  0  0  0  0
  -29.7375  -11.8086   17.4128 H   0  0  0  0  0  0
  -29.6669  -13.5061   17.7847 H   0  0  0  0  0  0
  -27.8236  -11.3180   18.8077 H   0  0  0  0  0  0
  -27.3653  -12.6611   17.7940 H   0  0  0  0  0  0
  -27.6902  -14.2508   19.6026 H   0  0  0  0  0  0
  -28.6777  -11.9464   21.3496 H   0  0  0  0  0  0
  -28.4736  -13.5849   21.8810 H   0  0  0  0  0  0
  -25.2754   -9.5721   22.4727 H   0  0  0  0  0  0
  -24.0011   -7.4656   22.7483 H   0  0  0  0  0  0
  -21.0832   -8.8779   19.8932 H   0  0  0  0  0  0
  -22.3679  -10.9692   19.6147 H   0  0  0  0  0  0
  -21.1974   -7.6132   23.9700 H   0  0  0  0  0  0
  -21.1494   -6.0525   25.9077 H   0  0  0  0  0  0
  -22.0585   -2.7600   23.2864 H   0  0  0  0  0  0
  -22.4111  -11.9882   22.4773 H   0  0  0  0  0  0
  -21.1083  -13.1237   22.2618 H   0  0  0  0  0  0
  -24.6661  -15.8446   20.5585 H   0  0  0  0  0  0
  -26.2878  -15.6399   20.1311 H   0  0  0  0  0  0
  -26.7116  -32.5552   23.1178 H   0  0  0  0  0  0
  -25.0041  -33.9775   25.0482 H   0  0  0  0  0  0
  -22.6894  -31.3094   21.4152 H   0  0  0  0  0  0
  -23.3751  -35.9644   23.3284 H   0  0  0  0  0  0
  -24.3573  -36.8956   22.2056 H   0  0  0  0  0  0
  -23.7213  -37.6508   23.6664 H   0  0  0  0  0  0
  -26.0279  -31.6146   20.5890 H   0  0  0  0  0  0
  -26.8193  -30.9037   21.9677 H   0  0  0  0  0  0
  -28.1096  -29.1398   21.1249 H   0  0  0  0  0  0
  -26.0678  -25.9659   19.0400 H   0  0  0  0  0  0
  -23.9727  -27.2809   19.0602 H   0  0  0  0  0  0
  -23.7060  -30.5945   19.4061 H   0  0  0  0  0  0
  -22.7302  -29.2373   19.8785 H   0  0  0  0  0  0
  -25.1273  -36.1976   25.0831 H   0  0  0  0  0  0
  -20.9951  -28.3221   24.1453 H   0  0  0  0  0  0
  -20.5657  -26.2258   23.3610 H   0  0  0  0  0  0
  -21.6612  -26.7430   22.1214 H   0  0  0  0  0  0
  -19.6865  -25.6297   21.1254 H   0  0  0  0  0  0
  -19.6673  -27.3205   20.6767 H   0  0  0  0  0  0
  -17.4164  -26.6722   21.4033 H   0  0  0  0  0  0
  -18.0276  -26.0075   22.9023 H   0  0  0  0  0  0
  -19.7908  -30.7288   24.2279 H   0  0  0  0  0  0
  -17.4987  -31.6271   24.5182 H   0  0  0  0  0  0
  -15.5338  -30.3003   23.7656 H   0  0  0  0  0  0
  -15.8650  -28.0835   22.7086 H   0  0  0  0  0  0
  -24.5916  -30.7036   25.7827 H   0  0  0  0  0  0
  -24.8913  -32.2849   26.4939 H   0  0  0  0  0  0
  -25.8096  -30.8872   27.0236 H   0  0  0  0  0  0
  -26.2806  -29.6840   24.1157 H   0  0  0  0  0  0
  -27.4064  -29.7291   25.4539 H   0  0  0  0  0  0
  -27.8635  -30.4392   23.9216 H   0  0  0  0  0  0
  -27.2650  -33.3624   26.2095 H   0  0  0  0  0  0
  -28.3845  -32.6899   25.0335 H   0  0  0  0  0  0
  -28.0699  -31.8441   26.5411 H   0  0  0  0  0  0
  -28.2577  -38.0128   24.7571 H   0  0  0  0  0  0
  -28.1115  -36.2664   24.6204 H   0  0  0  0  0  0
  -27.2310  -37.1355   25.8859 H   0  0  0  0  0  0
  -20.9284  -29.8721   21.6945 H   0  0  0  0  0  0
  -26.0175  -38.2871   24.1491 H   0  0  0  0  0  0
  -29.0384  -15.6143   18.4555 H   0  0  0  0  0  0
  -28.4030  -16.5409   16.3879 H   0  0  0  0  0  0
  -29.4677  -17.8639   15.9045 H   0  0  0  0  0  0
  -27.8187  -18.2038   16.4520 H   0  0  0  0  0  0
  -29.8326  -23.9787   22.6620 H   0  0  0  0  0  0
  -28.6076  -22.9463   21.9804 H   0  0  0  0  0  0
  -28.6378  -26.0429   22.0163 H   0  0  0  0  0  0
  -27.3333  -25.2320   21.1897 H   0  0  0  0  0  0
  -30.2596  -24.9540   20.3336 H   0  0  0  0  0  0
  -30.4349  -21.0079   19.5347 H   0  0  0  0  0  0
  -29.0531  -15.2176   21.3691 H   0  0  0  0  0  0
  -28.5741  -24.5227   18.8457 H   0  0  0  0  0  0
  1 25  1  0  0  0
  1 30  2  0  0  0
  1 84  1  0  0  0
  2  3  1  0  0  0
  2 25  1  0  0  0
  2 89  1  0  0  0
  2 90  1  0  0  0
  3  4  1  0  0  0
  3 91  1  0  0  0
  3 92  1  0  0  0
  4  5  1  0  0  0
  4 93  1  0  0  0
  4 94  1  0  0  0
  5  6  1  0  0  0
  5 26  1  0  0  0
  5 95  1  0  0  0
  6 25  1  0  0  0
  6 96  1  0  0  0
  6 97  1  0  0  0
  7  8  2  0  0  0
  7 26  1  0  0  0
  7 29  1  0  0  0
  8  9  1  0  0  0
  8 22  1  0  0  0
  9 10  1  0  0  0
  9 27  2  0  0  0
 10 11  2  0  0  0
 10 15  1  0  0  0
 11 12  1  0  0  0
 11 98  1  0  0  0
 12 13  2  0  0  0
 12 99  1  0  0  0
 13 14  1  0  0  0
 13 31  1  0  0  0
 14 15  2  0  0  0
 14100  1  0  0  0
 15101  1  0  0  0
 16 17  2  0  0  0
 16 21  1  0  0  0
 16 31  1  0  0  0
 17 18  1  0  0  0
 17102  1  0  0  0
 18 19  2  0  0  0
 18103  1  0  0  0
 19 20  1  0  0  0
 19 24  1  0  0  0
 20 21  2  0  0  0
 20104  1  0  0  0
 21 23  1  0  0  0
 22 28  1  0  0  0
 22 32  2  0  0  0
 26 27  1  0  0  0
 28105  1  0  0  0
 28106  1  0  0  0
 29107  1  0  0  0
 29108  1  0  0  0
 33 34  1  0  0  0
 33 66  1  0  0  0
 33 70  2  0  0  0
 34 36  1  0  0  0
 34 59  1  0  0  0
 34109  1  0  0  0
 35 44  2  0  0  0
 35 45  1  0  0  0
 35 68  1  0  0  0
 36 56  1  0  0  0
 36110  1  0  0  0
 37 39  1  0  0  0
 37 47  1  0  0  0
 37 66  1  0  0  0
 37111  1  0  0  0
 38 43  2  0  0  0
 38 46  1  0  0  0
 38 47  1  0  0  0
 39 64  1  0  0  0
 39 67  2  0  0  0
 40 52  1  0  0  0
 40 53  2  0  0  0
 40 58  1  0  0  0
 41112  1  0  0  0
 41113  1  0  0  0
 41114  1  0  0  0
 41 48  1  0  0  0
 42 43  1  0  0  0
 42 66  1  0  0  0
 42115  1  0  0  0
 42116  1  0  0  0
 43 44  1  0  0  0
 44117  1  0  0  0
 45 46  2  0  0  0
 45118  1  0  0  0
 46119  1  0  0  0
 47120  1  0  0  0
 47121  1  0  0  0
 48 56  1  0  0  0
 48 65  1  0  0  0
 48122  1  0  0  0
 49 50  1  0  0  0
 49 53  1  0  0  0
 49 64  1  0  0  0
 49123  1  0  0  0
 50 51  1  0  0  0
 50124  1  0  0  0
 50125  1  0  0  0
 51 52  1  0  0  0
 51126  1  0  0  0
 51127  1  0  0  0
 52128  1  0  0  0
 52129  1  0  0  0
 53 54  1  0  0  0
 54 55  2  0  0  0
 54130  1  0  0  0
 55 57  1  0  0  0
 55131  1  0  0  0
 56 69  2  0  0  0
 57 58  2  0  0  0
 57132  1  0  0  0
 58133  1  0  0  0
 59 60  1  0  0  0
 59 61  1  0  0  0
 59 62  1  0  0  0
 60134  1  0  0  0
 60135  1  0  0  0
 60136  1  0  0  0
 61137  1  0  0  0
 61138  1  0  0  0
 61139  1  0  0  0
 62140  1  0  0  0
 62141  1  0  0  0
 62142  1  0  0  0
 63 65  1  0  0  0
 63143  1  0  0  0
 63144  1  0  0  0
 63145  1  0  0  0
 64146  1  0  0  0
 65147  1  0  0  0
 68 80  1  0  0  0
 71 72  2  0  0  0
 71 74  1  0  0  0
 71148  1  0  0  0
 72 73  1  0  0  0
 72 78  1  0  0  0
 73 75  2  0  0  0
 73 88  1  0  0  0
 74 82  2  0  0  0
 74 84  1  0  0  0
 75 82  1  0  0  0
 75 83  1  0  0  0
 76 77  1  0  0  0
 76 79  1  0  0  0
 76 85  2  0  0  0
 77 83  1  0  0  0
 77 86  2  0  0  0
 78149  1  0  0  0
 78150  1  0  0  0
 78151  1  0  0  0
 79 81  1  0  0  0
 79152  1  0  0  0
 79153  1  0  0  0
 80 81  1  0  0  0
 80154  1  0  0  0
 80155  1  0  0  0
 81 87  1  0  0  0
 81156  1  0  0  0
 83157  1  0  0  0
 84158  1  0  0  0
 87159  1  0  0  0
M  ISO  4   1 100  68 101  80 101  84 100
M  END
> <chiral flag>
0

> <version>
0

> <s_m_source_file>
/data/baiqing/PycharmProjects/Reinvent-master-3.2/result/LINK_invent/BTK/process_docking_weight1_custom_product_contain_oxygen_bond_distance_aromatic_linkinvent_7_9_3/rearranged_h_0176.sdf

> <i_m_source_file_index>
19

> <r_mmod_Potential_Energy-OPLS-2005>
-201.013275146484

> <r_mmod_Stretch_Energy-OPLS-2005>
36.1417846679688

> <r_mmod_Bend_Energy-OPLS-2005>
99.4094390869141

> <r_mmod_Torsional_Energy-OPLS-2005>
284.155364990234

> <r_mmod_Improper_Torsional_Energy-OPLS-2005>
7.67575550079346

> <r_mmod_Van_der_Waal_Energy-OPLS-2005>
145.00325012207

> <r_mmod_Electrostatic_Energy-OPLS-2005>
-524.875549316406

> <r_mmod_Solvation_Energy-OPLS-2005>
-261.297729492188

> <b_mmod_Minimization_Converged-OPLS-2005>
0

> <r_mmod_RMS_Derivative-OPLS-2005>
3.15445733070374

$$$$
19
                    3D
 Structure written by MMmdl.
169178  0  0  1  0            999 V2000
  -27.2579  -17.7231   20.9653 C   0  0  0  0  0  0
  -29.2234  -15.1346   19.7883 C   0  0  0  0  0  0
  -29.2574  -13.7476   18.8005 C   0  0  0  0  0  0
  -28.2588  -12.6651   19.1760 C   0  0  0  0  0  0
  -27.3000  -13.5283   19.9646 C   0  0  2  0  0  0
  -27.7853  -14.5314   21.1108 C   0  0  0  0  0  0
  -25.0105  -13.8221   20.5512 C   0  0  0  0  0  0
  -24.0268  -13.0011   20.9381 C   0  0  0  0  0  0
  -24.5650  -11.6754   20.8930 C   0  0  0  0  0  0
  -23.8764  -10.4039   21.0467 C   0  0  0  0  0  0
  -24.3441   -9.4045   21.9238 C   0  0  0  0  0  0
  -23.6186   -8.2061   22.0769 C   0  0  0  0  0  0
  -22.4188   -8.0082   21.3532 C   0  0  0  0  0  0
  -21.9753   -8.9991   20.4628 C   0  0  0  0  0  0
  -22.7004  -10.1874   20.3052 C   0  0  0  0  0  0
  -21.6804   -6.0629   22.5293 C   0  0  0  0  0  0
  -21.3984   -6.5580   23.8212 C   0  0  0  0  0  0
  -21.3630   -5.6753   24.9188 C   0  0  0  0  0  0
  -21.6039   -4.3016   24.7257 C   0  0  0  0  0  0
  -21.8824   -3.8079   23.4393 C   0  0  0  0  0  0
  -21.9188   -4.6874   22.3436 C   0  0  0  0  0  0
  -22.6407  -13.4639   21.2137 C   0  0  0  0  0  0
  -22.1660   -4.2067   21.1010 F   0  0  0  0  0  0
  -21.5631   -3.4516   25.7782 F   0  0  0  0  0  0
  -27.8485  -16.0133   20.5400 N   0  0  0  0  0  0
  -26.0806  -12.9963   20.3497 N   0  0  0  0  0  0
  -25.8591  -11.6883   20.5862 N   0  0  0  0  0  0
  -21.9364  -12.7677   22.0892 N   0  0  0  0  0  0
  -25.0717  -15.2015   20.3373 N   0  0  0  0  0  0
  -28.6292  -17.6826   20.9087 O   0  0  0  0  0  0
  -21.6567   -6.8699   21.4233 O   0  0  0  0  0  0
  -22.2118  -14.4988   20.7014 O   0  0  0  0  0  0
  -24.7196  -32.0188   23.2161 C   0  0  0  0  0  0
  -26.0026  -32.5600   23.8723 C   0  0  1  0  0  0
  -27.0248  -27.4671   20.1128 C   0  0  0  0  0  0
  -25.6704  -33.9213   24.2780 N   0  0  0  0  0  0
  -23.5302  -30.6321   21.6694 C   0  0  2  0  0  0
  -24.9175  -29.1666   20.3182 C   0  0  0  0  0  0
  -23.2789  -29.5171   22.7127 C   0  0  0  0  0  0
  -18.9909  -25.8971   23.5611 C   0  0  0  0  0  0
  -24.1495  -36.7551   23.2546 C   0  0  0  0  0  0
  -26.0929  -31.0282   21.3273 C   0  0  0  0  0  0
  -26.1480  -29.6907   20.6086 C   0  0  0  0  0  0
  -27.2785  -28.8546   20.3805 C   0  0  0  0  0  0
  -25.8950  -26.9526   20.6512 C   0  0  0  0  0  0
  -24.8246  -27.8400   20.6324 C   0  0  0  0  0  0
  -23.7082  -30.0462   20.2634 C   0  0  0  0  0  0
  -25.4083  -36.3464   24.0352 C   0  0  1  0  0  0
  -22.3713  -27.3103   22.9843 C   0  0  2  0  0  0
  -23.0285  -25.5792   21.1074 C   0  0  0  0  0  0
  -20.5633  -24.7914   20.1335 C   0  0  0  0  0  0
  -18.8981  -24.8174   21.7811 C   0  0  0  0  0  0
  -20.4566  -27.2428   23.8164 C   0  0  0  0  0  0
  -20.0941  -28.7868   23.5358 C   0  0  0  0  0  0
  -18.7903  -29.1530   22.9254 C   0  0  0  0  0  0
  -25.9155  -34.9899   23.5168 C   0  0  0  0  0  0
  -17.3574  -27.9650   22.7030 C   0  0  0  0  0  0
  -17.4742  -26.4742   23.1185 C   0  0  0  0  0  0
  -26.4937  -31.7006   25.1003 C   0  0  0  0  0  0
  -25.4001  -31.3986   26.1524 C   0  0  0  0  0  0
  -27.0894  -30.3544   24.6323 C   0  0  0  0  0  0
  -27.6450  -32.4424   25.8165 C   0  0  0  0  0  0
  -27.5611  -37.2076   24.8459 C   0  0  0  0  0  0
  -22.3472  -28.6969   22.4918 N   0  0  0  0  0  0
  -26.4249  -37.4170   23.9496 N   0  0  0  0  0  0
  -24.7996  -31.2867   22.0762 N   0  0  0  0  0  0
  -24.0221  -29.2087   23.6265 O   0  0  0  0  0  0
  -26.8718  -26.9543   18.8559 O   0  0  0  0  0  0
  -26.5449  -34.9239   22.4560 O   0  0  0  0  0  0
  -23.6290  -32.2625   23.7653 O   0  0  0  0  0  0
  -21.1511  -24.4816   22.2771 C   0  0  0  0  0  0
  -21.9707  -24.7771   23.0471 C   0  0  0  0  0  0
  -23.9620  -21.4582   21.7826 C   0  0  0  0  0  0
  -21.3805  -27.0832   20.5398 C   0  0  0  0  0  0
  -17.0324  -29.4551   24.5474 C   0  0  0  0  0  0
  -16.6462  -30.2691   22.7490 C   0  0  0  0  0  0
  -18.2933  -27.9050   24.7521 C   0  0  0  0  0  0
  -17.4513  -29.6720   20.9727 C   0  0  0  0  0  0
  -19.3477  -27.1044   21.8254 C   0  0  2  0  0  0
  -25.8717  -27.7289   16.9225 C   0  0  0  0  0  0
  -22.2541  -26.8083   19.0339 C   0  0  0  0  0  0
  -23.7252  -27.3681   18.3071 C   0  0  0  0  0  0
  -25.4169  -26.8684   18.1123 C   0  0  2  0  0  0
  -22.4032  -22.7340   21.6559 N   0  0  0  0  0  0
  -21.0953  -25.8254   22.0194 N   0  0  0  0  0  0
  -25.6019  -19.3138   21.2511 N   0  0  0  0  0  0
  -18.6047  -28.2869   20.6365 N   0  3  0  0  0  0
  -21.0667  -28.2677   20.4170 O   0  0  0  0  0  0
  -23.5679  -23.1357   23.1739 S   0  0  0  0  0  0
  -29.6403  -15.8951   19.1255 H   0  0  0  0  0  0
  -30.0587  -15.0606   20.4948 H   0  0  0  0  0  0
  -30.2623  -13.3280   18.7503 H   0  0  0  0  0  0
  -29.0316  -14.0616   17.7825 H   0  0  0  0  0  0
  -28.6997  -11.8993   19.8176 H   0  0  0  0  0  0
  -27.7983  -12.1875   18.3090 H   0  0  0  0  0  0
  -26.9689  -14.1741   19.1430 H   0  0  0  0  0  0
  -28.6175  -14.1502   21.7155 H   0  0  0  0  0  0
  -27.0417  -14.6235   21.9022 H   0  0  0  0  0  0
  -25.2534   -9.5638   22.4863 H   0  0  0  0  0  0
  -23.9908   -7.4462   22.7500 H   0  0  0  0  0  0
  -21.0684   -8.8431   19.8943 H   0  0  0  0  0  0
  -22.3390  -10.9399   19.6182 H   0  0  0  0  0  0
  -21.1961   -7.6091   23.9679 H   0  0  0  0  0  0
  -21.1451   -6.0503   25.9079 H   0  0  0  0  0  0
  -22.0641   -2.7548   23.2919 H   0  0  0  0  0  0
  -22.3124  -11.9371   22.5203 H   0  0  0  0  0  0
  -21.0028  -13.0661   22.3340 H   0  0  0  0  0  0
  -24.2169  -15.7423   20.2634 H   0  0  0  0  0  0
  -25.8601  -15.5978   19.8400 H   0  0  0  0  0  0
  -26.8296  -32.6263   23.1663 H   0  0  0  0  0  0
  -25.1217  -34.0270   25.1196 H   0  0  0  0  0  0
  -22.6898  -31.3335   21.6462 H   0  0  0  0  0  0
  -23.3782  -35.9880   23.3234 H   0  0  0  0  0  0
  -24.3568  -36.9142   22.1952 H   0  0  0  0  0  0
  -23.7165  -37.6747   23.6462 H   0  0  0  0  0  0
  -26.3040  -31.8391   20.6260 H   0  0  0  0  0  0
  -26.9474  -30.9563   21.9970 H   0  0  0  0  0  0
  -28.2882  -29.2414   20.4475 H   0  0  0  0  0  0
  -25.7775  -25.8894   20.8081 H   0  0  0  0  0  0
  -23.8645  -27.5996   20.9470 H   0  0  0  0  0  0
  -23.9496  -30.8419   19.5610 H   0  0  0  0  0  0
  -22.8231  -29.5915   19.8299 H   0  0  0  0  0  0
  -25.1201  -36.2328   25.0847 H   0  0  0  0  0  0
  -23.0790  -27.1460   23.7982 H   0  0  0  0  0  0
  -23.7398  -25.7178   20.3121 H   0  0  0  0  0  0
  -23.7215  -24.8591   21.4828 H   0  0  0  0  0  0
  -20.6104  -23.7827   19.7236 H   0  0  0  0  0  0
  -20.1601  -25.3439   19.2820 H   0  0  0  0  0  0
  -17.9247  -24.8711   21.2890 H   0  0  0  0  0  0
  -18.7815  -23.7967   22.1506 H   0  0  0  0  0  0
  -20.7583  -29.5992   23.7984 H   0  0  0  0  0  0
  -18.8740  -30.2228   22.7568 H   0  0  0  0  0  0
  -16.3622  -28.0998   22.2905 H   0  0  0  0  0  0
  -16.6872  -25.7885   22.8354 H   0  0  0  0  0  0
  -24.6060  -30.7660   25.7634 H   0  0  0  0  0  0
  -24.9407  -32.3097   26.5310 H   0  0  0  0  0  0
  -25.8144  -30.8773   27.0145 H   0  0  0  0  0  0
  -26.3812  -29.7436   24.0840 H   0  0  0  0  0  0
  -27.4243  -29.7621   25.4848 H   0  0  0  0  0  0
  -27.9580  -30.5047   23.9925 H   0  0  0  0  0  0
  -27.3135  -33.3581   26.3039 H   0  0  0  0  0  0
  -28.4449  -32.7107   25.1275 H   0  0  0  0  0  0
  -28.0908  -31.8260   26.5985 H   0  0  0  0  0  0
  -28.2629  -38.0406   24.7664 H   0  0  0  0  0  0
  -28.1118  -36.2975   24.6041 H   0  0  0  0  0  0
  -27.2396  -37.1493   25.8878 H   0  0  0  0  0  0
  -21.7638  -28.8409   21.6717 H   0  0  0  0  0  0
  -26.0158  -38.3253   24.1574 H   0  0  0  0  0  0
  -16.0740  -29.1367   24.9589 H   0  0  0  0  0  0
  -17.3502  -30.2574   25.2159 H   0  0  0  0  0  0
  -16.8505  -31.3364   22.8503 H   0  0  0  0  0  0
  -15.5625  -30.2378   22.6239 H   0  0  0  0  0  0
  -17.7614  -27.1455   25.3395 H   0  0  0  0  0  0
  -19.0132  -28.1653   25.5429 H   0  0  0  0  0  0
  -17.9736  -30.5514   20.6070 H   0  0  0  0  0  0
  -16.6303  -29.5613   20.2708 H   0  0  0  0  0  0
  -18.6397  -26.8045   21.0345 H   0  0  0  0  0  0
  -25.0896  -27.9703   16.1985 H   0  0  0  0  0  0
  -26.6891  -27.2308   16.4030 H   0  0  0  0  0  0
  -26.2425  -28.6796   17.3167 H   0  0  0  0  0  0
  -21.5456  -27.2135   18.3268 H   0  0  0  0  0  0
  -22.2208  -25.7615   18.7310 H   0  0  0  0  0  0
  -23.6807  -28.4530   18.3024 H   0  0  0  0  0  0
  -23.3876  -27.2183   17.2823 H   0  0  0  0  0  0
  -25.3236  -25.8309   17.7720 H   0  0  0  0  0  0
  -20.2704  -26.0948   22.5356 H   0  0  0  0  0  0
  -24.9217  -18.6766   20.8561 H   0  0  0  0  0  0
  -19.4380  -28.7088   20.2359 H   0  0  0  0  0  0
  -18.1834  -27.7431   19.9031 H   0  0  0  0  0  0
  1 25  1  0  0  0
  1 30  2  0  0  0
  1 86  1  0  0  0
  2  3  1  0  0  0
  2 25  1  0  0  0
  2 90  1  0  0  0
  2 91  1  0  0  0
  3  4  1  0  0  0
  3 92  1  0  0  0
  3 93  1  0  0  0
  4  5  1  0  0  0
  4 94  1  0  0  0
  4 95  1  0  0  0
  5  6  1  0  0  0
  5 26  1  0  0  0
  5 96  1  0  0  0
  6 25  1  0  0  0
  6 97  1  0  0  0
  6 98  1  0  0  0
  7  8  2  0  0  0
  7 26  1  0  0  0
  7 29  1  0  0  0
  8  9  1  0  0  0
  8 22  1  0  0  0
  9 10  1  0  0  0
  9 27  2  0  0  0
 10 11  2  0  0  0
 10 15  1  0  0  0
 11 12  1  0  0  0
 11 99  1  0  0  0
 12 13  2  0  0  0
 12100  1  0  0  0
 13 14  1  0  0  0
 13 31  1  0  0  0
 14 15  2  0  0  0
 14101  1  0  0  0
 15102  1  0  0  0
 16 17  2  0  0  0
 16 21  1  0  0  0
 16 31  1  0  0  0
 17 18  1  0  0  0
 17103  1  0  0  0
 18 19  2  0  0  0
 18104  1  0  0  0
 19 20  1  0  0  0
 19 24  1  0  0  0
 20 21  2  0  0  0
 20105  1  0  0  0
 21 23  1  0  0  0
 22 28  1  0  0  0
 22 32  2  0  0  0
 26 27  1  0  0  0
 28106  1  0  0  0
 28107  1  0  0  0
 29108  1  0  0  0
 29109  1  0  0  0
 33 34  1  0  0  0
 33 66  1  0  0  0
 33 70  2  0  0  0
 34 36  1  0  0  0
 34 59  1  0  0  0
 34110  1  0  0  0
 35 44  2  0  0  0
 35 45  1  0  0  0
 35 68  1  0  0  0
 36 56  1  0  0  0
 36111  1  0  0  0
 37 39  1  0  0  0
 37 47  1  0  0  0
 37 66  1  0  0  0
 37112  1  0  0  0
 38 43  2  0  0  0
 38 46  1  0  0  0
 38 47  1  0  0  0
 39 64  1  0  0  0
 39 67  2  0  0  0
 40 52  1  0  0  0
 40 53  2  0  0  0
 40 58  1  0  0  0
 41113  1  0  0  0
 41114  1  0  0  0
 41115  1  0  0  0
 41 48  1  0  0  0
 42 43  1  0  0  0
 42 66  1  0  0  0
 42116  1  0  0  0
 42117  1  0  0  0
 43 44  1  0  0  0
 44118  1  0  0  0
 45 46  2  0  0  0
 45119  1  0  0  0
 46120  1  0  0  0
 47121  1  0  0  0
 47122  1  0  0  0
 48 56  1  0  0  0
 48 65  1  0  0  0
 48123  1  0  0  0
 49 50  1  0  0  0
 49 53  1  0  0  0
 49 64  1  0  0  0
 49124  1  0  0  0
 50 51  1  0  0  0
 50125  1  0  0  0
 50126  1  0  0  0
 51 52  1  0  0  0
 51127  1  0  0  0
 51128  1  0  0  0
 52129  1  0  0  0
 52130  1  0  0  0
 53 54  1  0  0  0
 54 55  2  0  0  0
 54131  1  0  0  0
 55 57  1  0  0  0
 55132  1  0  0  0
 56 69  2  0  0  0
 57 58  2  0  0  0
 57133  1  0  0  0
 58134  1  0  0  0
 59 60  1  0  0  0
 59 61  1  0  0  0
 59 62  1  0  0  0
 60135  1  0  0  0
 60136  1  0  0  0
 60137  1  0  0  0
 61138  1  0  0  0
 61139  1  0  0  0
 61140  1  0  0  0
 62141  1  0  0  0
 62142  1  0  0  0
 62143  1  0  0  0
 63 65  1  0  0  0
 63144  1  0  0  0
 63145  1  0  0  0
 63146  1  0  0  0
 64147  1  0  0  0
 65148  1  0  0  0
 68 83  1  0  0  0
 71 72  2  0  0  0
 71 84  1  0  0  0
 71 79  1  0  0  0
 72 85  1  0  0  0
 72 89  1  0  0  0
 73 84  2  0  0  0
 73 86  1  0  0  0
 73 89  1  0  0  0
 74 81  1  0  0  0
 74 85  1  0  0  0
 74 88  2  0  0  0
 75 76  1  0  0  0
 75 77  1  0  0  0
 75149  1  0  0  0
 75150  1  0  0  0
 76 78  1  0  0  0
 76151  1  0  0  0
 76152  1  0  0  0
 77 79  1  0  0  0
 77153  1  0  0  0
 77154  1  0  0  0
 78 87  1  0  0  0
 78155  1  0  0  0
 78156  1  0  0  0
 79 87  1  0  0  0
 79157  1  0  0  0
 80158  1  0  0  0
 80159  1  0  0  0
 80160  1  0  0  0
 80 83  1  0  0  0
 81 82  1  0  0  0
 81161  1  0  0  0
 81162  1  0  0  0
 82 83  1  0  0  0
 82163  1  0  0  0
 82164  1  0  0  0
 83165  1  0  0  0
 85166  1  0  0  0
 86167  1  0  0  0
 87168  1  0  0  0
 87169  1  0  0  0
M  CHG  1  87   1
M  ISO  4   1 100  68 101  83 101  86 100
M  END
> <chiral flag>
0

> <version>
0

> <s_m_source_file>
/data/baiqing/PycharmProjects/Reinvent-master-3.2/result/LINK_invent/BTK/process_docking_weight1_custom_product_contain_oxygen_bond_distance_aromatic_linkinvent_7_9_3/rearranged_h_0176.sdf

> <i_m_source_file_index>
20

> <r_mmod_Potential_Energy-OPLS-2005>
47794.53515625

> <r_mmod_Stretch_Energy-OPLS-2005>
23981.92578125

> <r_mmod_Bend_Energy-OPLS-2005>
3930.69702148438

> <r_mmod_Torsional_Energy-OPLS-2005>
830.603515625

> <r_mmod_Improper_Torsional_Energy-OPLS-2005>
125.995704650879

> <r_mmod_Van_der_Waal_Energy-OPLS-2005>
6242.3623046875

> <r_mmod_Electrostatic_Energy-OPLS-2005>
-472.170776367188

> <r_mmod_Solvation_Energy-OPLS-2005>
-465.825836181641

> <b_mmod_Minimization_Converged-OPLS-2005>
0

> <r_mmod_RMS_Derivative-OPLS-2005>
21.8251266479492

$$$$
20
                    3D
 Structure written by MMmdl.
151159  0  0  1  0            999 V2000
  -30.6338  -14.6432   20.4931 C   0  0  0  0  0  0
  -30.4351  -12.3912   19.4610 C   0  0  0  0  0  0
  -29.5105  -12.5090   18.2288 C   0  0  0  0  0  0
  -28.0325  -12.3483   18.6377 C   0  0  0  0  0  0
  -27.6540  -13.2207   19.8642 C   0  0  2  0  0  0
  -28.6974  -13.0846   20.9964 C   0  0  0  0  0  0
  -25.2559  -13.8182   20.5684 C   0  0  0  0  0  0
  -24.1827  -13.0443   20.9185 C   0  0  0  0  0  0
  -24.6400  -11.6915   20.8732 C   0  0  0  0  0  0
  -23.9067  -10.4296   21.0402 C   0  0  0  0  0  0
  -24.3617   -9.4210   21.9180 C   0  0  0  0  0  0
  -23.6291   -8.2247   22.0757 C   0  0  0  0  0  0
  -22.4272   -8.0286   21.3549 C   0  0  0  0  0  0
  -21.9905   -9.0258   20.4648 C   0  0  0  0  0  0
  -22.7238  -10.2135   20.3052 C   0  0  0  0  0  0
  -21.6853   -6.0733   22.5279 C   0  0  0  0  0  0
  -21.4017   -6.5638   23.8212 C   0  0  0  0  0  0
  -21.3661   -5.6791   24.9175 C   0  0  0  0  0  0
  -21.6043   -4.3054   24.7227 C   0  0  0  0  0  0
  -21.8818   -3.8146   23.4348 C   0  0  0  0  0  0
  -21.9194   -4.6962   22.3403 C   0  0  0  0  0  0
  -22.7846  -13.5232   21.1846 C   0  0  0  0  0  0
  -22.1661   -4.2146   21.0981 F   0  0  0  0  0  0
  -21.5627   -3.4537   25.7740 F   0  0  0  0  0  0
  -30.0153  -13.4201   20.4349 N   0  0  0  0  0  0
  -26.2992  -12.9371   20.3315 N   0  0  0  0  0  0
  -25.9331  -11.6522   20.5752 N   0  0  0  0  0  0
  -22.0483  -12.8230   22.0404 N   0  0  0  0  0  0
  -25.4270  -15.1904   20.4112 N   0  0  0  0  0  0
  -31.7926  -14.7882   20.0938 O   0  0  0  0  0  0
  -21.6643   -6.8878   21.4242 O   0  0  0  0  0  0
  -22.3530  -14.5540   20.6698 O   0  0  0  0  0  0
  -24.6263  -31.8606   23.2035 C   0  0  0  0  0  0
  -25.9112  -32.4781   23.8362 C   0  0  1  0  0  0
  -27.2199  -27.3169   20.1136 C   0  0  0  0  0  0
  -25.5927  -33.8582   24.2289 N   0  0  0  0  0  0
  -23.4199  -30.4856   21.5462 C   0  0  2  0  0  0
  -24.8668  -28.9464   20.1076 C   0  0  0  0  0  0
  -22.7481  -29.4628   22.4933 C   0  0  0  0  0  0
  -18.0290  -28.1384   22.8493 C   0  0  0  0  0  0
  -24.1489  -36.7297   23.2638 C   0  0  0  0  0  0
  -25.9629  -30.7901   21.3770 C   0  0  0  0  0  0
  -26.0368  -29.4194   20.7152 C   0  0  0  0  0  0
  -27.2172  -28.6162   20.7094 C   0  0  0  0  0  0
  -26.0307  -26.9099   19.4643 C   0  0  0  0  0  0
  -24.8669  -27.6976   19.4713 C   0  0  0  0  0  0
  -23.6343  -29.8244   20.1605 C   0  0  0  0  0  0
  -25.4114  -36.3089   24.0330 C   0  0  1  0  0  0
  -20.5892  -28.3691   23.1281 C   0  0  2  0  0  0
  -20.6777  -26.9415   22.5406 C   0  0  0  0  0  0
  -19.5751  -26.6388   21.5211 C   0  0  0  0  0  0
  -18.1932  -26.7929   22.1627 C   0  0  0  0  0  0
  -19.1544  -28.8855   23.2881 C   0  0  0  0  0  0
  -18.9463  -30.1456   23.8898 C   0  0  0  0  0  0
  -17.6462  -30.6584   24.0567 C   0  0  0  0  0  0
  -25.9051  -34.9455   23.5111 C   0  0  0  0  0  0
  -16.5355  -29.9083   23.6332 C   0  0  0  0  0  0
  -16.7277  -28.6501   23.0355 C   0  0  0  0  0  0
  -26.4495  -31.6587   25.0731 C   0  0  0  0  0  0
  -25.3725  -31.3724   26.1457 C   0  0  0  0  0  0
  -27.0335  -30.3008   24.6187 C   0  0  0  0  0  0
  -27.6057  -32.4320   25.7498 C   0  0  0  0  0  0
  -27.5582  -37.1806   24.8467 C   0  0  0  0  0  0
  -21.4194  -29.3046   22.3674 N   0  0  0  0  0  0
  -26.4296  -37.3782   23.9408 N   0  0  0  0  0  0
  -24.6884  -31.0618   22.0986 N   0  0  0  0  0  0
  -23.4209  -28.8162   23.3006 O   0  0  0  0  0  0
  -28.3170  -26.4382   20.1892 O   0  0  0  0  0  0
  -26.5617  -34.8922   22.4676 O   0  0  0  0  0  0
  -23.5424  -32.1408   23.7359 O   0  0  0  0  0  0
  -30.4703  -19.1723   19.5778 C   0  0  0  0  0  0
  -30.5067  -17.7295   19.5447 C   0  0  0  0  0  0
  -30.0043  -17.0662   20.6483 C   0  0  0  0  0  0
  -29.9290  -19.6840   20.7325 C   0  0  0  0  0  0
  -29.2849  -24.0183   20.3579 C   0  0  0  0  0  0
  -27.2267  -24.7547   21.6443 C   0  0  0  0  0  0
  -28.0290  -24.9786   20.3422 C   0  0  1  0  0  0
  -29.8720  -15.7048   20.9057 N   0  0  0  0  0  0
  -29.0678  -22.5978   20.3652 N   0  0  0  0  0  0
  -30.4222  -24.4967   20.4090 O   0  0  0  0  0  0
  -31.3942  -21.8022   21.2620 O   0  0  0  0  0  0
  -29.3188  -21.4063   22.6661 O   0  0  0  0  0  0
  -30.9862  -17.1004   18.4967 F   0  0  0  0  0  0
  -29.3991  -18.3259   21.7478 S   0  0  0  0  0  0
  -29.9705  -21.4300   21.3446 S   0  0  0  0  0  0
  -31.4790  -12.5040   19.1632 H   0  0  0  0  0  0
  -30.3596  -11.3977   19.9056 H   0  0  0  0  0  0
  -29.7759  -11.7570   17.4842 H   0  0  0  0  0  0
  -29.6565  -13.4783   17.7496 H   0  0  0  0  0  0
  -27.8680  -11.2954   18.8698 H   0  0  0  0  0  0
  -27.3801  -12.5794   17.7949 H   0  0  0  0  0  0
  -27.6715  -14.2549   19.5208 H   0  0  0  0  0  0
  -28.7061  -12.0671   21.3901 H   0  0  0  0  0  0
  -28.4422  -13.7270   21.8401 H   0  0  0  0  0  0
  -25.2761   -9.5687   22.4753 H   0  0  0  0  0  0
  -24.0001   -7.4637   22.7476 H   0  0  0  0  0  0
  -21.0834   -8.8776   19.8953 H   0  0  0  0  0  0
  -22.3696  -10.9673   19.6159 H   0  0  0  0  0  0
  -21.2013   -7.6147   23.9715 H   0  0  0  0  0  0
  -21.1481   -6.0522   25.9076 H   0  0  0  0  0  0
  -22.0596   -2.7607   23.2851 H   0  0  0  0  0  0
  -22.4097  -11.9899   22.4805 H   0  0  0  0  0  0
  -21.1100  -13.1262   22.2601 H   0  0  0  0  0  0
  -24.6590  -15.8445   20.5169 H   0  0  0  0  0  0
  -26.2766  -15.6299   20.0797 H   0  0  0  0  0  0
  -26.7182  -32.5449   23.1109 H   0  0  0  0  0  0
  -25.0068  -33.9729   25.0430 H   0  0  0  0  0  0
  -22.7135  -31.3062   21.4052 H   0  0  0  0  0  0
  -23.3747  -35.9633   23.3306 H   0  0  0  0  0  0
  -24.3580  -36.8915   22.2052 H   0  0  0  0  0  0
  -23.7248  -37.6503   23.6656 H   0  0  0  0  0  0
  -26.0971  -31.5549   20.6109 H   0  0  0  0  0  0
  -26.8420  -30.8357   22.0079 H   0  0  0  0  0  0
  -28.1109  -28.9696   21.2043 H   0  0  0  0  0  0
  -25.9623  -25.9629   18.9534 H   0  0  0  0  0  0
  -23.9738  -27.3321   18.9835 H   0  0  0  0  0  0
  -23.7508  -30.6026   19.4057 H   0  0  0  0  0  0
  -22.7551  -29.2525   19.8582 H   0  0  0  0  0  0
  -25.1293  -36.1947   25.0823 H   0  0  0  0  0  0
  -20.9987  -28.3266   24.1401 H   0  0  0  0  0  0
  -20.5677  -26.2301   23.3605 H   0  0  0  0  0  0
  -21.6645  -26.7444   22.1197 H   0  0  0  0  0  0
  -19.6909  -25.6300   21.1236 H   0  0  0  0  0  0
  -19.6683  -27.3197   20.6739 H   0  0  0  0  0  0
  -17.4200  -26.6683   21.4029 H   0  0  0  0  0  0
  -18.0334  -26.0063   22.9016 H   0  0  0  0  0  0
  -19.7937  -30.7275   24.2264 H   0  0  0  0  0  0
  -17.5015  -31.6264   24.5165 H   0  0  0  0  0  0
  -15.5354  -30.2984   23.7650 H   0  0  0  0  0  0
  -15.8679  -28.0815   22.7072 H   0  0  0  0  0  0
  -24.5899  -30.7075   25.7787 H   0  0  0  0  0  0
  -24.8908  -32.2883   26.4888 H   0  0  0  0  0  0
  -25.8045  -30.8898   27.0233 H   0  0  0  0  0  0
  -26.2910  -29.6760   24.1206 H   0  0  0  0  0  0
  -27.4024  -29.7269   25.4699 H   0  0  0  0  0  0
  -27.8789  -30.4289   23.9422 H   0  0  0  0  0  0
  -27.2672  -33.3619   26.2077 H   0  0  0  0  0  0
  -28.3861  -32.6879   25.0319 H   0  0  0  0  0  0
  -28.0728  -31.8441   26.5410 H   0  0  0  0  0  0
  -28.2604  -38.0098   24.7507 H   0  0  0  0  0  0
  -28.1074  -36.2630   24.6298 H   0  0  0  0  0  0
  -27.2299  -37.1467   25.8870 H   0  0  0  0  0  0
  -20.9368  -29.8779   21.6894 H   0  0  0  0  0  0
  -26.0179  -38.2861   24.1395 H   0  0  0  0  0  0
  -30.8877  -19.7741   18.7851 H   0  0  0  0  0  0
  -27.0409  -23.6977   21.8362 H   0  0  0  0  0  0
  -26.2514  -25.2378   21.6141 H   0  0  0  0  0  0
  -27.7652  -25.1544   22.5040 H   0  0  0  0  0  0
  -27.4500  -24.6250   19.4914 H   0  0  0  0  0  0
  -29.0256  -15.4428   21.3868 H   0  0  0  0  0  0
  -28.1031  -22.2791   20.3055 H   0  0  0  0  0  0
  1 25  1  0  0  0
  1 30  2  0  0  0
  1 78  1  0  0  0
  2  3  1  0  0  0
  2 25  1  0  0  0
  2 86  1  0  0  0
  2 87  1  0  0  0
  3  4  1  0  0  0
  3 88  1  0  0  0
  3 89  1  0  0  0
  4  5  1  0  0  0
  4 90  1  0  0  0
  4 91  1  0  0  0
  5  6  1  0  0  0
  5 26  1  0  0  0
  5 92  1  0  0  0
  6 25  1  0  0  0
  6 93  1  0  0  0
  6 94  1  0  0  0
  7  8  2  0  0  0
  7 26  1  0  0  0
  7 29  1  0  0  0
  8  9  1  0  0  0
  8 22  1  0  0  0
  9 10  1  0  0  0
  9 27  2  0  0  0
 10 11  2  0  0  0
 10 15  1  0  0  0
 11 12  1  0  0  0
 11 95  1  0  0  0
 12 13  2  0  0  0
 12 96  1  0  0  0
 13 14  1  0  0  0
 13 31  1  0  0  0
 14 15  2  0  0  0
 14 97  1  0  0  0
 15 98  1  0  0  0
 16 17  2  0  0  0
 16 21  1  0  0  0
 16 31  1  0  0  0
 17 18  1  0  0  0
 17 99  1  0  0  0
 18 19  2  0  0  0
 18100  1  0  0  0
 19 20  1  0  0  0
 19 24  1  0  0  0
 20 21  2  0  0  0
 20101  1  0  0  0
 21 23  1  0  0  0
 22 28  1  0  0  0
 22 32  2  0  0  0
 26 27  1  0  0  0
 28102  1  0  0  0
 28103  1  0  0  0
 29104  1  0  0  0
 29105  1  0  0  0
 33 34  1  0  0  0
 33 66  1  0  0  0
 33 70  2  0  0  0
 34 36  1  0  0  0
 34 59  1  0  0  0
 34106  1  0  0  0
 35 44  2  0  0  0
 35 45  1  0  0  0
 35 68  1  0  0  0
 36 56  1  0  0  0
 36107  1  0  0  0
 37 39  1  0  0  0
 37 47  1  0  0  0
 37 66  1  0  0  0
 37108  1  0  0  0
 38 43  2  0  0  0
 38 46  1  0  0  0
 38 47  1  0  0  0
 39 64  1  0  0  0
 39 67  2  0  0  0
 40 52  1  0  0  0
 40 53  2  0  0  0
 40 58  1  0  0  0
 41109  1  0  0  0
 41110  1  0  0  0
 41111  1  0  0  0
 41 48  1  0  0  0
 42 43  1  0  0  0
 42 66  1  0  0  0
 42112  1  0  0  0
 42113  1  0  0  0
 43 44  1  0  0  0
 44114  1  0  0  0
 45 46  2  0  0  0
 45115  1  0  0  0
 46116  1  0  0  0
 47117  1  0  0  0
 47118  1  0  0  0
 48 56  1  0  0  0
 48 65  1  0  0  0
 48119  1  0  0  0
 49 50  1  0  0  0
 49 53  1  0  0  0
 49 64  1  0  0  0
 49120  1  0  0  0
 50 51  1  0  0  0
 50121  1  0  0  0
 50122  1  0  0  0
 51 52  1  0  0  0
 51123  1  0  0  0
 51124  1  0  0  0
 52125  1  0  0  0
 52126  1  0  0  0
 53 54  1  0  0  0
 54 55  2  0  0  0
 54127  1  0  0  0
 55 57  1  0  0  0
 55128  1  0  0  0
 56 69  2  0  0  0
 57 58  2  0  0  0
 57129  1  0  0  0
 58130  1  0  0  0
 59 60  1  0  0  0
 59 61  1  0  0  0
 59 62  1  0  0  0
 60131  1  0  0  0
 60132  1  0  0  0
 60133  1  0  0  0
 61134  1  0  0  0
 61135  1  0  0  0
 61136  1  0  0  0
 62137  1  0  0  0
 62138  1  0  0  0
 62139  1  0  0  0
 63 65  1  0  0  0
 63140  1  0  0  0
 63141  1  0  0  0
 63142  1  0  0  0
 64143  1  0  0  0
 65144  1  0  0  0
 68 77  1  0  0  0
 71 72  1  0  0  0
 71 74  2  0  0  0
 71145  1  0  0  0
 72 73  2  0  0  0
 72 83  1  0  0  0
 73 78  1  0  0  0
 73 84  1  0  0  0
 74 84  1  0  0  0
 74 85  1  0  0  0
 75 77  1  0  0  0
 75 79  1  0  0  0
 75 80  2  0  0  0
 76146  1  0  0  0
 76147  1  0  0  0
 76148  1  0  0  0
 76 77  1  0  0  0
 77149  1  0  0  0
 78150  1  0  0  0
 79151  1  0  0  0
 79 85  1  0  0  0
 81 85  2  0  0  0
 82 85  2  0  0  0
M  ISO  4   1 100  68 101  77 101  78 100
M  END
> <chiral flag>
0

> <version>
0

> <s_m_source_file>
/data/baiqing/PycharmProjects/Reinvent-master-3.2/result/LINK_invent/BTK/process_docking_weight1_custom_product_contain_oxygen_bond_distance_aromatic_linkinvent_7_9_3/rearranged_h_0176.sdf

> <i_m_source_file_index>
21

> <r_mmod_Potential_Energy-OPLS-2005>
-257.00732421875

> <r_mmod_Stretch_Energy-OPLS-2005>
75.2273483276367

> <r_mmod_Bend_Energy-OPLS-2005>
138.097946166992

> <r_mmod_Torsional_Energy-OPLS-2005>
259.06103515625

> <r_mmod_Improper_Torsional_Energy-OPLS-2005>
7.51858139038086

> <r_mmod_Van_der_Waal_Energy-OPLS-2005>
120.167121887207

> <r_mmod_Electrostatic_Energy-OPLS-2005>
-622.797668457031

> <r_mmod_Solvation_Energy-OPLS-2005>
-286.396026611328

> <b_mmod_Minimization_Converged-OPLS-2005>
0

> <r_mmod_RMS_Derivative-OPLS-2005>
0.742319464683533

$$$$
21
                    3D
 Structure written by MMmdl.
155163  0  0  1  0            999 V2000
  -30.6896  -14.5306   20.5391 C   0  0  0  0  0  0
  -30.4185  -12.3330   19.4383 C   0  0  0  0  0  0
  -29.4959  -12.5007   18.2138 C   0  0  0  0  0  0
  -28.0189  -12.3536   18.6276 C   0  0  0  0  0  0
  -27.6541  -13.2139   19.8673 C   0  0  2  0  0  0
  -28.6970  -13.0421   20.9947 C   0  0  0  0  0  0
  -25.2550  -13.8176   20.5672 C   0  0  0  0  0  0
  -24.1816  -13.0441   20.9172 C   0  0  0  0  0  0
  -24.6384  -11.6909   20.8731 C   0  0  0  0  0  0
  -23.9057  -10.4290   21.0398 C   0  0  0  0  0  0
  -24.3614   -9.4208   21.9177 C   0  0  0  0  0  0
  -23.6292   -8.2244   22.0748 C   0  0  0  0  0  0
  -22.4273   -8.0279   21.3541 C   0  0  0  0  0  0
  -21.9901   -9.0247   20.4642 C   0  0  0  0  0  0
  -22.7225  -10.2129   20.3051 C   0  0  0  0  0  0
  -21.6853   -6.0734   22.5276 C   0  0  0  0  0  0
  -21.4020   -6.5639   23.8209 C   0  0  0  0  0  0
  -21.3659   -5.6790   24.9169 C   0  0  0  0  0  0
  -21.6044   -4.3053   24.7216 C   0  0  0  0  0  0
  -21.8822   -3.8146   23.4338 C   0  0  0  0  0  0
  -21.9192   -4.6964   22.3395 C   0  0  0  0  0  0
  -22.7838  -13.5227   21.1839 C   0  0  0  0  0  0
  -22.1659   -4.2155   21.0971 F   0  0  0  0  0  0
  -21.5625   -3.4532   25.7726 F   0  0  0  0  0  0
  -30.0205  -13.3460   20.4318 N   0  0  0  0  0  0
  -26.2983  -12.9358   20.3328 N   0  0  0  0  0  0
  -25.9312  -11.6513   20.5761 N   0  0  0  0  0  0
  -22.0488  -12.8221   22.0407 N   0  0  0  0  0  0
  -25.4259  -15.1898   20.4083 N   0  0  0  0  0  0
  -31.8439  -14.6534   20.1183 O   0  0  0  0  0  0
  -21.6640   -6.8877   21.4238 O   0  0  0  0  0  0
  -22.3515  -14.5530   20.6685 O   0  0  0  0  0  0
  -24.6181  -31.8638   23.2069 C   0  0  0  0  0  0
  -25.9065  -32.4801   23.8367 C   0  0  1  0  0  0
  -27.2341  -27.3961   20.0955 C   0  0  0  0  0  0
  -25.5910  -33.8600   24.2303 N   0  0  0  0  0  0
  -23.4062  -30.4885   21.5470 C   0  0  2  0  0  0
  -24.8511  -28.9467   20.1137 C   0  0  0  0  0  0
  -22.7420  -29.4647   22.4961 C   0  0  0  0  0  0
  -18.0275  -28.1381   22.8496 C   0  0  0  0  0  0
  -24.1486  -36.7307   23.2636 C   0  0  0  0  0  0
  -25.9381  -30.8181   21.3635 C   0  0  0  0  0  0
  -26.0124  -29.4489   20.7113 C   0  0  0  0  0  0
  -27.2022  -28.6803   20.6992 C   0  0  0  0  0  0
  -26.0445  -26.9110   19.5032 C   0  0  0  0  0  0
  -24.8640  -27.6787   19.5089 C   0  0  0  0  0  0
  -23.6161  -29.8191   20.1619 C   0  0  0  0  0  0
  -25.4110  -36.3098   24.0329 C   0  0  1  0  0  0
  -20.5866  -28.3672   23.1307 C   0  0  2  0  0  0
  -20.6762  -26.9404   22.5415 C   0  0  0  0  0  0
  -19.5745  -26.6389   21.5210 C   0  0  0  0  0  0
  -18.1925  -26.7929   22.1624 C   0  0  0  0  0  0
  -19.1526  -28.8841   23.2902 C   0  0  0  0  0  0
  -18.9457  -30.1446   23.8918 C   0  0  0  0  0  0
  -17.6460  -30.6589   24.0568 C   0  0  0  0  0  0
  -25.9039  -34.9465   23.5112 C   0  0  0  0  0  0
  -16.5350  -29.9095   23.6324 C   0  0  0  0  0  0
  -16.7263  -28.6505   23.0356 C   0  0  0  0  0  0
  -26.4487  -31.6592   25.0708 C   0  0  0  0  0  0
  -25.3746  -31.3711   26.1450 C   0  0  0  0  0  0
  -27.0310  -30.3028   24.6098 C   0  0  0  0  0  0
  -27.6056  -32.4310   25.7484 C   0  0  0  0  0  0
  -27.5576  -37.1807   24.8468 C   0  0  0  0  0  0
  -21.4144  -29.3038   22.3704 N   0  0  0  0  0  0
  -26.4292  -37.3788   23.9407 N   0  0  0  0  0  0
  -24.6727  -31.0717   22.0976 N   0  0  0  0  0  0
  -23.4179  -28.8184   23.3010 O   0  0  0  0  0  0
  -28.4180  -26.6723   20.1241 O   0  0  0  0  0  0
  -26.5602  -34.8920   22.4674 O   0  0  0  0  0  0
  -23.5367  -32.1394   23.7457 O   0  0  0  0  0  0
  -31.6355  -17.3240   21.4516 C   0  0  0  0  0  0
  -31.1712  -19.6675   21.0110 C   0  0  0  0  0  0
  -32.0531  -18.6601   21.4486 C   0  0  0  0  0  0
  -30.3452  -16.9880   20.9913 C   0  0  0  0  0  0
  -29.8587  -19.2904   20.6380 C   0  0  0  0  0  0
  -28.4532  -24.1641   20.4054 C   0  0  0  0  0  0
  -28.5427  -25.3900   19.4533 C   0  0  0  0  0  0
  -28.6944  -21.5540   20.7964 C   0  0  0  0  0  0
  -28.7386  -22.7587   19.7929 C   0  0  0  0  0  0
  -29.4734  -17.9831   20.6319 N   0  0  0  0  0  0
  -31.6368  -20.9796   20.8867 N   0  0  0  0  0  0
  -29.9590  -15.6001   20.9561 N   0  0  0  0  0  0
  -28.9074  -20.2264   20.1685 N   0  0  0  0  0  0
  -28.1687  -24.3034   21.6005 O   0  0  0  0  0  0
  -33.3162  -18.9780   21.8280 F   0  0  0  0  0  0
  -27.8386  -22.5275   18.8358 F   0  0  0  0  0  0
  -29.9445  -22.7798   19.2227 F   0  0  0  0  0  0
  -31.4648  -12.4204   19.1400 H   0  0  0  0  0  0
  -30.3152  -11.3332   19.8621 H   0  0  0  0  0  0
  -29.7457  -11.7636   17.4498 H   0  0  0  0  0  0
  -29.6562  -13.4798   17.7595 H   0  0  0  0  0  0
  -27.8425  -11.3001   18.8458 H   0  0  0  0  0  0
  -27.3659  -12.6030   17.7905 H   0  0  0  0  0  0
  -27.6831  -14.2536   19.5412 H   0  0  0  0  0  0
  -28.6837  -12.0191   21.3735 H   0  0  0  0  0  0
  -28.4575  -13.6776   21.8486 H   0  0  0  0  0  0
  -25.2766   -9.5685   22.4740 H   0  0  0  0  0  0
  -24.0004   -7.4636   22.7466 H   0  0  0  0  0  0
  -21.0830   -8.8759   19.8948 H   0  0  0  0  0  0
  -22.3682  -10.9663   19.6151 H   0  0  0  0  0  0
  -21.2024   -7.6149   23.9715 H   0  0  0  0  0  0
  -21.1477   -6.0518   25.9072 H   0  0  0  0  0  0
  -22.0605   -2.7610   23.2830 H   0  0  0  0  0  0
  -22.4108  -11.9890   22.4809 H   0  0  0  0  0  0
  -21.1104  -13.1241   22.2620 H   0  0  0  0  0  0
  -24.6567  -15.8422   20.5159 H   0  0  0  0  0  0
  -26.2743  -15.6336   20.0797 H   0  0  0  0  0  0
  -26.7130  -32.5494   23.1118 H   0  0  0  0  0  0
  -25.0070  -33.9749   25.0456 H   0  0  0  0  0  0
  -22.6966  -31.3065   21.4062 H   0  0  0  0  0  0
  -23.3741  -35.9649   23.3315 H   0  0  0  0  0  0
  -24.3573  -36.8908   22.2048 H   0  0  0  0  0  0
  -23.7249  -37.6518   23.6644 H   0  0  0  0  0  0
  -26.0516  -31.5820   20.5927 H   0  0  0  0  0  0
  -26.8261  -30.8722   21.9819 H   0  0  0  0  0  0
  -28.0994  -29.0682   21.1616 H   0  0  0  0  0  0
  -25.9896  -25.9365   19.0438 H   0  0  0  0  0  0
  -23.9680  -27.2821   19.0518 H   0  0  0  0  0  0
  -23.7293  -30.5929   19.4017 H   0  0  0  0  0  0
  -22.7386  -29.2415   19.8652 H   0  0  0  0  0  0
  -25.1292  -36.1958   25.0823 H   0  0  0  0  0  0
  -20.9965  -28.3245   24.1423 H   0  0  0  0  0  0
  -20.5663  -26.2282   23.3602 H   0  0  0  0  0  0
  -21.6633  -26.7439   22.1210 H   0  0  0  0  0  0
  -19.6906  -25.6305   21.1229 H   0  0  0  0  0  0
  -19.6692  -27.3206   20.6743 H   0  0  0  0  0  0
  -17.4192  -26.6682   21.4027 H   0  0  0  0  0  0
  -18.0330  -26.0068   22.9017 H   0  0  0  0  0  0
  -19.7937  -30.7256   24.2300 H   0  0  0  0  0  0
  -17.5019  -31.6271   24.5172 H   0  0  0  0  0  0
  -15.5354  -30.3011   23.7629 H   0  0  0  0  0  0
  -15.8662  -28.0827   22.7071 H   0  0  0  0  0  0
  -24.5928  -30.7047   25.7787 H   0  0  0  0  0  0
  -24.8930  -32.2870   26.4883 H   0  0  0  0  0  0
  -25.8091  -30.8892   27.0216 H   0  0  0  0  0  0
  -26.2849  -29.6802   24.1141 H   0  0  0  0  0  0
  -27.4056  -29.7258   25.4565 H   0  0  0  0  0  0
  -27.8701  -30.4335   23.9259 H   0  0  0  0  0  0
  -27.2667  -33.3598   26.2087 H   0  0  0  0  0  0
  -28.3862  -32.6887   25.0314 H   0  0  0  0  0  0
  -28.0729  -31.8419   26.5386 H   0  0  0  0  0  0
  -28.2606  -38.0090   24.7487 H   0  0  0  0  0  0
  -28.1054  -36.2615   24.6325 H   0  0  0  0  0  0
  -27.2284  -37.1496   25.8869 H   0  0  0  0  0  0
  -20.9301  -29.8769   21.6936 H   0  0  0  0  0  0
  -26.0178  -38.2866   24.1407 H   0  0  0  0  0  0
  -32.3329  -16.5668   21.7756 H   0  0  0  0  0  0
  -29.5370  -25.3674   19.0082 H   0  0  0  0  0  0
  -27.8578  -25.2754   18.6158 H   0  0  0  0  0  0
  -29.3786  -21.7219   21.6277 H   0  0  0  0  0  0
  -27.7059  -21.5297   21.2567 H   0  0  0  0  0  0
  -32.6457  -21.0798   20.8484 H   0  0  0  0  0  0
  -31.1700  -21.5216   20.1669 H   0  0  0  0  0  0
  -28.9858  -15.4117   21.1299 H   0  0  0  0  0  0
  -28.0545  -19.8048   19.8277 H   0  0  0  0  0  0
  1 25  1  0  0  0
  1 30  2  0  0  0
  1 82  1  0  0  0
  2  3  1  0  0  0
  2 25  1  0  0  0
  2 88  1  0  0  0
  2 89  1  0  0  0
  3  4  1  0  0  0
  3 90  1  0  0  0
  3 91  1  0  0  0
  4  5  1  0  0  0
  4 92  1  0  0  0
  4 93  1  0  0  0
  5  6  1  0  0  0
  5 26  1  0  0  0
  5 94  1  0  0  0
  6 25  1  0  0  0
  6 95  1  0  0  0
  6 96  1  0  0  0
  7  8  2  0  0  0
  7 26  1  0  0  0
  7 29  1  0  0  0
  8  9  1  0  0  0
  8 22  1  0  0  0
  9 10  1  0  0  0
  9 27  2  0  0  0
 10 11  2  0  0  0
 10 15  1  0  0  0
 11 12  1  0  0  0
 11 97  1  0  0  0
 12 13  2  0  0  0
 12 98  1  0  0  0
 13 14  1  0  0  0
 13 31  1  0  0  0
 14 15  2  0  0  0
 14 99  1  0  0  0
 15100  1  0  0  0
 16 17  2  0  0  0
 16 21  1  0  0  0
 16 31  1  0  0  0
 17 18  1  0  0  0
 17101  1  0  0  0
 18 19  2  0  0  0
 18102  1  0  0  0
 19 20  1  0  0  0
 19 24  1  0  0  0
 20 21  2  0  0  0
 20103  1  0  0  0
 21 23  1  0  0  0
 22 28  1  0  0  0
 22 32  2  0  0  0
 26 27  1  0  0  0
 28104  1  0  0  0
 28105  1  0  0  0
 29106  1  0  0  0
 29107  1  0  0  0
 33 34  1  0  0  0
 33 66  1  0  0  0
 33 70  2  0  0  0
 34 36  1  0  0  0
 34 59  1  0  0  0
 34108  1  0  0  0
 35 44  2  0  0  0
 35 45  1  0  0  0
 35 68  1  0  0  0
 36 56  1  0  0  0
 36109  1  0  0  0
 37 39  1  0  0  0
 37 47  1  0  0  0
 37 66  1  0  0  0
 37110  1  0  0  0
 38 43  2  0  0  0
 38 46  1  0  0  0
 38 47  1  0  0  0
 39 64  1  0  0  0
 39 67  2  0  0  0
 40 52  1  0  0  0
 40 53  2  0  0  0
 40 58  1  0  0  0
 41111  1  0  0  0
 41112  1  0  0  0
 41113  1  0  0  0
 41 48  1  0  0  0
 42 43  1  0  0  0
 42 66  1  0  0  0
 42114  1  0  0  0
 42115  1  0  0  0
 43 44  1  0  0  0
 44116  1  0  0  0
 45 46  2  0  0  0
 45117  1  0  0  0
 46118  1  0  0  0
 47119  1  0  0  0
 47120  1  0  0  0
 48 56  1  0  0  0
 48 65  1  0  0  0
 48121  1  0  0  0
 49 50  1  0  0  0
 49 53  1  0  0  0
 49 64  1  0  0  0
 49122  1  0  0  0
 50 51  1  0  0  0
 50123  1  0  0  0
 50124  1  0  0  0
 51 52  1  0  0  0
 51125  1  0  0  0
 51126  1  0  0  0
 52127  1  0  0  0
 52128  1  0  0  0
 53 54  1  0  0  0
 54 55  2  0  0  0
 54129  1  0  0  0
 55 57  1  0  0  0
 55130  1  0  0  0
 56 69  2  0  0  0
 57 58  2  0  0  0
 57131  1  0  0  0
 58132  1  0  0  0
 59 60  1  0  0  0
 59 61  1  0  0  0
 59 62  1  0  0  0
 60133  1  0  0  0
 60134  1  0  0  0
 60135  1  0  0  0
 61136  1  0  0  0
 61137  1  0  0  0
 61138  1  0  0  0
 62139  1  0  0  0
 62140  1  0  0  0
 62141  1  0  0  0
 63 65  1  0  0  0
 63142  1  0  0  0
 63143  1  0  0  0
 63144  1  0  0  0
 64145  1  0  0  0
 65146  1  0  0  0
 68 77  1  0  0  0
 71 73  2  0  0  0
 71 74  1  0  0  0
 71147  1  0  0  0
 72 73  1  0  0  0
 72 75  2  0  0  0
 72 81  1  0  0  0
 73 85  1  0  0  0
 74 80  2  0  0  0
 74 82  1  0  0  0
 75 80  1  0  0  0
 75 83  1  0  0  0
 76 77  1  0  0  0
 76 79  1  0  0  0
 76 84  2  0  0  0
 77148  1  0  0  0
 77149  1  0  0  0
 78 79  1  0  0  0
 78 83  1  0  0  0
 78150  1  0  0  0
 78151  1  0  0  0
 79 86  1  0  0  0
 79 87  1  0  0  0
 81152  1  0  0  0
 81153  1  0  0  0
 82154  1  0  0  0
 83155  1  0  0  0
M  ISO  4   1 100  68 101  77 101  82 100
M  END
> <chiral flag>
0

> <version>
0

> <s_m_source_file>
/data/baiqing/PycharmProjects/Reinvent-master-3.2/result/LINK_invent/BTK/process_docking_weight1_custom_product_contain_oxygen_bond_distance_aromatic_linkinvent_7_9_3/rearranged_h_0176.sdf

> <i_m_source_file_index>
22

> <r_mmod_Potential_Energy-OPLS-2005>
-200.12043762207

> <r_mmod_Stretch_Energy-OPLS-2005>
49.9249305725098

> <r_mmod_Bend_Energy-OPLS-2005>
122.014350891113

> <r_mmod_Torsional_Energy-OPLS-2005>
232.804321289062

> <r_mmod_Improper_Torsional_Energy-OPLS-2005>
12.1674747467041

> <r_mmod_Van_der_Waal_Energy-OPLS-2005>
162.361587524414

> <r_mmod_Electrostatic_Energy-OPLS-2005>
-568.127746582031

> <r_mmod_Solvation_Energy-OPLS-2005>
-232.105560302734

> <b_mmod_Minimization_Converged-OPLS-2005>
0

> <r_mmod_RMS_Derivative-OPLS-2005>
1.03517401218414

$$$$
22
                    3D
 Structure written by MMmdl.
157165  0  0  1  0            999 V2000
  -30.7075  -14.4372   20.6173 C   0  0  0  0  0  0
  -30.4274  -12.3006   19.4133 C   0  0  0  0  0  0
  -29.4947  -12.5140   18.2036 C   0  0  0  0  0  0
  -28.0158  -12.3736   18.6154 C   0  0  0  0  0  0
  -27.6664  -13.2011   19.8808 C   0  0  2  0  0  0
  -28.7046  -12.9494   20.9968 C   0  0  0  0  0  0
  -25.2612  -13.8155   20.5676 C   0  0  0  0  0  0
  -24.1852  -13.0442   20.9172 C   0  0  0  0  0  0
  -24.6393  -11.6904   20.8730 C   0  0  0  0  0  0
  -23.9052  -10.4293   21.0404 C   0  0  0  0  0  0
  -24.3606   -9.4213   21.9185 C   0  0  0  0  0  0
  -23.6287   -8.2245   22.0754 C   0  0  0  0  0  0
  -22.4269   -8.0282   21.3544 C   0  0  0  0  0  0
  -21.9902   -9.0253   20.4644 C   0  0  0  0  0  0
  -22.7226  -10.2134   20.3053 C   0  0  0  0  0  0
  -21.6852   -6.0737   22.5280 C   0  0  0  0  0  0
  -21.4012   -6.5638   23.8213 C   0  0  0  0  0  0
  -21.3660   -5.6791   24.9176 C   0  0  0  0  0  0
  -21.6044   -4.3055   24.7225 C   0  0  0  0  0  0
  -21.8820   -3.8147   23.4346 C   0  0  0  0  0  0
  -21.9192   -4.6965   22.3403 C   0  0  0  0  0  0
  -22.7874  -13.5250   21.1842 C   0  0  0  0  0  0
  -22.1662   -4.2151   21.0982 F   0  0  0  0  0  0
  -21.5629   -3.4538   25.7738 F   0  0  0  0  0  0
  -30.0417  -13.2619   20.4575 N   0  0  0  0  0  0
  -26.3045  -12.9309   20.3377 N   0  0  0  0  0  0
  -25.9317  -11.6474   20.5757 N   0  0  0  0  0  0
  -22.0504  -12.8242   22.0390 N   0  0  0  0  0  0
  -25.4363  -15.1871   20.4090 N   0  0  0  0  0  0
  -31.7988  -14.6654   20.0851 O   0  0  0  0  0  0
  -21.6637   -6.8877   21.4240 O   0  0  0  0  0  0
  -22.3564  -14.5567   20.6704 O   0  0  0  0  0  0
  -24.6091  -31.8700   23.2111 C   0  0  0  0  0  0
  -25.8996  -32.4836   23.8406 C   0  0  1  0  0  0
  -27.2477  -27.4621   20.1026 C   0  0  0  0  0  0
  -25.5868  -33.8631   24.2341 N   0  0  0  0  0  0
  -23.3977  -30.4908   21.5486 C   0  0  2  0  0  0
  -24.8506  -28.9560   20.1199 C   0  0  0  0  0  0
  -22.7391  -29.4652   22.4985 C   0  0  0  0  0  0
  -18.0271  -28.1366   22.8481 C   0  0  0  0  0  0
  -24.1486  -36.7319   23.2642 C   0  0  0  0  0  0
  -25.9219  -30.8442   21.3604 C   0  0  0  0  0  0
  -26.0043  -29.4752   20.7212 C   0  0  0  0  0  0
  -27.2056  -28.7349   20.7183 C   0  0  0  0  0  0
  -26.0844  -26.9566   19.4907 C   0  0  0  0  0  0
  -24.8830  -27.6914   19.5045 C   0  0  0  0  0  0
  -23.6088  -29.8179   20.1647 C   0  0  0  0  0  0
  -25.4099  -36.3117   24.0350 C   0  0  1  0  0  0
  -20.5859  -28.3637   23.1323 C   0  0  2  0  0  0
  -20.6757  -26.9378   22.5412 C   0  0  0  0  0  0
  -19.5745  -26.6373   21.5199 C   0  0  0  0  0  0
  -18.1923  -26.7911   22.1614 C   0  0  0  0  0  0
  -19.1522  -28.8814   23.2903 C   0  0  0  0  0  0
  -18.9464  -30.1420   23.8915 C   0  0  0  0  0  0
  -17.6470  -30.6576   24.0556 C   0  0  0  0  0  0
  -25.9014  -34.9482   23.5141 C   0  0  0  0  0  0
  -16.5355  -29.9083   23.6319 C   0  0  0  0  0  0
  -16.7261  -28.6498   23.0339 C   0  0  0  0  0  0
  -26.4440  -31.6602   25.0713 C   0  0  0  0  0  0
  -25.3722  -31.3720   26.1480 C   0  0  0  0  0  0
  -27.0262  -30.3060   24.6029 C   0  0  0  0  0  0
  -27.6010  -32.4324   25.7471 C   0  0  0  0  0  0
  -27.5582  -37.1809   24.8465 C   0  0  0  0  0  0
  -21.4123  -29.3017   22.3739 N   0  0  0  0  0  0
  -26.4290  -37.3792   23.9414 N   0  0  0  0  0  0
  -24.6606  -31.0831   22.0988 N   0  0  0  0  0  0
  -23.4185  -28.8194   23.3011 O   0  0  0  0  0  0
  -28.3932  -26.7056   20.0225 O   0  0  0  0  0  0
  -26.5578  -34.8929   22.4704 O   0  0  0  0  0  0
  -23.5292  -32.1428   23.7524 O   0  0  0  0  0  0
  -31.2118  -17.5109   20.8547 C   0  0  0  0  0  0
  -31.0769  -18.8843   21.2130 C   0  0  0  0  0  0
  -30.0401  -19.1584   22.0621 C   0  0  0  0  0  0
  -30.2609  -16.7018   21.4414 C   0  0  0  0  0  0
  -29.4614  -21.6420   21.7491 C   0  0  0  0  0  0
  -30.6238  -26.4936   20.9569 C   0  0  0  0  0  0
  -29.0102  -23.8366   21.2580 C   0  0  0  0  0  0
  -31.5589  -26.4852   22.1584 C   0  0  0  0  0  0
  -29.6484  -20.4652   22.6974 C   0  0  0  0  0  0
  -28.6230  -25.1710   21.9278 C   0  0  0  0  0  0
  -29.1112  -26.4789   21.2406 C   0  0  2  0  0  0
  -29.1873  -22.8136   22.1815 N   0  0  0  0  0  0
  -30.0522  -15.3570   21.3510 N   0  0  0  0  0  0
  -31.0790  -26.5202   19.8096 O   0  0  0  0  0  0
  -29.1061  -23.7713   20.0290 O   0  0  0  0  0  0
  -31.9034  -19.8020   20.7667 F   0  0  0  0  0  0
  -29.1862  -17.6774   22.4282 S   0  0  0  0  0  0
  -31.4708  -12.4089   19.1109 H   0  0  0  0  0  0
  -30.3354  -11.2822   19.7938 H   0  0  0  0  0  0
  -29.7319  -11.7980   17.4156 H   0  0  0  0  0  0
  -29.6637  -13.5039   17.7772 H   0  0  0  0  0  0
  -27.8222  -11.3164   18.8004 H   0  0  0  0  0  0
  -27.3656  -12.6598   17.7875 H   0  0  0  0  0  0
  -27.7214  -14.2540   19.6028 H   0  0  0  0  0  0
  -28.6758  -11.9031   21.3052 H   0  0  0  0  0  0
  -28.4548  -13.5148   21.8953 H   0  0  0  0  0  0
  -25.2751   -9.5693   22.4759 H   0  0  0  0  0  0
  -24.0001   -7.4636   22.7471 H   0  0  0  0  0  0
  -21.0836   -8.8771   19.8945 H   0  0  0  0  0  0
  -22.3689  -10.9674   19.6161 H   0  0  0  0  0  0
  -21.2001   -7.6144   23.9718 H   0  0  0  0  0  0
  -21.1481   -6.0520   25.9079 H   0  0  0  0  0  0
  -22.0598   -2.7608   23.2846 H   0  0  0  0  0  0
  -22.4102  -11.9895   22.4774 H   0  0  0  0  0  0
  -21.1126  -13.1280   22.2594 H   0  0  0  0  0  0
  -24.6738  -15.8473   20.5157 H   0  0  0  0  0  0
  -26.2948  -15.6213   20.0931 H   0  0  0  0  0  0
  -26.7067  -32.5569   23.1180 H   0  0  0  0  0  0
  -25.0036  -33.9794   25.0500 H   0  0  0  0  0  0
  -22.6842  -31.3050   21.4060 H   0  0  0  0  0  0
  -23.3743  -35.9654   23.3309 H   0  0  0  0  0  0
  -24.3596  -36.8917   22.2057 H   0  0  0  0  0  0
  -23.7248  -37.6533   23.6644 H   0  0  0  0  0  0
  -26.0231  -31.6051   20.5854 H   0  0  0  0  0  0
  -26.8138  -30.9103   21.9715 H   0  0  0  0  0  0
  -28.0958  -29.1541   21.1654 H   0  0  0  0  0  0
  -26.1117  -25.9900   19.0068 H   0  0  0  0  0  0
  -23.9982  -27.2843   19.0353 H   0  0  0  0  0  0
  -23.7140  -30.5886   19.3998 H   0  0  0  0  0  0
  -22.7363  -29.2311   19.8711 H   0  0  0  0  0  0
  -25.1278  -36.1984   25.0844 H   0  0  0  0  0  0
  -20.9952  -28.3194   24.1443 H   0  0  0  0  0  0
  -20.5644  -26.2248   23.3592 H   0  0  0  0  0  0
  -21.6634  -26.7408   22.1224 H   0  0  0  0  0  0
  -19.6907  -25.6289   21.1217 H   0  0  0  0  0  0
  -19.6700  -27.3192   20.6740 H   0  0  0  0  0  0
  -17.4193  -26.6647   21.4021 H   0  0  0  0  0  0
  -18.0332  -26.0051   22.9012 H   0  0  0  0  0  0
  -19.7945  -30.7213   24.2312 H   0  0  0  0  0  0
  -17.5036  -31.6268   24.5141 H   0  0  0  0  0  0
  -15.5360  -30.2999   23.7633 H   0  0  0  0  0  0
  -15.8658  -28.0823   22.7052 H   0  0  0  0  0  0
  -24.5863  -30.7093   25.7840 H   0  0  0  0  0  0
  -24.8945  -32.2893   26.4937 H   0  0  0  0  0  0
  -25.8081  -30.8890   27.0235 H   0  0  0  0  0  0
  -26.2789  -29.6847   24.1070 H   0  0  0  0  0  0
  -27.4070  -29.7256   25.4443 H   0  0  0  0  0  0
  -27.8609  -30.4422   23.9144 H   0  0  0  0  0  0
  -27.2611  -33.3605   26.2082 H   0  0  0  0  0  0
  -28.3798  -32.6919   25.0289 H   0  0  0  0  0  0
  -28.0696  -31.8435   26.5363 H   0  0  0  0  0  0
  -28.2588  -38.0116   24.7513 H   0  0  0  0  0  0
  -28.1090  -36.2644   24.6281 H   0  0  0  0  0  0
  -27.2307  -37.1457   25.8871 H   0  0  0  0  0  0
  -20.9267  -29.8784   21.7012 H   0  0  0  0  0  0
  -26.0184  -38.2868   24.1426 H   0  0  0  0  0  0
  -31.9995  -17.1843   20.1920 H   0  0  0  0  0  0
  -29.5740  -21.3941   20.6881 H   0  0  0  0  0  0
  -31.9637  -25.4859   22.3151 H   0  0  0  0  0  0
  -31.0284  -26.7902   23.0600 H   0  0  0  0  0  0
  -32.3870  -27.1752   21.9994 H   0  0  0  0  0  0
  -30.4048  -20.7385   23.4325 H   0  0  0  0  0  0
  -28.7230  -20.3351   23.2583 H   0  0  0  0  0  0
  -29.0016  -25.1684   22.9507 H   0  0  0  0  0  0
  -27.5373  -25.1983   22.0185 H   0  0  0  0  0  0
  -28.9348  -27.2994   21.9350 H   0  0  0  0  0  0
  -29.2121  -15.0131   21.7922 H   0  0  0  0  0  0
  1 25  1  0  0  0
  1 30  2  0  0  0
  1 83  1  0  0  0
  2  3  1  0  0  0
  2 25  1  0  0  0
  2 88  1  0  0  0
  2 89  1  0  0  0
  3  4  1  0  0  0
  3 90  1  0  0  0
  3 91  1  0  0  0
  4  5  1  0  0  0
  4 92  1  0  0  0
  4 93  1  0  0  0
  5  6  1  0  0  0
  5 26  1  0  0  0
  5 94  1  0  0  0
  6 25  1  0  0  0
  6 95  1  0  0  0
  6 96  1  0  0  0
  7  8  2  0  0  0
  7 26  1  0  0  0
  7 29  1  0  0  0
  8  9  1  0  0  0
  8 22  1  0  0  0
  9 10  1  0  0  0
  9 27  2  0  0  0
 10 11  2  0  0  0
 10 15  1  0  0  0
 11 12  1  0  0  0
 11 97  1  0  0  0
 12 13  2  0  0  0
 12 98  1  0  0  0
 13 14  1  0  0  0
 13 31  1  0  0  0
 14 15  2  0  0  0
 14 99  1  0  0  0
 15100  1  0  0  0
 16 17  2  0  0  0
 16 21  1  0  0  0
 16 31  1  0  0  0
 17 18  1  0  0  0
 17101  1  0  0  0
 18 19  2  0  0  0
 18102  1  0  0  0
 19 20  1  0  0  0
 19 24  1  0  0  0
 20 21  2  0  0  0
 20103  1  0  0  0
 21 23  1  0  0  0
 22 28  1  0  0  0
 22 32  2  0  0  0
 26 27  1  0  0  0
 28104  1  0  0  0
 28105  1  0  0  0
 29106  1  0  0  0
 29107  1  0  0  0
 33 34  1  0  0  0
 33 66  1  0  0  0
 33 70  2  0  0  0
 34 36  1  0  0  0
 34 59  1  0  0  0
 34108  1  0  0  0
 35 44  2  0  0  0
 35 45  1  0  0  0
 35 68  1  0  0  0
 36 56  1  0  0  0
 36109  1  0  0  0
 37 39  1  0  0  0
 37 47  1  0  0  0
 37 66  1  0  0  0
 37110  1  0  0  0
 38 43  2  0  0  0
 38 46  1  0  0  0
 38 47  1  0  0  0
 39 64  1  0  0  0
 39 67  2  0  0  0
 40 52  1  0  0  0
 40 53  2  0  0  0
 40 58  1  0  0  0
 41111  1  0  0  0
 41112  1  0  0  0
 41113  1  0  0  0
 41 48  1  0  0  0
 42 43  1  0  0  0
 42 66  1  0  0  0
 42114  1  0  0  0
 42115  1  0  0  0
 43 44  1  0  0  0
 44116  1  0  0  0
 45 46  2  0  0  0
 45117  1  0  0  0
 46118  1  0  0  0
 47119  1  0  0  0
 47120  1  0  0  0
 48 56  1  0  0  0
 48 65  1  0  0  0
 48121  1  0  0  0
 49 50  1  0  0  0
 49 53  1  0  0  0
 49 64  1  0  0  0
 49122  1  0  0  0
 50 51  1  0  0  0
 50123  1  0  0  0
 50124  1  0  0  0
 51 52  1  0  0  0
 51125  1  0  0  0
 51126  1  0  0  0
 52127  1  0  0  0
 52128  1  0  0  0
 53 54  1  0  0  0
 54 55  2  0  0  0
 54129  1  0  0  0
 55 57  1  0  0  0
 55130  1  0  0  0
 56 69  2  0  0  0
 57 58  2  0  0  0
 57131  1  0  0  0
 58132  1  0  0  0
 59 60  1  0  0  0
 59 61  1  0  0  0
 59 62  1  0  0  0
 60133  1  0  0  0
 60134  1  0  0  0
 60135  1  0  0  0
 61136  1  0  0  0
 61137  1  0  0  0
 61138  1  0  0  0
 62139  1  0  0  0
 62140  1  0  0  0
 62141  1  0  0  0
 63 65  1  0  0  0
 63142  1  0  0  0
 63143  1  0  0  0
 63144  1  0  0  0
 64145  1  0  0  0
 65146  1  0  0  0
 68 81  1  0  0  0
 71 72  1  0  0  0
 71 74  2  0  0  0
 71147  1  0  0  0
 72 73  2  0  0  0
 72 86  1  0  0  0
 73 79  1  0  0  0
 73 87  1  0  0  0
 74 83  1  0  0  0
 74 87  1  0  0  0
 75 79  1  0  0  0
 75 82  2  0  0  0
 75148  1  0  0  0
 76 78  1  0  0  0
 76 81  1  0  0  0
 76 84  2  0  0  0
 77 80  1  0  0  0
 77 82  1  0  0  0
 77 85  2  0  0  0
 78149  1  0  0  0
 78150  1  0  0  0
 78151  1  0  0  0
 79152  1  0  0  0
 79153  1  0  0  0
 80154  1  0  0  0
 80155  1  0  0  0
 80 81  1  0  0  0
 81156  1  0  0  0
 83157  1  0  0  0
M  ISO  4   1 100  68 101  81 101  83 100
M  END
> <chiral flag>
0

> <version>
0

> <s_m_source_file>
/data/baiqing/PycharmProjects/Reinvent-master-3.2/result/LINK_invent/BTK/process_docking_weight1_custom_product_contain_oxygen_bond_distance_aromatic_linkinvent_7_9_3/rearranged_h_0176.sdf

> <i_m_source_file_index>
23

> <r_mmod_Potential_Energy-OPLS-2005>
-148.963684082031

> <r_mmod_Stretch_Energy-OPLS-2005>
34.8672828674316

> <r_mmod_Bend_Energy-OPLS-2005>
109.328308105469

> <r_mmod_Torsional_Energy-OPLS-2005>
212.594436645508

> <r_mmod_Improper_Torsional_Energy-OPLS-2005>
2.59119772911072

> <r_mmod_Van_der_Waal_Energy-OPLS-2005>
138.386444091797

> <r_mmod_Electrostatic_Energy-OPLS-2005>
-426.116485595703

> <r_mmod_Solvation_Energy-OPLS-2005>
-228.420394897461

> <b_mmod_Minimization_Converged-OPLS-2005>
0

> <r_mmod_RMS_Derivative-OPLS-2005>
1.10565423965454

$$$$
23
                    3D
 Structure written by MMmdl.
151159  0  0  1  0            999 V2000
  -30.6227  -14.6296   20.4937 C   0  0  0  0  0  0
  -30.4376  -12.3845   19.4497 C   0  0  0  0  0  0
  -29.5066  -12.5016   18.2224 C   0  0  0  0  0  0
  -28.0293  -12.3402   18.6348 C   0  0  0  0  0  0
  -27.6524  -13.2127   19.8613 C   0  0  2  0  0  0
  -28.6971  -13.0677   20.9915 C   0  0  0  0  0  0
  -25.2564  -13.8165   20.5683 C   0  0  0  0  0  0
  -24.1827  -13.0440   20.9194 C   0  0  0  0  0  0
  -24.6385  -11.6906   20.8738 C   0  0  0  0  0  0
  -23.9050  -10.4295   21.0409 C   0  0  0  0  0  0
  -24.3609   -9.4208   21.9184 C   0  0  0  0  0  0
  -23.6286   -8.2241   22.0750 C   0  0  0  0  0  0
  -22.4267   -8.0279   21.3537 C   0  0  0  0  0  0
  -21.9899   -9.0255   20.4645 C   0  0  0  0  0  0
  -22.7222  -10.2141   20.3058 C   0  0  0  0  0  0
  -21.6857   -6.0730   22.5275 C   0  0  0  0  0  0
  -21.4018   -6.5632   23.8207 C   0  0  0  0  0  0
  -21.3657   -5.6789   24.9170 C   0  0  0  0  0  0
  -21.6044   -4.3050   24.7223 C   0  0  0  0  0  0
  -21.8820   -3.8139   23.4345 C   0  0  0  0  0  0
  -21.9194   -4.6957   22.3402 C   0  0  0  0  0  0
  -22.7852  -13.5240   21.1859 C   0  0  0  0  0  0
  -22.1661   -4.2138   21.0978 F   0  0  0  0  0  0
  -21.5628   -3.4537   25.7737 F   0  0  0  0  0  0
  -30.0141  -13.4047   20.4279 N   0  0  0  0  0  0
  -26.2980  -12.9332   20.3300 N   0  0  0  0  0  0
  -25.9311  -11.6494   20.5750 N   0  0  0  0  0  0
  -22.0492  -12.8240   22.0421 N   0  0  0  0  0  0
  -25.4298  -15.1888   20.4101 N   0  0  0  0  0  0
  -31.7891  -14.7870   20.1218 O   0  0  0  0  0  0
  -21.6639   -6.8872   21.4234 O   0  0  0  0  0  0
  -22.3533  -14.5542   20.6700 O   0  0  0  0  0  0
  -24.6246  -31.8607   23.2040 C   0  0  0  0  0  0
  -25.9100  -32.4785   23.8360 C   0  0  1  0  0  0
  -27.2248  -27.3342   20.1075 C   0  0  0  0  0  0
  -25.5915  -33.8585   24.2280 N   0  0  0  0  0  0
  -23.4173  -30.4845   21.5469 C   0  0  2  0  0  0
  -24.8629  -28.9434   20.1114 C   0  0  0  0  0  0
  -22.7467  -29.4622   22.4944 C   0  0  0  0  0  0
  -18.0288  -28.1377   22.8493 C   0  0  0  0  0  0
  -24.1487  -36.7303   23.2636 C   0  0  0  0  0  0
  -25.9578  -30.7955   21.3736 C   0  0  0  0  0  0
  -26.0315  -29.4245   20.7143 C   0  0  0  0  0  0
  -27.2153  -28.6310   20.7043 C   0  0  0  0  0  0
  -26.0305  -26.9027   19.4825 C   0  0  0  0  0  0
  -24.8634  -27.6871   19.4885 C   0  0  0  0  0  0
  -23.6300  -29.8212   20.1617 C   0  0  0  0  0  0
  -25.4111  -36.3085   24.0326 C   0  0  1  0  0  0
  -20.5885  -28.3677   23.1288 C   0  0  2  0  0  0
  -20.6773  -26.9401   22.5409 C   0  0  0  0  0  0
  -19.5745  -26.6378   21.5213 C   0  0  0  0  0  0
  -18.1929  -26.7918   22.1636 C   0  0  0  0  0  0
  -19.1540  -28.8845   23.2884 C   0  0  0  0  0  0
  -18.9462  -30.1449   23.8898 C   0  0  0  0  0  0
  -17.6461  -30.6579   24.0566 C   0  0  0  0  0  0
  -25.9048  -34.9454   23.5103 C   0  0  0  0  0  0
  -16.5352  -29.9080   23.6329 C   0  0  0  0  0  0
  -16.7276  -28.6498   23.0353 C   0  0  0  0  0  0
  -26.4484  -31.6598   25.0730 C   0  0  0  0  0  0
  -25.3723  -31.3761   26.1466 C   0  0  0  0  0  0
  -27.0318  -30.3019   24.6186 C   0  0  0  0  0  0
  -27.6042  -32.4338   25.7494 C   0  0  0  0  0  0
  -27.5582  -37.1796   24.8456 C   0  0  0  0  0  0
  -21.4182  -29.3034   22.3687 N   0  0  0  0  0  0
  -26.4286  -37.3781   23.9412 N   0  0  0  0  0  0
  -24.6852  -31.0631   22.0985 N   0  0  0  0  0  0
  -23.4202  -28.8161   23.3013 O   0  0  0  0  0  0
  -28.3484  -26.4979   20.1514 O   0  0  0  0  0  0
  -26.5619  -34.8918   22.4671 O   0  0  0  0  0  0
  -23.5414  -32.1397   23.7379 O   0  0  0  0  0  0
  -31.1156  -17.8258   20.3511 C   0  0  0  0  0  0
  -28.7835  -17.9574   20.8742 C   0  0  0  0  0  0
  -30.0263  -20.0902   20.4929 C   0  0  0  0  0  0
  -29.9240  -17.1324   20.6731 C   0  0  0  0  0  0
  -31.1632  -19.2471   20.2628 C   0  0  0  0  0  0
  -28.8246  -19.3825   20.7842 C   0  0  0  0  0  0
  -29.1451  -22.5819   20.3211 C   0  0  0  0  0  0
  -30.1363  -21.6301   20.4589 C   0  0  0  0  0  0
  -29.3143  -24.1075   20.3454 C   0  0  0  0  0  0
  -28.1254  -25.0499   19.9425 C   0  0  0  0  0  0
  -29.8006  -15.6778   20.8154 N   0  0  0  0  0  0
  -30.3674  -24.6589   20.6848 O   0  0  0  0  0  0
  -31.4033  -22.0468   20.6256 O   0  0  0  0  0  0
  -32.3645  -19.8014   19.9616 F   0  0  0  0  0  0
  -27.6788  -20.0683   21.0166 F   0  0  0  0  0  0
  -31.4784  -12.5090   19.1468 H   0  0  0  0  0  0
  -30.3719  -11.3890   19.8919 H   0  0  0  0  0  0
  -29.7686  -11.7493   17.4773 H   0  0  0  0  0  0
  -29.6499  -13.4707   17.7418 H   0  0  0  0  0  0
  -27.8666  -11.2870   18.8676 H   0  0  0  0  0  0
  -27.3746  -12.5674   17.7928 H   0  0  0  0  0  0
  -27.6686  -14.2472   19.5176 H   0  0  0  0  0  0
  -28.7060  -12.0468   21.3767 H   0  0  0  0  0  0
  -28.4448  -13.7028   21.8420 H   0  0  0  0  0  0
  -25.2759   -9.5683   22.4749 H   0  0  0  0  0  0
  -23.9995   -7.4638   22.7474 H   0  0  0  0  0  0
  -21.0821   -8.8778   19.8965 H   0  0  0  0  0  0
  -22.3676  -10.9679   19.6169 H   0  0  0  0  0  0
  -21.2013   -7.6145   23.9707 H   0  0  0  0  0  0
  -21.1476   -6.0520   25.9070 H   0  0  0  0  0  0
  -22.0601   -2.7600   23.2856 H   0  0  0  0  0  0
  -22.4108  -11.9911   22.4821 H   0  0  0  0  0  0
  -21.1114  -13.1278   22.2627 H   0  0  0  0  0  0
  -24.6614  -15.8424   20.5146 H   0  0  0  0  0  0
  -26.2678  -15.6205   20.0432 H   0  0  0  0  0  0
  -26.7170  -32.5457   23.1112 H   0  0  0  0  0  0
  -25.0046  -33.9730   25.0412 H   0  0  0  0  0  0
  -22.7099  -31.3042   21.4058 H   0  0  0  0  0  0
  -23.3738  -35.9646   23.3300 H   0  0  0  0  0  0
  -24.3584  -36.8923   22.2052 H   0  0  0  0  0  0
  -23.7251  -37.6510   23.6656 H   0  0  0  0  0  0
  -26.0894  -31.5598   20.6067 H   0  0  0  0  0  0
  -26.8385  -30.8424   22.0024 H   0  0  0  0  0  0
  -28.1122  -28.9954   21.1861 H   0  0  0  0  0  0
  -25.9666  -25.9462   18.9861 H   0  0  0  0  0  0
  -23.9675  -27.3143   19.0111 H   0  0  0  0  0  0
  -23.7459  -30.5984   19.4056 H   0  0  0  0  0  0
  -22.7507  -29.2490   19.8598 H   0  0  0  0  0  0
  -25.1287  -36.1939   25.0818 H   0  0  0  0  0  0
  -20.9977  -28.3248   24.1408 H   0  0  0  0  0  0
  -20.5685  -26.2280   23.3603 H   0  0  0  0  0  0
  -21.6638  -26.7430   22.1193 H   0  0  0  0  0  0
  -19.6904  -25.6292   21.1233 H   0  0  0  0  0  0
  -19.6680  -27.3197   20.6751 H   0  0  0  0  0  0
  -17.4191  -26.6657   21.4049 H   0  0  0  0  0  0
  -18.0343  -26.0062   22.9038 H   0  0  0  0  0  0
  -19.7936  -30.7267   24.2263 H   0  0  0  0  0  0
  -17.5014  -31.6259   24.5166 H   0  0  0  0  0  0
  -15.5354  -30.2985   23.7643 H   0  0  0  0  0  0
  -15.8677  -28.0817   22.7067 H   0  0  0  0  0  0
  -24.5842  -30.7178   25.7794 H   0  0  0  0  0  0
  -24.8989  -32.2952   26.4930 H   0  0  0  0  0  0
  -25.8036  -30.8886   27.0217 H   0  0  0  0  0  0
  -26.2892  -29.6783   24.1193 H   0  0  0  0  0  0
  -27.3992  -29.7266   25.4694 H   0  0  0  0  0  0
  -27.8774  -30.4304   23.9424 H   0  0  0  0  0  0
  -27.2637  -33.3623   26.2091 H   0  0  0  0  0  0
  -28.3834  -32.6930   25.0314 H   0  0  0  0  0  0
  -28.0727  -31.8461   26.5397 H   0  0  0  0  0  0
  -28.2576  -38.0115   24.7525 H   0  0  0  0  0  0
  -28.1097  -36.2646   24.6242 H   0  0  0  0  0  0
  -27.2305  -37.1395   25.8858 H   0  0  0  0  0  0
  -20.9353  -29.8769   21.6911 H   0  0  0  0  0  0
  -26.0165  -38.2849   24.1436 H   0  0  0  0  0  0
  -32.0312  -17.2811   20.1769 H   0  0  0  0  0  0
  -27.8361  -17.4986   21.1168 H   0  0  0  0  0  0
  -28.1285  -22.2462   20.1816 H   0  0  0  0  0  0
  -27.2495  -24.7295   20.5073 H   0  0  0  0  0  0
  -27.9128  -24.8745   18.8876 H   0  0  0  0  0  0
  -28.8867  -15.3615   21.1024 H   0  0  0  0  0  0
  -31.9690  -21.2829   20.5470 H   0  0  0  0  0  0
  1 25  1  0  0  0
  1 30  2  0  0  0
  1 81  1  0  0  0
  2  3  1  0  0  0
  2 25  1  0  0  0
  2 86  1  0  0  0
  2 87  1  0  0  0
  3  4  1  0  0  0
  3 88  1  0  0  0
  3 89  1  0  0  0
  4  5  1  0  0  0
  4 90  1  0  0  0
  4 91  1  0  0  0
  5  6  1  0  0  0
  5 26  1  0  0  0
  5 92  1  0  0  0
  6 25  1  0  0  0
  6 93  1  0  0  0
  6 94  1  0  0  0
  7  8  2  0  0  0
  7 26  1  0  0  0
  7 29  1  0  0  0
  8  9  1  0  0  0
  8 22  1  0  0  0
  9 10  1  0  0  0
  9 27  2  0  0  0
 10 11  2  0  0  0
 10 15  1  0  0  0
 11 12  1  0  0  0
 11 95  1  0  0  0
 12 13  2  0  0  0
 12 96  1  0  0  0
 13 14  1  0  0  0
 13 31  1  0  0  0
 14 15  2  0  0  0
 14 97  1  0  0  0
 15 98  1  0  0  0
 16 17  2  0  0  0
 16 21  1  0  0  0
 16 31  1  0  0  0
 17 18  1  0  0  0
 17 99  1  0  0  0
 18 19  2  0  0  0
 18100  1  0  0  0
 19 20  1  0  0  0
 19 24  1  0  0  0
 20 21  2  0  0  0
 20101  1  0  0  0
 21 23  1  0  0  0
 22 28  1  0  0  0
 22 32  2  0  0  0
 26 27  1  0  0  0
 28102  1  0  0  0
 28103  1  0  0  0
 29104  1  0  0  0
 29105  1  0  0  0
 33 34  1  0  0  0
 33 66  1  0  0  0
 33 70  2  0  0  0
 34 36  1  0  0  0
 34 59  1  0  0  0
 34106  1  0  0  0
 35 44  2  0  0  0
 35 45  1  0  0  0
 35 68  1  0  0  0
 36 56  1  0  0  0
 36107  1  0  0  0
 37 39  1  0  0  0
 37 47  1  0  0  0
 37 66  1  0  0  0
 37108  1  0  0  0
 38 43  2  0  0  0
 38 46  1  0  0  0
 38 47  1  0  0  0
 39 64  1  0  0  0
 39 67  2  0  0  0
 40 52  1  0  0  0
 40 53  2  0  0  0
 40 58  1  0  0  0
 41109  1  0  0  0
 41110  1  0  0  0
 41111  1  0  0  0
 41 48  1  0  0  0
 42 43  1  0  0  0
 42 66  1  0  0  0
 42112  1  0  0  0
 42113  1  0  0  0
 43 44  1  0  0  0
 44114  1  0  0  0
 45 46  2  0  0  0
 45115  1  0  0  0
 46116  1  0  0  0
 47117  1  0  0  0
 47118  1  0  0  0
 48 56  1  0  0  0
 48 65  1  0  0  0
 48119  1  0  0  0
 49 50  1  0  0  0
 49 53  1  0  0  0
 49 64  1  0  0  0
 49120  1  0  0  0
 50 51  1  0  0  0
 50121  1  0  0  0
 50122  1  0  0  0
 51 52  1  0  0  0
 51123  1  0  0  0
 51124  1  0  0  0
 52125  1  0  0  0
 52126  1  0  0  0
 53 54  1  0  0  0
 54 55  2  0  0  0
 54127  1  0  0  0
 55 57  1  0  0  0
 55128  1  0  0  0
 56 69  2  0  0  0
 57 58  2  0  0  0
 57129  1  0  0  0
 58130  1  0  0  0
 59 60  1  0  0  0
 59 61  1  0  0  0
 59 62  1  0  0  0
 60131  1  0  0  0
 60132  1  0  0  0
 60133  1  0  0  0
 61134  1  0  0  0
 61135  1  0  0  0
 61136  1  0  0  0
 62137  1  0  0  0
 62138  1  0  0  0
 62139  1  0  0  0
 63 65  1  0  0  0
 63140  1  0  0  0
 63141  1  0  0  0
 63142  1  0  0  0
 64143  1  0  0  0
 65144  1  0  0  0
 68 80  1  0  0  0
 71 74  2  0  0  0
 71 75  1  0  0  0
 71145  1  0  0  0
 72 74  1  0  0  0
 72 76  2  0  0  0
 72146  1  0  0  0
 73 75  2  0  0  0
 73 76  1  0  0  0
 73 78  1  0  0  0
 74 81  1  0  0  0
 75 84  1  0  0  0
 76 85  1  0  0  0
 77 78  2  0  0  0
 77 79  1  0  0  0
 77147  1  0  0  0
 78 83  1  0  0  0
 79 80  1  0  0  0
 79 82  2  0  0  0
 80148  1  0  0  0
 80149  1  0  0  0
 81150  1  0  0  0
 83151  1  0  0  0
M  ISO  4   1 100  68 101  80 101  81 100
M  END
> <chiral flag>
0

> <version>
0

> <s_m_source_file>
/data/baiqing/PycharmProjects/Reinvent-master-3.2/result/LINK_invent/BTK/process_docking_weight1_custom_product_contain_oxygen_bond_distance_aromatic_linkinvent_7_9_3/rearranged_h_0176.sdf

> <i_m_source_file_index>
24

> <r_mmod_Potential_Energy-OPLS-2005>
126.15796661377

> <r_mmod_Stretch_Energy-OPLS-2005>
82.7660980224609

> <r_mmod_Bend_Energy-OPLS-2005>
129.125106811523

> <r_mmod_Torsional_Energy-OPLS-2005>
206.773010253906

> <r_mmod_Improper_Torsional_Energy-OPLS-2005>
4.61776304244995

> <r_mmod_Van_der_Waal_Energy-OPLS-2005>
161.839599609375

> <r_mmod_Electrostatic_Energy-OPLS-2005>
-255.461761474609

> <r_mmod_Solvation_Energy-OPLS-2005>
-247.71728515625

> <b_mmod_Minimization_Converged-OPLS-2005>
0

> <r_mmod_RMS_Derivative-OPLS-2005>
1.08653914928436

$$$$
24
                    3D
 Structure written by MMmdl.
158166  0  0  1  0            999 V2000
  -30.6515  -14.5628   20.5534 C   0  0  0  0  0  0
  -30.4378  -12.3613   19.4404 C   0  0  0  0  0  0
  -29.5070  -12.5069   18.2174 C   0  0  0  0  0  0
  -28.0293  -12.3491   18.6269 C   0  0  0  0  0  0
  -27.6585  -13.2074   19.8666 C   0  0  2  0  0  0
  -28.6968  -13.0269   20.9950 C   0  0  0  0  0  0
  -25.2603  -13.8154   20.5627 C   0  0  0  0  0  0
  -24.1846  -13.0457   20.9149 C   0  0  0  0  0  0
  -24.6371  -11.6911   20.8702 C   0  0  0  0  0  0
  -23.9019  -10.4315   21.0395 C   0  0  0  0  0  0
  -24.3598   -9.4234   21.9165 C   0  0  0  0  0  0
  -23.6295   -8.2256   22.0738 C   0  0  0  0  0  0
  -22.4276   -8.0273   21.3523 C   0  0  0  0  0  0
  -21.9887   -9.0242   20.4628 C   0  0  0  0  0  0
  -22.7193  -10.2135   20.3044 C   0  0  0  0  0  0
  -21.6856   -6.0720   22.5262 C   0  0  0  0  0  0
  -21.4024   -6.5630   23.8197 C   0  0  0  0  0  0
  -21.3673   -5.6784   24.9164 C   0  0  0  0  0  0
  -21.6040   -4.3042   24.7212 C   0  0  0  0  0  0
  -21.8827   -3.8129   23.4338 C   0  0  0  0  0  0
  -21.9207   -4.6947   22.3395 C   0  0  0  0  0  0
  -22.7863  -13.5258   21.1824 C   0  0  0  0  0  0
  -22.1666   -4.2139   21.0969 F   0  0  0  0  0  0
  -21.5641   -3.4523   25.7722 F   0  0  0  0  0  0
  -30.0218  -13.3574   20.4436 N   0  0  0  0  0  0
  -26.3020  -12.9313   20.3301 N   0  0  0  0  0  0
  -25.9311  -11.6474   20.5742 N   0  0  0  0  0  0
  -22.0507  -12.8282   22.0398 N   0  0  0  0  0  0
  -25.4346  -15.1878   20.4075 N   0  0  0  0  0  0
  -31.7923  -14.7463   20.1215 O   0  0  0  0  0  0
  -21.6645   -6.8863   21.4220 O   0  0  0  0  0  0
  -22.3555  -14.5559   20.6656 O   0  0  0  0  0  0
  -24.6205  -31.8655   23.2071 C   0  0  0  0  0  0
  -25.9072  -32.4815   23.8399 C   0  0  1  0  0  0
  -27.2478  -27.3995   20.1165 C   0  0  0  0  0  0
  -25.5901  -33.8610   24.2335 N   0  0  0  0  0  0
  -23.4136  -30.4846   21.5462 C   0  0  2  0  0  0
  -24.8672  -28.9440   20.1122 C   0  0  0  0  0  0
  -22.7460  -29.4642   22.4975 C   0  0  0  0  0  0
  -18.0288  -28.1400   22.8500 C   0  0  0  0  0  0
  -24.1479  -36.7317   23.2651 C   0  0  0  0  0  0
  -25.9445  -30.8200   21.3648 C   0  0  0  0  0  0
  -26.0266  -29.4492   20.7166 C   0  0  0  0  0  0
  -27.2199  -28.6828   20.7194 C   0  0  0  0  0  0
  -26.0773  -26.9209   19.4931 C   0  0  0  0  0  0
  -24.8894  -27.6797   19.4945 C   0  0  0  0  0  0
  -23.6278  -29.8126   20.1620 C   0  0  0  0  0  0
  -25.4093  -36.3110   24.0355 C   0  0  1  0  0  0
  -20.5888  -28.3681   23.1319 C   0  0  2  0  0  0
  -20.6777  -26.9424   22.5427 C   0  0  0  0  0  0
  -19.5747  -26.6407   21.5238 C   0  0  0  0  0  0
  -18.1926  -26.7953   22.1642 C   0  0  0  0  0  0
  -19.1542  -28.8861   23.2899 C   0  0  0  0  0  0
  -18.9467  -30.1479   23.8889 C   0  0  0  0  0  0
  -17.6456  -30.6593   24.0585 C   0  0  0  0  0  0
  -25.9025  -34.9471   23.5146 C   0  0  0  0  0  0
  -16.5348  -29.9096   23.6331 C   0  0  0  0  0  0
  -16.7276  -28.6530   23.0326 C   0  0  0  0  0  0
  -26.4479  -31.6587   25.0724 C   0  0  0  0  0  0
  -25.3740  -31.3691   26.1478 C   0  0  0  0  0  0
  -27.0326  -30.3023   24.6100 C   0  0  0  0  0  0
  -27.6070  -32.4307   25.7462 C   0  0  0  0  0  0
  -27.5573  -37.1815   24.8473 C   0  0  0  0  0  0
  -21.4176  -29.3037   22.3707 N   0  0  0  0  0  0
  -26.4280  -37.3790   23.9429 N   0  0  0  0  0  0
  -24.6784  -31.0719   22.0992 N   0  0  0  0  0  0
  -23.4200  -28.8200   23.3048 O   0  0  0  0  0  0
  -28.3577  -26.5690   20.1424 O   0  0  0  0  0  0
  -26.5590  -34.8928   22.4707 O   0  0  0  0  0  0
  -23.5377  -32.1427   23.7439 O   0  0  0  0  0  0
  -31.3126  -19.1071   21.0789 C   0  0  0  0  0  0
  -30.3151  -19.8700   20.4107 C   0  0  0  0  0  0
  -29.1528  -19.1564   20.0073 C   0  0  0  0  0  0
  -30.0625  -16.9974   20.8213 C   0  0  0  0  0  0
  -31.1997  -17.7050   21.2750 C   0  0  0  0  0  0
  -29.0263  -17.7560   20.2269 C   0  0  0  0  0  0
  -28.5048  -25.8146   21.2957 C   0  0  0  0  0  0
  -28.9728  -24.5392   21.4515 C   0  0  0  0  0  0
  -29.4359  -23.6488   20.3674 C   0  0  0  0  0  0
  -32.0441  -21.7542   19.9870 C   0  0  0  0  0  0
  -30.5495  -21.3749   20.0322 C   0  0  2  0  0  0
  -28.1038  -19.8139   19.3639 N   0  0  0  0  0  0
  -29.8764  -15.5761   21.0089 N   0  0  0  0  0  0
  -29.8221  -22.4166   20.8049 N   0  0  0  0  0  0
  -29.5082  -23.9670   19.1796 O   0  0  0  0  0  0
  -29.0161  -24.0500   22.7036 O   0  0  0  0  0  0
  -32.1880  -17.0542   21.9326 F   0  0  0  0  0  0
  -27.8830  -17.1278   19.8487 F   0  0  0  0  0  0
  -31.4808  -12.4887   19.1393 H   0  0  0  0  0  0
  -30.3670  -11.3579   19.8613 H   0  0  0  0  0  0
  -29.7658  -11.7643   17.4627 H   0  0  0  0  0  0
  -29.6558  -13.4827   17.7548 H   0  0  0  0  0  0
  -27.8626  -11.2939   18.8458 H   0  0  0  0  0  0
  -27.3769  -12.5920   17.7880 H   0  0  0  0  0  0
  -27.6898  -14.2490   19.5501 H   0  0  0  0  0  0
  -28.6925  -11.9981   21.3577 H   0  0  0  0  0  0
  -28.4420  -13.6436   21.8582 H   0  0  0  0  0  0
  -25.2756   -9.5735   22.4722 H   0  0  0  0  0  0
  -24.0016   -7.4655   22.7472 H   0  0  0  0  0  0
  -21.0805   -8.8743   19.8953 H   0  0  0  0  0  0
  -22.3628  -10.9664   19.6152 H   0  0  0  0  0  0
  -21.2005   -7.6137   23.9694 H   0  0  0  0  0  0
  -21.1491   -6.0512   25.9068 H   0  0  0  0  0  0
  -22.0597   -2.7587   23.2834 H   0  0  0  0  0  0
  -22.4131  -11.9976   22.4842 H   0  0  0  0  0  0
  -21.1108  -13.1296   22.2546 H   0  0  0  0  0  0
  -24.6685  -15.8418   20.5251 H   0  0  0  0  0  0
  -26.2884  -15.6338   20.0926 H   0  0  0  0  0  0
  -26.7141  -32.5519   23.1164 H   0  0  0  0  0  0
  -25.0045  -33.9778   25.0471 H   0  0  0  0  0  0
  -22.7038  -31.3010   21.3984 H   0  0  0  0  0  0
  -23.3733  -35.9660   23.3320 H   0  0  0  0  0  0
  -24.3581  -36.8915   22.2067 H   0  0  0  0  0  0
  -23.7224  -37.6526   23.6641 H   0  0  0  0  0  0
  -26.0535  -31.5788   20.5894 H   0  0  0  0  0  0
  -26.8359  -30.8826   21.9771 H   0  0  0  0  0  0
  -28.1096  -29.0646   21.1980 H   0  0  0  0  0  0
  -26.0840  -25.9432   19.0284 H   0  0  0  0  0  0
  -23.9999  -27.2855   19.0239 H   0  0  0  0  0  0
  -23.7384  -30.5879   19.4026 H   0  0  0  0  0  0
  -22.7519  -29.2352   19.8614 H   0  0  0  0  0  0
  -25.1251  -36.1990   25.0840 H   0  0  0  0  0  0
  -20.9983  -28.3278   24.1447 H   0  0  0  0  0  0
  -20.5720  -26.2316   23.3623 H   0  0  0  0  0  0
  -21.6637  -26.7487   22.1195 H   0  0  0  0  0  0
  -19.6918  -25.6332   21.1257 H   0  0  0  0  0  0
  -19.6679  -27.3234   20.6784 H   0  0  0  0  0  0
  -17.4204  -26.6736   21.4028 H   0  0  0  0  0  0
  -18.0286  -26.0088   22.9023 H   0  0  0  0  0  0
  -19.7934  -30.7328   24.2241 H   0  0  0  0  0  0
  -17.4995  -31.6272   24.5215 H   0  0  0  0  0  0
  -15.5348  -30.2987   23.7667 H   0  0  0  0  0  0
  -15.8679  -28.0870   22.6987 H   0  0  0  0  0  0
  -24.5913  -30.7026   25.7824 H   0  0  0  0  0  0
  -24.8922  -32.2838   26.4940 H   0  0  0  0  0  0
  -25.8117  -30.8858   27.0220 H   0  0  0  0  0  0
  -26.2871  -29.6763   24.1179 H   0  0  0  0  0  0
  -27.4119  -29.7284   25.4566 H   0  0  0  0  0  0
  -27.8688  -30.4352   23.9236 H   0  0  0  0  0  0
  -27.2696  -33.3602   26.2058 H   0  0  0  0  0  0
  -28.3848  -32.6881   25.0259 H   0  0  0  0  0  0
  -28.0747  -31.8403   26.5349 H   0  0  0  0  0  0
  -28.2618  -38.0089   24.7487 H   0  0  0  0  0  0
  -28.1038  -36.2625   24.6308 H   0  0  0  0  0  0
  -27.2302  -37.1458   25.8880 H   0  0  0  0  0  0
  -20.9367  -29.8747   21.6889 H   0  0  0  0  0  0
  -26.0186  -38.2882   24.1384 H   0  0  0  0  0  0
  -32.2102  -19.5828   21.4372 H   0  0  0  0  0  0
  -28.1823  -26.3916   22.1543 H   0  0  0  0  0  0
  -32.6078  -21.0754   19.3471 H   0  0  0  0  0  0
  -32.5029  -21.7403   20.9745 H   0  0  0  0  0  0
  -32.1784  -22.7583   19.5843 H   0  0  0  0  0  0
  -30.1964  -21.4546   19.0010 H   0  0  0  0  0  0
  -28.0441  -20.8169   19.4898 H   0  0  0  0  0  0
  -27.2046  -19.3515   19.4450 H   0  0  0  0  0  0
  -28.9287  -15.2963   21.2119 H   0  0  0  0  0  0
  -29.7268  -22.2800   21.8062 H   0  0  0  0  0  0
  -28.6794  -24.7191   23.2847 H   0  0  0  0  0  0
  1 25  1  0  0  0
  1 30  2  0  0  0
  1 83  1  0  0  0
  2  3  1  0  0  0
  2 25  1  0  0  0
  2 89  1  0  0  0
  2 90  1  0  0  0
  3  4  1  0  0  0
  3 91  1  0  0  0
  3 92  1  0  0  0
  4  5  1  0  0  0
  4 93  1  0  0  0
  4 94  1  0  0  0
  5  6  1  0  0  0
  5 26  1  0  0  0
  5 95  1  0  0  0
  6 25  1  0  0  0
  6 96  1  0  0  0
  6 97  1  0  0  0
  7  8  2  0  0  0
  7 26  1  0  0  0
  7 29  1  0  0  0
  8  9  1  0  0  0
  8 22  1  0  0  0
  9 10  1  0  0  0
  9 27  2  0  0  0
 10 11  2  0  0  0
 10 15  1  0  0  0
 11 12  1  0  0  0
 11 98  1  0  0  0
 12 13  2  0  0  0
 12 99  1  0  0  0
 13 14  1  0  0  0
 13 31  1  0  0  0
 14 15  2  0  0  0
 14100  1  0  0  0
 15101  1  0  0  0
 16 17  2  0  0  0
 16 21  1  0  0  0
 16 31  1  0  0  0
 17 18  1  0  0  0
 17102  1  0  0  0
 18 19  2  0  0  0
 18103  1  0  0  0
 19 20  1  0  0  0
 19 24  1  0  0  0
 20 21  2  0  0  0
 20104  1  0  0  0
 21 23  1  0  0  0
 22 28  1  0  0  0
 22 32  2  0  0  0
 26 27  1  0  0  0
 28105  1  0  0  0
 28106  1  0  0  0
 29107  1  0  0  0
 29108  1  0  0  0
 33 34  1  0  0  0
 33 66  1  0  0  0
 33 70  2  0  0  0
 34 36  1  0  0  0
 34 59  1  0  0  0
 34109  1  0  0  0
 35 44  2  0  0  0
 35 45  1  0  0  0
 35 68  1  0  0  0
 36 56  1  0  0  0
 36110  1  0  0  0
 37 39  1  0  0  0
 37 47  1  0  0  0
 37 66  1  0  0  0
 37111  1  0  0  0
 38 43  2  0  0  0
 38 46  1  0  0  0
 38 47  1  0  0  0
 39 64  1  0  0  0
 39 67  2  0  0  0
 40 52  1  0  0  0
 40 53  2  0  0  0
 40 58  1  0  0  0
 41112  1  0  0  0
 41113  1  0  0  0
 41114  1  0  0  0
 41 48  1  0  0  0
 42 43  1  0  0  0
 42 66  1  0  0  0
 42115  1  0  0  0
 42116  1  0  0  0
 43 44  1  0  0  0
 44117  1  0  0  0
 45 46  2  0  0  0
 45118  1  0  0  0
 46119  1  0  0  0
 47120  1  0  0  0
 47121  1  0  0  0
 48 56  1  0  0  0
 48 65  1  0  0  0
 48122  1  0  0  0
 49 50  1  0  0  0
 49 53  1  0  0  0
 49 64  1  0  0  0
 49123  1  0  0  0
 50 51  1  0  0  0
 50124  1  0  0  0
 50125  1  0  0  0
 51 52  1  0  0  0
 51126  1  0  0  0
 51127  1  0  0  0
 52128  1  0  0  0
 52129  1  0  0  0
 53 54  1  0  0  0
 54 55  2  0  0  0
 54130  1  0  0  0
 55 57  1  0  0  0
 55131  1  0  0  0
 56 69  2  0  0  0
 57 58  2  0  0  0
 57132  1  0  0  0
 58133  1  0  0  0
 59 60  1  0  0  0
 59 61  1  0  0  0
 59 62  1  0  0  0
 60134  1  0  0  0
 60135  1  0  0  0
 60136  1  0  0  0
 61137  1  0  0  0
 61138  1  0  0  0
 61139  1  0  0  0
 62140  1  0  0  0
 62141  1  0  0  0
 62142  1  0  0  0
 63 65  1  0  0  0
 63143  1  0  0  0
 63144  1  0  0  0
 63145  1  0  0  0
 64146  1  0  0  0
 65147  1  0  0  0
 68 77  1  0  0  0
 71 72  2  0  0  0
 71 75  1  0  0  0
 71148  1  0  0  0
 72 73  1  0  0  0
 72 81  1  0  0  0
 73 76  2  0  0  0
 73 82  1  0  0  0
 74 75  2  0  0  0
 74 76  1  0  0  0
 74 83  1  0  0  0
 75 87  1  0  0  0
 76 88  1  0  0  0
 77 78  2  0  0  0
 77149  1  0  0  0
 78 79  1  0  0  0
 78 86  1  0  0  0
 79 84  1  0  0  0
 79 85  2  0  0  0
 80150  1  0  0  0
 80151  1  0  0  0
 80152  1  0  0  0
 80 81  1  0  0  0
 81 84  1  0  0  0
 81153  1  0  0  0
 82154  1  0  0  0
 82155  1  0  0  0
 83156  1  0  0  0
 84157  1  0  0  0
 86158  1  0  0  0
M  ISO  4   1 100  68 101  77 101  83 100
M  END
> <chiral flag>
0

> <version>
0

> <s_m_source_file>
/data/baiqing/PycharmProjects/Reinvent-master-3.2/result/LINK_invent/BTK/process_docking_weight1_custom_product_contain_oxygen_bond_distance_aromatic_linkinvent_7_9_3/rearranged_h_0176.sdf

> <i_m_source_file_index>
25

> <r_mmod_Potential_Energy-OPLS-2005>
-119.60765838623

> <r_mmod_Stretch_Energy-OPLS-2005>
54.011791229248

> <r_mmod_Bend_Energy-OPLS-2005>
118.357536315918

> <r_mmod_Torsional_Energy-OPLS-2005>
235.843734741211

> <r_mmod_Improper_Torsional_Energy-OPLS-2005>
9.96622943878174

> <r_mmod_Van_der_Waal_Energy-OPLS-2005>
151.284652709961

> <r_mmod_Electrostatic_Energy-OPLS-2005>
-482.164306640625

> <r_mmod_Solvation_Energy-OPLS-2005>
-233.047973632812

> <b_mmod_Minimization_Converged-OPLS-2005>
0

> <r_mmod_RMS_Derivative-OPLS-2005>
3.7456214427948

$$$$
25
                    3D
 Structure written by MMmdl.
154162  0  0  1  0            999 V2000
  -30.5962  -14.7217   20.4763 C   0  0  0  0  0  0
  -30.4401  -12.4389   19.4744 C   0  0  0  0  0  0
  -29.5145  -12.5130   18.2386 C   0  0  0  0  0  0
  -28.0385  -12.3395   18.6481 C   0  0  0  0  0  0
  -27.6495  -13.2257   19.8614 C   0  0  2  0  0  0
  -28.6923  -13.1218   20.9970 C   0  0  0  0  0  0
  -25.2541  -13.8188   20.5696 C   0  0  0  0  0  0
  -24.1818  -13.0441   20.9195 C   0  0  0  0  0  0
  -24.6399  -11.6914   20.8741 C   0  0  0  0  0  0
  -23.9070  -10.4293   21.0404 C   0  0  0  0  0  0
  -24.3620   -9.4207   21.9183 C   0  0  0  0  0  0
  -23.6293   -8.2245   22.0755 C   0  0  0  0  0  0
  -22.4274   -8.0283   21.3545 C   0  0  0  0  0  0
  -21.9911   -9.0256   20.4647 C   0  0  0  0  0  0
  -22.7242  -10.2135   20.3054 C   0  0  0  0  0  0
  -21.6854   -6.0736   22.5278 C   0  0  0  0  0  0
  -21.4015   -6.5639   23.8211 C   0  0  0  0  0  0
  -21.3659   -5.6792   24.9173 C   0  0  0  0  0  0
  -21.6044   -4.3054   24.7224 C   0  0  0  0  0  0
  -21.8820   -3.8146   23.4345 C   0  0  0  0  0  0
  -21.9193   -4.6963   22.3402 C   0  0  0  0  0  0
  -22.7839  -13.5227   21.1856 C   0  0  0  0  0  0
  -22.1661   -4.2148   21.0979 F   0  0  0  0  0  0
  -21.5629   -3.4539   25.7737 F   0  0  0  0  0  0
  -30.0010  -13.4808   20.4311 N   0  0  0  0  0  0
  -26.2973  -12.9383   20.3314 N   0  0  0  0  0  0
  -25.9330  -11.6529   20.5758 N   0  0  0  0  0  0
  -22.0484  -12.8217   22.0413 N   0  0  0  0  0  0
  -25.4248  -15.1913   20.4123 N   0  0  0  0  0  0
  -31.7595  -14.8654   20.0857 O   0  0  0  0  0  0
  -21.6640   -6.8879   21.4239 O   0  0  0  0  0  0
  -22.3522  -14.5533   20.6705 O   0  0  0  0  0  0
  -24.6307  -31.8556   23.1995 C   0  0  0  0  0  0
  -25.9136  -32.4754   23.8335 C   0  0  1  0  0  0
  -27.2186  -27.2619   20.1218 C   0  0  0  0  0  0
  -25.5934  -33.8557   24.2255 N   0  0  0  0  0  0
  -23.4267  -30.4793   21.5427 C   0  0  2  0  0  0
  -24.8727  -28.9288   20.1083 C   0  0  0  0  0  0
  -22.7498  -29.4604   22.4911 C   0  0  0  0  0  0
  -18.0292  -28.1390   22.8485 C   0  0  0  0  0  0
  -24.1489  -36.7281   23.2640 C   0  0  0  0  0  0
  -25.9731  -30.7662   21.3823 C   0  0  0  0  0  0
  -26.0425  -29.3895   20.7234 C   0  0  0  0  0  0
  -27.2132  -28.5660   20.7242 C   0  0  0  0  0  0
  -26.0280  -26.8804   19.4594 C   0  0  0  0  0  0
  -24.8710  -27.6825   19.4668 C   0  0  0  0  0  0
  -23.6440  -29.8154   20.1578 C   0  0  0  0  0  0
  -25.4116  -36.3070   24.0326 C   0  0  1  0  0  0
  -20.5895  -28.3699   23.1271 C   0  0  2  0  0  0
  -20.6780  -26.9417   22.5410 C   0  0  0  0  0  0
  -19.5754  -26.6384   21.5216 C   0  0  0  0  0  0
  -18.1933  -26.7934   22.1625 C   0  0  0  0  0  0
  -19.1546  -28.8861   23.2874 C   0  0  0  0  0  0
  -18.9467  -30.1461   23.8893 C   0  0  0  0  0  0
  -17.6466  -30.6591   24.0563 C   0  0  0  0  0  0
  -25.9057  -34.9441   23.5094 C   0  0  0  0  0  0
  -16.5357  -29.9088   23.6333 C   0  0  0  0  0  0
  -16.7278  -28.6505   23.0354 C   0  0  0  0  0  0
  -26.4504  -31.6583   25.0726 C   0  0  0  0  0  0
  -25.3722  -31.3739   26.1444 C   0  0  0  0  0  0
  -27.0357  -30.2998   24.6224 C   0  0  0  0  0  0
  -27.6053  -32.4331   25.7501 C   0  0  0  0  0  0
  -27.5578  -37.1797   24.8466 C   0  0  0  0  0  0
  -21.4205  -29.3045   22.3660 N   0  0  0  0  0  0
  -26.4291  -37.3770   23.9409 N   0  0  0  0  0  0
  -24.6957  -31.0521   22.0975 N   0  0  0  0  0  0
  -23.4202  -28.8144   23.3008 O   0  0  0  0  0  0
  -28.3299  -26.3882   20.2079 O   0  0  0  0  0  0
  -26.5631  -34.8917   22.4664 O   0  0  0  0  0  0
  -23.5458  -32.1381   23.7288 O   0  0  0  0  0  0
  -30.4299  -19.3293   19.6441 C   0  0  0  0  0  0
  -30.6569  -17.8923   19.6846 C   0  0  0  0  0  0
  -29.4926  -19.8274   20.5304 C   0  0  0  0  0  0
  -29.8930  -17.1788   20.5890 C   0  0  0  0  0  0
  -29.2126  -22.3308   20.0915 C   0  0  0  0  0  0
  -30.2628  -24.3025   21.2608 C   0  0  0  0  0  0
  -27.9605  -23.5907   21.9641 C   0  0  0  0  0  0
  -28.2771  -24.9327   19.8099 C   0  0  0  0  0  0
  -28.9055  -23.7734   20.7572 C   0  0  0  0  0  0
  -29.0916  -21.1476   20.8043 N   0  0  0  0  0  0
  -29.8047  -15.7983   20.8398 N   0  0  0  0  0  0
  -29.5898  -22.3080   18.9181 O   0  0  0  0  0  0
  -28.8776  -18.3992   21.4166 S   0  0  0  0  0  0
  -31.4808  -12.5690   19.1726 H   0  0  0  0  0  0
  -30.3870  -11.4525   19.9377 H   0  0  0  0  0  0
  -29.7927  -11.7481   17.5122 H   0  0  0  0  0  0
  -29.6454  -13.4734   17.7374 H   0  0  0  0  0  0
  -27.8883  -11.2882   18.8968 H   0  0  0  0  0  0
  -27.3830  -12.5478   17.8017 H   0  0  0  0  0  0
  -27.6558  -14.2545   19.5007 H   0  0  0  0  0  0
  -28.7201  -12.1097   21.4036 H   0  0  0  0  0  0
  -28.4248  -13.7720   21.8311 H   0  0  0  0  0  0
  -25.2766   -9.5683   22.4756 H   0  0  0  0  0  0
  -24.0001   -7.4637   22.7476 H   0  0  0  0  0  0
  -21.0843   -8.8776   19.8953 H   0  0  0  0  0  0
  -22.3702  -10.9673   19.6162 H   0  0  0  0  0  0
  -21.2008   -7.6147   23.9714 H   0  0  0  0  0  0
  -21.1481   -6.0523   25.9076 H   0  0  0  0  0  0
  -22.0599   -2.7608   23.2846 H   0  0  0  0  0  0
  -22.4099  -11.9876   22.4797 H   0  0  0  0  0  0
  -21.1103  -13.1243   22.2624 H   0  0  0  0  0  0
  -24.6574  -15.8452   20.5223 H   0  0  0  0  0  0
  -26.2727  -15.6311   20.0774 H   0  0  0  0  0  0
  -26.7197  -32.5401   23.1070 H   0  0  0  0  0  0
  -25.0081  -33.9697   25.0400 H   0  0  0  0  0  0
  -22.7233  -31.3018   21.3980 H   0  0  0  0  0  0
  -23.3756  -35.9610   23.3303 H   0  0  0  0  0  0
  -24.3576  -36.8904   22.2054 H   0  0  0  0  0  0
  -23.7240  -37.6481   23.6665 H   0  0  0  0  0  0
  -26.1152  -31.5269   20.6136 H   0  0  0  0  0  0
  -26.8499  -30.8122   22.0164 H   0  0  0  0  0  0
  -28.1060  -28.9112   21.2264 H   0  0  0  0  0  0
  -25.9433  -25.9495   18.9238 H   0  0  0  0  0  0
  -23.9787  -27.3305   18.9677 H   0  0  0  0  0  0
  -23.7677  -30.5928   19.4031 H   0  0  0  0  0  0
  -22.7621  -29.2493   19.8526 H   0  0  0  0  0  0
  -25.1300  -36.1914   25.0819 H   0  0  0  0  0  0
  -20.9987  -28.3278   24.1391 H   0  0  0  0  0  0
  -20.5683  -26.2310   23.3614 H   0  0  0  0  0  0
  -21.6646  -26.7443   22.1199 H   0  0  0  0  0  0
  -19.6917  -25.6294   21.1248 H   0  0  0  0  0  0
  -19.6691  -27.3191   20.6743 H   0  0  0  0  0  0
  -17.4203  -26.6684   21.4026 H   0  0  0  0  0  0
  -18.0329  -26.0078   22.9021 H   0  0  0  0  0  0
  -19.7944  -30.7279   24.2259 H   0  0  0  0  0  0
  -17.5022  -31.6270   24.5166 H   0  0  0  0  0  0
  -15.5358  -30.2990   23.7662 H   0  0  0  0  0  0
  -15.8677  -28.0824   22.7074 H   0  0  0  0  0  0
  -24.5904  -30.7079   25.7775 H   0  0  0  0  0  0
  -24.8904  -32.2909   26.4843 H   0  0  0  0  0  0
  -25.8033  -30.8937   27.0236 H   0  0  0  0  0  0
  -26.2946  -29.6740   24.1237 H   0  0  0  0  0  0
  -27.4025  -29.7267   25.4750 H   0  0  0  0  0  0
  -27.8831  -30.4273   23.9484 H   0  0  0  0  0  0
  -27.2656  -33.3640   26.2055 H   0  0  0  0  0  0
  -28.3875  -32.6877   25.0337 H   0  0  0  0  0  0
  -28.0708  -31.8472   26.5436 H   0  0  0  0  0  0
  -28.2596  -38.0094   24.7511 H   0  0  0  0  0  0
  -28.1076  -36.2624   24.6296 H   0  0  0  0  0  0
  -27.2296  -37.1447   25.8870 H   0  0  0  0  0  0
  -20.9389  -29.8770   21.6865 H   0  0  0  0  0  0
  -26.0170  -38.2845   24.1409 H   0  0  0  0  0  0
  -30.9933  -19.9502   18.9620 H   0  0  0  0  0  0
  -31.3769  -17.4361   19.0196 H   0  0  0  0  0  0
  -30.7644  -23.5817   21.9083 H   0  0  0  0  0  0
  -30.1429  -25.2230   21.8329 H   0  0  0  0  0  0
  -30.9340  -24.5211   20.4293 H   0  0  0  0  0  0
  -28.3938  -22.9543   22.7363 H   0  0  0  0  0  0
  -27.0098  -23.1502   21.6606 H   0  0  0  0  0  0
  -27.7357  -24.5498   22.4316 H   0  0  0  0  0  0
  -27.2604  -24.6024   19.6235 H   0  0  0  0  0  0
  -28.7656  -24.8822   18.8366 H   0  0  0  0  0  0
  -28.6572  -21.2732   21.7088 H   0  0  0  0  0  0
  -28.9436  -15.5129   21.2822 H   0  0  0  0  0  0
  1 25  1  0  0  0
  1 30  2  0  0  0
  1 81  1  0  0  0
  2  3  1  0  0  0
  2 25  1  0  0  0
  2 84  1  0  0  0
  2 85  1  0  0  0
  3  4  1  0  0  0
  3 86  1  0  0  0
  3 87  1  0  0  0
  4  5  1  0  0  0
  4 88  1  0  0  0
  4 89  1  0  0  0
  5  6  1  0  0  0
  5 26  1  0  0  0
  5 90  1  0  0  0
  6 25  1  0  0  0
  6 91  1  0  0  0
  6 92  1  0  0  0
  7  8  2  0  0  0
  7 26  1  0  0  0
  7 29  1  0  0  0
  8  9  1  0  0  0
  8 22  1  0  0  0
  9 10  1  0  0  0
  9 27  2  0  0  0
 10 11  2  0  0  0
 10 15  1  0  0  0
 11 12  1  0  0  0
 11 93  1  0  0  0
 12 13  2  0  0  0
 12 94  1  0  0  0
 13 14  1  0  0  0
 13 31  1  0  0  0
 14 15  2  0  0  0
 14 95  1  0  0  0
 15 96  1  0  0  0
 16 17  2  0  0  0
 16 21  1  0  0  0
 16 31  1  0  0  0
 17 18  1  0  0  0
 17 97  1  0  0  0
 18 19  2  0  0  0
 18 98  1  0  0  0
 19 20  1  0  0  0
 19 24  1  0  0  0
 20 21  2  0  0  0
 20 99  1  0  0  0
 21 23  1  0  0  0
 22 28  1  0  0  0
 22 32  2  0  0  0
 26 27  1  0  0  0
 28100  1  0  0  0
 28101  1  0  0  0
 29102  1  0  0  0
 29103  1  0  0  0
 33 34  1  0  0  0
 33 66  1  0  0  0
 33 70  2  0  0  0
 34 36  1  0  0  0
 34 59  1  0  0  0
 34104  1  0  0  0
 35 44  2  0  0  0
 35 45  1  0  0  0
 35 68  1  0  0  0
 36 56  1  0  0  0
 36105  1  0  0  0
 37 39  1  0  0  0
 37 47  1  0  0  0
 37 66  1  0  0  0
 37106  1  0  0  0
 38 43  2  0  0  0
 38 46  1  0  0  0
 38 47  1  0  0  0
 39 64  1  0  0  0
 39 67  2  0  0  0
 40 52  1  0  0  0
 40 53  2  0  0  0
 40 58  1  0  0  0
 41107  1  0  0  0
 41108  1  0  0  0
 41109  1  0  0  0
 41 48  1  0  0  0
 42 43  1  0  0  0
 42 66  1  0  0  0
 42110  1  0  0  0
 42111  1  0  0  0
 43 44  1  0  0  0
 44112  1  0  0  0
 45 46  2  0  0  0
 45113  1  0  0  0
 46114  1  0  0  0
 47115  1  0  0  0
 47116  1  0  0  0
 48 56  1  0  0  0
 48 65  1  0  0  0
 48117  1  0  0  0
 49 50  1  0  0  0
 49 53  1  0  0  0
 49 64  1  0  0  0
 49118  1  0  0  0
 50 51  1  0  0  0
 50119  1  0  0  0
 50120  1  0  0  0
 51 52  1  0  0  0
 51121  1  0  0  0
 51122  1  0  0  0
 52123  1  0  0  0
 52124  1  0  0  0
 53 54  1  0  0  0
 54 55  2  0  0  0
 54125  1  0  0  0
 55 57  1  0  0  0
 55126  1  0  0  0
 56 69  2  0  0  0
 57 58  2  0  0  0
 57127  1  0  0  0
 58128  1  0  0  0
 59 60  1  0  0  0
 59 61  1  0  0  0
 59 62  1  0  0  0
 60129  1  0  0  0
 60130  1  0  0  0
 60131  1  0  0  0
 61132  1  0  0  0
 61133  1  0  0  0
 61134  1  0  0  0
 62135  1  0  0  0
 62136  1  0  0  0
 62137  1  0  0  0
 63 65  1  0  0  0
 63138  1  0  0  0
 63139  1  0  0  0
 63140  1  0  0  0
 64141  1  0  0  0
 65142  1  0  0  0
 68 78  1  0  0  0
 71 72  1  0  0  0
 71 73  2  0  0  0
 71143  1  0  0  0
 72 74  2  0  0  0
 72144  1  0  0  0
 73 80  1  0  0  0
 73 83  1  0  0  0
 74 81  1  0  0  0
 74 83  1  0  0  0
 75 79  1  0  0  0
 75 80  1  0  0  0
 75 82  2  0  0  0
 76145  1  0  0  0
 76146  1  0  0  0
 76147  1  0  0  0
 76 79  1  0  0  0
 77 79  1  0  0  0
 77148  1  0  0  0
 77149  1  0  0  0
 77150  1  0  0  0
 78 79  1  0  0  0
 78151  1  0  0  0
 78152  1  0  0  0
 80153  1  0  0  0
 81154  1  0  0  0
M  ISO  4   1 100  68 101  78 101  81 100
M  END
> <chiral flag>
0

> <version>
0

> <s_m_source_file>
/data/baiqing/PycharmProjects/Reinvent-master-3.2/result/LINK_invent/BTK/process_docking_weight1_custom_product_contain_oxygen_bond_distance_aromatic_linkinvent_7_9_3/rearranged_h_0176.sdf

> <i_m_source_file_index>
26

> <r_mmod_Potential_Energy-OPLS-2005>
111.549926757812

> <r_mmod_Stretch_Energy-OPLS-2005>
111.308334350586

> <r_mmod_Bend_Energy-OPLS-2005>
174.885940551758

> <r_mmod_Torsional_Energy-OPLS-2005>
245.539489746094

> <r_mmod_Improper_Torsional_Energy-OPLS-2005>
3.55271816253662

> <r_mmod_Van_der_Waal_Energy-OPLS-2005>
122.886795043945

> <r_mmod_Electrostatic_Energy-OPLS-2005>
-402.430419921875

> <r_mmod_Solvation_Energy-OPLS-2005>
-222.107437133789

> <b_mmod_Minimization_Converged-OPLS-2005>
0

> <r_mmod_RMS_Derivative-OPLS-2005>
0.352865397930145

$$$$
26
                    3D
 Structure written by MMmdl.
151159  0  0  1  0            999 V2000
  -30.7027  -14.4918   20.5503 C   0  0  0  0  0  0
  -30.4140  -12.3124   19.4276 C   0  0  0  0  0  0
  -29.4944  -12.5132   18.2049 C   0  0  0  0  0  0
  -28.0150  -12.3726   18.6180 C   0  0  0  0  0  0
  -27.6588  -13.2134   19.8745 C   0  0  2  0  0  0
  -28.7022  -13.0154   20.9982 C   0  0  0  0  0  0
  -25.2565  -13.8157   20.5692 C   0  0  0  0  0  0
  -24.1822  -13.0429   20.9164 C   0  0  0  0  0  0
  -24.6396  -11.6894   20.8716 C   0  0  0  0  0  0
  -23.9063  -10.4284   21.0390 C   0  0  0  0  0  0
  -24.3627   -9.4209   21.9170 C   0  0  0  0  0  0
  -23.6300   -8.2249   22.0743 C   0  0  0  0  0  0
  -22.4280   -8.0282   21.3543 C   0  0  0  0  0  0
  -21.9914   -9.0245   20.4641 C   0  0  0  0  0  0
  -22.7234  -10.2127   20.3032 C   0  0  0  0  0  0
  -21.6855   -6.0741   22.5273 C   0  0  0  0  0  0
  -21.4002   -6.5638   23.8214 C   0  0  0  0  0  0
  -21.3667   -5.6792   24.9173 C   0  0  0  0  0  0
  -21.6053   -4.3052   24.7224 C   0  0  0  0  0  0
  -21.8814   -3.8150   23.4345 C   0  0  0  0  0  0
  -21.9192   -4.6972   22.3395 C   0  0  0  0  0  0
  -22.7842  -13.5229   21.1859 C   0  0  0  0  0  0
  -22.1656   -4.2161   21.0970 F   0  0  0  0  0  0
  -21.5661   -3.4532   25.7739 F   0  0  0  0  0  0
  -30.0258  -13.3152   20.4343 N   0  0  0  0  0  0
  -26.3023  -12.9351   20.3401 N   0  0  0  0  0  0
  -25.9339  -11.6492   20.5774 N   0  0  0  0  0  0
  -22.0503  -12.8207   22.0414 N   0  0  0  0  0  0
  -25.4287  -15.1878   20.4177 N   0  0  0  0  0  0
  -31.8471  -14.6392   20.1153 O   0  0  0  0  0  0
  -21.6647   -6.8881   21.4232 O   0  0  0  0  0  0
  -22.3512  -14.5549   20.6736 O   0  0  0  0  0  0
  -24.6195  -31.8693   23.2121 C   0  0  0  0  0  0
  -25.9083  -32.4824   23.8410 C   0  0  1  0  0  0
  -27.2109  -27.3896   20.0909 C   0  0  0  0  0  0
  -25.5937  -33.8628   24.2336 N   0  0  0  0  0  0
  -23.4075  -30.4986   21.5545 C   0  0  2  0  0  0
  -24.8488  -28.9727   20.1111 C   0  0  0  0  0  0
  -22.7435  -29.4687   22.4980 C   0  0  0  0  0  0
  -18.0285  -28.1383   22.8501 C   0  0  0  0  0  0
  -24.1470  -36.7287   23.2598 C   0  0  0  0  0  0
  -25.9461  -30.8170   21.3798 C   0  0  0  0  0  0
  -26.0168  -29.4536   20.7170 C   0  0  0  0  0  0
  -27.2016  -28.6695   20.7081 C   0  0  0  0  0  0
  -26.0196  -26.9577   19.4542 C   0  0  0  0  0  0
  -24.8474  -27.7254   19.4769 C   0  0  0  0  0  0
  -23.6149  -29.8419   20.1664 C   0  0  0  0  0  0
  -25.4070  -36.3103   24.0337 C   0  0  1  0  0  0
  -20.5883  -28.3701   23.1297 C   0  0  2  0  0  0
  -20.6787  -26.9430   22.5418 C   0  0  0  0  0  0
  -19.5747  -26.6393   21.5236 C   0  0  0  0  0  0
  -18.1925  -26.7929   22.1638 C   0  0  0  0  0  0
  -19.1536  -28.8855   23.2893 C   0  0  0  0  0  0
  -18.9457  -30.1467   23.8900 C   0  0  0  0  0  0
  -17.6457  -30.6593   24.0575 C   0  0  0  0  0  0
  -25.9061  -34.9485   23.5138 C   0  0  0  0  0  0
  -16.5345  -29.9091   23.6335 C   0  0  0  0  0  0
  -16.7270  -28.6509   23.0358 C   0  0  0  0  0  0
  -26.4488  -31.6602   25.0757 C   0  0  0  0  0  0
  -25.3730  -31.3732   26.1492 C   0  0  0  0  0  0
  -27.0319  -30.3014   24.6198 C   0  0  0  0  0  0
  -27.6073  -32.4322   25.7517 C   0  0  0  0  0  0
  -27.5649  -37.1657   24.8342 C   0  0  0  0  0  0
  -21.4167  -29.3067   22.3701 N   0  0  0  0  0  0
  -26.4179  -37.3871   23.9575 N   0  0  0  0  0  0
  -24.6762  -31.0755   22.1057 N   0  0  0  0  0  0
  -23.4195  -28.8222   23.3024 O   0  0  0  0  0  0
  -28.3310  -26.5626   20.1365 O   0  0  0  0  0  0
  -26.5627  -34.8948   22.4704 O   0  0  0  0  0  0
  -23.5377  -32.1495   23.7475 O   0  0  0  0  0  0
  -29.5873  -18.0821   21.2473 C   0  0  0  0  0  0
  -28.3675  -18.0974   21.8957 C   0  0  0  0  0  0
  -29.0533  -20.3237   21.0334 C   0  0  0  0  0  0
  -29.1079  -24.1410   20.4144 C   0  0  0  0  0  0
  -28.5830  -22.7842   21.0136 C   0  0  0  0  0  0
  -30.5649  -16.9243   21.0734 C   0  0  0  0  0  0
  -28.0137  -25.1477   19.9866 C   0  0  0  0  0  0
  -29.9433  -19.3573   20.7485 N   0  0  0  0  0  0
  -27.7028  -17.0562   22.5405 N   0  0  0  0  0  0
  -29.2870  -21.6865   20.6471 N   0  0  0  0  0  0
  -30.0137  -15.5518   21.0204 N   0  0  0  0  0  0
  -30.3129  -24.3765   20.2549 O   0  0  0  0  0  0
  -27.6011  -22.7634   21.7647 O   0  0  0  0  0  0
  -27.6538  -19.6971   21.9113 S   0  0  0  0  0  0
  -31.4625  -12.3880   19.1365 H   0  0  0  0  0  0
  -30.2892  -11.3054   19.8273 H   0  0  0  0  0  0
  -29.7350  -11.7880   17.4256 H   0  0  0  0  0  0
  -29.6653  -13.4985   17.7654 H   0  0  0  0  0  0
  -27.8329  -11.3160   18.8188 H   0  0  0  0  0  0
  -27.3607  -12.6413   17.7863 H   0  0  0  0  0  0
  -27.6958  -14.2609   19.5743 H   0  0  0  0  0  0
  -28.6820  -11.9880   21.3644 H   0  0  0  0  0  0
  -28.4735  -13.6402   21.8631 H   0  0  0  0  0  0
  -25.2784   -9.5702   22.4748 H   0  0  0  0  0  0
  -24.0030   -7.4635   22.7454 H   0  0  0  0  0  0
  -21.0848   -8.8732   19.8947 H   0  0  0  0  0  0
  -22.3680  -10.9650   19.6138 H   0  0  0  0  0  0
  -21.1958   -7.6138   23.9710 H   0  0  0  0  0  0
  -21.1511   -6.0528   25.9082 H   0  0  0  0  0  0
  -22.0592   -2.7615   23.2837 H   0  0  0  0  0  0
  -22.4119  -11.9863   22.4779 H   0  0  0  0  0  0
  -21.1117  -13.1209   22.2605 H   0  0  0  0  0  0
  -24.6765  -15.8461   20.5873 H   0  0  0  0  0  0
  -26.3267  -15.6405   20.2917 H   0  0  0  0  0  0
  -26.7151  -32.5513   23.1164 H   0  0  0  0  0  0
  -25.0057  -33.9795   25.0459 H   0  0  0  0  0  0
  -22.6988  -31.3188   21.4185 H   0  0  0  0  0  0
  -23.3871  -35.9457   23.2919 H   0  0  0  0  0  0
  -24.3685  -36.9263   22.2099 H   0  0  0  0  0  0
  -23.6979  -37.6276   23.6832 H   0  0  0  0  0  0
  -26.0755  -31.5848   20.6162 H   0  0  0  0  0  0
  -26.8266  -30.8564   22.0091 H   0  0  0  0  0  0
  -28.0943  -29.0286   21.2021 H   0  0  0  0  0  0
  -25.9504  -26.0175   18.9291 H   0  0  0  0  0  0
  -23.9517  -27.3554   18.9977 H   0  0  0  0  0  0
  -23.7228  -30.6195   19.4093 H   0  0  0  0  0  0
  -22.7380  -29.2636   19.8690 H   0  0  0  0  0  0
  -25.1174  -36.1893   25.0798 H   0  0  0  0  0  0
  -20.9971  -28.3273   24.1420 H   0  0  0  0  0  0
  -20.5737  -26.2313   23.3623 H   0  0  0  0  0  0
  -21.6649  -26.7507   22.1172 H   0  0  0  0  0  0
  -19.6919  -25.6313   21.1250 H   0  0  0  0  0  0
  -19.6658  -27.3226   20.6784 H   0  0  0  0  0  0
  -17.4211  -26.6718   21.4021 H   0  0  0  0  0  0
  -18.0289  -26.0059   22.9011 H   0  0  0  0  0  0
  -19.7938  -30.7294   24.2243 H   0  0  0  0  0  0
  -17.5015  -31.6269   24.5177 H   0  0  0  0  0  0
  -15.5352  -30.2995   23.7658 H   0  0  0  0  0  0
  -15.8674  -28.0833   22.7063 H   0  0  0  0  0  0
  -24.5891  -30.7106   25.7807 H   0  0  0  0  0  0
  -24.8948  -32.2900   26.4939 H   0  0  0  0  0  0
  -25.8049  -30.8877   27.0248 H   0  0  0  0  0  0
  -26.2892  -29.6778   24.1204 H   0  0  0  0  0  0
  -27.3986  -29.7253   25.4705 H   0  0  0  0  0  0
  -27.8780  -30.4281   23.9442 H   0  0  0  0  0  0
  -27.2692  -33.3607   26.2122 H   0  0  0  0  0  0
  -28.3857  -32.6900   25.0327 H   0  0  0  0  0  0
  -28.0762  -31.8431   26.5405 H   0  0  0  0  0  0
  -28.2174  -38.0399   24.8213 H   0  0  0  0  0  0
  -28.1618  -36.3102   24.5138 H   0  0  0  0  0  0
  -27.2553  -36.9998   25.8677 H   0  0  0  0  0  0
  -20.9346  -29.8771   21.6899 H   0  0  0  0  0  0
  -26.0031  -38.2809   24.2069 H   0  0  0  0  0  0
  -31.2802  -16.9459   21.8970 H   0  0  0  0  0  0
  -31.1514  -17.1023   20.1704 H   0  0  0  0  0  0
  -27.1215  -24.9228   20.5728 H   0  0  0  0  0  0
  -27.7800  -24.9379   18.9429 H   0  0  0  0  0  0
  -28.2217  -16.3153   22.9987 H   0  0  0  0  0  0
  -26.8327  -17.2444   23.0301 H   0  0  0  0  0  0
  -30.0829  -21.8620   20.0503 H   0  0  0  0  0  0
  -29.0585  -15.4230   21.3171 H   0  0  0  0  0  0
  1 25  1  0  0  0
  1 30  2  0  0  0
  1 81  1  0  0  0
  2  3  1  0  0  0
  2 25  1  0  0  0
  2 85  1  0  0  0
  2 86  1  0  0  0
  3  4  1  0  0  0
  3 87  1  0  0  0
  3 88  1  0  0  0
  4  5  1  0  0  0
  4 89  1  0  0  0
  4 90  1  0  0  0
  5  6  1  0  0  0
  5 26  1  0  0  0
  5 91  1  0  0  0
  6 25  1  0  0  0
  6 92  1  0  0  0
  6 93  1  0  0  0
  7  8  2  0  0  0
  7 26  1  0  0  0
  7 29  1  0  0  0
  8  9  1  0  0  0
  8 22  1  0  0  0
  9 10  1  0  0  0
  9 27  2  0  0  0
 10 11  2  0  0  0
 10 15  1  0  0  0
 11 12  1  0  0  0
 11 94  1  0  0  0
 12 13  2  0  0  0
 12 95  1  0  0  0
 13 14  1  0  0  0
 13 31  1  0  0  0
 14 15  2  0  0  0
 14 96  1  0  0  0
 15 97  1  0  0  0
 16 17  2  0  0  0
 16 21  1  0  0  0
 16 31  1  0  0  0
 17 18  1  0  0  0
 17 98  1  0  0  0
 18 19  2  0  0  0
 18 99  1  0  0  0
 19 20  1  0  0  0
 19 24  1  0  0  0
 20 21  2  0  0  0
 20100  1  0  0  0
 21 23  1  0  0  0
 22 28  1  0  0  0
 22 32  2  0  0  0
 26 27  1  0  0  0
 28101  1  0  0  0
 28102  1  0  0  0
 29103  1  0  0  0
 29104  1  0  0  0
 33 34  1  0  0  0
 33 66  1  0  0  0
 33 70  2  0  0  0
 34 36  1  0  0  0
 34 59  1  0  0  0
 34105  1  0  0  0
 35 44  2  0  0  0
 35 45  1  0  0  0
 35 68  1  0  0  0
 36 56  1  0  0  0
 36106  1  0  0  0
 37 39  1  0  0  0
 37 47  1  0  0  0
 37 66  1  0  0  0
 37107  1  0  0  0
 38 43  2  0  0  0
 38 46  1  0  0  0
 38 47  1  0  0  0
 39 64  1  0  0  0
 39 67  2  0  0  0
 40 52  1  0  0  0
 40 53  2  0  0  0
 40 58  1  0  0  0
 41108  1  0  0  0
 41109  1  0  0  0
 41110  1  0  0  0
 41 48  1  0  0  0
 42 43  1  0  0  0
 42 66  1  0  0  0
 42111  1  0  0  0
 42112  1  0  0  0
 43 44  1  0  0  0
 44113  1  0  0  0
 45 46  2  0  0  0
 45114  1  0  0  0
 46115  1  0  0  0
 47116  1  0  0  0
 47117  1  0  0  0
 48 56  1  0  0  0
 48 65  1  0  0  0
 48118  1  0  0  0
 49 50  1  0  0  0
 49 53  1  0  0  0
 49 64  1  0  0  0
 49119  1  0  0  0
 50 51  1  0  0  0
 50120  1  0  0  0
 50121  1  0  0  0
 51 52  1  0  0  0
 51122  1  0  0  0
 51123  1  0  0  0
 52124  1  0  0  0
 52125  1  0  0  0
 53 54  1  0  0  0
 54 55  2  0  0  0
 54126  1  0  0  0
 55 57  1  0  0  0
 55127  1  0  0  0
 56 69  2  0  0  0
 57 58  2  0  0  0
 57128  1  0  0  0
 58129  1  0  0  0
 59 60  1  0  0  0
 59 61  1  0  0  0
 59 62  1  0  0  0
 60130  1  0  0  0
 60131  1  0  0  0
 60132  1  0  0  0
 61133  1  0  0  0
 61134  1  0  0  0
 61135  1  0  0  0
 62136  1  0  0  0
 62137  1  0  0  0
 62138  1  0  0  0
 63 65  1  0  0  0
 63139  1  0  0  0
 63140  1  0  0  0
 63141  1  0  0  0
 64142  1  0  0  0
 65143  1  0  0  0
 68 77  1  0  0  0
 71 72  2  0  0  0
 71 76  1  0  0  0
 71 78  1  0  0  0
 72 79  1  0  0  0
 72 84  1  0  0  0
 73 78  2  0  0  0
 73 80  1  0  0  0
 73 84  1  0  0  0
 74 75  1  0  0  0
 74 77  1  0  0  0
 74 82  2  0  0  0
 75 80  1  0  0  0
 75 83  2  0  0  0
 76 81  1  0  0  0
 76144  1  0  0  0
 76145  1  0  0  0
 77146  1  0  0  0
 77147  1  0  0  0
 79148  1  0  0  0
 79149  1  0  0  0
 80150  1  0  0  0
 81151  1  0  0  0
M  ISO  4   1 100  68 101  77 101  81 100
M  END
> <chiral flag>
0

> <version>
0

> <s_m_source_file>
/data/baiqing/PycharmProjects/Reinvent-master-3.2/result/LINK_invent/BTK/process_docking_weight1_custom_product_contain_oxygen_bond_distance_aromatic_linkinvent_7_9_3/rearranged_h_0176.sdf

> <i_m_source_file_index>
27

> <r_mmod_Potential_Energy-OPLS-2005>
-124.345359802246

> <r_mmod_Stretch_Energy-OPLS-2005>
45.7907867431641

> <r_mmod_Bend_Energy-OPLS-2005>
107.658111572266

> <r_mmod_Torsional_Energy-OPLS-2005>
203.146011352539

> <r_mmod_Improper_Torsional_Energy-OPLS-2005>
6.6712760925293

> <r_mmod_Van_der_Waal_Energy-OPLS-2005>
137.916809082031

> <r_mmod_Electrostatic_Energy-OPLS-2005>
-402.436889648438

> <r_mmod_Solvation_Energy-OPLS-2005>
-245.871658325195

> <b_mmod_Minimization_Converged-OPLS-2005>
0

> <r_mmod_RMS_Derivative-OPLS-2005>
2.90633630752563

$$$$
27
                    3D
 Structure written by MMmdl.
151159  0  0  1  0            999 V2000
  -30.5316  -14.7502   20.4386 C   0  0  0  0  0  0
  -30.4587  -12.4488   19.4670 C   0  0  0  0  0  0
  -29.5221  -12.5118   18.2350 C   0  0  0  0  0  0
  -28.0428  -12.3281   18.6387 C   0  0  0  0  0  0
  -27.6476  -13.2084   19.8521 C   0  0  2  0  0  0
  -28.6961  -13.0944   20.9810 C   0  0  0  0  0  0
  -25.2558  -13.8132   20.5665 C   0  0  0  0  0  0
  -24.1823  -13.0410   20.9175 C   0  0  0  0  0  0
  -24.6390  -11.6882   20.8730 C   0  0  0  0  0  0
  -23.9057  -10.4275   21.0401 C   0  0  0  0  0  0
  -24.3616   -9.4192   21.9175 C   0  0  0  0  0  0
  -23.6286   -8.2235   22.0754 C   0  0  0  0  0  0
  -22.4266   -8.0278   21.3548 C   0  0  0  0  0  0
  -21.9901   -9.0245   20.4645 C   0  0  0  0  0  0
  -22.7232  -10.2121   20.3047 C   0  0  0  0  0  0
  -21.6846   -6.0730   22.5275 C   0  0  0  0  0  0
  -21.4014   -6.5636   23.8210 C   0  0  0  0  0  0
  -21.3659   -5.6786   24.9169 C   0  0  0  0  0  0
  -21.6047   -4.3051   24.7221 C   0  0  0  0  0  0
  -21.8818   -3.8144   23.4342 C   0  0  0  0  0  0
  -21.9190   -4.6959   22.3399 C   0  0  0  0  0  0
  -22.7848  -13.5218   21.1841 C   0  0  0  0  0  0
  -22.1653   -4.2148   21.0974 F   0  0  0  0  0  0
  -21.5632   -3.4534   25.7734 F   0  0  0  0  0  0
  -30.0045  -13.4758   20.4282 N   0  0  0  0  0  0
  -26.2965  -12.9286   20.3262 N   0  0  0  0  0  0
  -25.9314  -11.6457   20.5730 N   0  0  0  0  0  0
  -22.0495  -12.8219   22.0408 N   0  0  0  0  0  0
  -25.4266  -15.1861   20.4096 N   0  0  0  0  0  0
  -31.7267  -14.9207   20.1710 O   0  0  0  0  0  0
  -21.6636   -6.8873   21.4237 O   0  0  0  0  0  0
  -22.3528  -14.5515   20.6667 O   0  0  0  0  0  0
  -24.6295  -31.8560   23.1972 C   0  0  0  0  0  0
  -25.9126  -32.4760   23.8325 C   0  0  1  0  0  0
  -27.2358  -27.2832   20.1376 C   0  0  0  0  0  0
  -25.5931  -33.8562   24.2250 N   0  0  0  0  0  0
  -23.4272  -30.4752   21.5393 C   0  0  2  0  0  0
  -24.8787  -28.9161   20.1177 C   0  0  0  0  0  0
  -22.7495  -29.4608   22.4914 C   0  0  0  0  0  0
  -18.0290  -28.1401   22.8484 C   0  0  0  0  0  0
  -24.1490  -36.7285   23.2638 C   0  0  0  0  0  0
  -25.9703  -30.7753   21.3739 C   0  0  0  0  0  0
  -26.0477  -29.3956   20.7240 C   0  0  0  0  0  0
  -27.2306  -28.5915   20.7225 C   0  0  0  0  0  0
  -26.0454  -26.8580   19.5130 C   0  0  0  0  0  0
  -24.8805  -27.6525   19.5031 C   0  0  0  0  0  0
  -23.6471  -29.8009   20.1587 C   0  0  0  0  0  0
  -25.4115  -36.3073   24.0325 C   0  0  1  0  0  0
  -20.5894  -28.3709   23.1271 C   0  0  2  0  0  0
  -20.6784  -26.9426   22.5411 C   0  0  0  0  0  0
  -19.5755  -26.6392   21.5219 C   0  0  0  0  0  0
  -18.1934  -26.7942   22.1626 C   0  0  0  0  0  0
  -19.1546  -28.8868   23.2873 C   0  0  0  0  0  0
  -18.9466  -30.1471   23.8893 C   0  0  0  0  0  0
  -17.6466  -30.6597   24.0566 C   0  0  0  0  0  0
  -25.9060  -34.9445   23.5091 C   0  0  0  0  0  0
  -16.5357  -29.9095   23.6335 C   0  0  0  0  0  0
  -16.7279  -28.6514   23.0351 C   0  0  0  0  0  0
  -26.4496  -31.6585   25.0713 C   0  0  0  0  0  0
  -25.3725  -31.3738   26.1437 C   0  0  0  0  0  0
  -27.0341  -30.2999   24.6198 C   0  0  0  0  0  0
  -27.6048  -32.4327   25.7487 C   0  0  0  0  0  0
  -27.5580  -37.1794   24.8455 C   0  0  0  0  0  0
  -21.4204  -29.3053   22.3654 N   0  0  0  0  0  0
  -26.4284  -37.3775   23.9414 N   0  0  0  0  0  0
  -24.6944  -31.0540   22.0935 N   0  0  0  0  0  0
  -23.4192  -28.8159   23.3022 O   0  0  0  0  0  0
  -28.3478  -26.4190   20.1129 O   0  0  0  0  0  0
  -26.5628  -34.8920   22.4658 O   0  0  0  0  0  0
  -23.5447  -32.1375   23.7273 O   0  0  0  0  0  0
  -29.6922  -19.6479   21.8392 C   0  0  0  0  0  0
  -29.8300  -18.1999   21.9326 C   0  0  0  0  0  0
  -29.7964  -17.5355   20.7165 C   0  0  0  0  0  0
  -29.5418  -20.1855   20.5751 C   0  0  0  0  0  0
  -28.2408  -25.0891   20.6069 C   0  0  0  0  0  0
  -28.8960  -23.9560   20.1483 C   0  0  0  0  0  0
  -28.7881  -22.6016   20.8140 C   0  0  0  0  0  0
  -29.5147  -16.0030   20.4457 C   0  0  0  0  0  0
  -29.8986  -17.4929   23.2623 C   0  0  0  0  0  0
  -29.3823  -21.5250   20.1772 N   0  0  0  0  0  0
  -28.1987  -22.4374   21.8849 O   0  0  0  0  0  0
  -29.6836  -24.0664   19.0683 O   0  0  0  0  0  0
  -30.2818  -18.3122   24.2418 F   0  0  0  0  0  0
  -28.7084  -16.9935   23.5951 F   0  0  0  0  0  0
  -30.7639  -16.4788   23.2341 F   0  0  0  0  0  0
  -29.6569  -18.7967   19.4544 S   0  0  0  0  0  0
  -31.4947  -12.6085   19.1641 H   0  0  0  0  0  0
  -30.4301  -11.4591   19.9254 H   0  0  0  0  0  0
  -29.8076  -11.7529   17.5056 H   0  0  0  0  0  0
  -29.6438  -13.4742   17.7352 H   0  0  0  0  0  0
  -27.8926  -11.2754   18.8807 H   0  0  0  0  0  0
  -27.3906  -12.5390   17.7903 H   0  0  0  0  0  0
  -27.6405  -14.2310   19.4829 H   0  0  0  0  0  0
  -28.7332  -12.0728   21.3623 H   0  0  0  0  0  0
  -28.4295  -13.7127   21.8385 H   0  0  0  0  0  0
  -25.2775   -9.5660   22.4727 H   0  0  0  0  0  0
  -23.9992   -7.4628   22.7477 H   0  0  0  0  0  0
  -21.0831   -8.8762   19.8951 H   0  0  0  0  0  0
  -22.3704  -10.9651   19.6142 H   0  0  0  0  0  0
  -21.2008   -7.6143   23.9723 H   0  0  0  0  0  0
  -21.1479   -6.0508   25.9073 H   0  0  0  0  0  0
  -22.0601   -2.7608   23.2839 H   0  0  0  0  0  0
  -22.4108  -11.9889   22.4813 H   0  0  0  0  0  0
  -21.1106  -13.1226   22.2600 H   0  0  0  0  0  0
  -24.6588  -15.8381   20.5274 H   0  0  0  0  0  0
  -26.2751  -15.6327   20.0874 H   0  0  0  0  0  0
  -26.7199  -32.5421   23.1077 H   0  0  0  0  0  0
  -25.0083  -33.9704   25.0400 H   0  0  0  0  0  0
  -22.7239  -31.2967   21.3880 H   0  0  0  0  0  0
  -23.3763  -35.9606   23.3274 H   0  0  0  0  0  0
  -24.3586  -36.8936   22.2059 H   0  0  0  0  0  0
  -23.7230  -37.6472   23.6682 H   0  0  0  0  0  0
  -26.1047  -31.5340   20.6013 H   0  0  0  0  0  0
  -26.8489  -30.8298   22.0049 H   0  0  0  0  0  0
  -28.1318  -28.9582   21.1936 H   0  0  0  0  0  0
  -26.0157  -25.8885   19.0358 H   0  0  0  0  0  0
  -23.9858  -27.2780   19.0253 H   0  0  0  0  0  0
  -23.7710  -30.5726   19.3980 H   0  0  0  0  0  0
  -22.7672  -29.2307   19.8553 H   0  0  0  0  0  0
  -25.1299  -36.1913   25.0815 H   0  0  0  0  0  0
  -20.9989  -28.3297   24.1391 H   0  0  0  0  0  0
  -20.5696  -26.2321   23.3618 H   0  0  0  0  0  0
  -21.6647  -26.7460   22.1195 H   0  0  0  0  0  0
  -19.6916  -25.6298   21.1255 H   0  0  0  0  0  0
  -19.6695  -27.3198   20.6746 H   0  0  0  0  0  0
  -17.4203  -26.6692   21.4024 H   0  0  0  0  0  0
  -18.0327  -26.0089   22.9025 H   0  0  0  0  0  0
  -19.7940  -30.7289   24.2259 H   0  0  0  0  0  0
  -17.5018  -31.6277   24.5168 H   0  0  0  0  0  0
  -15.5355  -30.2994   23.7668 H   0  0  0  0  0  0
  -15.8675  -28.0835   22.7065 H   0  0  0  0  0  0
  -24.5875  -30.7119   25.7760 H   0  0  0  0  0  0
  -24.8953  -32.2915   26.4888 H   0  0  0  0  0  0
  -25.8042  -30.8884   27.0201 H   0  0  0  0  0  0
  -26.2924  -29.6742   24.1219 H   0  0  0  0  0  0
  -27.4015  -29.7268   25.4722 H   0  0  0  0  0  0
  -27.8804  -30.4264   23.9442 H   0  0  0  0  0  0
  -27.2650  -33.3631   26.2050 H   0  0  0  0  0  0
  -28.3868  -32.6884   25.0325 H   0  0  0  0  0  0
  -28.0704  -31.8465   26.5419 H   0  0  0  0  0  0
  -28.2572  -38.0120   24.7545 H   0  0  0  0  0  0
  -28.1110  -36.2654   24.6228 H   0  0  0  0  0  0
  -27.2306  -37.1370   25.8859 H   0  0  0  0  0  0
  -20.9394  -29.8758   21.6841 H   0  0  0  0  0  0
  -26.0159  -38.2842   24.1449 H   0  0  0  0  0  0
  -29.6826  -20.2483   22.7381 H   0  0  0  0  0  0
  -27.5740  -25.0462   21.4587 H   0  0  0  0  0  0
  -29.0682  -15.9635   19.4527 H   0  0  0  0  0  0
  -28.6965  -15.7433   21.1132 H   0  0  0  0  0  0
  -29.7344  -21.7605   19.2584 H   0  0  0  0  0  0
  -29.6440  -24.9736   18.7921 H   0  0  0  0  0  0
  1 25  1  0  0  0
  1 30  2  0  0  0
  1 78  1  0  0  0
  2  3  1  0  0  0
  2 25  1  0  0  0
  2 87  1  0  0  0
  2 88  1  0  0  0
  3  4  1  0  0  0
  3 89  1  0  0  0
  3 90  1  0  0  0
  4  5  1  0  0  0
  4 91  1  0  0  0
  4 92  1  0  0  0
  5  6  1  0  0  0
  5 26  1  0  0  0
  5 93  1  0  0  0
  6 25  1  0  0  0
  6 94  1  0  0  0
  6 95  1  0  0  0
  7  8  2  0  0  0
  7 26  1  0  0  0
  7 29  1  0  0  0
  8  9  1  0  0  0
  8 22  1  0  0  0
  9 10  1  0  0  0
  9 27  2  0  0  0
 10 11  2  0  0  0
 10 15  1  0  0  0
 11 12  1  0  0  0
 11 96  1  0  0  0
 12 13  2  0  0  0
 12 97  1  0  0  0
 13 14  1  0  0  0
 13 31  1  0  0  0
 14 15  2  0  0  0
 14 98  1  0  0  0
 15 99  1  0  0  0
 16 17  2  0  0  0
 16 21  1  0  0  0
 16 31  1  0  0  0
 17 18  1  0  0  0
 17100  1  0  0  0
 18 19  2  0  0  0
 18101  1  0  0  0
 19 20  1  0  0  0
 19 24  1  0  0  0
 20 21  2  0  0  0
 20102  1  0  0  0
 21 23  1  0  0  0
 22 28  1  0  0  0
 22 32  2  0  0  0
 26 27  1  0  0  0
 28103  1  0  0  0
 28104  1  0  0  0
 29105  1  0  0  0
 29106  1  0  0  0
 33 34  1  0  0  0
 33 66  1  0  0  0
 33 70  2  0  0  0
 34 36  1  0  0  0
 34 59  1  0  0  0
 34107  1  0  0  0
 35 44  2  0  0  0
 35 45  1  0  0  0
 35 68  1  0  0  0
 36 56  1  0  0  0
 36108  1  0  0  0
 37 39  1  0  0  0
 37 47  1  0  0  0
 37 66  1  0  0  0
 37109  1  0  0  0
 38 43  2  0  0  0
 38 46  1  0  0  0
 38 47  1  0  0  0
 39 64  1  0  0  0
 39 67  2  0  0  0
 40 52  1  0  0  0
 40 53  2  0  0  0
 40 58  1  0  0  0
 41110  1  0  0  0
 41111  1  0  0  0
 41112  1  0  0  0
 41 48  1  0  0  0
 42 43  1  0  0  0
 42 66  1  0  0  0
 42113  1  0  0  0
 42114  1  0  0  0
 43 44  1  0  0  0
 44115  1  0  0  0
 45 46  2  0  0  0
 45116  1  0  0  0
 46117  1  0  0  0
 47118  1  0  0  0
 47119  1  0  0  0
 48 56  1  0  0  0
 48 65  1  0  0  0
 48120  1  0  0  0
 49 50  1  0  0  0
 49 53  1  0  0  0
 49 64  1  0  0  0
 49121  1  0  0  0
 50 51  1  0  0  0
 50122  1  0  0  0
 50123  1  0  0  0
 51 52  1  0  0  0
 51124  1  0  0  0
 51125  1  0  0  0
 52126  1  0  0  0
 52127  1  0  0  0
 53 54  1  0  0  0
 54 55  2  0  0  0
 54128  1  0  0  0
 55 57  1  0  0  0
 55129  1  0  0  0
 56 69  2  0  0  0
 57 58  2  0  0  0
 57130  1  0  0  0
 58131  1  0  0  0
 59 60  1  0  0  0
 59 61  1  0  0  0
 59 62  1  0  0  0
 60132  1  0  0  0
 60133  1  0  0  0
 60134  1  0  0  0
 61135  1  0  0  0
 61136  1  0  0  0
 61137  1  0  0  0
 62138  1  0  0  0
 62139  1  0  0  0
 62140  1  0  0  0
 63 65  1  0  0  0
 63141  1  0  0  0
 63142  1  0  0  0
 63143  1  0  0  0
 64144  1  0  0  0
 65145  1  0  0  0
 68 75  1  0  0  0
 71 72  1  0  0  0
 71 74  2  0  0  0
 71146  1  0  0  0
 72 73  2  0  0  0
 72 79  1  0  0  0
 73 78  1  0  0  0
 73 86  1  0  0  0
 74 80  1  0  0  0
 74 86  1  0  0  0
 75 76  2  0  0  0
 75147  1  0  0  0
 76 77  1  0  0  0
 76 82  1  0  0  0
 77 80  1  0  0  0
 77 81  2  0  0  0
 78148  1  0  0  0
 78149  1  0  0  0
 79 83  1  0  0  0
 79 84  1  0  0  0
 79 85  1  0  0  0
 80150  1  0  0  0
 82151  1  0  0  0
M  ISO  4   1 100  68 101  75 101  78 100
M  END
> <chiral flag>
0

> <version>
0

> <s_m_source_file>
/data/baiqing/PycharmProjects/Reinvent-master-3.2/result/LINK_invent/BTK/process_docking_weight1_custom_product_contain_oxygen_bond_distance_aromatic_linkinvent_7_9_3/rearranged_h_0176.sdf

> <i_m_source_file_index>
28

> <r_mmod_Potential_Energy-OPLS-2005>
141.185394287109

> <r_mmod_Stretch_Energy-OPLS-2005>
103.152725219727

> <r_mmod_Bend_Energy-OPLS-2005>
171.408172607422

> <r_mmod_Torsional_Energy-OPLS-2005>
205.040390014648

> <r_mmod_Improper_Torsional_Energy-OPLS-2005>
10.765022277832

> <r_mmod_Van_der_Waal_Energy-OPLS-2005>
115.473403930664

> <r_mmod_Electrostatic_Energy-OPLS-2005>
-340.126312255859

> <r_mmod_Solvation_Energy-OPLS-2005>
-204.788543701172

> <b_mmod_Minimization_Converged-OPLS-2005>
0

> <r_mmod_RMS_Derivative-OPLS-2005>
1.00940871238708

$$$$
28
                    3D
 Structure written by MMmdl.
156164  0  0  1  0            999 V2000
  -30.6073  -14.7501   20.4483 C   0  0  0  0  0  0
  -30.4427  -12.4585   19.4477 C   0  0  0  0  0  0
  -29.5017  -12.4918   18.2227 C   0  0  0  0  0  0
  -28.0338  -12.3092   18.6573 C   0  0  0  0  0  0
  -27.6426  -13.2234   19.8483 C   0  0  2  0  0  0
  -28.6988  -13.1635   20.9733 C   0  0  0  0  0  0
  -25.2532  -13.8188   20.5750 C   0  0  0  0  0  0
  -24.1812  -13.0434   20.9232 C   0  0  0  0  0  0
  -24.6401  -11.6902   20.8765 C   0  0  0  0  0  0
  -23.9069  -10.4279   21.0415 C   0  0  0  0  0  0
  -24.3619   -9.4194   21.9191 C   0  0  0  0  0  0
  -23.6292   -8.2240   22.0760 C   0  0  0  0  0  0
  -22.4274   -8.0283   21.3557 C   0  0  0  0  0  0
  -21.9903   -9.0255   20.4660 C   0  0  0  0  0  0
  -22.7239  -10.2129   20.3070 C   0  0  0  0  0  0
  -21.6858   -6.0726   22.5283 C   0  0  0  0  0  0
  -21.4006   -6.5635   23.8211 C   0  0  0  0  0  0
  -21.3656   -5.6786   24.9174 C   0  0  0  0  0  0
  -21.6049   -4.3045   24.7225 C   0  0  0  0  0  0
  -21.8824   -3.8137   23.4345 C   0  0  0  0  0  0
  -21.9186   -4.6953   22.3406 C   0  0  0  0  0  0
  -22.7824  -13.5217   21.1892 C   0  0  0  0  0  0
  -22.1662   -4.2145   21.0978 F   0  0  0  0  0  0
  -21.5630   -3.4527   25.7735 F   0  0  0  0  0  0
  -29.9898  -13.5208   20.3716 N   0  0  0  0  0  0
  -26.2959  -12.9393   20.3337 N   0  0  0  0  0  0
  -25.9333  -11.6534   20.5801 N   0  0  0  0  0  0
  -22.0473  -12.8198   22.0449 N   0  0  0  0  0  0
  -25.4178  -15.1919   20.4216 N   0  0  0  0  0  0
  -31.8181  -14.8447   20.2284 O   0  0  0  0  0  0
  -21.6638   -6.8876   21.4255 O   0  0  0  0  0  0
  -22.3501  -14.5520   20.6750 O   0  0  0  0  0  0
  -24.6307  -31.8583   23.1955 C   0  0  0  0  0  0
  -25.9122  -32.4836   23.8312 C   0  0  1  0  0  0
  -27.2177  -27.2347   20.1364 C   0  0  0  0  0  0
  -25.5918  -33.8615   24.2248 N   0  0  0  0  0  0
  -23.4325  -30.4853   21.5388 C   0  0  2  0  0  0
  -24.8821  -28.9329   20.1068 C   0  0  0  0  0  0
  -22.7540  -29.4591   22.4816 C   0  0  0  0  0  0
  -18.0349  -28.1400   22.8460 C   0  0  0  0  0  0
  -24.1520  -36.7294   23.2652 C   0  0  0  0  0  0
  -25.9834  -30.7659   21.3822 C   0  0  0  0  0  0
  -26.0565  -29.3841   20.7273 C   0  0  0  0  0  0
  -27.2248  -28.5490   20.7268 C   0  0  0  0  0  0
  -26.0191  -26.8638   19.4814 C   0  0  0  0  0  0
  -24.8732  -27.6847   19.4708 C   0  0  0  0  0  0
  -23.6630  -29.8362   20.1480 C   0  0  0  0  0  0
  -25.4144  -36.3119   24.0346 C   0  0  1  0  0  0
  -20.5942  -28.3723   23.1277 C   0  0  2  0  0  0
  -20.6899  -26.9454   22.5385 C   0  0  0  0  0  0
  -19.5860  -26.6360   21.5212 C   0  0  0  0  0  0
  -18.2022  -26.7950   22.1586 C   0  0  0  0  0  0
  -19.1605  -28.8866   23.2869 C   0  0  0  0  0  0
  -18.9536  -30.1435   23.8920 C   0  0  0  0  0  0
  -17.6553  -30.6611   24.0548 C   0  0  0  0  0  0
  -25.9061  -34.9492   23.5098 C   0  0  0  0  0  0
  -16.5442  -29.9121   23.6327 C   0  0  0  0  0  0
  -16.7342  -28.6554   23.0334 C   0  0  0  0  0  0
  -26.4462  -31.6691   25.0713 C   0  0  0  0  0  0
  -25.3639  -31.3899   26.1416 C   0  0  0  0  0  0
  -27.0342  -30.3171   24.6109 C   0  0  0  0  0  0
  -27.6027  -32.4403   25.7483 C   0  0  0  0  0  0
  -27.5600  -37.1817   24.8467 C   0  0  0  0  0  0
  -21.4232  -29.3090   22.3646 N   0  0  0  0  0  0
  -26.4315  -37.3822   23.9416 N   0  0  0  0  0  0
  -24.7029  -31.0520   22.0985 N   0  0  0  0  0  0
  -23.4258  -28.8090   23.2856 O   0  0  0  0  0  0
  -28.3115  -26.3231   20.1626 O   0  0  0  0  0  0
  -26.5607  -34.8972   22.4643 O   0  0  0  0  0  0
  -23.5429  -32.1435   23.7211 O   0  0  0  0  0  0
  -30.7456  -19.5039   21.7470 C   0  0  0  0  0  0
  -29.8122  -19.6796   20.7330 C   0  0  0  0  0  0
  -30.0819  -17.2939   20.7243 C   0  0  0  0  0  0
  -29.0879  -22.2222   20.8324 C   0  0  0  0  0  0
  -31.4261  -20.5214   22.6144 C   0  0  0  0  0  0
  -29.3729  -23.4801   18.5862 C   0  0  0  0  0  0
  -30.5400  -24.2702   20.6712 C   0  0  0  0  0  0
  -28.0719  -24.8321   20.3786 C   0  0  0  0  0  0
  -29.2197  -23.6820   20.1173 C   0  0  0  0  0  0
  -29.4497  -18.3901   20.1755 N   0  0  0  0  0  0
  -29.4119  -21.0186   20.2037 N   0  0  0  0  0  0
  -29.7947  -15.8741   20.4303 N   0  0  0  0  0  0
  -28.6984  -22.2028   22.0039 O   0  0  0  0  0  0
  -31.2060  -17.8109   21.9709 S   0  0  0  0  0  0
  -31.4763  -12.6023   19.1251 H   0  0  0  0  0  0
  -30.4128  -11.4834   19.9376 H   0  0  0  0  0  0
  -29.7778  -11.7097   17.5134 H   0  0  0  0  0  0
  -29.6150  -13.4387   17.6933 H   0  0  0  0  0  0
  -27.9087  -11.2637   18.9457 H   0  0  0  0  0  0
  -27.3602  -12.4770   17.8168 H   0  0  0  0  0  0
  -27.6329  -14.2396   19.4549 H   0  0  0  0  0  0
  -28.7462  -12.1683   21.4187 H   0  0  0  0  0  0
  -28.4460  -13.8510   21.7814 H   0  0  0  0  0  0
  -25.2761   -9.5663   22.4769 H   0  0  0  0  0  0
  -23.9988   -7.4632   22.7481 H   0  0  0  0  0  0
  -21.0830   -8.8794   19.8974 H   0  0  0  0  0  0
  -22.3706  -10.9682   19.6182 H   0  0  0  0  0  0
  -21.2007   -7.6139   23.9728 H   0  0  0  0  0  0
  -21.1474   -6.0499   25.9074 H   0  0  0  0  0  0
  -22.0605   -2.7601   23.2848 H   0  0  0  0  0  0
  -22.4065  -11.9804   22.4751 H   0  0  0  0  0  0
  -21.1135  -13.1281   22.2762 H   0  0  0  0  0  0
  -24.6492  -15.8361   20.5695 H   0  0  0  0  0  0
  -26.2597  -15.6553   20.1065 H   0  0  0  0  0  0
  -26.7180  -32.5464   23.1042 H   0  0  0  0  0  0
  -25.0200  -33.9813   25.0487 H   0  0  0  0  0  0
  -22.7324  -31.3130   21.3964 H   0  0  0  0  0  0
  -23.3832  -35.9583   23.3290 H   0  0  0  0  0  0
  -24.3629  -36.8903   22.2074 H   0  0  0  0  0  0
  -23.7228  -37.6473   23.6666 H   0  0  0  0  0  0
  -26.1221  -31.5325   20.6151 H   0  0  0  0  0  0
  -26.8650  -30.8144   22.0110 H   0  0  0  0  0  0
  -28.1228  -28.8846   21.2284 H   0  0  0  0  0  0
  -25.9445  -25.9266   18.9564 H   0  0  0  0  0  0
  -23.9843  -27.3443   18.9588 H   0  0  0  0  0  0
  -23.8277  -30.6342   19.4233 H   0  0  0  0  0  0
  -22.7756  -29.3047   19.7985 H   0  0  0  0  0  0
  -25.1342  -36.1956   25.0850 H   0  0  0  0  0  0
  -21.0050  -28.3310   24.1378 H   0  0  0  0  0  0
  -20.5892  -26.2342   23.3577 H   0  0  0  0  0  0
  -21.6784  -26.7557   22.1128 H   0  0  0  0  0  0
  -19.7065  -25.6253   21.1299 H   0  0  0  0  0  0
  -19.6826  -27.3147   20.6723 H   0  0  0  0  0  0
  -17.4317  -26.6723   21.3954 H   0  0  0  0  0  0
  -18.0414  -26.0079   22.8973 H   0  0  0  0  0  0
  -19.8051  -30.7225   24.2328 H   0  0  0  0  0  0
  -17.5171  -31.6303   24.5136 H   0  0  0  0  0  0
  -15.5474  -30.3074   23.7637 H   0  0  0  0  0  0
  -15.8750  -28.0870   22.7048 H   0  0  0  0  0  0
  -24.5793  -30.7284   25.7692 H   0  0  0  0  0  0
  -24.8843  -32.3118   26.4731 H   0  0  0  0  0  0
  -25.7864  -30.9111   27.0257 H   0  0  0  0  0  0
  -26.2940  -29.6932   24.1090 H   0  0  0  0  0  0
  -27.4157  -29.7395   25.4533 H   0  0  0  0  0  0
  -27.8731  -30.4605   23.9300 H   0  0  0  0  0  0
  -27.2706  -33.3778   26.1969 H   0  0  0  0  0  0
  -28.3881  -32.6837   25.0304 H   0  0  0  0  0  0
  -28.0632  -31.8558   26.5452 H   0  0  0  0  0  0
  -28.2584  -38.0153   24.7568 H   0  0  0  0  0  0
  -28.1135  -36.2680   24.6236 H   0  0  0  0  0  0
  -27.2320  -37.1390   25.8872 H   0  0  0  0  0  0
  -20.9406  -29.8850   21.6902 H   0  0  0  0  0  0
  -26.0197  -38.2882   24.1455 H   0  0  0  0  0  0
  -31.6780  -21.4265   22.0629 H   0  0  0  0  0  0
  -32.3582  -20.1276   23.0270 H   0  0  0  0  0  0
  -30.7964  -20.7996   23.4601 H   0  0  0  0  0  0
  -30.2599  -22.8959   18.3284 H   0  0  0  0  0  0
  -29.4687  -24.4355   18.0664 H   0  0  0  0  0  0
  -28.5071  -22.9732   18.1534 H   0  0  0  0  0  0
  -31.3514  -23.5407   20.6610 H   0  0  0  0  0  0
  -30.4228  -24.6023   21.7056 H   0  0  0  0  0  0
  -30.8715  -25.1293   20.0875 H   0  0  0  0  0  0
  -27.7233  -24.7355   21.4097 H   0  0  0  0  0  0
  -27.2201  -24.5101   19.7838 H   0  0  0  0  0  0
  -29.4647  -21.0934   19.1970 H   0  0  0  0  0  0
  -28.8241  -15.6756   20.2523 H   0  0  0  0  0  0
  1 25  1  0  0  0
  1 30  2  0  0  0
  1 82  1  0  0  0
  2  3  1  0  0  0
  2 25  1  0  0  0
  2 85  1  0  0  0
  2 86  1  0  0  0
  3  4  1  0  0  0
  3 87  1  0  0  0
  3 88  1  0  0  0
  4  5  1  0  0  0
  4 89  1  0  0  0
  4 90  1  0  0  0
  5  6  1  0  0  0
  5 26  1  0  0  0
  5 91  1  0  0  0
  6 25  1  0  0  0
  6 92  1  0  0  0
  6 93  1  0  0  0
  7  8  2  0  0  0
  7 26  1  0  0  0
  7 29  1  0  0  0
  8  9  1  0  0  0
  8 22  1  0  0  0
  9 10  1  0  0  0
  9 27  2  0  0  0
 10 11  2  0  0  0
 10 15  1  0  0  0
 11 12  1  0  0  0
 11 94  1  0  0  0
 12 13  2  0  0  0
 12 95  1  0  0  0
 13 14  1  0  0  0
 13 31  1  0  0  0
 14 15  2  0  0  0
 14 96  1  0  0  0
 15 97  1  0  0  0
 16 17  2  0  0  0
 16 21  1  0  0  0
 16 31  1  0  0  0
 17 18  1  0  0  0
 17 98  1  0  0  0
 18 19  2  0  0  0
 18 99  1  0  0  0
 19 20  1  0  0  0
 19 24  1  0  0  0
 20 21  2  0  0  0
 20100  1  0  0  0
 21 23  1  0  0  0
 22 28  1  0  0  0
 22 32  2  0  0  0
 26 27  1  0  0  0
 28101  1  0  0  0
 28102  1  0  0  0
 29103  1  0  0  0
 29104  1  0  0  0
 33 34  1  0  0  0
 33 66  1  0  0  0
 33 70  2  0  0  0
 34 36  1  0  0  0
 34 59  1  0  0  0
 34105  1  0  0  0
 35 44  2  0  0  0
 35 45  1  0  0  0
 35 68  1  0  0  0
 36 56  1  0  0  0
 36106  1  0  0  0
 37 39  1  0  0  0
 37 47  1  0  0  0
 37 66  1  0  0  0
 37107  1  0  0  0
 38 43  2  0  0  0
 38 46  1  0  0  0
 38 47  1  0  0  0
 39 64  1  0  0  0
 39 67  2  0  0  0
 40 52  1  0  0  0
 40 53  2  0  0  0
 40 58  1  0  0  0
 41108  1  0  0  0
 41109  1  0  0  0
 41110  1  0  0  0
 41 48  1  0  0  0
 42 43  1  0  0  0
 42 66  1  0  0  0
 42111  1  0  0  0
 42112  1  0  0  0
 43 44  1  0  0  0
 44113  1  0  0  0
 45 46  2  0  0  0
 45114  1  0  0  0
 46115  1  0  0  0
 47116  1  0  0  0
 47117  1  0  0  0
 48 56  1  0  0  0
 48 65  1  0  0  0
 48118  1  0  0  0
 49 50  1  0  0  0
 49 53  1  0  0  0
 49 64  1  0  0  0
 49119  1  0  0  0
 50 51  1  0  0  0
 50120  1  0  0  0
 50121  1  0  0  0
 51 52  1  0  0  0
 51122  1  0  0  0
 51123  1  0  0  0
 52124  1  0  0  0
 52125  1  0  0  0
 53 54  1  0  0  0
 54 55  2  0  0  0
 54126  1  0  0  0
 55 57  1  0  0  0
 55127  1  0  0  0
 56 69  2  0  0  0
 57 58  2  0  0  0
 57128  1  0  0  0
 58129  1  0  0  0
 59 60  1  0  0  0
 59 61  1  0  0  0
 59 62  1  0  0  0
 60130  1  0  0  0
 60131  1  0  0  0
 60132  1  0  0  0
 61133  1  0  0  0
 61134  1  0  0  0
 61135  1  0  0  0
 62136  1  0  0  0
 62137  1  0  0  0
 62138  1  0  0  0
 63 65  1  0  0  0
 63139  1  0  0  0
 63140  1  0  0  0
 63141  1  0  0  0
 64142  1  0  0  0
 65143  1  0  0  0
 68 78  1  0  0  0
 71 72  2  0  0  0
 71 75  1  0  0  0
 71 84  1  0  0  0
 72 80  1  0  0  0
 72 81  1  0  0  0
 73 80  2  0  0  0
 73 82  1  0  0  0
 73 84  1  0  0  0
 74 79  1  0  0  0
 74 81  1  0  0  0
 74 83  2  0  0  0
 75144  1  0  0  0
 75145  1  0  0  0
 75146  1  0  0  0
 76147  1  0  0  0
 76148  1  0  0  0
 76149  1  0  0  0
 76 79  1  0  0  0
 77 79  1  0  0  0
 77150  1  0  0  0
 77151  1  0  0  0
 77152  1  0  0  0
 78 79  1  0  0  0
 78153  1  0  0  0
 78154  1  0  0  0
 81155  1  0  0  0
 82156  1  0  0  0
M  ISO  4   1 100  68 101  78 101  82 100
M  END
> <chiral flag>
0

> <version>
0

> <s_m_source_file>
/data/baiqing/PycharmProjects/Reinvent-master-3.2/result/LINK_invent/BTK/process_docking_weight1_custom_product_contain_oxygen_bond_distance_aromatic_linkinvent_7_9_3/rearranged_h_0176.sdf

> <i_m_source_file_index>
29

> <r_mmod_Potential_Energy-OPLS-2005>
128.838989257812

> <r_mmod_Stretch_Energy-OPLS-2005>
141.244888305664

> <r_mmod_Bend_Energy-OPLS-2005>
176.458297729492

> <r_mmod_Torsional_Energy-OPLS-2005>
280.811309814453

> <r_mmod_Improper_Torsional_Energy-OPLS-2005>
9.7771167755127

> <r_mmod_Van_der_Waal_Energy-OPLS-2005>
114.197608947754

> <r_mmod_Electrostatic_Energy-OPLS-2005>
-463.075653076172

> <r_mmod_Solvation_Energy-OPLS-2005>
-227.040618896484

> <b_mmod_Minimization_Converged-OPLS-2005>
0

> <r_mmod_RMS_Derivative-OPLS-2005>
5.10065698623657

$$$$
29
                    3D
 Structure written by MMmdl.
149157  0  0  1  0            999 V2000
  -30.5682  -14.8286   20.4477 C   0  0  0  0  0  0
  -30.4456  -12.5107   19.4752 C   0  0  0  0  0  0
  -29.5166  -12.5157   18.2394 C   0  0  0  0  0  0
  -28.0453  -12.3214   18.6570 C   0  0  0  0  0  0
  -27.6389  -13.2330   19.8447 C   0  0  2  0  0  0
  -28.6861  -13.1955   20.9790 C   0  0  0  0  0  0
  -25.2506  -13.8191   20.5693 C   0  0  0  0  0  0
  -24.1804  -13.0434   20.9216 C   0  0  0  0  0  0
  -24.6398  -11.6913   20.8751 C   0  0  0  0  0  0
  -23.9073  -10.4291   21.0409 C   0  0  0  0  0  0
  -24.3623   -9.4205   21.9185 C   0  0  0  0  0  0
  -23.6295   -8.2242   22.0754 C   0  0  0  0  0  0
  -22.4277   -8.0282   21.3545 C   0  0  0  0  0  0
  -21.9914   -9.0257   20.4647 C   0  0  0  0  0  0
  -22.7245  -10.2134   20.3057 C   0  0  0  0  0  0
  -21.6853   -6.0736   22.5279 C   0  0  0  0  0  0
  -21.4016   -6.5640   23.8212 C   0  0  0  0  0  0
  -21.3659   -5.6792   24.9174 C   0  0  0  0  0  0
  -21.6044   -4.3055   24.7225 C   0  0  0  0  0  0
  -21.8819   -3.8147   23.4346 C   0  0  0  0  0  0
  -21.9193   -4.6964   22.3402 C   0  0  0  0  0  0
  -22.7825  -13.5217   21.1873 C   0  0  0  0  0  0
  -22.1661   -4.2149   21.0980 F   0  0  0  0  0  0
  -21.5628   -3.4538   25.7737 F   0  0  0  0  0  0
  -29.9764  -13.5796   20.3905 N   0  0  0  0  0  0
  -26.2929  -12.9397   20.3258 N   0  0  0  0  0  0
  -25.9328  -11.6541   20.5744 N   0  0  0  0  0  0
  -22.0470  -12.8209   22.0429 N   0  0  0  0  0  0
  -25.4171  -15.1919   20.4097 N   0  0  0  0  0  0
  -31.7664  -14.9397   20.1709 O   0  0  0  0  0  0
  -21.6640   -6.8879   21.4241 O   0  0  0  0  0  0
  -22.3510  -14.5522   20.6716 O   0  0  0  0  0  0
  -24.6388  -31.8504   23.1950 C   0  0  0  0  0  0
  -25.9185  -32.4729   23.8315 C   0  0  1  0  0  0
  -27.2211  -27.2035   20.1207 C   0  0  0  0  0  0
  -25.5954  -33.8532   24.2232 N   0  0  0  0  0  0
  -23.4387  -30.4743   21.5401 C   0  0  2  0  0  0
  -24.8862  -28.9181   20.1089 C   0  0  0  0  0  0
  -22.7545  -29.4582   22.4883 C   0  0  0  0  0  0
  -18.0301  -28.1391   22.8479 C   0  0  0  0  0  0
  -24.1491  -36.7270   23.2641 C   0  0  0  0  0  0
  -25.9925  -30.7443   21.3854 C   0  0  0  0  0  0
  -26.0647  -29.3640   20.7213 C   0  0  0  0  0  0
  -27.2329  -28.5204   20.7174 C   0  0  0  0  0  0
  -26.0024  -26.8388   19.4977 C   0  0  0  0  0  0
  -24.8635  -27.6645   19.4864 C   0  0  0  0  0  0
  -23.6609  -29.8124   20.1563 C   0  0  0  0  0  0
  -25.4120  -36.3052   24.0321 C   0  0  1  0  0  0
  -20.5912  -28.3713   23.1245 C   0  0  2  0  0  0
  -20.6788  -26.9422   22.5401 C   0  0  0  0  0  0
  -19.5760  -26.6381   21.5209 C   0  0  0  0  0  0
  -18.1942  -26.7930   22.1623 C   0  0  0  0  0  0
  -19.1557  -28.8870   23.2855 C   0  0  0  0  0  0
  -18.9474  -30.1467   23.8879 C   0  0  0  0  0  0
  -17.6471  -30.6589   24.0559 C   0  0  0  0  0  0
  -25.9067  -34.9424   23.5080 C   0  0  0  0  0  0
  -16.5362  -29.9082   23.6335 C   0  0  0  0  0  0
  -16.7286  -28.6501   23.0356 C   0  0  0  0  0  0
  -26.4522  -31.6574   25.0731 C   0  0  0  0  0  0
  -25.3720  -31.3750   26.1436 C   0  0  0  0  0  0
  -27.0381  -30.2977   24.6276 C   0  0  0  0  0  0
  -27.6059  -32.4331   25.7513 C   0  0  0  0  0  0
  -27.5577  -37.1792   24.8466 C   0  0  0  0  0  0
  -21.4243  -29.3051   22.3628 N   0  0  0  0  0  0
  -26.4290  -37.3757   23.9407 N   0  0  0  0  0  0
  -24.7096  -31.0417   22.0957 N   0  0  0  0  0  0
  -23.4215  -28.8117   23.3003 O   0  0  0  0  0  0
  -28.2704  -26.2287   20.1994 O   0  0  0  0  0  0
  -26.5641  -34.8909   22.4651 O   0  0  0  0  0  0
  -23.5520  -32.1353   23.7204 O   0  0  0  0  0  0
  -30.8251  -18.2348   21.1815 C   0  0  0  0  0  0
  -30.5549  -19.6741   21.0242 C   0  0  0  0  0  0
  -29.8986  -17.3705   20.5879 C   0  0  0  0  0  0
  -29.4311  -20.0604   20.3172 C   0  0  0  0  0  0
  -31.9717  -17.7457   21.9403 C   0  0  0  0  0  0
  -28.2510  -25.0837   19.3343 C   0  0  0  0  0  0
  -28.5094  -23.6932   19.3402 C   0  0  0  0  0  0
  -29.0115  -22.6655   20.3521 C   0  0  0  0  0  0
  -28.9566  -21.3353   19.9001 N   0  0  0  0  0  0
  -29.7350  -15.9495   20.5909 N   0  0  0  0  0  0
  -32.8899  -18.4196   22.4190 O   0  0  0  0  0  0
  -29.4216  -22.9480   21.4782 O   0  0  0  0  0  0
  -28.2564  -23.1286   18.1443 O   0  0  0  0  0  0
  -31.3747  -20.5758   21.5165 F   0  0  0  0  0  0
  -28.6894  -18.4882   19.8380 S   0  0  0  0  0  0
  -31.4807  -12.6642   19.1655 H   0  0  0  0  0  0
  -30.4223  -11.5412   19.9753 H   0  0  0  0  0  0
  -29.8135  -11.7332   17.5398 H   0  0  0  0  0  0
  -29.6234  -13.4606   17.7043 H   0  0  0  0  0  0
  -27.9198  -11.2750   18.9376 H   0  0  0  0  0  0
  -27.3840  -12.4888   17.8061 H   0  0  0  0  0  0
  -27.6210  -14.2471   19.4456 H   0  0  0  0  0  0
  -28.7447  -12.2009   21.4236 H   0  0  0  0  0  0
  -28.4072  -13.8749   21.7863 H   0  0  0  0  0  0
  -25.2768   -9.5680   22.4761 H   0  0  0  0  0  0
  -24.0003   -7.4632   22.7473 H   0  0  0  0  0  0
  -21.0845   -8.8778   19.8953 H   0  0  0  0  0  0
  -22.3705  -10.9675   19.6168 H   0  0  0  0  0  0
  -21.2010   -7.6148   23.9716 H   0  0  0  0  0  0
  -21.1481   -6.0522   25.9077 H   0  0  0  0  0  0
  -22.0599   -2.7609   23.2846 H   0  0  0  0  0  0
  -22.4090  -11.9875   22.4823 H   0  0  0  0  0  0
  -21.1086  -13.1232   22.2632 H   0  0  0  0  0  0
  -24.6416  -15.8372   20.5153 H   0  0  0  0  0  0
  -26.2479  -15.6349   20.0407 H   0  0  0  0  0  0
  -26.7251  -32.5355   23.1050 H   0  0  0  0  0  0
  -25.0094  -33.9660   25.0374 H   0  0  0  0  0  0
  -22.7382  -31.2990   21.3929 H   0  0  0  0  0  0
  -23.3756  -35.9599   23.3298 H   0  0  0  0  0  0
  -24.3579  -36.8902   22.2057 H   0  0  0  0  0  0
  -23.7243  -37.6466   23.6675 H   0  0  0  0  0  0
  -26.1434  -31.5051   20.6183 H   0  0  0  0  0  0
  -26.8648  -30.7891   22.0259 H   0  0  0  0  0  0
  -28.1302  -28.8547   21.2188 H   0  0  0  0  0  0
  -25.8790  -25.8666   19.0448 H   0  0  0  0  0  0
  -23.9577  -27.3101   19.0135 H   0  0  0  0  0  0
  -23.7928  -30.5909   19.4040 H   0  0  0  0  0  0
  -22.7767  -29.2529   19.8457 H   0  0  0  0  0  0
  -25.1304  -36.1891   25.0814 H   0  0  0  0  0  0
  -21.0003  -28.3296   24.1366 H   0  0  0  0  0  0
  -20.5684  -26.2325   23.3615 H   0  0  0  0  0  0
  -21.6654  -26.7435   22.1197 H   0  0  0  0  0  0
  -19.6922  -25.6287   21.1252 H   0  0  0  0  0  0
  -19.6695  -27.3181   20.6730 H   0  0  0  0  0  0
  -17.4209  -26.6671   21.4030 H   0  0  0  0  0  0
  -18.0346  -26.0078   22.9026 H   0  0  0  0  0  0
  -19.7949  -30.7288   24.2241 H   0  0  0  0  0  0
  -17.5024  -31.6268   24.5161 H   0  0  0  0  0  0
  -15.5361  -30.2977   23.7670 H   0  0  0  0  0  0
  -15.8686  -28.0812   22.7082 H   0  0  0  0  0  0
  -24.5902  -30.7092   25.7762 H   0  0  0  0  0  0
  -24.8906  -32.2928   26.4820 H   0  0  0  0  0  0
  -25.8016  -30.8953   27.0240 H   0  0  0  0  0  0
  -26.2990  -29.6710   24.1272 H   0  0  0  0  0  0
  -27.4000  -29.7261   25.4832 H   0  0  0  0  0  0
  -27.8894  -30.4226   23.9582 H   0  0  0  0  0  0
  -27.2653  -33.3642   26.2056 H   0  0  0  0  0  0
  -28.3888  -32.6876   25.0357 H   0  0  0  0  0  0
  -28.0707  -31.8482   26.5461 H   0  0  0  0  0  0
  -28.2592  -38.0091   24.7508 H   0  0  0  0  0  0
  -28.1076  -36.2621   24.6299 H   0  0  0  0  0  0
  -27.2295  -37.1448   25.8870 H   0  0  0  0  0  0
  -20.9443  -29.8777   21.6826 H   0  0  0  0  0  0
  -26.0163  -38.2829   24.1404 H   0  0  0  0  0  0
  -31.9683  -16.6669   22.0850 H   0  0  0  0  0  0
  -27.9362  -25.4652   18.3723 H   0  0  0  0  0  0
  -28.4700  -21.3157   19.0125 H   0  0  0  0  0  0
  -28.7678  -15.6645   20.6230 H   0  0  0  0  0  0
  -27.9620  -23.8118   17.5567 H   0  0  0  0  0  0
  1 25  1  0  0  0
  1 30  2  0  0  0
  1 80  1  0  0  0
  2  3  1  0  0  0
  2 25  1  0  0  0
  2 86  1  0  0  0
  2 87  1  0  0  0
  3  4  1  0  0  0
  3 88  1  0  0  0
  3 89  1  0  0  0
  4  5  1  0  0  0
  4 90  1  0  0  0
  4 91  1  0  0  0
  5  6  1  0  0  0
  5 26  1  0  0  0
  5 92  1  0  0  0
  6 25  1  0  0  0
  6 93  1  0  0  0
  6 94  1  0  0  0
  7  8  2  0  0  0
  7 26  1  0  0  0
  7 29  1  0  0  0
  8  9  1  0  0  0
  8 22  1  0  0  0
  9 10  1  0  0  0
  9 27  2  0  0  0
 10 11  2  0  0  0
 10 15  1  0  0  0
 11 12  1  0  0  0
 11 95  1  0  0  0
 12 13  2  0  0  0
 12 96  1  0  0  0
 13 14  1  0  0  0
 13 31  1  0  0  0
 14 15  2  0  0  0
 14 97  1  0  0  0
 15 98  1  0  0  0
 16 17  2  0  0  0
 16 21  1  0  0  0
 16 31  1  0  0  0
 17 18  1  0  0  0
 17 99  1  0  0  0
 18 19  2  0  0  0
 18100  1  0  0  0
 19 20  1  0  0  0
 19 24  1  0  0  0
 20 21  2  0  0  0
 20101  1  0  0  0
 21 23  1  0  0  0
 22 28  1  0  0  0
 22 32  2  0  0  0
 26 27  1  0  0  0
 28102  1  0  0  0
 28103  1  0  0  0
 29104  1  0  0  0
 29105  1  0  0  0
 33 34  1  0  0  0
 33 66  1  0  0  0
 33 70  2  0  0  0
 34 36  1  0  0  0
 34 59  1  0  0  0
 34106  1  0  0  0
 35 44  2  0  0  0
 35 45  1  0  0  0
 35 68  1  0  0  0
 36 56  1  0  0  0
 36107  1  0  0  0
 37 39  1  0  0  0
 37 47  1  0  0  0
 37 66  1  0  0  0
 37108  1  0  0  0
 38 43  2  0  0  0
 38 46  1  0  0  0
 38 47  1  0  0  0
 39 64  1  0  0  0
 39 67  2  0  0  0
 40 52  1  0  0  0
 40 53  2  0  0  0
 40 58  1  0  0  0
 41109  1  0  0  0
 41110  1  0  0  0
 41111  1  0  0  0
 41 48  1  0  0  0
 42 43  1  0  0  0
 42 66  1  0  0  0
 42112  1  0  0  0
 42113  1  0  0  0
 43 44  1  0  0  0
 44114  1  0  0  0
 45 46  2  0  0  0
 45115  1  0  0  0
 46116  1  0  0  0
 47117  1  0  0  0
 47118  1  0  0  0
 48 56  1  0  0  0
 48 65  1  0  0  0
 48119  1  0  0  0
 49 50  1  0  0  0
 49 53  1  0  0  0
 49 64  1  0  0  0
 49120  1  0  0  0
 50 51  1  0  0  0
 50121  1  0  0  0
 50122  1  0  0  0
 51 52  1  0  0  0
 51123  1  0  0  0
 51124  1  0  0  0
 52125  1  0  0  0
 52126  1  0  0  0
 53 54  1  0  0  0
 54 55  2  0  0  0
 54127  1  0  0  0
 55 57  1  0  0  0
 55128  1  0  0  0
 56 69  2  0  0  0
 57 58  2  0  0  0
 57129  1  0  0  0
 58130  1  0  0  0
 59 60  1  0  0  0
 59 61  1  0  0  0
 59 62  1  0  0  0
 60131  1  0  0  0
 60132  1  0  0  0
 60133  1  0  0  0
 61134  1  0  0  0
 61135  1  0  0  0
 61136  1  0  0  0
 62137  1  0  0  0
 62138  1  0  0  0
 62139  1  0  0  0
 63 65  1  0  0  0
 63140  1  0  0  0
 63141  1  0  0  0
 63142  1  0  0  0
 64143  1  0  0  0
 65144  1  0  0  0
 68 76  1  0  0  0
 71 72  1  0  0  0
 71 73  2  0  0  0
 71 75  1  0  0  0
 72 74  2  0  0  0
 72 84  1  0  0  0
 73 80  1  0  0  0
 73 85  1  0  0  0
 74 79  1  0  0  0
 74 85  1  0  0  0
 75 81  2  0  0  0
 75145  1  0  0  0
 76 77  2  0  0  0
 76146  1  0  0  0
 77 78  1  0  0  0
 77 83  1  0  0  0
 78 79  1  0  0  0
 78 82  2  0  0  0
 79147  1  0  0  0
 80148  1  0  0  0
 83149  1  0  0  0
M  ISO  4   1 100  68 101  76 101  80 100
M  END
> <chiral flag>
0

> <version>
0

> <s_m_source_file>
/data/baiqing/PycharmProjects/Reinvent-master-3.2/result/LINK_invent/BTK/process_docking_weight1_custom_product_contain_oxygen_bond_distance_aromatic_linkinvent_7_9_3/rearranged_h_0176.sdf

> <i_m_source_file_index>
30

> <r_mmod_Potential_Energy-OPLS-2005>
293.586853027344

> <r_mmod_Stretch_Energy-OPLS-2005>
149.186019897461

> <r_mmod_Bend_Energy-OPLS-2005>
269.399993896484

> <r_mmod_Torsional_Energy-OPLS-2005>
229.939437866211

> <r_mmod_Improper_Torsional_Energy-OPLS-2005>
6.21238899230957

> <r_mmod_Van_der_Waal_Energy-OPLS-2005>
129.505966186523

> <r_mmod_Electrostatic_Energy-OPLS-2005>
-360.042877197266

> <r_mmod_Solvation_Energy-OPLS-2005>
-261.906372070312

> <b_mmod_Minimization_Converged-OPLS-2005>
0

> <r_mmod_RMS_Derivative-OPLS-2005>
0.131663233041763

$$$$
30
                    3D
 Structure written by MMmdl.
149157  0  0  1  0            999 V2000
  -30.5380  -14.8641   20.3572 C   0  0  0  0  0  0
  -30.4375  -12.5143   19.4711 C   0  0  0  0  0  0
  -29.5107  -12.5247   18.2352 C   0  0  0  0  0  0
  -28.0434  -12.3193   18.6557 C   0  0  0  0  0  0
  -27.6335  -13.2362   19.8399 C   0  0  2  0  0  0
  -28.6837  -13.2005   20.9711 C   0  0  0  0  0  0
  -25.2488  -13.8208   20.5833 C   0  0  0  0  0  0
  -24.1751  -13.0432   20.9239 C   0  0  0  0  0  0
  -24.6356  -11.6918   20.8717 C   0  0  0  0  0  0
  -23.9028  -10.4305   21.0368 C   0  0  0  0  0  0
  -24.3592   -9.4220   21.9149 C   0  0  0  0  0  0
  -23.6252   -8.2260   22.0717 C   0  0  0  0  0  0
  -22.4230   -8.0290   21.3529 C   0  0  0  0  0  0
  -21.9877   -9.0269   20.4609 C   0  0  0  0  0  0
  -22.7198  -10.2158   20.3016 C   0  0  0  0  0  0
  -21.6860   -6.0708   22.5281 C   0  0  0  0  0  0
  -21.3994   -6.5596   23.8207 C   0  0  0  0  0  0
  -21.3672   -5.6745   24.9162 C   0  0  0  0  0  0
  -21.6055   -4.3005   24.7216 C   0  0  0  0  0  0
  -21.8820   -3.8113   23.4330 C   0  0  0  0  0  0
  -21.9186   -4.6925   22.3389 C   0  0  0  0  0  0
  -22.7777  -13.5213   21.1917 C   0  0  0  0  0  0
  -22.1659   -4.2124   21.0960 F   0  0  0  0  0  0
  -21.5623   -3.4486   25.7725 F   0  0  0  0  0  0
  -29.9683  -13.5958   20.3777 N   0  0  0  0  0  0
  -26.2880  -12.9416   20.3264 N   0  0  0  0  0  0
  -25.9281  -11.6542   20.5685 N   0  0  0  0  0  0
  -22.0411  -12.8211   22.0443 N   0  0  0  0  0  0
  -25.4205  -15.1954   20.4551 N   0  0  0  0  0  0
  -31.7291  -14.9592   20.0427 O   0  0  0  0  0  0
  -21.6604   -6.8874   21.4257 O   0  0  0  0  0  0
  -22.3476  -14.5571   20.6808 O   0  0  0  0  0  0
  -24.6376  -31.8509   23.1898 C   0  0  0  0  0  0
  -25.9204  -32.4704   23.8241 C   0  0  1  0  0  0
  -27.2070  -27.1961   20.1131 C   0  0  0  0  0  0
  -25.6002  -33.8509   24.2207 N   0  0  0  0  0  0
  -23.4369  -30.4733   21.5357 C   0  0  2  0  0  0
  -24.8815  -28.9165   20.0916 C   0  0  0  0  0  0
  -22.7536  -29.4571   22.4858 C   0  0  0  0  0  0
  -18.0281  -28.1395   22.8426 C   0  0  0  0  0  0
  -24.1504  -36.7238   23.2639 C   0  0  0  0  0  0
  -25.9862  -30.7368   21.3808 C   0  0  0  0  0  0
  -26.0596  -29.3561   20.7185 C   0  0  0  0  0  0
  -27.2281  -28.5095   20.7211 C   0  0  0  0  0  0
  -26.0104  -26.8498   19.4533 C   0  0  0  0  0  0
  -24.8680  -27.6747   19.4449 C   0  0  0  0  0  0
  -23.6541  -29.8110   20.1492 C   0  0  0  0  0  0
  -25.4132  -36.3008   24.0300 C   0  0  1  0  0  0
  -20.5891  -28.3723   23.1217 C   0  0  2  0  0  0
  -20.6764  -26.9425   22.5398 C   0  0  0  0  0  0
  -19.5766  -26.6368   21.5177 C   0  0  0  0  0  0
  -18.1946  -26.7913   22.1598 C   0  0  0  0  0  0
  -19.1539  -28.8871   23.2788 C   0  0  0  0  0  0
  -18.9481  -30.1469   23.8823 C   0  0  0  0  0  0
  -17.6486  -30.6582   24.0550 C   0  0  0  0  0  0
  -25.9078  -34.9412   23.5046 C   0  0  0  0  0  0
  -16.5376  -29.9084   23.6308 C   0  0  0  0  0  0
  -16.7260  -28.6493   23.0317 C   0  0  0  0  0  0
  -26.4517  -31.6529   25.0648 C   0  0  0  0  0  0
  -25.3692  -31.3767   26.1334 C   0  0  0  0  0  0
  -27.0417  -30.2935   24.6242 C   0  0  0  0  0  0
  -27.6075  -32.4257   25.7422 C   0  0  0  0  0  0
  -27.5550  -37.1789   24.8475 C   0  0  0  0  0  0
  -21.4231  -29.3059   22.3596 N   0  0  0  0  0  0
  -26.4284  -37.3721   23.9376 N   0  0  0  0  0  0
  -24.7056  -31.0404   22.0909 N   0  0  0  0  0  0
  -23.4200  -28.8106   23.2974 O   0  0  0  0  0  0
  -28.2146  -26.1750   20.1377 O   0  0  0  0  0  0
  -26.5676  -34.8893   22.4632 O   0  0  0  0  0  0
  -23.5512  -32.1393   23.7198 O   0  0  0  0  0  0
  -30.1690  -19.5929   18.7065 C   0  0  0  0  0  0
  -29.3883  -19.8452   19.8340 C   0  0  0  0  0  0
  -29.8466  -17.4376   20.0616 C   0  0  0  0  0  0
  -27.8449  -24.9298   20.7695 C   0  0  0  0  0  0
  -28.0893  -23.5259   20.7371 C   0  0  0  0  0  0
  -28.9563  -22.5641   19.9222 C   0  0  0  0  0  0
  -30.5636  -20.4971   17.5741 C   0  0  0  0  0  0
  -29.1825  -18.5664   20.5359 N   0  0  0  0  0  0
  -28.7810  -21.1860   20.2203 N   0  0  0  0  0  0
  -29.7293  -16.0060   20.5440 N   0  0  0  0  0  0
  -29.7707  -22.9525   19.0861 O   0  0  0  0  0  0
  -27.3936  -22.8675   21.6811 O   0  0  0  0  0  0
  -30.7567  -17.9130   18.6294 S   0  0  0  0  0  0
  -31.4745  -12.6555   19.1595 H   0  0  0  0  0  0
  -30.4065  -11.5408   19.9664 H   0  0  0  0  0  0
  -29.8127  -11.7548   17.5229 H   0  0  0  0  0  0
  -29.6038  -13.4833   17.7220 H   0  0  0  0  0  0
  -27.9385  -11.2752   18.9548 H   0  0  0  0  0  0
  -27.3767  -12.4679   17.8041 H   0  0  0  0  0  0
  -27.6107  -14.2489   19.4355 H   0  0  0  0  0  0
  -28.7472  -12.1985   21.4018 H   0  0  0  0  0  0
  -28.4096  -13.8668   21.7890 H   0  0  0  0  0  0
  -25.2755   -9.5686   22.4706 H   0  0  0  0  0  0
  -23.9943   -7.4653   22.7447 H   0  0  0  0  0  0
  -21.0801   -8.8773   19.8938 H   0  0  0  0  0  0
  -22.3627  -10.9670   19.6097 H   0  0  0  0  0  0
  -21.1958   -7.6101   23.9740 H   0  0  0  0  0  0
  -21.1498   -6.0434   25.9080 H   0  0  0  0  0  0
  -22.0590   -2.7574   23.2807 H   0  0  0  0  0  0
  -22.4011  -11.9825   22.4761 H   0  0  0  0  0  0
  -21.1054  -13.1273   22.2736 H   0  0  0  0  0  0
  -24.6749  -15.8491   20.6713 H   0  0  0  0  0  0
  -26.3032  -15.6519   20.2682 H   0  0  0  0  0  0
  -26.7271  -32.5355   23.0958 H   0  0  0  0  0  0
  -25.0136  -33.9604   25.0351 H   0  0  0  0  0  0
  -22.7365  -31.2979   21.3916 H   0  0  0  0  0  0
  -23.3712  -35.9618   23.3358 H   0  0  0  0  0  0
  -24.3582  -36.8828   22.2036 H   0  0  0  0  0  0
  -23.7322  -37.6481   23.6649 H   0  0  0  0  0  0
  -26.1406  -31.4965   20.6127 H   0  0  0  0  0  0
  -26.8567  -30.7809   22.0231 H   0  0  0  0  0  0
  -28.1223  -28.8390   21.2330 H   0  0  0  0  0  0
  -25.9434  -25.8895   18.9596 H   0  0  0  0  0  0
  -23.9749  -27.3442   18.9275 H   0  0  0  0  0  0
  -23.7705  -30.5916   19.3947 H   0  0  0  0  0  0
  -22.7666  -29.2448   19.8510 H   0  0  0  0  0  0
  -25.1310  -36.1808   25.0780 H   0  0  0  0  0  0
  -20.9961  -28.3360   24.1348 H   0  0  0  0  0  0
  -20.5647  -26.2319   23.3601 H   0  0  0  0  0  0
  -21.6632  -26.7415   22.1241 H   0  0  0  0  0  0
  -19.6931  -25.6255   21.1254 H   0  0  0  0  0  0
  -19.6739  -27.3142   20.6674 H   0  0  0  0  0  0
  -17.4220  -26.6578   21.4004 H   0  0  0  0  0  0
  -18.0412  -26.0112   22.9065 H   0  0  0  0  0  0
  -19.7982  -30.7256   24.2175 H   0  0  0  0  0  0
  -17.5039  -31.6223   24.5224 H   0  0  0  0  0  0
  -15.5369  -30.2978   23.7621 H   0  0  0  0  0  0
  -15.8643  -28.0784   22.7084 H   0  0  0  0  0  0
  -24.5833  -30.7156   25.7625 H   0  0  0  0  0  0
  -24.8902  -32.2990   26.4647 H   0  0  0  0  0  0
  -25.7909  -30.8975   27.0180 H   0  0  0  0  0  0
  -26.3073  -29.6595   24.1250 H   0  0  0  0  0  0
  -27.4058  -29.7248   25.4809 H   0  0  0  0  0  0
  -27.8935  -30.4151   23.9549 H   0  0  0  0  0  0
  -27.2706  -33.3570   26.1970 H   0  0  0  0  0  0
  -28.3899  -32.6799   25.0258 H   0  0  0  0  0  0
  -28.0721  -31.8396   26.5363 H   0  0  0  0  0  0
  -28.2617  -38.0029   24.7395 H   0  0  0  0  0  0
  -28.1001  -36.2555   24.6445 H   0  0  0  0  0  0
  -27.2278  -37.1598   25.8892 H   0  0  0  0  0  0
  -20.9434  -29.8794   21.6800 H   0  0  0  0  0  0
  -26.0143  -38.2797   24.1319 H   0  0  0  0  0  0
  -27.1405  -25.2176   21.5376 H   0  0  0  0  0  0
  -29.7320  -21.1181   17.2430 H   0  0  0  0  0  0
  -30.8804  -19.9249   16.6974 H   0  0  0  0  0  0
  -31.4022  -21.1368   17.8487 H   0  0  0  0  0  0
  -28.0581  -21.1185   20.9241 H   0  0  0  0  0  0
  -28.8379  -15.7858   20.9556 H   0  0  0  0  0  0
  -26.9327  -23.5045   22.2079 H   0  0  0  0  0  0
  1 25  1  0  0  0
  1 30  2  0  0  0
  1 80  1  0  0  0
  2  3  1  0  0  0
  2 25  1  0  0  0
  2 84  1  0  0  0
  2 85  1  0  0  0
  3  4  1  0  0  0
  3 86  1  0  0  0
  3 87  1  0  0  0
  4  5  1  0  0  0
  4 88  1  0  0  0
  4 89  1  0  0  0
  5  6  1  0  0  0
  5 26  1  0  0  0
  5 90  1  0  0  0
  6 25  1  0  0  0
  6 91  1  0  0  0
  6 92  1  0  0  0
  7  8  2  0  0  0
  7 26  1  0  0  0
  7 29  1  0  0  0
  8  9  1  0  0  0
  8 22  1  0  0  0
  9 10  1  0  0  0
  9 27  2  0  0  0
 10 11  2  0  0  0
 10 15  1  0  0  0
 11 12  1  0  0  0
 11 93  1  0  0  0
 12 13  2  0  0  0
 12 94  1  0  0  0
 13 14  1  0  0  0
 13 31  1  0  0  0
 14 15  2  0  0  0
 14 95  1  0  0  0
 15 96  1  0  0  0
 16 17  2  0  0  0
 16 21  1  0  0  0
 16 31  1  0  0  0
 17 18  1  0  0  0
 17 97  1  0  0  0
 18 19  2  0  0  0
 18 98  1  0  0  0
 19 20  1  0  0  0
 19 24  1  0  0  0
 20 21  2  0  0  0
 20 99  1  0  0  0
 21 23  1  0  0  0
 22 28  1  0  0  0
 22 32  2  0  0  0
 26 27  1  0  0  0
 28100  1  0  0  0
 28101  1  0  0  0
 29102  1  0  0  0
 29103  1  0  0  0
 33 34  1  0  0  0
 33 66  1  0  0  0
 33 70  2  0  0  0
 34 36  1  0  0  0
 34 59  1  0  0  0
 34104  1  0  0  0
 35 44  2  0  0  0
 35 45  1  0  0  0
 35 68  1  0  0  0
 36 56  1  0  0  0
 36105  1  0  0  0
 37 39  1  0  0  0
 37 47  1  0  0  0
 37 66  1  0  0  0
 37106  1  0  0  0
 38 43  2  0  0  0
 38 46  1  0  0  0
 38 47  1  0  0  0
 39 64  1  0  0  0
 39 67  2  0  0  0
 40 52  1  0  0  0
 40 53  2  0  0  0
 40 58  1  0  0  0
 41107  1  0  0  0
 41108  1  0  0  0
 41109  1  0  0  0
 41 48  1  0  0  0
 42 43  1  0  0  0
 42 66  1  0  0  0
 42110  1  0  0  0
 42111  1  0  0  0
 43 44  1  0  0  0
 44112  1  0  0  0
 45 46  2  0  0  0
 45113  1  0  0  0
 46114  1  0  0  0
 47115  1  0  0  0
 47116  1  0  0  0
 48 56  1  0  0  0
 48 65  1  0  0  0
 48117  1  0  0  0
 49 50  1  0  0  0
 49 53  1  0  0  0
 49 64  1  0  0  0
 49118  1  0  0  0
 50 51  1  0  0  0
 50119  1  0  0  0
 50120  1  0  0  0
 51 52  1  0  0  0
 51121  1  0  0  0
 51122  1  0  0  0
 52123  1  0  0  0
 52124  1  0  0  0
 53 54  1  0  0  0
 54 55  2  0  0  0
 54125  1  0  0  0
 55 57  1  0  0  0
 55126  1  0  0  0
 56 69  2  0  0  0
 57 58  2  0  0  0
 57127  1  0  0  0
 58128  1  0  0  0
 59 60  1  0  0  0
 59 61  1  0  0  0
 59 62  1  0  0  0
 60129  1  0  0  0
 60130  1  0  0  0
 60131  1  0  0  0
 61132  1  0  0  0
 61133  1  0  0  0
 61134  1  0  0  0
 62135  1  0  0  0
 62136  1  0  0  0
 62137  1  0  0  0
 63 65  1  0  0  0
 63138  1  0  0  0
 63139  1  0  0  0
 63140  1  0  0  0
 64141  1  0  0  0
 65142  1  0  0  0
 68 74  1  0  0  0
 71 72  2  0  0  0
 71 77  1  0  0  0
 71 83  1  0  0  0
 72 78  1  0  0  0
 72 79  1  0  0  0
 73 78  2  0  0  0
 73 80  1  0  0  0
 73 83  1  0  0  0
 74 75  2  0  0  0
 74143  1  0  0  0
 75 76  1  0  0  0
 75 82  1  0  0  0
 76 79  1  0  0  0
 76 81  2  0  0  0
 77144  1  0  0  0
 77145  1  0  0  0
 77146  1  0  0  0
 79147  1  0  0  0
 80148  1  0  0  0
 82149  1  0  0  0
M  ISO  4   1 100  68 101  74 101  80 100
M  END
> <chiral flag>
0

> <version>
0

> <s_m_source_file>
/data/baiqing/PycharmProjects/Reinvent-master-3.2/result/LINK_invent/BTK/process_docking_weight1_custom_product_contain_oxygen_bond_distance_aromatic_linkinvent_7_9_3/rearranged_h_0176.sdf

> <i_m_source_file_index>
31

> <r_mmod_Potential_Energy-OPLS-2005>
271.281097412109

> <r_mmod_Stretch_Energy-OPLS-2005>
185.117279052734

> <r_mmod_Bend_Energy-OPLS-2005>
282.452087402344

> <r_mmod_Torsional_Energy-OPLS-2005>
223.095001220703

> <r_mmod_Improper_Torsional_Energy-OPLS-2005>
4.48778676986694

> <r_mmod_Van_der_Waal_Energy-OPLS-2005>
121.173538208008

> <r_mmod_Electrostatic_Energy-OPLS-2005>
-460.046905517578

> <r_mmod_Solvation_Energy-OPLS-2005>
-235.469924926758

> <b_mmod_Minimization_Converged-OPLS-2005>
0

> <r_mmod_RMS_Derivative-OPLS-2005>
6.2218451499939

$$$$
31
                    3D
 Structure written by MMmdl.
149157  0  0  1  0            999 V2000
  -30.6677  -14.5107   20.5647 C   0  0  0  0  0  0
  -30.4336  -12.3274   19.4256 C   0  0  0  0  0  0
  -29.4992  -12.5095   18.2094 C   0  0  0  0  0  0
  -28.0206  -12.3612   18.6215 C   0  0  0  0  0  0
  -27.6627  -13.2031   19.8749 C   0  0  2  0  0  0
  -28.7045  -12.9812   20.9951 C   0  0  0  0  0  0
  -25.2597  -13.8149   20.5669 C   0  0  0  0  0  0
  -24.1843  -13.0435   20.9173 C   0  0  0  0  0  0
  -24.6390  -11.6900   20.8740 C   0  0  0  0  0  0
  -23.9056  -10.4290   21.0414 C   0  0  0  0  0  0
  -24.3614   -9.4208   21.9189 C   0  0  0  0  0  0
  -23.6292   -8.2244   22.0758 C   0  0  0  0  0  0
  -22.4274   -8.0283   21.3549 C   0  0  0  0  0  0
  -21.9908   -9.0256   20.4650 C   0  0  0  0  0  0
  -22.7234  -10.2135   20.3058 C   0  0  0  0  0  0
  -21.6849   -6.0742   22.5282 C   0  0  0  0  0  0
  -21.4009   -6.5645   23.8217 C   0  0  0  0  0  0
  -21.3658   -5.6798   24.9179 C   0  0  0  0  0  0
  -21.6043   -4.3060   24.7227 C   0  0  0  0  0  0
  -21.8818   -3.8153   23.4348 C   0  0  0  0  0  0
  -21.9190   -4.6970   22.3404 C   0  0  0  0  0  0
  -22.7868  -13.5244   21.1845 C   0  0  0  0  0  0
  -22.1659   -4.2158   21.0982 F   0  0  0  0  0  0
  -21.5629   -3.4540   25.7739 F   0  0  0  0  0  0
  -30.0346  -13.3082   20.4484 N   0  0  0  0  0  0
  -26.3028  -12.9309   20.3355 N   0  0  0  0  0  0
  -25.9315  -11.6475   20.5764 N   0  0  0  0  0  0
  -22.0500  -12.8242   22.0403 N   0  0  0  0  0  0
  -25.4332  -15.1865   20.4067 N   0  0  0  0  0  0
  -31.7934  -14.7149   20.1040 O   0  0  0  0  0  0
  -21.6635   -6.8884   21.4245 O   0  0  0  0  0  0
  -22.3562  -14.5562   20.6708 O   0  0  0  0  0  0
  -24.6190  -31.8662   23.2092 C   0  0  0  0  0  0
  -25.9065  -32.4815   23.8389 C   0  0  1  0  0  0
  -27.2249  -27.3950   20.0942 C   0  0  0  0  0  0
  -25.5907  -33.8613   24.2318 N   0  0  0  0  0  0
  -23.4076  -30.4936   21.5513 C   0  0  2  0  0  0
  -24.8518  -28.9636   20.1104 C   0  0  0  0  0  0
  -22.7431  -29.4655   22.4968 C   0  0  0  0  0  0
  -18.0281  -28.1380   22.8500 C   0  0  0  0  0  0
  -24.1484  -36.7310   23.2638 C   0  0  0  0  0  0
  -25.9430  -30.8194   21.3696 C   0  0  0  0  0  0
  -26.0178  -29.4541   20.7115 C   0  0  0  0  0  0
  -27.2070  -28.6788   20.7003 C   0  0  0  0  0  0
  -26.0354  -26.9448   19.4684 C   0  0  0  0  0  0
  -24.8581  -27.7094   19.4848 C   0  0  0  0  0  0
  -23.6169  -29.8341   20.1641 C   0  0  0  0  0  0
  -25.4107  -36.3105   24.0335 C   0  0  1  0  0  0
  -20.5873  -28.3666   23.1308 C   0  0  2  0  0  0
  -20.6772  -26.9398   22.5414 C   0  0  0  0  0  0
  -19.5744  -26.6386   21.5217 C   0  0  0  0  0  0
  -18.1923  -26.7930   22.1628 C   0  0  0  0  0  0
  -19.1532  -28.8839   23.2904 C   0  0  0  0  0  0
  -18.9458  -30.1447   23.8911 C   0  0  0  0  0  0
  -17.6461  -30.6588   24.0562 C   0  0  0  0  0  0
  -25.9035  -34.9474   23.5123 C   0  0  0  0  0  0
  -16.5352  -29.9089   23.6329 C   0  0  0  0  0  0
  -16.7266  -28.6504   23.0351 C   0  0  0  0  0  0
  -26.4476  -31.6601   25.0731 C   0  0  0  0  0  0
  -25.3730  -31.3725   26.1473 C   0  0  0  0  0  0
  -27.0305  -30.3037   24.6123 C   0  0  0  0  0  0
  -27.6044  -32.4323   25.7500 C   0  0  0  0  0  0
  -27.5576  -37.1811   24.8467 C   0  0  0  0  0  0
  -21.4150  -29.3038   22.3718 N   0  0  0  0  0  0
  -26.4291  -37.3792   23.9413 N   0  0  0  0  0  0
  -24.6754  -31.0733   22.1017 N   0  0  0  0  0  0
  -23.4196  -28.8182   23.2997 O   0  0  0  0  0  0
  -28.3632  -26.5958   20.1365 O   0  0  0  0  0  0
  -26.5597  -34.8931   22.4685 O   0  0  0  0  0  0
  -23.5370  -32.1431   23.7461 O   0  0  0  0  0  0
  -30.7242  -17.6935   20.2481 C   0  0  0  0  0  0
  -30.0154  -16.8433   21.0794 C   0  0  0  0  0  0
  -29.6456  -19.3114   21.4435 C   0  0  0  0  0  0
  -29.2376  -24.2338   20.4775 C   0  0  0  0  0  0
  -28.7548  -22.9860   21.3031 C   0  0  0  0  0  0
  -29.2366  -20.6603   22.0036 C   0  0  0  0  0  0
  -28.1281  -25.1719   19.9392 C   0  0  0  0  0  0
  -30.5219  -19.0724   20.4600 N   0  0  0  0  0  0
  -29.9293  -15.4764   21.1532 N   0  0  0  0  0  0
  -29.4350  -21.8288   21.1178 N   0  0  0  0  0  0
  -30.4356  -24.4531   20.2572 O   0  0  0  0  0  0
  -27.8240  -23.0829   22.1101 O   0  0  0  0  0  0
  -31.5162  -17.2776   19.2890 F   0  0  0  0  0  0
  -29.0208  -17.8128   22.1466 S   0  0  0  0  0  0
  -31.4763  -12.4431   19.1245 H   0  0  0  0  0  0
  -30.3493  -11.3154   19.8253 H   0  0  0  0  0  0
  -29.7449  -11.7822   17.4344 H   0  0  0  0  0  0
  -29.6594  -13.4935   17.7652 H   0  0  0  0  0  0
  -27.8382  -11.3051   18.8227 H   0  0  0  0  0  0
  -27.3681  -12.6268   17.7892 H   0  0  0  0  0  0
  -27.7064  -14.2508   19.5762 H   0  0  0  0  0  0
  -28.6897  -11.9399   21.3210 H   0  0  0  0  0  0
  -28.4549  -13.5613   21.8847 H   0  0  0  0  0  0
  -25.2759   -9.5684   22.4765 H   0  0  0  0  0  0
  -23.9999   -7.4634   22.7477 H   0  0  0  0  0  0
  -21.0840   -8.8777   19.8956 H   0  0  0  0  0  0
  -22.3695  -10.9678   19.6169 H   0  0  0  0  0  0
  -21.2000   -7.6153   23.9725 H   0  0  0  0  0  0
  -21.1479   -6.0526   25.9084 H   0  0  0  0  0  0
  -22.0598   -2.7614   23.2845 H   0  0  0  0  0  0
  -22.4101  -11.9885   22.4773 H   0  0  0  0  0  0
  -21.1127  -13.1290   22.2624 H   0  0  0  0  0  0
  -24.6664  -15.8424   20.5084 H   0  0  0  0  0  0
  -26.2858  -15.6229   20.0796 H   0  0  0  0  0  0
  -26.7128  -32.5507   23.1142 H   0  0  0  0  0  0
  -25.0068  -33.9773   25.0471 H   0  0  0  0  0  0
  -22.6989  -31.3127   21.4139 H   0  0  0  0  0  0
  -23.3742  -35.9643   23.3314 H   0  0  0  0  0  0
  -24.3577  -36.8908   22.2047 H   0  0  0  0  0  0
  -23.7244  -37.6523   23.6644 H   0  0  0  0  0  0
  -26.0629  -31.5859   20.6024 H   0  0  0  0  0  0
  -26.8288  -30.8689   21.9909 H   0  0  0  0  0  0
  -28.1012  -29.0507   21.1804 H   0  0  0  0  0  0
  -25.9821  -25.9951   18.9573 H   0  0  0  0  0  0
  -23.9639  -27.3287   19.0106 H   0  0  0  0  0  0
  -23.7278  -30.6127   19.4086 H   0  0  0  0  0  0
  -22.7391  -29.2586   19.8642 H   0  0  0  0  0  0
  -25.1285  -36.1964   25.0825 H   0  0  0  0  0  0
  -20.9968  -28.3223   24.1426 H   0  0  0  0  0  0
  -20.5677  -26.2267   23.3601 H   0  0  0  0  0  0
  -21.6642  -26.7444   22.1197 H   0  0  0  0  0  0
  -19.6904  -25.6303   21.1229 H   0  0  0  0  0  0
  -19.6684  -27.3217   20.6763 H   0  0  0  0  0  0
  -17.4193  -26.6683   21.4026 H   0  0  0  0  0  0
  -18.0313  -26.0077   22.9025 H   0  0  0  0  0  0
  -19.7937  -30.7260   24.2284 H   0  0  0  0  0  0
  -17.5019  -31.6272   24.5159 H   0  0  0  0  0  0
  -15.5352  -30.2992   23.7656 H   0  0  0  0  0  0
  -15.8667  -28.0830   22.7056 H   0  0  0  0  0  0
  -24.5910  -30.7058   25.7818 H   0  0  0  0  0  0
  -24.8920  -32.2890   26.4897 H   0  0  0  0  0  0
  -25.8082  -30.8919   27.0243 H   0  0  0  0  0  0
  -26.2855  -29.6809   24.1154 H   0  0  0  0  0  0
  -27.4042  -29.7261   25.4585 H   0  0  0  0  0  0
  -27.8704  -30.4350   23.9300 H   0  0  0  0  0  0
  -27.2655  -33.3619   26.2088 H   0  0  0  0  0  0
  -28.3857  -32.6890   25.0332 H   0  0  0  0  0  0
  -28.0705  -31.8441   26.5414 H   0  0  0  0  0  0
  -28.2604  -38.0097   24.7507 H   0  0  0  0  0  0
  -28.1062  -36.2630   24.6305 H   0  0  0  0  0  0
  -27.2295  -37.1477   25.8870 H   0  0  0  0  0  0
  -20.9302  -29.8777   21.6964 H   0  0  0  0  0  0
  -26.0175  -38.2868   24.1416 H   0  0  0  0  0  0
  -29.7954  -20.8242   22.9257 H   0  0  0  0  0  0
  -28.1870  -20.5799   22.2924 H   0  0  0  0  0  0
  -27.1961  -24.8829   20.4258 H   0  0  0  0  0  0
  -28.0105  -24.9732   18.8738 H   0  0  0  0  0  0
  -29.1032  -15.1266   21.6128 H   0  0  0  0  0  0
  -30.1961  -21.8061   20.4524 H   0  0  0  0  0  0
  1 25  1  0  0  0
  1 30  2  0  0  0
  1 79  1  0  0  0
  2  3  1  0  0  0
  2 25  1  0  0  0
  2 85  1  0  0  0
  2 86  1  0  0  0
  3  4  1  0  0  0
  3 87  1  0  0  0
  3 88  1  0  0  0
  4  5  1  0  0  0
  4 89  1  0  0  0
  4 90  1  0  0  0
  5  6  1  0  0  0
  5 26  1  0  0  0
  5 91  1  0  0  0
  6 25  1  0  0  0
  6 92  1  0  0  0
  6 93  1  0  0  0
  7  8  2  0  0  0
  7 26  1  0  0  0
  7 29  1  0  0  0
  8  9  1  0  0  0
  8 22  1  0  0  0
  9 10  1  0  0  0
  9 27  2  0  0  0
 10 11  2  0  0  0
 10 15  1  0  0  0
 11 12  1  0  0  0
 11 94  1  0  0  0
 12 13  2  0  0  0
 12 95  1  0  0  0
 13 14  1  0  0  0
 13 31  1  0  0  0
 14 15  2  0  0  0
 14 96  1  0  0  0
 15 97  1  0  0  0
 16 17  2  0  0  0
 16 21  1  0  0  0
 16 31  1  0  0  0
 17 18  1  0  0  0
 17 98  1  0  0  0
 18 19  2  0  0  0
 18 99  1  0  0  0
 19 20  1  0  0  0
 19 24  1  0  0  0
 20 21  2  0  0  0
 20100  1  0  0  0
 21 23  1  0  0  0
 22 28  1  0  0  0
 22 32  2  0  0  0
 26 27  1  0  0  0
 28101  1  0  0  0
 28102  1  0  0  0
 29103  1  0  0  0
 29104  1  0  0  0
 33 34  1  0  0  0
 33 66  1  0  0  0
 33 70  2  0  0  0
 34 36  1  0  0  0
 34 59  1  0  0  0
 34105  1  0  0  0
 35 44  2  0  0  0
 35 45  1  0  0  0
 35 68  1  0  0  0
 36 56  1  0  0  0
 36106  1  0  0  0
 37 39  1  0  0  0
 37 47  1  0  0  0
 37 66  1  0  0  0
 37107  1  0  0  0
 38 43  2  0  0  0
 38 46  1  0  0  0
 38 47  1  0  0  0
 39 64  1  0  0  0
 39 67  2  0  0  0
 40 52  1  0  0  0
 40 53  2  0  0  0
 40 58  1  0  0  0
 41108  1  0  0  0
 41109  1  0  0  0
 41110  1  0  0  0
 41 48  1  0  0  0
 42 43  1  0  0  0
 42 66  1  0  0  0
 42111  1  0  0  0
 42112  1  0  0  0
 43 44  1  0  0  0
 44113  1  0  0  0
 45 46  2  0  0  0
 45114  1  0  0  0
 46115  1  0  0  0
 47116  1  0  0  0
 47117  1  0  0  0
 48 56  1  0  0  0
 48 65  1  0  0  0
 48118  1  0  0  0
 49 50  1  0  0  0
 49 53  1  0  0  0
 49 64  1  0  0  0
 49119  1  0  0  0
 50 51  1  0  0  0
 50120  1  0  0  0
 50121  1  0  0  0
 51 52  1  0  0  0
 51122  1  0  0  0
 51123  1  0  0  0
 52124  1  0  0  0
 52125  1  0  0  0
 53 54  1  0  0  0
 54 55  2  0  0  0
 54126  1  0  0  0
 55 57  1  0  0  0
 55127  1  0  0  0
 56 69  2  0  0  0
 57 58  2  0  0  0
 57128  1  0  0  0
 58129  1  0  0  0
 59 60  1  0  0  0
 59 61  1  0  0  0
 59 62  1  0  0  0
 60130  1  0  0  0
 60131  1  0  0  0
 60132  1  0  0  0
 61133  1  0  0  0
 61134  1  0  0  0
 61135  1  0  0  0
 62136  1  0  0  0
 62137  1  0  0  0
 62138  1  0  0  0
 63 65  1  0  0  0
 63139  1  0  0  0
 63140  1  0  0  0
 63141  1  0  0  0
 64142  1  0  0  0
 65143  1  0  0  0
 68 77  1  0  0  0
 71 72  2  0  0  0
 71 78  1  0  0  0
 71 83  1  0  0  0
 72 79  1  0  0  0
 72 84  1  0  0  0
 73 76  1  0  0  0
 73 78  2  0  0  0
 73 84  1  0  0  0
 74 75  1  0  0  0
 74 77  1  0  0  0
 74 81  2  0  0  0
 75 80  1  0  0  0
 75 82  2  0  0  0
 76 80  1  0  0  0
 76144  1  0  0  0
 76145  1  0  0  0
 77146  1  0  0  0
 77147  1  0  0  0
 79148  1  0  0  0
 80149  1  0  0  0
M  ISO  4   1 100  68 101  77 101  79 100
M  END
> <chiral flag>
0

> <version>
0

> <s_m_source_file>
/data/baiqing/PycharmProjects/Reinvent-master-3.2/result/LINK_invent/BTK/process_docking_weight1_custom_product_contain_oxygen_bond_distance_aromatic_linkinvent_7_9_3/rearranged_h_0176.sdf

> <i_m_source_file_index>
32

> <r_mmod_Potential_Energy-OPLS-2005>
-144.113433837891

> <r_mmod_Stretch_Energy-OPLS-2005>
44.8065948486328

> <r_mmod_Bend_Energy-OPLS-2005>
117.082778930664

> <r_mmod_Torsional_Energy-OPLS-2005>
214.48063659668

> <r_mmod_Improper_Torsional_Energy-OPLS-2005>
3.27423429489136

> <r_mmod_Van_der_Waal_Energy-OPLS-2005>
137.434677124023

> <r_mmod_Electrostatic_Energy-OPLS-2005>
-425.939025878906

> <r_mmod_Solvation_Energy-OPLS-2005>
-255.185760498047

> <b_mmod_Minimization_Converged-OPLS-2005>
0

> <r_mmod_RMS_Derivative-OPLS-2005>
0.962587356567383

$$$$
32
                    3D
 Structure written by MMmdl.
162170  0  0  1  0            999 V2000
  -30.7187  -14.4136   20.6357 C   0  0  0  0  0  0
  -30.4318  -12.2979   19.3999 C   0  0  0  0  0  0
  -29.4920  -12.5111   18.1959 C   0  0  0  0  0  0
  -28.0145  -12.3696   18.6133 C   0  0  0  0  0  0
  -27.6671  -13.1980   19.8788 C   0  0  2  0  0  0
  -28.7069  -12.9352   20.9905 C   0  0  0  0  0  0
  -25.2616  -13.8144   20.5679 C   0  0  0  0  0  0
  -24.1846  -13.0434   20.9149 C   0  0  0  0  0  0
  -24.6383  -11.6901   20.8711 C   0  0  0  0  0  0
  -23.9045  -10.4289   21.0390 C   0  0  0  0  0  0
  -24.3600   -9.4209   21.9174 C   0  0  0  0  0  0
  -23.6281   -8.2245   22.0746 C   0  0  0  0  0  0
  -22.4262   -8.0278   21.3543 C   0  0  0  0  0  0
  -21.9895   -9.0246   20.4639 C   0  0  0  0  0  0
  -22.7216  -10.2129   20.3046 C   0  0  0  0  0  0
  -21.6853   -6.0734   22.5278 C   0  0  0  0  0  0
  -21.4010   -6.5637   23.8212 C   0  0  0  0  0  0
  -21.3658   -5.6789   24.9173 C   0  0  0  0  0  0
  -21.6043   -4.3052   24.7225 C   0  0  0  0  0  0
  -21.8822   -3.8145   23.4344 C   0  0  0  0  0  0
  -21.9191   -4.6962   22.3401 C   0  0  0  0  0  0
  -22.7867  -13.5242   21.1824 C   0  0  0  0  0  0
  -22.1663   -4.2148   21.0977 F   0  0  0  0  0  0
  -21.5628   -3.4535   25.7737 F   0  0  0  0  0  0
  -30.0449  -13.2485   20.4514 N   0  0  0  0  0  0
  -26.3047  -12.9299   20.3380 N   0  0  0  0  0  0
  -25.9311  -11.6461   20.5747 N   0  0  0  0  0  0
  -22.0505  -12.8243   22.0386 N   0  0  0  0  0  0
  -25.4363  -15.1863   20.4143 N   0  0  0  0  0  0
  -31.8038  -14.6685   20.1053 O   0  0  0  0  0  0
  -21.6632   -6.8875   21.4238 O   0  0  0  0  0  0
  -22.3552  -14.5554   20.6680 O   0  0  0  0  0  0
  -24.6120  -31.8708   23.2122 C   0  0  0  0  0  0
  -25.9026  -32.4835   23.8406 C   0  0  1  0  0  0
  -27.2458  -27.4629   20.0947 C   0  0  0  0  0  0
  -25.5909  -33.8629   24.2349 N   0  0  0  0  0  0
  -23.4000  -30.4914   21.5520 C   0  0  2  0  0  0
  -24.8505  -28.9545   20.1238 C   0  0  0  0  0  0
  -22.7395  -29.4664   22.5017 C   0  0  0  0  0  0
  -18.0263  -28.1375   22.8476 C   0  0  0  0  0  0
  -24.1488  -36.7317   23.2638 C   0  0  0  0  0  0
  -25.9249  -30.8411   21.3635 C   0  0  0  0  0  0
  -26.0057  -29.4708   20.7262 C   0  0  0  0  0  0
  -27.2068  -28.7276   20.7221 C   0  0  0  0  0  0
  -26.0801  -26.9546   19.4902 C   0  0  0  0  0  0
  -24.8788  -27.6898   19.5090 C   0  0  0  0  0  0
  -23.6098  -29.8196   20.1676 C   0  0  0  0  0  0
  -25.4101  -36.3113   24.0347 C   0  0  1  0  0  0
  -20.5851  -28.3655   23.1330 C   0  0  2  0  0  0
  -20.6760  -26.9400   22.5413 C   0  0  0  0  0  0
  -19.5745  -26.6388   21.5197 C   0  0  0  0  0  0
  -18.1917  -26.7919   22.1607 C   0  0  0  0  0  0
  -19.1512  -28.8825   23.2897 C   0  0  0  0  0  0
  -18.9452  -30.1431   23.8910 C   0  0  0  0  0  0
  -17.6460  -30.6582   24.0562 C   0  0  0  0  0  0
  -25.9036  -34.9483   23.5140 C   0  0  0  0  0  0
  -16.5345  -29.9090   23.6319 C   0  0  0  0  0  0
  -16.7253  -28.6505   23.0336 C   0  0  0  0  0  0
  -26.4470  -31.6601   25.0713 C   0  0  0  0  0  0
  -25.3751  -31.3700   26.1472 C   0  0  0  0  0  0
  -27.0292  -30.3056   24.6042 C   0  0  0  0  0  0
  -27.6050  -32.4315   25.7474 C   0  0  0  0  0  0
  -27.5582  -37.1805   24.8462 C   0  0  0  0  0  0
  -21.4128  -29.3030   22.3753 N   0  0  0  0  0  0
  -26.4291  -37.3799   23.9417 N   0  0  0  0  0  0
  -24.6637  -31.0817   22.1019 N   0  0  0  0  0  0
  -23.4167  -28.8205   23.3059 O   0  0  0  0  0  0
  -28.4052  -26.7392   19.9717 O   0  0  0  0  0  0
  -26.5580  -34.8936   22.4687 O   0  0  0  0  0  0
  -23.5326  -32.1450   23.7540 O   0  0  0  0  0  0
  -31.5529  -17.2790   21.7249 C   0  0  0  0  0  0
  -31.6914  -18.6867   21.8035 C   0  0  0  0  0  0
  -30.3022  -16.7095   21.4113 C   0  0  0  0  0  0
  -30.5269  -19.4649   21.5415 C   0  0  0  0  0  0
  -29.2239  -17.5687   21.1608 C   0  0  0  0  0  0
  -33.0188  -19.2600   22.1769 C   0  0  0  0  0  0
  -28.9746  -24.7640   21.2365 C   0  0  0  0  0  0
  -35.2534  -19.2364   22.8745 C   0  0  0  0  0  0
  -30.1052  -24.0504   21.9863 C   0  0  0  0  0  0
  -29.0236  -26.2979   21.1774 C   0  0  0  0  0  0
  -29.3196  -21.5516   22.0686 C   0  0  0  0  0  0
  -29.6402  -22.8498   22.8380 C   0  0  1  0  0  0
  -29.3361  -18.9098   21.2129 N   0  0  0  0  0  0
  -34.0207  -18.5532   22.5289 N   0  0  0  0  0  0
  -30.0729  -15.3094   21.3920 N   0  0  0  0  0  0
  -30.5270  -20.8698   21.6053 N   0  0  0  0  0  0
  -28.0627  -24.1313   20.6932 O   0  0  0  0  0  0
  -28.0184  -17.0327   20.8538 F   0  0  0  0  0  0
  -33.1652  -20.5988   22.1394 F   0  0  0  0  0  0
  -30.5884  -22.5762   23.7381 F   0  0  0  0  0  0
  -31.4721  -12.4192   19.0913 H   0  0  0  0  0  0
  -30.3526  -11.2766   19.7746 H   0  0  0  0  0  0
  -29.7265  -11.7943   17.4079 H   0  0  0  0  0  0
  -29.6599  -13.5005   17.7683 H   0  0  0  0  0  0
  -27.8247  -11.3120   18.8024 H   0  0  0  0  0  0
  -27.3611  -12.6512   17.7870 H   0  0  0  0  0  0
  -27.7246  -14.2512   19.6028 H   0  0  0  0  0  0
  -28.6781  -11.8855   21.2877 H   0  0  0  0  0  0
  -28.4569  -13.4892   21.8958 H   0  0  0  0  0  0
  -25.2750   -9.5691   22.4746 H   0  0  0  0  0  0
  -23.9995   -7.4636   22.7466 H   0  0  0  0  0  0
  -21.0832   -8.8754   19.8947 H   0  0  0  0  0  0
  -22.3669  -10.9661   19.6153 H   0  0  0  0  0  0
  -21.2003   -7.6143   23.9716 H   0  0  0  0  0  0
  -21.1478   -6.0516   25.9076 H   0  0  0  0  0  0
  -22.0604   -2.7607   23.2842 H   0  0  0  0  0  0
  -22.4108  -11.9903   22.4780 H   0  0  0  0  0  0
  -21.1123  -13.1270   22.2579 H   0  0  0  0  0  0
  -24.6769  -15.8452   20.5447 H   0  0  0  0  0  0
  -26.3110  -15.6372   20.1736 H   0  0  0  0  0  0
  -26.7103  -32.5574   23.1187 H   0  0  0  0  0  0
  -25.0093  -33.9786   25.0515 H   0  0  0  0  0  0
  -22.6885  -31.3071   21.4117 H   0  0  0  0  0  0
  -23.3748  -35.9652   23.3302 H   0  0  0  0  0  0
  -24.3600  -36.8922   22.2053 H   0  0  0  0  0  0
  -23.7235  -37.6528   23.6638 H   0  0  0  0  0  0
  -26.0269  -31.5989   20.5853 H   0  0  0  0  0  0
  -26.8172  -30.9061   21.9736 H   0  0  0  0  0  0
  -28.1033  -29.1355   21.1688 H   0  0  0  0  0  0
  -26.1090  -25.9917   18.9997 H   0  0  0  0  0  0
  -23.9934  -27.2840   19.0396 H   0  0  0  0  0  0
  -23.7204  -30.5927   19.4067 H   0  0  0  0  0  0
  -22.7345  -29.2377   19.8726 H   0  0  0  0  0  0
  -25.1273  -36.1989   25.0844 H   0  0  0  0  0  0
  -20.9927  -28.3208   24.1453 H   0  0  0  0  0  0
  -20.5676  -26.2253   23.3588 H   0  0  0  0  0  0
  -21.6634  -26.7456   22.1208 H   0  0  0  0  0  0
  -19.6922  -25.6304   21.1214 H   0  0  0  0  0  0
  -19.6701  -27.3206   20.6737 H   0  0  0  0  0  0
  -17.4195  -26.6657   21.4004 H   0  0  0  0  0  0
  -18.0328  -26.0054   22.9003 H   0  0  0  0  0  0
  -19.7935  -30.7221   24.2310 H   0  0  0  0  0  0
  -17.5024  -31.6270   24.5154 H   0  0  0  0  0  0
  -15.5349  -30.3003   23.7647 H   0  0  0  0  0  0
  -15.8643  -28.0838   22.7047 H   0  0  0  0  0  0
  -24.5916  -30.7054   25.7817 H   0  0  0  0  0  0
  -24.8948  -32.2860   26.4931 H   0  0  0  0  0  0
  -25.8119  -30.8864   27.0219 H   0  0  0  0  0  0
  -26.2811  -29.6823   24.1127 H   0  0  0  0  0  0
  -27.4130  -29.7280   25.4462 H   0  0  0  0  0  0
  -27.8622  -30.4404   23.9135 H   0  0  0  0  0  0
  -27.2666  -33.3608   26.2077 H   0  0  0  0  0  0
  -28.3848  -32.6889   25.0291 H   0  0  0  0  0  0
  -28.0730  -31.8419   26.5372 H   0  0  0  0  0  0
  -28.2587  -38.0115   24.7535 H   0  0  0  0  0  0
  -28.1093  -36.2650   24.6256 H   0  0  0  0  0  0
  -27.2313  -37.1425   25.8868 H   0  0  0  0  0  0
  -20.9287  -29.8758   21.6978 H   0  0  0  0  0  0
  -26.0186  -38.2878   24.1426 H   0  0  0  0  0  0
  -32.3918  -16.6312   21.9319 H   0  0  0  0  0  0
  -35.9812  -18.5257   23.2672 H   0  0  0  0  0  0
  -35.1032  -19.9976   23.6444 H   0  0  0  0  0  0
  -35.7027  -19.7154   22.0019 H   0  0  0  0  0  0
  -30.5776  -24.7853   22.6372 H   0  0  0  0  0  0
  -30.8660  -23.7364   21.2718 H   0  0  0  0  0  0
  -30.0623  -26.6298   21.1901 H   0  0  0  0  0  0
  -28.5356  -26.7103   22.0619 H   0  0  0  0  0  0
  -28.6603  -21.7384   21.2216 H   0  0  0  0  0  0
  -28.7702  -20.8923   22.7425 H   0  0  0  0  0  0
  -28.7603  -23.1452   23.4118 H   0  0  0  0  0  0
  -29.1560  -15.0093   21.6903 H   0  0  0  0  0  0
  -31.3993  -21.2880   21.9258 H   0  0  0  0  0  0
  1 25  1  0  0  0
  1 30  2  0  0  0
  1 85  1  0  0  0
  2  3  1  0  0  0
  2 25  1  0  0  0
  2 91  1  0  0  0
  2 92  1  0  0  0
  3  4  1  0  0  0
  3 93  1  0  0  0
  3 94  1  0  0  0
  4  5  1  0  0  0
  4 95  1  0  0  0
  4 96  1  0  0  0
  5  6  1  0  0  0
  5 26  1  0  0  0
  5 97  1  0  0  0
  6 25  1  0  0  0
  6 98  1  0  0  0
  6 99  1  0  0  0
  7  8  2  0  0  0
  7 26  1  0  0  0
  7 29  1  0  0  0
  8  9  1  0  0  0
  8 22  1  0  0  0
  9 10  1  0  0  0
  9 27  2  0  0  0
 10 11  2  0  0  0
 10 15  1  0  0  0
 11 12  1  0  0  0
 11100  1  0  0  0
 12 13  2  0  0  0
 12101  1  0  0  0
 13 14  1  0  0  0
 13 31  1  0  0  0
 14 15  2  0  0  0
 14102  1  0  0  0
 15103  1  0  0  0
 16 17  2  0  0  0
 16 21  1  0  0  0
 16 31  1  0  0  0
 17 18  1  0  0  0
 17104  1  0  0  0
 18 19  2  0  0  0
 18105  1  0  0  0
 19 20  1  0  0  0
 19 24  1  0  0  0
 20 21  2  0  0  0
 20106  1  0  0  0
 21 23  1  0  0  0
 22 28  1  0  0  0
 22 32  2  0  0  0
 26 27  1  0  0  0
 28107  1  0  0  0
 28108  1  0  0  0
 29109  1  0  0  0
 29110  1  0  0  0
 33 34  1  0  0  0
 33 66  1  0  0  0
 33 70  2  0  0  0
 34 36  1  0  0  0
 34 59  1  0  0  0
 34111  1  0  0  0
 35 44  2  0  0  0
 35 45  1  0  0  0
 35 68  1  0  0  0
 36 56  1  0  0  0
 36112  1  0  0  0
 37 39  1  0  0  0
 37 47  1  0  0  0
 37 66  1  0  0  0
 37113  1  0  0  0
 38 43  2  0  0  0
 38 46  1  0  0  0
 38 47  1  0  0  0
 39 64  1  0  0  0
 39 67  2  0  0  0
 40 52  1  0  0  0
 40 53  2  0  0  0
 40 58  1  0  0  0
 41114  1  0  0  0
 41115  1  0  0  0
 41116  1  0  0  0
 41 48  1  0  0  0
 42 43  1  0  0  0
 42 66  1  0  0  0
 42117  1  0  0  0
 42118  1  0  0  0
 43 44  1  0  0  0
 44119  1  0  0  0
 45 46  2  0  0  0
 45120  1  0  0  0
 46121  1  0  0  0
 47122  1  0  0  0
 47123  1  0  0  0
 48 56  1  0  0  0
 48 65  1  0  0  0
 48124  1  0  0  0
 49 50  1  0  0  0
 49 53  1  0  0  0
 49 64  1  0  0  0
 49125  1  0  0  0
 50 51  1  0  0  0
 50126  1  0  0  0
 50127  1  0  0  0
 51 52  1  0  0  0
 51128  1  0  0  0
 51129  1  0  0  0
 52130  1  0  0  0
 52131  1  0  0  0
 53 54  1  0  0  0
 54 55  2  0  0  0
 54132  1  0  0  0
 55 57  1  0  0  0
 55133  1  0  0  0
 56 69  2  0  0  0
 57 58  2  0  0  0
 57134  1  0  0  0
 58135  1  0  0  0
 59 60  1  0  0  0
 59 61  1  0  0  0
 59 62  1  0  0  0
 60136  1  0  0  0
 60137  1  0  0  0
 60138  1  0  0  0
 61139  1  0  0  0
 61140  1  0  0  0
 61141  1  0  0  0
 62142  1  0  0  0
 62143  1  0  0  0
 62144  1  0  0  0
 63 65  1  0  0  0
 63145  1  0  0  0
 63146  1  0  0  0
 63147  1  0  0  0
 64148  1  0  0  0
 65149  1  0  0  0
 68 80  1  0  0  0
 71 72  2  0  0  0
 71 73  1  0  0  0
 71150  1  0  0  0
 72 74  1  0  0  0
 72 76  1  0  0  0
 73 75  2  0  0  0
 73 85  1  0  0  0
 74 83  2  0  0  0
 74 86  1  0  0  0
 75 83  1  0  0  0
 75 88  1  0  0  0
 76 84  2  0  0  0
 76 89  1  0  0  0
 77 79  1  0  0  0
 77 80  1  0  0  0
 77 87  2  0  0  0
 78 84  1  0  0  0
 78151  1  0  0  0
 78152  1  0  0  0
 78153  1  0  0  0
 79 82  1  0  0  0
 79154  1  0  0  0
 79155  1  0  0  0
 80156  1  0  0  0
 80157  1  0  0  0
 81 82  1  0  0  0
 81 86  1  0  0  0
 81158  1  0  0  0
 81159  1  0  0  0
 82 90  1  0  0  0
 82160  1  0  0  0
 85161  1  0  0  0
 86162  1  0  0  0
M  ISO  4   1 100  68 101  80 101  85 100
M  END
> <chiral flag>
0

> <version>
0

> <s_m_source_file>
/data/baiqing/PycharmProjects/Reinvent-master-3.2/result/LINK_invent/BTK/process_docking_weight1_custom_product_contain_oxygen_bond_distance_aromatic_linkinvent_7_9_3/rearranged_h_0176.sdf

> <i_m_source_file_index>
33

> <r_mmod_Potential_Energy-OPLS-2005>
-269.436004638672

> <r_mmod_Stretch_Energy-OPLS-2005>
35.4078674316406

> <r_mmod_Bend_Energy-OPLS-2005>
100.399879455566

> <r_mmod_Torsional_Energy-OPLS-2005>
248.112518310547

> <r_mmod_Improper_Torsional_Energy-OPLS-2005>
6.94816446304321

> <r_mmod_Van_der_Waal_Energy-OPLS-2005>
174.378768920898

> <r_mmod_Electrostatic_Energy-OPLS-2005>
-607.450134277344

> <r_mmod_Solvation_Energy-OPLS-2005>
-234.727584838867

> <b_mmod_Minimization_Converged-OPLS-2005>
0

> <r_mmod_RMS_Derivative-OPLS-2005>
1.48057889938354

$$$$
33
                    3D
 Structure written by MMmdl.
149157  0  0  1  0            999 V2000
  -30.7068  -14.5090   20.4965 C   0  0  0  0  0  0
  -30.4138  -12.3062   19.4448 C   0  0  0  0  0  0
  -29.4961  -12.4810   18.2173 C   0  0  0  0  0  0
  -28.0172  -12.3482   18.6287 C   0  0  0  0  0  0
  -27.6563  -13.2129   19.8668 C   0  0  2  0  0  0
  -28.7005  -13.0514   20.9966 C   0  0  0  0  0  0
  -25.2570  -13.8169   20.5688 C   0  0  0  0  0  0
  -24.1829  -13.0436   20.9182 C   0  0  0  0  0  0
  -24.6389  -11.6906   20.8740 C   0  0  0  0  0  0
  -23.9054  -10.4288   21.0406 C   0  0  0  0  0  0
  -24.3607   -9.4206   21.9188 C   0  0  0  0  0  0
  -23.6292   -8.2235   22.0762 C   0  0  0  0  0  0
  -22.4281   -8.0264   21.3544 C   0  0  0  0  0  0
  -21.9901   -9.0238   20.4651 C   0  0  0  0  0  0
  -22.7221  -10.2126   20.3061 C   0  0  0  0  0  0
  -21.6849   -6.0724   22.5282 C   0  0  0  0  0  0
  -21.4004   -6.5637   23.8212 C   0  0  0  0  0  0
  -21.3666   -5.6795   24.9180 C   0  0  0  0  0  0
  -21.6053   -4.3055   24.7235 C   0  0  0  0  0  0
  -21.8820   -3.8140   23.4358 C   0  0  0  0  0  0
  -21.9192   -4.6950   22.3408 C   0  0  0  0  0  0
  -22.7851  -13.5233   21.1842 C   0  0  0  0  0  0
  -22.1661   -4.2131   21.0988 F   0  0  0  0  0  0
  -21.5640   -3.4543   25.7750 F   0  0  0  0  0  0
  -30.0281  -13.3297   20.4314 N   0  0  0  0  0  0
  -26.3006  -12.9350   20.3352 N   0  0  0  0  0  0
  -25.9325  -11.6508   20.5786 N   0  0  0  0  0  0
  -22.0484  -12.8234   22.0402 N   0  0  0  0  0  0
  -25.4280  -15.1887   20.4100 N   0  0  0  0  0  0
  -31.8809  -14.5985   20.1278 O   0  0  0  0  0  0
  -21.6647   -6.8861   21.4241 O   0  0  0  0  0  0
  -22.3544  -14.5542   20.6689 O   0  0  0  0  0  0
  -24.6167  -31.8685   23.2096 C   0  0  0  0  0  0
  -25.9049  -32.4830   23.8396 C   0  0  1  0  0  0
  -27.2251  -27.4120   20.0992 C   0  0  0  0  0  0
  -25.5905  -33.8630   24.2328 N   0  0  0  0  0  0
  -23.4049  -30.4936   21.5522 C   0  0  2  0  0  0
  -24.8491  -28.9642   20.1106 C   0  0  0  0  0  0
  -22.7429  -29.4660   22.4990 C   0  0  0  0  0  0
  -18.0278  -28.1378   22.8497 C   0  0  0  0  0  0
  -24.1491  -36.7314   23.2638 C   0  0  0  0  0  0
  -25.9372  -30.8277   21.3664 C   0  0  0  0  0  0
  -26.0127  -29.4628   20.7090 C   0  0  0  0  0  0
  -27.2049  -28.6966   20.6968 C   0  0  0  0  0  0
  -26.0404  -26.9438   19.4807 C   0  0  0  0  0  0
  -24.8600  -27.7055   19.4901 C   0  0  0  0  0  0
  -23.6126  -29.8323   20.1647 C   0  0  0  0  0  0
  -25.4114  -36.3121   24.0339 C   0  0  1  0  0  0
  -20.5871  -28.3666   23.1321 C   0  0  2  0  0  0
  -20.6773  -26.9402   22.5422 C   0  0  0  0  0  0
  -19.5748  -26.6385   21.5224 C   0  0  0  0  0  0
  -18.1925  -26.7925   22.1630 C   0  0  0  0  0  0
  -19.1526  -28.8839   23.2905 C   0  0  0  0  0  0
  -18.9451  -30.1447   23.8912 C   0  0  0  0  0  0
  -17.6452  -30.6583   24.0567 C   0  0  0  0  0  0
  -25.9042  -34.9484   23.5131 C   0  0  0  0  0  0
  -16.5343  -29.9084   23.6325 C   0  0  0  0  0  0
  -16.7267  -28.6501   23.0346 C   0  0  0  0  0  0
  -26.4464  -31.6607   25.0724 C   0  0  0  0  0  0
  -25.3723  -31.3715   26.1469 C   0  0  0  0  0  0
  -27.0287  -30.3049   24.6094 C   0  0  0  0  0  0
  -27.6048  -32.4324   25.7478 C   0  0  0  0  0  0
  -27.5591  -37.1812   24.8464 C   0  0  0  0  0  0
  -21.4155  -29.3030   22.3728 N   0  0  0  0  0  0
  -26.4301  -37.3804   23.9412 N   0  0  0  0  0  0
  -24.6713  -31.0774   22.1007 N   0  0  0  0  0  0
  -23.4201  -28.8202   23.3032 O   0  0  0  0  0  0
  -28.3729  -26.6333   20.1450 O   0  0  0  0  0  0
  -26.5603  -34.8932   22.4694 O   0  0  0  0  0  0
  -23.5355  -32.1439   23.7483 O   0  0  0  0  0  0
  -31.0618  -17.2786   19.3061 C   0  0  0  0  0  0
  -30.2380  -16.9615   20.3642 C   0  0  0  0  0  0
  -29.9918  -19.2493   20.3204 C   0  0  0  0  0  0
  -28.9901  -22.8899   20.9606 C   0  0  0  0  0  0
  -29.7843  -21.7446   20.2526 C   0  0  0  0  0  0
  -29.3602  -24.3614   20.6396 C   0  0  0  0  0  0
  -28.1671  -25.2004   20.1171 C   0  0  0  0  0  0
  -29.6110  -18.1002   20.9207 N   0  0  0  0  0  0
  -29.9832  -15.6138   20.8049 N   0  0  0  0  0  0
  -29.4824  -20.5163   20.7358 N   0  0  0  0  0  0
  -28.0953  -22.6365   21.7784 O   0  0  0  0  0  0
  -30.5943  -21.9794   19.3486 O   0  0  0  0  0  0
  -31.1369  -18.9904   19.0034 S   0  0  0  0  0  0
  -31.4610  -12.3783   19.1463 H   0  0  0  0  0  0
  -30.2973  -11.3094   19.8727 H   0  0  0  0  0  0
  -29.7402  -11.7374   17.4568 H   0  0  0  0  0  0
  -29.6672  -13.4564   17.7590 H   0  0  0  0  0  0
  -27.8324  -11.2960   18.8481 H   0  0  0  0  0  0
  -27.3658  -12.6005   17.7910 H   0  0  0  0  0  0
  -27.6835  -14.2511   19.5358 H   0  0  0  0  0  0
  -28.6788  -12.0379   21.3995 H   0  0  0  0  0  0
  -28.4729  -13.7106   21.8359 H   0  0  0  0  0  0
  -25.2751   -9.5688   22.4765 H   0  0  0  0  0  0
  -23.9996   -7.4633   22.7496 H   0  0  0  0  0  0
  -21.0821   -8.8750   19.8971 H   0  0  0  0  0  0
  -22.3662  -10.9665   19.6174 H   0  0  0  0  0  0
  -21.1980   -7.6143   23.9702 H   0  0  0  0  0  0
  -21.1501   -6.0535   25.9083 H   0  0  0  0  0  0
  -22.0595   -2.7600   23.2868 H   0  0  0  0  0  0
  -22.4092  -11.9904   22.4815 H   0  0  0  0  0  0
  -21.1110  -13.1283   22.2606 H   0  0  0  0  0  0
  -24.6580  -15.8405   20.5156 H   0  0  0  0  0  0
  -26.2808  -15.6331   20.0929 H   0  0  0  0  0  0
  -26.7122  -32.5535   23.1161 H   0  0  0  0  0  0
  -25.0072  -33.9796   25.0484 H   0  0  0  0  0  0
  -22.6932  -31.3105   21.4174 H   0  0  0  0  0  0
  -23.3760  -35.9640   23.3304 H   0  0  0  0  0  0
  -24.3586  -36.8920   22.2051 H   0  0  0  0  0  0
  -23.7229  -37.6515   23.6644 H   0  0  0  0  0  0
  -26.0545  -31.5942   20.5991 H   0  0  0  0  0  0
  -26.8238  -30.8776   21.9869 H   0  0  0  0  0  0
  -28.0995  -29.0764   21.1708 H   0  0  0  0  0  0
  -26.0024  -25.9843   18.9863 H   0  0  0  0  0  0
  -23.9678  -27.3184   19.0173 H   0  0  0  0  0  0
  -23.7211  -30.6106   19.4084 H   0  0  0  0  0  0
  -22.7354  -29.2546   19.8680 H   0  0  0  0  0  0
  -25.1291  -36.1990   25.0832 H   0  0  0  0  0  0
  -20.9964  -28.3226   24.1441 H   0  0  0  0  0  0
  -20.5694  -26.2270   23.3606 H   0  0  0  0  0  0
  -21.6641  -26.7460   22.1197 H   0  0  0  0  0  0
  -19.6909  -25.6302   21.1237 H   0  0  0  0  0  0
  -19.6683  -27.3209   20.6765 H   0  0  0  0  0  0
  -17.4202  -26.6684   21.4022 H   0  0  0  0  0  0
  -18.0312  -26.0061   22.9017 H   0  0  0  0  0  0
  -19.7927  -30.7265   24.2278 H   0  0  0  0  0  0
  -17.5005  -31.6261   24.5169 H   0  0  0  0  0  0
  -15.5344  -30.2990   23.7639 H   0  0  0  0  0  0
  -15.8668  -28.0830   22.7045 H   0  0  0  0  0  0
  -24.5896  -30.7064   25.7798 H   0  0  0  0  0  0
  -24.8909  -32.2870   26.4920 H   0  0  0  0  0  0
  -25.8063  -30.8877   27.0226 H   0  0  0  0  0  0
  -26.2822  -29.6825   24.1141 H   0  0  0  0  0  0
  -27.4056  -29.7272   25.4541 H   0  0  0  0  0  0
  -27.8663  -30.4375   23.9241 H   0  0  0  0  0  0
  -27.2676  -33.3620   26.2076 H   0  0  0  0  0  0
  -28.3834  -32.6891   25.0283 H   0  0  0  0  0  0
  -28.0738  -31.8433   26.5369 H   0  0  0  0  0  0
  -28.2611  -38.0110   24.7533 H   0  0  0  0  0  0
  -28.1085  -36.2645   24.6266 H   0  0  0  0  0  0
  -27.2311  -37.1431   25.8867 H   0  0  0  0  0  0
  -20.9317  -29.8754   21.6951 H   0  0  0  0  0  0
  -26.0195  -38.2885   24.1412 H   0  0  0  0  0  0
  -31.6419  -16.6185   18.6750 H   0  0  0  0  0  0
  -30.1853  -24.3994   19.9290 H   0  0  0  0  0  0
  -29.7293  -24.8036   21.5641 H   0  0  0  0  0  0
  -27.2899  -24.9557   20.7196 H   0  0  0  0  0  0
  -27.9517  -24.8925   19.0930 H   0  0  0  0  0  0
  -29.0926  -15.4510   21.2483 H   0  0  0  0  0  0
  -28.7984  -20.5171   21.4795 H   0  0  0  0  0  0
  1 25  1  0  0  0
  1 30  2  0  0  0
  1 79  1  0  0  0
  2  3  1  0  0  0
  2 25  1  0  0  0
  2 84  1  0  0  0
  2 85  1  0  0  0
  3  4  1  0  0  0
  3 86  1  0  0  0
  3 87  1  0  0  0
  4  5  1  0  0  0
  4 88  1  0  0  0
  4 89  1  0  0  0
  5  6  1  0  0  0
  5 26  1  0  0  0
  5 90  1  0  0  0
  6 25  1  0  0  0
  6 91  1  0  0  0
  6 92  1  0  0  0
  7  8  2  0  0  0
  7 26  1  0  0  0
  7 29  1  0  0  0
  8  9  1  0  0  0
  8 22  1  0  0  0
  9 10  1  0  0  0
  9 27  2  0  0  0
 10 11  2  0  0  0
 10 15  1  0  0  0
 11 12  1  0  0  0
 11 93  1  0  0  0
 12 13  2  0  0  0
 12 94  1  0  0  0
 13 14  1  0  0  0
 13 31  1  0  0  0
 14 15  2  0  0  0
 14 95  1  0  0  0
 15 96  1  0  0  0
 16 17  2  0  0  0
 16 21  1  0  0  0
 16 31  1  0  0  0
 17 18  1  0  0  0
 17 97  1  0  0  0
 18 19  2  0  0  0
 18 98  1  0  0  0
 19 20  1  0  0  0
 19 24  1  0  0  0
 20 21  2  0  0  0
 20 99  1  0  0  0
 21 23  1  0  0  0
 22 28  1  0  0  0
 22 32  2  0  0  0
 26 27  1  0  0  0
 28100  1  0  0  0
 28101  1  0  0  0
 29102  1  0  0  0
 29103  1  0  0  0
 33 34  1  0  0  0
 33 66  1  0  0  0
 33 70  2  0  0  0
 34 36  1  0  0  0
 34 59  1  0  0  0
 34104  1  0  0  0
 35 44  2  0  0  0
 35 45  1  0  0  0
 35 68  1  0  0  0
 36 56  1  0  0  0
 36105  1  0  0  0
 37 39  1  0  0  0
 37 47  1  0  0  0
 37 66  1  0  0  0
 37106  1  0  0  0
 38 43  2  0  0  0
 38 46  1  0  0  0
 38 47  1  0  0  0
 39 64  1  0  0  0
 39 67  2  0  0  0
 40 52  1  0  0  0
 40 53  2  0  0  0
 40 58  1  0  0  0
 41107  1  0  0  0
 41108  1  0  0  0
 41109  1  0  0  0
 41 48  1  0  0  0
 42 43  1  0  0  0
 42 66  1  0  0  0
 42110  1  0  0  0
 42111  1  0  0  0
 43 44  1  0  0  0
 44112  1  0  0  0
 45 46  2  0  0  0
 45113  1  0  0  0
 46114  1  0  0  0
 47115  1  0  0  0
 47116  1  0  0  0
 48 56  1  0  0  0
 48 65  1  0  0  0
 48117  1  0  0  0
 49 50  1  0  0  0
 49 53  1  0  0  0
 49 64  1  0  0  0
 49118  1  0  0  0
 50 51  1  0  0  0
 50119  1  0  0  0
 50120  1  0  0  0
 51 52  1  0  0  0
 51121  1  0  0  0
 51122  1  0  0  0
 52123  1  0  0  0
 52124  1  0  0  0
 53 54  1  0  0  0
 54 55  2  0  0  0
 54125  1  0  0  0
 55 57  1  0  0  0
 55126  1  0  0  0
 56 69  2  0  0  0
 57 58  2  0  0  0
 57127  1  0  0  0
 58128  1  0  0  0
 59 60  1  0  0  0
 59 61  1  0  0  0
 59 62  1  0  0  0
 60129  1  0  0  0
 60130  1  0  0  0
 60131  1  0  0  0
 61132  1  0  0  0
 61133  1  0  0  0
 61134  1  0  0  0
 62135  1  0  0  0
 62136  1  0  0  0
 62137  1  0  0  0
 63 65  1  0  0  0
 63138  1  0  0  0
 63139  1  0  0  0
 63140  1  0  0  0
 64141  1  0  0  0
 65142  1  0  0  0
 68 77  1  0  0  0
 71 72  2  0  0  0
 71 83  1  0  0  0
 71143  1  0  0  0
 72 78  1  0  0  0
 72 79  1  0  0  0
 73 78  2  0  0  0
 73 80  1  0  0  0
 73 83  1  0  0  0
 74 75  1  0  0  0
 74 76  1  0  0  0
 74 81  2  0  0  0
 75 80  1  0  0  0
 75 82  2  0  0  0
 76 77  1  0  0  0
 76144  1  0  0  0
 76145  1  0  0  0
 77146  1  0  0  0
 77147  1  0  0  0
 79148  1  0  0  0
 80149  1  0  0  0
M  ISO  4   1 100  68 101  77 101  79 100
M  END
> <chiral flag>
0

> <version>
0

> <s_m_source_file>
/data/baiqing/PycharmProjects/Reinvent-master-3.2/result/LINK_invent/BTK/process_docking_weight1_custom_product_contain_oxygen_bond_distance_aromatic_linkinvent_7_9_3/rearranged_h_0176.sdf

> <i_m_source_file_index>
34

> <r_mmod_Potential_Energy-OPLS-2005>
-155.060028076172

> <r_mmod_Stretch_Energy-OPLS-2005>
42.2096900939941

> <r_mmod_Bend_Energy-OPLS-2005>
101.211929321289

> <r_mmod_Torsional_Energy-OPLS-2005>
225.163192749023

> <r_mmod_Improper_Torsional_Energy-OPLS-2005>
4.58973693847656

> <r_mmod_Van_der_Waal_Energy-OPLS-2005>
145.290542602539

> <r_mmod_Electrostatic_Energy-OPLS-2005>
-464.610870361328

> <r_mmod_Solvation_Energy-OPLS-2005>
-231.34912109375

> <b_mmod_Minimization_Converged-OPLS-2005>
0

> <r_mmod_RMS_Derivative-OPLS-2005>
0.970282077789307

$$$$
34
                    3D
 Structure written by MMmdl.
152160  0  0  1  0            999 V2000
  -30.5819  -14.7800   20.4438 C   0  0  0  0  0  0
  -30.4376  -12.4726   19.4799 C   0  0  0  0  0  0
  -29.5146  -12.5092   18.2406 C   0  0  0  0  0  0
  -28.0407  -12.3269   18.6533 C   0  0  0  0  0  0
  -27.6410  -13.2309   19.8499 C   0  0  2  0  0  0
  -28.6845  -13.1708   20.9872 C   0  0  0  0  0  0
  -25.2508  -13.8191   20.5691 C   0  0  0  0  0  0
  -24.1797  -13.0437   20.9201 C   0  0  0  0  0  0
  -24.6388  -11.6914   20.8740 C   0  0  0  0  0  0
  -23.9066  -10.4291   21.0403 C   0  0  0  0  0  0
  -24.3617   -9.4208   21.9182 C   0  0  0  0  0  0
  -23.6292   -8.2245   22.0754 C   0  0  0  0  0  0
  -22.4274   -8.0280   21.3544 C   0  0  0  0  0  0
  -21.9909   -9.0254   20.4646 C   0  0  0  0  0  0
  -22.7238  -10.2133   20.3055 C   0  0  0  0  0  0
  -21.6853   -6.0731   22.5278 C   0  0  0  0  0  0
  -21.4014   -6.5636   23.8210 C   0  0  0  0  0  0
  -21.3662   -5.6790   24.9173 C   0  0  0  0  0  0
  -21.6046   -4.3053   24.7224 C   0  0  0  0  0  0
  -21.8821   -3.8144   23.4346 C   0  0  0  0  0  0
  -21.9193   -4.6960   22.3401 C   0  0  0  0  0  0
  -22.7821  -13.5223   21.1863 C   0  0  0  0  0  0
  -22.1661   -4.2144   21.0979 F   0  0  0  0  0  0
  -21.5631   -3.4539   25.7738 F   0  0  0  0  0  0
  -29.9837  -13.5364   20.4080 N   0  0  0  0  0  0
  -26.2930  -12.9395   20.3270 N   0  0  0  0  0  0
  -25.9319  -11.6539   20.5742 N   0  0  0  0  0  0
  -22.0469  -12.8213   22.0421 N   0  0  0  0  0  0
  -25.4197  -15.1916   20.4120 N   0  0  0  0  0  0
  -31.7700  -14.8844   20.1205 O   0  0  0  0  0  0
  -21.6641   -6.8875   21.4240 O   0  0  0  0  0  0
  -22.3506  -14.5531   20.6714 O   0  0  0  0  0  0
  -24.6327  -31.8520   23.1932 C   0  0  0  0  0  0
  -25.9143  -32.4736   23.8292 C   0  0  1  0  0  0
  -27.2297  -27.2411   20.1246 C   0  0  0  0  0  0
  -25.5928  -33.8538   24.2220 N   0  0  0  0  0  0
  -23.4303  -30.4717   21.5371 C   0  0  2  0  0  0
  -24.8767  -28.9089   20.1089 C   0  0  0  0  0  0
  -22.7509  -29.4586   22.4900 C   0  0  0  0  0  0
  -18.0296  -28.1395   22.8488 C   0  0  0  0  0  0
  -24.1489  -36.7273   23.2642 C   0  0  0  0  0  0
  -25.9757  -30.7594   21.3723 C   0  0  0  0  0  0
  -26.0475  -29.3790   20.7142 C   0  0  0  0  0  0
  -27.2207  -28.5576   20.7073 C   0  0  0  0  0  0
  -26.0251  -26.8284   19.5166 C   0  0  0  0  0  0
  -24.8714  -27.6423   19.5011 C   0  0  0  0  0  0
  -23.6483  -29.7991   20.1549 C   0  0  0  0  0  0
  -25.4119  -36.3057   24.0322 C   0  0  1  0  0  0
  -20.5900  -28.3706   23.1272 C   0  0  2  0  0  0
  -20.6781  -26.9422   22.5415 C   0  0  0  0  0  0
  -19.5754  -26.6391   21.5219 C   0  0  0  0  0  0
  -18.1936  -26.7939   22.1630 C   0  0  0  0  0  0
  -19.1549  -28.8868   23.2876 C   0  0  0  0  0  0
  -18.9468  -30.1467   23.8898 C   0  0  0  0  0  0
  -17.6466  -30.6595   24.0566 C   0  0  0  0  0  0
  -25.9062  -34.9430   23.5079 C   0  0  0  0  0  0
  -16.5357  -29.9094   23.6332 C   0  0  0  0  0  0
  -16.7282  -28.6510   23.0357 C   0  0  0  0  0  0
  -26.4507  -31.6575   25.0695 C   0  0  0  0  0  0
  -25.3721  -31.3728   26.1410 C   0  0  0  0  0  0
  -27.0359  -30.2990   24.6195 C   0  0  0  0  0  0
  -27.6053  -32.4323   25.7477 C   0  0  0  0  0  0
  -27.5577  -37.1794   24.8468 C   0  0  0  0  0  0
  -21.4216  -29.3041   22.3648 N   0  0  0  0  0  0
  -26.4291  -37.3760   23.9408 N   0  0  0  0  0  0
  -24.6990  -31.0467   22.0908 N   0  0  0  0  0  0
  -23.4198  -28.8142   23.3021 O   0  0  0  0  0  0
  -28.3661  -26.3959   20.2152 O   0  0  0  0  0  0
  -26.5646  -34.8915   22.4655 O   0  0  0  0  0  0
  -23.5476  -32.1349   23.7224 O   0  0  0  0  0  0
  -31.1208  -17.9443   19.9490 C   0  0  0  0  0  0
  -29.9760  -17.3662   20.4467 C   0  0  0  0  0  0
  -28.9878  -18.4259   20.7191 C   0  0  0  0  0  0
  -29.3498  -19.7679   20.4574 C   0  0  0  0  0  0
  -28.6185  -21.0881   20.7013 C   0  0  0  0  0  0
  -28.1886  -23.6828   20.4176 C   0  0  0  0  0  0
  -28.2673  -24.9409   18.1159 C   0  0  0  0  0  0
  -28.6075  -25.0182   19.6160 C   0  0  2  0  0  0
  -29.7759  -15.8973   20.6629 N   0  0  0  0  0  0
  -28.8880  -22.3606   20.1535 N   0  0  0  0  0  0
  -27.5942  -20.9860   21.5663 N   0  3  0  0  0  0
  -27.2725  -23.7308   21.2498 O   0  0  0  0  0  0
  -27.8153  -18.1132   21.2238 F   0  0  0  0  0  0
  -30.9906  -19.7131   19.8326 S   0  0  0  0  0  0
  -31.4775  -12.6059   19.1772 H   0  0  0  0  0  0
  -30.3929  -11.4974   19.9671 H   0  0  0  0  0  0
  -29.8031  -11.7322   17.5312 H   0  0  0  0  0  0
  -29.6350  -13.4600   17.7190 H   0  0  0  0  0  0
  -27.9033  -11.2790   18.9224 H   0  0  0  0  0  0
  -27.3830  -12.5103   17.8028 H   0  0  0  0  0  0
  -27.6327  -14.2503   19.4638 H   0  0  0  0  0  0
  -28.7263  -12.1719   21.4242 H   0  0  0  0  0  0
  -28.4121  -13.8463   21.7997 H   0  0  0  0  0  0
  -25.2761   -9.5687   22.4753 H   0  0  0  0  0  0
  -24.0002   -7.4638   22.7476 H   0  0  0  0  0  0
  -21.0839   -8.8774   19.8951 H   0  0  0  0  0  0
  -22.3697  -10.9671   19.6163 H   0  0  0  0  0  0
  -21.2007   -7.6145   23.9714 H   0  0  0  0  0  0
  -21.1482   -6.0518   25.9076 H   0  0  0  0  0  0
  -22.0598   -2.7606   23.2847 H   0  0  0  0  0  0
  -22.4084  -11.9872   22.4804 H   0  0  0  0  0  0
  -21.1088  -13.1239   22.2631 H   0  0  0  0  0  0
  -24.6525  -15.8433   20.5341 H   0  0  0  0  0  0
  -26.2658  -15.6388   20.0844 H   0  0  0  0  0  0
  -26.7207  -32.5377   23.1028 H   0  0  0  0  0  0
  -25.0057  -33.9666   25.0354 H   0  0  0  0  0  0
  -22.7280  -31.2947   21.3875 H   0  0  0  0  0  0
  -23.3754  -35.9602   23.3303 H   0  0  0  0  0  0
  -24.3571  -36.8900   22.2056 H   0  0  0  0  0  0
  -23.7243  -37.6471   23.6673 H   0  0  0  0  0  0
  -26.1163  -31.5196   20.6026 H   0  0  0  0  0  0
  -26.8521  -30.8093   22.0069 H   0  0  0  0  0  0
  -28.1192  -28.9168   21.1894 H   0  0  0  0  0  0
  -25.9329  -25.8447   19.0901 H   0  0  0  0  0  0
  -23.9680  -27.2683   19.0389 H   0  0  0  0  0  0
  -23.7753  -30.5723   19.3961 H   0  0  0  0  0  0
  -22.7659  -29.2331   19.8510 H   0  0  0  0  0  0
  -25.1306  -36.1895   25.0815 H   0  0  0  0  0  0
  -20.9998  -28.3291   24.1389 H   0  0  0  0  0  0
  -20.5685  -26.2318   23.3622 H   0  0  0  0  0  0
  -21.6649  -26.7448   22.1203 H   0  0  0  0  0  0
  -19.6914  -25.6301   21.1252 H   0  0  0  0  0  0
  -19.6691  -27.3200   20.6746 H   0  0  0  0  0  0
  -17.4207  -26.6694   21.4031 H   0  0  0  0  0  0
  -18.0331  -26.0085   22.9028 H   0  0  0  0  0  0
  -19.7942  -30.7286   24.2271 H   0  0  0  0  0  0
  -17.5018  -31.6276   24.5169 H   0  0  0  0  0  0
  -15.5357  -30.2995   23.7655 H   0  0  0  0  0  0
  -15.8683  -28.0826   22.7075 H   0  0  0  0  0  0
  -24.5908  -30.7069   25.7729 H   0  0  0  0  0  0
  -24.8900  -32.2899   26.4807 H   0  0  0  0  0  0
  -25.8030  -30.8922   27.0203 H   0  0  0  0  0  0
  -26.2943  -29.6729   24.1222 H   0  0  0  0  0  0
  -27.4041  -29.7265   25.4719 H   0  0  0  0  0  0
  -27.8819  -30.4261   23.9437 H   0  0  0  0  0  0
  -27.2656  -33.3632   26.2031 H   0  0  0  0  0  0
  -28.3879  -32.6871   25.0317 H   0  0  0  0  0  0
  -28.0707  -31.8465   26.5416 H   0  0  0  0  0  0
  -28.2599  -38.0086   24.7507 H   0  0  0  0  0  0
  -28.1070  -36.2618   24.6308 H   0  0  0  0  0  0
  -27.2292  -37.1453   25.8871 H   0  0  0  0  0  0
  -20.9409  -29.8747   21.6834 H   0  0  0  0  0  0
  -26.0166  -38.2833   24.1404 H   0  0  0  0  0  0
  -32.0403  -17.4596   19.6432 H   0  0  0  0  0  0
  -28.8716  -24.1788   17.6231 H   0  0  0  0  0  0
  -28.4759  -25.8876   17.6175 H   0  0  0  0  0  0
  -27.2287  -24.6753   17.9284 H   0  0  0  0  0  0
  -29.6964  -24.9726   19.6496 H   0  0  0  0  0  0
  -28.8423  -15.6556   20.9581 H   0  0  0  0  0  0
  -29.6492  -22.3337   19.4949 H   0  0  0  0  0  0
  -27.0564  -21.8078   21.8198 H   0  0  0  0  0  0
  -27.3311  -20.0851   21.9420 H   0  0  0  0  0  0
  1 25  1  0  0  0
  1 30  2  0  0  0
  1 79  1  0  0  0
  2  3  1  0  0  0
  2 25  1  0  0  0
  2 85  1  0  0  0
  2 86  1  0  0  0
  3  4  1  0  0  0
  3 87  1  0  0  0
  3 88  1  0  0  0
  4  5  1  0  0  0
  4 89  1  0  0  0
  4 90  1  0  0  0
  5  6  1  0  0  0
  5 26  1  0  0  0
  5 91  1  0  0  0
  6 25  1  0  0  0
  6 92  1  0  0  0
  6 93  1  0  0  0
  7  8  2  0  0  0
  7 26  1  0  0  0
  7 29  1  0  0  0
  8  9  1  0  0  0
  8 22  1  0  0  0
  9 10  1  0  0  0
  9 27  2  0  0  0
 10 11  2  0  0  0
 10 15  1  0  0  0
 11 12  1  0  0  0
 11 94  1  0  0  0
 12 13  2  0  0  0
 12 95  1  0  0  0
 13 14  1  0  0  0
 13 31  1  0  0  0
 14 15  2  0  0  0
 14 96  1  0  0  0
 15 97  1  0  0  0
 16 17  2  0  0  0
 16 21  1  0  0  0
 16 31  1  0  0  0
 17 18  1  0  0  0
 17 98  1  0  0  0
 18 19  2  0  0  0
 18 99  1  0  0  0
 19 20  1  0  0  0
 19 24  1  0  0  0
 20 21  2  0  0  0
 20100  1  0  0  0
 21 23  1  0  0  0
 22 28  1  0  0  0
 22 32  2  0  0  0
 26 27  1  0  0  0
 28101  1  0  0  0
 28102  1  0  0  0
 29103  1  0  0  0
 29104  1  0  0  0
 33 34  1  0  0  0
 33 66  1  0  0  0
 33 70  2  0  0  0
 34 36  1  0  0  0
 34 59  1  0  0  0
 34105  1  0  0  0
 35 44  2  0  0  0
 35 45  1  0  0  0
 35 68  1  0  0  0
 36 56  1  0  0  0
 36106  1  0  0  0
 37 39  1  0  0  0
 37 47  1  0  0  0
 37 66  1  0  0  0
 37107  1  0  0  0
 38 43  2  0  0  0
 38 46  1  0  0  0
 38 47  1  0  0  0
 39 64  1  0  0  0
 39 67  2  0  0  0
 40 52  1  0  0  0
 40 53  2  0  0  0
 40 58  1  0  0  0
 41108  1  0  0  0
 41109  1  0  0  0
 41110  1  0  0  0
 41 48  1  0  0  0
 42 43  1  0  0  0
 42 66  1  0  0  0
 42111  1  0  0  0
 42112  1  0  0  0
 43 44  1  0  0  0
 44113  1  0  0  0
 45 46  2  0  0  0
 45114  1  0  0  0
 46115  1  0  0  0
 47116  1  0  0  0
 47117  1  0  0  0
 48 56  1  0  0  0
 48 65  1  0  0  0
 48118  1  0  0  0
 49 50  1  0  0  0
 49 53  1  0  0  0
 49 64  1  0  0  0
 49119  1  0  0  0
 50 51  1  0  0  0
 50120  1  0  0  0
 50121  1  0  0  0
 51 52  1  0  0  0
 51122  1  0  0  0
 51123  1  0  0  0
 52124  1  0  0  0
 52125  1  0  0  0
 53 54  1  0  0  0
 54 55  2  0  0  0
 54126  1  0  0  0
 55 57  1  0  0  0
 55127  1  0  0  0
 56 69  2  0  0  0
 57 58  2  0  0  0
 57128  1  0  0  0
 58129  1  0  0  0
 59 60  1  0  0  0
 59 61  1  0  0  0
 59 62  1  0  0  0
 60130  1  0  0  0
 60131  1  0  0  0
 60132  1  0  0  0
 61133  1  0  0  0
 61134  1  0  0  0
 61135  1  0  0  0
 62136  1  0  0  0
 62137  1  0  0  0
 62138  1  0  0  0
 63 65  1  0  0  0
 63139  1  0  0  0
 63140  1  0  0  0
 63141  1  0  0  0
 64142  1  0  0  0
 65143  1  0  0  0
 68 78  1  0  0  0
 71 72  2  0  0  0
 71 84  1  0  0  0
 71144  1  0  0  0
 72 73  1  0  0  0
 72 79  1  0  0  0
 73 74  2  0  0  0
 73 83  1  0  0  0
 74 75  1  0  0  0
 74 84  1  0  0  0
 75 80  1  0  0  0
 75 81  2  0  0  0
 76 78  1  0  0  0
 76 80  1  0  0  0
 76 82  2  0  0  0
 77145  1  0  0  0
 77146  1  0  0  0
 77147  1  0  0  0
 77 78  1  0  0  0
 78148  1  0  0  0
 79149  1  0  0  0
 80150  1  0  0  0
 81151  1  0  0  0
 81152  1  0  0  0
M  CHG  1  81   1
M  ISO  4   1 100  68 101  78 101  79 100
M  END
> <chiral flag>
0

> <version>
0

> <s_m_source_file>
/data/baiqing/PycharmProjects/Reinvent-master-3.2/result/LINK_invent/BTK/process_docking_weight1_custom_product_contain_oxygen_bond_distance_aromatic_linkinvent_7_9_3/rearranged_h_0176.sdf

> <i_m_source_file_index>
35

> <r_mmod_Potential_Energy-OPLS-2005>
-10.3486824035645

> <r_mmod_Stretch_Energy-OPLS-2005>
141.346649169922

> <r_mmod_Bend_Energy-OPLS-2005>
211.730529785156

> <r_mmod_Torsional_Energy-OPLS-2005>
208.348007202148

> <r_mmod_Improper_Torsional_Energy-OPLS-2005>
4.39656209945679

> <r_mmod_Van_der_Waal_Energy-OPLS-2005>
121.997970581055

> <r_mmod_Electrostatic_Energy-OPLS-2005>
-312.758270263672

> <r_mmod_Solvation_Energy-OPLS-2005>
-481.053558349609

> <b_mmod_Minimization_Converged-OPLS-2005>
0

> <r_mmod_RMS_Derivative-OPLS-2005>
0.466928988695145

$$$$
35
                    3D
 Structure written by MMmdl.
156164  0  0  1  0            999 V2000
  -30.6186  -14.7394   20.4716 C   0  0  0  0  0  0
  -30.4303  -12.4553   19.4671 C   0  0  0  0  0  0
  -29.5068  -12.5015   18.2307 C   0  0  0  0  0  0
  -28.0335  -12.3258   18.6469 C   0  0  0  0  0  0
  -27.6386  -13.2292   19.8456 C   0  0  2  0  0  0
  -28.6846  -13.1686   20.9794 C   0  0  0  0  0  0
  -25.2501  -13.8190   20.5699 C   0  0  0  0  0  0
  -24.1793  -13.0436   20.9215 C   0  0  0  0  0  0
  -24.6380  -11.6911   20.8741 C   0  0  0  0  0  0
  -23.9056  -10.4290   21.0400 C   0  0  0  0  0  0
  -24.3610   -9.4209   21.9175 C   0  0  0  0  0  0
  -23.6289   -8.2244   22.0747 C   0  0  0  0  0  0
  -22.4271   -8.0278   21.3542 C   0  0  0  0  0  0
  -21.9905   -9.0247   20.4641 C   0  0  0  0  0  0
  -22.7228  -10.2128   20.3049 C   0  0  0  0  0  0
  -21.6855   -6.0729   22.5275 C   0  0  0  0  0  0
  -21.4016   -6.5633   23.8209 C   0  0  0  0  0  0
  -21.3663   -5.6788   24.9172 C   0  0  0  0  0  0
  -21.6045   -4.3050   24.7223 C   0  0  0  0  0  0
  -21.8822   -3.8139   23.4345 C   0  0  0  0  0  0
  -21.9196   -4.6955   22.3399 C   0  0  0  0  0  0
  -22.7817  -13.5219   21.1873 C   0  0  0  0  0  0
  -22.1663   -4.2141   21.0977 F   0  0  0  0  0  0
  -21.5630   -3.4533   25.7736 F   0  0  0  0  0  0
  -29.9814  -13.5219   20.3901 N   0  0  0  0  0  0
  -26.2921  -12.9391   20.3262 N   0  0  0  0  0  0
  -25.9307  -11.6537   20.5740 N   0  0  0  0  0  0
  -22.0464  -12.8212   22.0431 N   0  0  0  0  0  0
  -25.4165  -15.1917   20.4115 N   0  0  0  0  0  0
  -31.8160  -14.8161   20.1818 O   0  0  0  0  0  0
  -21.6641   -6.8870   21.4237 O   0  0  0  0  0  0
  -22.3501  -14.5520   20.6714 O   0  0  0  0  0  0
  -24.6297  -31.8547   23.1987 C   0  0  0  0  0  0
  -25.9123  -32.4751   23.8327 C   0  0  1  0  0  0
  -27.2131  -27.2637   20.1432 C   0  0  0  0  0  0
  -25.5923  -33.8560   24.2247 N   0  0  0  0  0  0
  -23.4268  -30.4772   21.5411 C   0  0  2  0  0  0
  -24.8748  -28.9211   20.1126 C   0  0  0  0  0  0
  -22.7491  -29.4601   22.4910 C   0  0  0  0  0  0
  -18.0292  -28.1387   22.8487 C   0  0  0  0  0  0
  -24.1482  -36.7280   23.2645 C   0  0  0  0  0  0
  -25.9718  -30.7678   21.3792 C   0  0  0  0  0  0
  -26.0444  -29.3883   20.7279 C   0  0  0  0  0  0
  -27.2200  -28.5709   20.7345 C   0  0  0  0  0  0
  -26.0320  -26.8674   19.4865 C   0  0  0  0  0  0
  -24.8731  -27.6676   19.4800 C   0  0  0  0  0  0
  -23.6461  -29.8096   20.1582 C   0  0  0  0  0  0
  -25.4108  -36.3072   24.0331 C   0  0  1  0  0  0
  -20.5893  -28.3697   23.1276 C   0  0  2  0  0  0
  -20.6776  -26.9415   22.5416 C   0  0  0  0  0  0
  -19.5753  -26.6383   21.5216 C   0  0  0  0  0  0
  -18.1931  -26.7931   22.1626 C   0  0  0  0  0  0
  -19.1546  -28.8856   23.2879 C   0  0  0  0  0  0
  -18.9472  -30.1457   23.8894 C   0  0  0  0  0  0
  -17.6473  -30.6592   24.0563 C   0  0  0  0  0  0
  -25.9053  -34.9445   23.5093 C   0  0  0  0  0  0
  -16.5361  -29.9095   23.6330 C   0  0  0  0  0  0
  -16.7282  -28.6511   23.0353 C   0  0  0  0  0  0
  -26.4490  -31.6582   25.0719 C   0  0  0  0  0  0
  -25.3706  -31.3745   26.1439 C   0  0  0  0  0  0
  -27.0336  -30.2999   24.6208 C   0  0  0  0  0  0
  -27.6034  -32.4326   25.7500 C   0  0  0  0  0  0
  -27.5571  -37.1799   24.8472 C   0  0  0  0  0  0
  -21.4198  -29.3044   22.3655 N   0  0  0  0  0  0
  -26.4280  -37.3773   23.9415 N   0  0  0  0  0  0
  -24.6949  -31.0518   22.0958 N   0  0  0  0  0  0
  -23.4192  -28.8137   23.3003 O   0  0  0  0  0  0
  -28.2981  -26.3611   20.1274 O   0  0  0  0  0  0
  -26.5634  -34.8925   22.4668 O   0  0  0  0  0  0
  -23.5453  -32.1367   23.7293 O   0  0  0  0  0  0
  -31.1080  -19.9967   21.4052 C   0  0  0  0  0  0
  -31.4704  -17.5725   21.4886 C   0  0  0  0  0  0
  -29.8609  -19.8565   20.7518 C   0  0  0  0  0  0
  -30.2479  -17.3084   20.8289 C   0  0  0  0  0  0
  -31.8916  -18.8854   21.7670 C   0  0  0  0  0  0
  -29.4502  -18.4814   20.4666 C   0  0  0  0  0  0
  -28.6551  -23.7108   20.2082 C   0  0  0  0  0  0
  -29.1210  -22.3365   21.0062 C   0  0  0  0  0  0
  -29.4471  -25.4835   21.9592 C   0  0  0  0  0  0
  -27.0047  -24.9111   21.7723 C   0  0  0  0  0  0
  -28.3201  -25.1062   20.9763 C   0  0  0  0  0  0
  -29.1491  -21.1084   20.3500 N   0  0  0  0  0  0
  -29.8476  -15.8876   20.6203 N   0  0  0  0  0  0
  -28.5400  -23.6773   18.9777 O   0  0  0  0  0  0
  -29.4249  -22.3970   22.2012 O   0  0  0  0  0  0
  -33.0760  -19.0841   22.3938 F   0  0  0  0  0  0
  -28.2681  -18.2805   19.8366 F   0  0  0  0  0  0
  -31.4713  -12.5803   19.1633 H   0  0  0  0  0  0
  -30.3756  -11.4811   19.9555 H   0  0  0  0  0  0
  -29.7897  -11.7254   17.5184 H   0  0  0  0  0  0
  -29.6309  -13.4530   17.7106 H   0  0  0  0  0  0
  -27.8927  -11.2777   18.9145 H   0  0  0  0  0  0
  -27.3748  -12.5127   17.7980 H   0  0  0  0  0  0
  -27.6305  -14.2484   19.4593 H   0  0  0  0  0  0
  -28.7221  -12.1716   21.4212 H   0  0  0  0  0  0
  -28.4211  -13.8535   21.7875 H   0  0  0  0  0  0
  -25.2752   -9.5691   22.4752 H   0  0  0  0  0  0
  -24.0000   -7.4636   22.7464 H   0  0  0  0  0  0
  -21.0840   -8.8760   19.8945 H   0  0  0  0  0  0
  -22.3678  -10.9666   19.6161 H   0  0  0  0  0  0
  -21.2009   -7.6139   23.9711 H   0  0  0  0  0  0
  -21.1484   -6.0515   25.9076 H   0  0  0  0  0  0
  -22.0598   -2.7601   23.2846 H   0  0  0  0  0  0
  -22.4092  -11.9883   22.4833 H   0  0  0  0  0  0
  -21.1070  -13.1217   22.2612 H   0  0  0  0  0  0
  -24.6436  -15.8382   20.5268 H   0  0  0  0  0  0
  -26.2526  -15.6396   20.0594 H   0  0  0  0  0  0
  -26.7178  -32.5396   23.1058 H   0  0  0  0  0  0
  -25.0063  -33.9690   25.0386 H   0  0  0  0  0  0
  -22.7231  -31.2994   21.3937 H   0  0  0  0  0  0
  -23.3751  -35.9606   23.3313 H   0  0  0  0  0  0
  -24.3575  -36.8894   22.2059 H   0  0  0  0  0  0
  -23.7226  -37.6480   23.6662 H   0  0  0  0  0  0
  -26.1112  -31.5257   20.6068 H   0  0  0  0  0  0
  -26.8497  -30.8175   22.0116 H   0  0  0  0  0  0
  -28.1168  -28.9235   21.2250 H   0  0  0  0  0  0
  -26.0014  -25.9060   18.9940 H   0  0  0  0  0  0
  -23.9818  -27.3079   18.9840 H   0  0  0  0  0  0
  -23.7709  -30.5861   19.4022 H   0  0  0  0  0  0
  -22.7626  -29.2457   19.8534 H   0  0  0  0  0  0
  -25.1292  -36.1916   25.0824 H   0  0  0  0  0  0
  -20.9995  -28.3277   24.1394 H   0  0  0  0  0  0
  -20.5661  -26.2308   23.3617 H   0  0  0  0  0  0
  -21.6645  -26.7436   22.1215 H   0  0  0  0  0  0
  -19.6913  -25.6294   21.1244 H   0  0  0  0  0  0
  -19.6680  -27.3191   20.6741 H   0  0  0  0  0  0
  -17.4196  -26.6681   21.4032 H   0  0  0  0  0  0
  -18.0332  -26.0074   22.9022 H   0  0  0  0  0  0
  -19.7948  -30.7278   24.2249 H   0  0  0  0  0  0
  -17.5032  -31.6270   24.5173 H   0  0  0  0  0  0
  -15.5362  -30.3003   23.7647 H   0  0  0  0  0  0
  -15.8680  -28.0832   22.7067 H   0  0  0  0  0  0
  -24.5889  -30.7081   25.7773 H   0  0  0  0  0  0
  -24.8890  -32.2920   26.4833 H   0  0  0  0  0  0
  -25.8019  -30.8947   27.0233 H   0  0  0  0  0  0
  -26.2931  -29.6750   24.1207 H   0  0  0  0  0  0
  -27.3994  -29.7258   25.4729 H   0  0  0  0  0  0
  -27.8812  -30.4282   23.9474 H   0  0  0  0  0  0
  -27.2632  -33.3629   26.2064 H   0  0  0  0  0  0
  -28.3857  -32.6885   25.0339 H   0  0  0  0  0  0
  -28.0684  -31.8458   26.5434 H   0  0  0  0  0  0
  -28.2598  -38.0085   24.7512 H   0  0  0  0  0  0
  -28.1055  -36.2621   24.6302 H   0  0  0  0  0  0
  -27.2296  -37.1458   25.8877 H   0  0  0  0  0  0
  -20.9370  -29.8773   21.6871 H   0  0  0  0  0  0
  -26.0161  -38.2848   24.1412 H   0  0  0  0  0  0
  -31.5012  -20.9765   21.6298 H   0  0  0  0  0  0
  -32.1100  -16.7649   21.8109 H   0  0  0  0  0  0
  -29.5115  -24.8037   22.8074 H   0  0  0  0  0  0
  -29.2800  -26.4767   22.3780 H   0  0  0  0  0  0
  -30.4183  -25.4983   21.4645 H   0  0  0  0  0  0
  -26.1644  -24.6776   21.1191 H   0  0  0  0  0  0
  -26.7453  -25.7965   22.3533 H   0  0  0  0  0  0
  -27.0895  -24.0879   22.4823 H   0  0  0  0  0  0
  -28.6977  -21.0952   19.4445 H   0  0  0  0  0  0
  -28.8525  -15.7297   20.5887 H   0  0  0  0  0  0
  1 25  1  0  0  0
  1 30  2  0  0  0
  1 83  1  0  0  0
  2  3  1  0  0  0
  2 25  1  0  0  0
  2 88  1  0  0  0
  2 89  1  0  0  0
  3  4  1  0  0  0
  3 90  1  0  0  0
  3 91  1  0  0  0
  4  5  1  0  0  0
  4 92  1  0  0  0
  4 93  1  0  0  0
  5  6  1  0  0  0
  5 26  1  0  0  0
  5 94  1  0  0  0
  6 25  1  0  0  0
  6 95  1  0  0  0
  6 96  1  0  0  0
  7  8  2  0  0  0
  7 26  1  0  0  0
  7 29  1  0  0  0
  8  9  1  0  0  0
  8 22  1  0  0  0
  9 10  1  0  0  0
  9 27  2  0  0  0
 10 11  2  0  0  0
 10 15  1  0  0  0
 11 12  1  0  0  0
 11 97  1  0  0  0
 12 13  2  0  0  0
 12 98  1  0  0  0
 13 14  1  0  0  0
 13 31  1  0  0  0
 14 15  2  0  0  0
 14 99  1  0  0  0
 15100  1  0  0  0
 16 17  2  0  0  0
 16 21  1  0  0  0
 16 31  1  0  0  0
 17 18  1  0  0  0
 17101  1  0  0  0
 18 19  2  0  0  0
 18102  1  0  0  0
 19 20  1  0  0  0
 19 24  1  0  0  0
 20 21  2  0  0  0
 20103  1  0  0  0
 21 23  1  0  0  0
 22 28  1  0  0  0
 22 32  2  0  0  0
 26 27  1  0  0  0
 28104  1  0  0  0
 28105  1  0  0  0
 29106  1  0  0  0
 29107  1  0  0  0
 33 34  1  0  0  0
 33 66  1  0  0  0
 33 70  2  0  0  0
 34 36  1  0  0  0
 34 59  1  0  0  0
 34108  1  0  0  0
 35 44  2  0  0  0
 35 45  1  0  0  0
 35 68  1  0  0  0
 36 56  1  0  0  0
 36109  1  0  0  0
 37 39  1  0  0  0
 37 47  1  0  0  0
 37 66  1  0  0  0
 37110  1  0  0  0
 38 43  2  0  0  0
 38 46  1  0  0  0
 38 47  1  0  0  0
 39 64  1  0  0  0
 39 67  2  0  0  0
 40 52  1  0  0  0
 40 53  2  0  0  0
 40 58  1  0  0  0
 41111  1  0  0  0
 41112  1  0  0  0
 41113  1  0  0  0
 41 48  1  0  0  0
 42 43  1  0  0  0
 42 66  1  0  0  0
 42114  1  0  0  0
 42115  1  0  0  0
 43 44  1  0  0  0
 44116  1  0  0  0
 45 46  2  0  0  0
 45117  1  0  0  0
 46118  1  0  0  0
 47119  1  0  0  0
 47120  1  0  0  0
 48 56  1  0  0  0
 48 65  1  0  0  0
 48121  1  0  0  0
 49 50  1  0  0  0
 49 53  1  0  0  0
 49 64  1  0  0  0
 49122  1  0  0  0
 50 51  1  0  0  0
 50123  1  0  0  0
 50124  1  0  0  0
 51 52  1  0  0  0
 51125  1  0  0  0
 51126  1  0  0  0
 52127  1  0  0  0
 52128  1  0  0  0
 53 54  1  0  0  0
 54 55  2  0  0  0
 54129  1  0  0  0
 55 57  1  0  0  0
 55130  1  0  0  0
 56 69  2  0  0  0
 57 58  2  0  0  0
 57131  1  0  0  0
 58132  1  0  0  0
 59 60  1  0  0  0
 59 61  1  0  0  0
 59 62  1  0  0  0
 60133  1  0  0  0
 60134  1  0  0  0
 60135  1  0  0  0
 61136  1  0  0  0
 61137  1  0  0  0
 61138  1  0  0  0
 62139  1  0  0  0
 62140  1  0  0  0
 62141  1  0  0  0
 63 65  1  0  0  0
 63142  1  0  0  0
 63143  1  0  0  0
 63144  1  0  0  0
 64145  1  0  0  0
 65146  1  0  0  0
 68 81  1  0  0  0
 71 73  2  0  0  0
 71 75  1  0  0  0
 71147  1  0  0  0
 72 74  1  0  0  0
 72 75  2  0  0  0
 72148  1  0  0  0
 73 76  1  0  0  0
 73 82  1  0  0  0
 74 76  2  0  0  0
 74 83  1  0  0  0
 75 86  1  0  0  0
 76 87  1  0  0  0
 77 78  1  0  0  0
 77 81  1  0  0  0
 77 84  2  0  0  0
 78 82  1  0  0  0
 78 85  2  0  0  0
 79149  1  0  0  0
 79150  1  0  0  0
 79151  1  0  0  0
 79 81  1  0  0  0
 80 81  1  0  0  0
 80152  1  0  0  0
 80153  1  0  0  0
 80154  1  0  0  0
 82155  1  0  0  0
 83156  1  0  0  0
M  ISO  4   1 100  68 101  81 101  83 100
M  END
> <chiral flag>
0

> <version>
0

> <s_m_source_file>
/data/baiqing/PycharmProjects/Reinvent-master-3.2/result/LINK_invent/BTK/process_docking_weight1_custom_product_contain_oxygen_bond_distance_aromatic_linkinvent_7_9_3/rearranged_h_0176.sdf

> <i_m_source_file_index>
36

> <r_mmod_Potential_Energy-OPLS-2005>
274.546081542969

> <r_mmod_Stretch_Energy-OPLS-2005>
143.785903930664

> <r_mmod_Bend_Energy-OPLS-2005>
164.224868774414

> <r_mmod_Torsional_Energy-OPLS-2005>
277.422637939453

> <r_mmod_Improper_Torsional_Energy-OPLS-2005>
6.36890172958374

> <r_mmod_Van_der_Waal_Energy-OPLS-2005>
140.908508300781

> <r_mmod_Electrostatic_Energy-OPLS-2005>
-324.146209716797

> <r_mmod_Solvation_Energy-OPLS-2005>
-217.963531494141

> <b_mmod_Minimization_Converged-OPLS-2005>
0

> <r_mmod_RMS_Derivative-OPLS-2005>
1.10318100452423

$$$$
36
                    3D
 Structure written by MMmdl.
151159  0  0  1  0            999 V2000
  -30.6808  -14.5132   20.5458 C   0  0  0  0  0  0
  -30.4271  -12.3235   19.4297 C   0  0  0  0  0  0
  -29.4972  -12.4998   18.2102 C   0  0  0  0  0  0
  -28.0187  -12.3561   18.6231 C   0  0  0  0  0  0
  -27.6586  -13.2067   19.8708 C   0  0  2  0  0  0
  -28.7022  -13.0089   20.9941 C   0  0  0  0  0  0
  -25.2582  -13.8157   20.5677 C   0  0  0  0  0  0
  -24.1836  -13.0437   20.9187 C   0  0  0  0  0  0
  -24.6387  -11.6901   20.8735 C   0  0  0  0  0  0
  -23.9050  -10.4289   21.0401 C   0  0  0  0  0  0
  -24.3605   -9.4207   21.9180 C   0  0  0  0  0  0
  -23.6283   -8.2241   22.0752 C   0  0  0  0  0  0
  -22.4269   -8.0275   21.3542 C   0  0  0  0  0  0
  -21.9901   -9.0249   20.4645 C   0  0  0  0  0  0
  -22.7223  -10.2132   20.3054 C   0  0  0  0  0  0
  -21.6851   -6.0730   22.5274 C   0  0  0  0  0  0
  -21.4014   -6.5635   23.8207 C   0  0  0  0  0  0
  -21.3662   -5.6789   24.9172 C   0  0  0  0  0  0
  -21.6044   -4.3053   24.7224 C   0  0  0  0  0  0
  -21.8819   -3.8145   23.4346 C   0  0  0  0  0  0
  -21.9194   -4.6958   22.3398 C   0  0  0  0  0  0
  -22.7861  -13.5239   21.1848 C   0  0  0  0  0  0
  -22.1662   -4.2143   21.0977 F   0  0  0  0  0  0
  -21.5632   -3.4538   25.7738 F   0  0  0  0  0  0
  -30.0295  -13.3205   20.4372 N   0  0  0  0  0  0
  -26.3007  -12.9322   20.3345 N   0  0  0  0  0  0
  -25.9315  -11.6485   20.5763 N   0  0  0  0  0  0
  -22.0499  -12.8233   22.0404 N   0  0  0  0  0  0
  -25.4304  -15.1878   20.4076 N   0  0  0  0  0  0
  -31.8302  -14.6693   20.1210 O   0  0  0  0  0  0
  -21.6638   -6.8874   21.4236 O   0  0  0  0  0  0
  -22.3551  -14.5548   20.6698 O   0  0  0  0  0  0
  -24.6167  -31.8667   23.2092 C   0  0  0  0  0  0
  -25.9054  -32.4815   23.8397 C   0  0  1  0  0  0
  -27.2348  -27.4182   20.1036 C   0  0  0  0  0  0
  -25.5904  -33.8615   24.2318 N   0  0  0  0  0  0
  -23.4061  -30.4894   21.5494 C   0  0  2  0  0  0
  -24.8547  -28.9516   20.1178 C   0  0  0  0  0  0
  -22.7418  -29.4656   22.4982 C   0  0  0  0  0  0
  -18.0269  -28.1376   22.8498 C   0  0  0  0  0  0
  -24.1482  -36.7309   23.2630 C   0  0  0  0  0  0
  -25.9367  -30.8281   21.3646 C   0  0  0  0  0  0
  -26.0167  -29.4601   20.7137 C   0  0  0  0  0  0
  -27.2136  -28.7019   20.7010 C   0  0  0  0  0  0
  -26.0568  -26.9276   19.5027 C   0  0  0  0  0  0
  -24.8697  -27.6840   19.5099 C   0  0  0  0  0  0
  -23.6171  -29.8204   20.1654 C   0  0  0  0  0  0
  -25.4100  -36.3103   24.0331 C   0  0  1  0  0  0
  -20.5861  -28.3672   23.1310 C   0  0  2  0  0  0
  -20.6758  -26.9408   22.5412 C   0  0  0  0  0  0
  -19.5735  -26.6389   21.5213 C   0  0  0  0  0  0
  -18.1913  -26.7923   22.1627 C   0  0  0  0  0  0
  -19.1520  -28.8840   23.2901 C   0  0  0  0  0  0
  -18.9448  -30.1445   23.8917 C   0  0  0  0  0  0
  -17.6452  -30.6589   24.0566 C   0  0  0  0  0  0
  -25.9044  -34.9472   23.5121 C   0  0  0  0  0  0
  -16.5343  -29.9092   23.6327 C   0  0  0  0  0  0
  -16.7259  -28.6506   23.0359 C   0  0  0  0  0  0
  -26.4479  -31.6597   25.0731 C   0  0  0  0  0  0
  -25.3746  -31.3707   26.1483 C   0  0  0  0  0  0
  -27.0303  -30.3034   24.6118 C   0  0  0  0  0  0
  -27.6063  -32.4312   25.7486 C   0  0  0  0  0  0
  -27.5593  -37.1777   24.8444 C   0  0  0  0  0  0
  -21.4143  -29.3040   22.3720 N   0  0  0  0  0  0
  -26.4272  -37.3805   23.9443 N   0  0  0  0  0  0
  -24.6713  -31.0757   22.0996 N   0  0  0  0  0  0
  -23.4178  -28.8201   23.3036 O   0  0  0  0  0  0
  -28.3740  -26.6390   20.0839 O   0  0  0  0  0  0
  -26.5614  -34.8926   22.4687 O   0  0  0  0  0  0
  -23.5356  -32.1429   23.7477 O   0  0  0  0  0  0
  -31.3536  -18.9170   20.9853 C   0  0  0  0  0  0
  -30.0767  -19.4578   21.0589 C   0  0  0  0  0  0
  -30.1604  -16.9511   20.9607 C   0  0  0  0  0  0
  -28.2935  -25.4167   20.7259 C   0  0  0  0  0  0
  -28.8132  -24.2582   20.2478 C   0  0  0  0  0  0
  -28.6993  -22.9799   21.0379 C   0  0  0  0  0  0
  -29.0402  -21.5757   20.3953 C   0  0  0  0  0  0
  -32.6853  -19.6414   20.9708 C   0  0  0  0  0  0
  -31.3737  -17.5065   20.9263 N   0  0  0  0  0  0
  -29.7233  -20.7694   21.2383 N   0  0  0  0  0  0
  -29.9157  -15.5391   20.9849 N   0  0  0  0  0  0
  -28.3350  -22.9972   22.2209 O   0  0  0  0  0  0
  -28.6841  -21.2387   19.2601 O   0  0  0  0  0  0
  -29.4441  -24.2435   19.0640 O   0  0  0  0  0  0
  -32.5500  -20.9667   21.0391 F   0  0  0  0  0  0
  -33.4454  -19.2701   22.0024 F   0  0  0  0  0  0
  -33.3663  -19.3726   19.8555 F   0  0  0  0  0  0
  -28.8781  -18.1640   21.0372 S   0  0  0  0  0  0
  -31.4709  -12.4253   19.1271 H   0  0  0  0  0  0
  -30.3342  -11.3176   19.8418 H   0  0  0  0  0  0
  -29.7426  -11.7659   17.4413 H   0  0  0  0  0  0
  -29.6592  -13.4800   17.7597 H   0  0  0  0  0  0
  -27.8367  -11.3013   18.8311 H   0  0  0  0  0  0
  -27.3672  -12.6174   17.7884 H   0  0  0  0  0  0
  -27.6938  -14.2502   19.5577 H   0  0  0  0  0  0
  -28.6863  -11.9774   21.3486 H   0  0  0  0  0  0
  -28.4621  -13.6198   21.8656 H   0  0  0  0  0  0
  -25.2751   -9.5689   22.4752 H   0  0  0  0  0  0
  -23.9997   -7.4636   22.7474 H   0  0  0  0  0  0
  -21.0833   -8.8762   19.8950 H   0  0  0  0  0  0
  -22.3674  -10.9672   19.6166 H   0  0  0  0  0  0
  -21.2001   -7.6143   23.9707 H   0  0  0  0  0  0
  -21.1488   -6.0524   25.9075 H   0  0  0  0  0  0
  -22.0598   -2.7605   23.2848 H   0  0  0  0  0  0
  -22.4114  -11.9892   22.4787 H   0  0  0  0  0  0
  -21.1121  -13.1264   22.2611 H   0  0  0  0  0  0
  -24.6590  -15.8391   20.5048 H   0  0  0  0  0  0
  -26.2705  -15.6239   20.0505 H   0  0  0  0  0  0
  -26.7132  -32.5526   23.1168 H   0  0  0  0  0  0
  -25.0058  -33.9782   25.0463 H   0  0  0  0  0  0
  -22.6957  -31.3066   21.4076 H   0  0  0  0  0  0
  -23.3765  -35.9615   23.3234 H   0  0  0  0  0  0
  -24.3600  -36.8991   22.2060 H   0  0  0  0  0  0
  -23.7197  -37.6475   23.6691 H   0  0  0  0  0  0
  -26.0483  -31.5932   20.5951 H   0  0  0  0  0  0
  -26.8238  -30.8836   21.9834 H   0  0  0  0  0  0
  -28.1134  -29.0890   21.1584 H   0  0  0  0  0  0
  -26.0596  -25.9549   19.0308 H   0  0  0  0  0  0
  -23.9768  -27.2852   19.0490 H   0  0  0  0  0  0
  -23.7289  -30.5949   19.4058 H   0  0  0  0  0  0
  -22.7405  -29.2424   19.8678 H   0  0  0  0  0  0
  -25.1259  -36.1949   25.0818 H   0  0  0  0  0  0
  -20.9945  -28.3241   24.1432 H   0  0  0  0  0  0
  -20.5655  -26.2287   23.3603 H   0  0  0  0  0  0
  -21.6629  -26.7445   22.1207 H   0  0  0  0  0  0
  -19.6896  -25.6303   21.1236 H   0  0  0  0  0  0
  -19.6662  -27.3208   20.6747 H   0  0  0  0  0  0
  -17.4174  -26.6669   21.4037 H   0  0  0  0  0  0
  -18.0318  -26.0057   22.9016 H   0  0  0  0  0  0
  -19.7921  -30.7252   24.2299 H   0  0  0  0  0  0
  -17.5008  -31.6272   24.5162 H   0  0  0  0  0  0
  -15.5345  -30.3005   23.7646 H   0  0  0  0  0  0
  -15.8654  -28.0833   22.7076 H   0  0  0  0  0  0
  -24.5914  -30.7059   25.7823 H   0  0  0  0  0  0
  -24.8946  -32.2861   26.4951 H   0  0  0  0  0  0
  -25.8100  -30.8862   27.0232 H   0  0  0  0  0  0
  -26.2843  -29.6792   24.1181 H   0  0  0  0  0  0
  -27.4072  -29.7277   25.4583 H   0  0  0  0  0  0
  -27.8685  -30.4338   23.9265 H   0  0  0  0  0  0
  -27.2708  -33.3628   26.2054 H   0  0  0  0  0  0
  -28.3882  -32.6839   25.0309 H   0  0  0  0  0  0
  -28.0719  -31.8430   26.5405 H   0  0  0  0  0  0
  -28.2520  -38.0166   24.7642 H   0  0  0  0  0  0
  -28.1178  -36.2710   24.6069 H   0  0  0  0  0  0
  -27.2341  -37.1182   25.8846 H   0  0  0  0  0  0
  -20.9309  -29.8782   21.6956 H   0  0  0  0  0  0
  -26.0148  -38.2850   24.1553 H   0  0  0  0  0  0
  -27.7677  -25.4880   21.6701 H   0  0  0  0  0  0
  -29.9789  -21.2067   22.1153 H   0  0  0  0  0  0
  -28.9797  -15.2730   21.2452 H   0  0  0  0  0  0
  -29.4171  -25.1315   18.7298 H   0  0  0  0  0  0
  1 25  1  0  0  0
  1 30  2  0  0  0
  1 81  1  0  0  0
  2  3  1  0  0  0
  2 25  1  0  0  0
  2 89  1  0  0  0
  2 90  1  0  0  0
  3  4  1  0  0  0
  3 91  1  0  0  0
  3 92  1  0  0  0
  4  5  1  0  0  0
  4 93  1  0  0  0
  4 94  1  0  0  0
  5  6  1  0  0  0
  5 26  1  0  0  0
  5 95  1  0  0  0
  6 25  1  0  0  0
  6 96  1  0  0  0
  6 97  1  0  0  0
  7  8  2  0  0  0
  7 26  1  0  0  0
  7 29  1  0  0  0
  8  9  1  0  0  0
  8 22  1  0  0  0
  9 10  1  0  0  0
  9 27  2  0  0  0
 10 11  2  0  0  0
 10 15  1  0  0  0
 11 12  1  0  0  0
 11 98  1  0  0  0
 12 13  2  0  0  0
 12 99  1  0  0  0
 13 14  1  0  0  0
 13 31  1  0  0  0
 14 15  2  0  0  0
 14100  1  0  0  0
 15101  1  0  0  0
 16 17  2  0  0  0
 16 21  1  0  0  0
 16 31  1  0  0  0
 17 18  1  0  0  0
 17102  1  0  0  0
 18 19  2  0  0  0
 18103  1  0  0  0
 19 20  1  0  0  0
 19 24  1  0  0  0
 20 21  2  0  0  0
 20104  1  0  0  0
 21 23  1  0  0  0
 22 28  1  0  0  0
 22 32  2  0  0  0
 26 27  1  0  0  0
 28105  1  0  0  0
 28106  1  0  0  0
 29107  1  0  0  0
 29108  1  0  0  0
 33 34  1  0  0  0
 33 66  1  0  0  0
 33 70  2  0  0  0
 34 36  1  0  0  0
 34 59  1  0  0  0
 34109  1  0  0  0
 35 44  2  0  0  0
 35 45  1  0  0  0
 35 68  1  0  0  0
 36 56  1  0  0  0
 36110  1  0  0  0
 37 39  1  0  0  0
 37 47  1  0  0  0
 37 66  1  0  0  0
 37111  1  0  0  0
 38 43  2  0  0  0
 38 46  1  0  0  0
 38 47  1  0  0  0
 39 64  1  0  0  0
 39 67  2  0  0  0
 40 52  1  0  0  0
 40 53  2  0  0  0
 40 58  1  0  0  0
 41112  1  0  0  0
 41113  1  0  0  0
 41114  1  0  0  0
 41 48  1  0  0  0
 42 43  1  0  0  0
 42 66  1  0  0  0
 42115  1  0  0  0
 42116  1  0  0  0
 43 44  1  0  0  0
 44117  1  0  0  0
 45 46  2  0  0  0
 45118  1  0  0  0
 46119  1  0  0  0
 47120  1  0  0  0
 47121  1  0  0  0
 48 56  1  0  0  0
 48 65  1  0  0  0
 48122  1  0  0  0
 49 50  1  0  0  0
 49 53  1  0  0  0
 49 64  1  0  0  0
 49123  1  0  0  0
 50 51  1  0  0  0
 50124  1  0  0  0
 50125  1  0  0  0
 51 52  1  0  0  0
 51126  1  0  0  0
 51127  1  0  0  0
 52128  1  0  0  0
 52129  1  0  0  0
 53 54  1  0  0  0
 54 55  2  0  0  0
 54130  1  0  0  0
 55 57  1  0  0  0
 55131  1  0  0  0
 56 69  2  0  0  0
 57 58  2  0  0  0
 57132  1  0  0  0
 58133  1  0  0  0
 59 60  1  0  0  0
 59 61  1  0  0  0
 59 62  1  0  0  0
 60134  1  0  0  0
 60135  1  0  0  0
 60136  1  0  0  0
 61137  1  0  0  0
 61138  1  0  0  0
 61139  1  0  0  0
 62140  1  0  0  0
 62141  1  0  0  0
 62142  1  0  0  0
 63 65  1  0  0  0
 63143  1  0  0  0
 63144  1  0  0  0
 63145  1  0  0  0
 64146  1  0  0  0
 65147  1  0  0  0
 68 74  1  0  0  0
 71 72  2  0  0  0
 71 78  1  0  0  0
 71 79  1  0  0  0
 72 80  1  0  0  0
 72 88  1  0  0  0
 73 79  2  0  0  0
 73 81  1  0  0  0
 73 88  1  0  0  0
 74 75  2  0  0  0
 74148  1  0  0  0
 75 76  1  0  0  0
 75 84  1  0  0  0
 76 77  1  0  0  0
 76 82  2  0  0  0
 77 80  1  0  0  0
 77 83  2  0  0  0
 78 85  1  0  0  0
 78 86  1  0  0  0
 78 87  1  0  0  0
 80149  1  0  0  0
 81150  1  0  0  0
 84151  1  0  0  0
M  ISO  4   1 100  68 101  74 101  81 100
M  END
> <chiral flag>
0

> <version>
0

> <s_m_source_file>
/data/baiqing/PycharmProjects/Reinvent-master-3.2/result/LINK_invent/BTK/process_docking_weight1_custom_product_contain_oxygen_bond_distance_aromatic_linkinvent_7_9_3/rearranged_h_0176.sdf

> <i_m_source_file_index>
37

> <r_mmod_Potential_Energy-OPLS-2005>
87.7390670776367

> <r_mmod_Stretch_Energy-OPLS-2005>
44.7332649230957

> <r_mmod_Bend_Energy-OPLS-2005>
108.113059997559

> <r_mmod_Torsional_Energy-OPLS-2005>
234.879196166992

> <r_mmod_Improper_Torsional_Energy-OPLS-2005>
4.63821506500244

> <r_mmod_Van_der_Waal_Energy-OPLS-2005>
127.070426940918

> <r_mmod_Electrostatic_Energy-OPLS-2005>
-206.955642700195

> <r_mmod_Solvation_Energy-OPLS-2005>
-241.83447265625

> <b_mmod_Minimization_Converged-OPLS-2005>
0

> <r_mmod_RMS_Derivative-OPLS-2005>
0.760016798973083

$$$$
37
                    3D
 Structure written by MMmdl.
149157  0  0  1  0            999 V2000
  -30.6583  -14.6015   20.4921 C   0  0  0  0  0  0
  -30.4270  -12.3654   19.4539 C   0  0  0  0  0  0
  -29.5050  -12.4979   18.2229 C   0  0  0  0  0  0
  -28.0274  -12.3449   18.6334 C   0  0  0  0  0  0
  -27.6527  -13.2178   19.8617 C   0  0  2  0  0  0
  -28.6960  -13.0799   20.9936 C   0  0  0  0  0  0
  -25.2556  -13.8176   20.5682 C   0  0  0  0  0  0
  -24.1823  -13.0439   20.9186 C   0  0  0  0  0  0
  -24.6393  -11.6912   20.8732 C   0  0  0  0  0  0
  -23.9063  -10.4295   21.0401 C   0  0  0  0  0  0
  -24.3616   -9.4210   21.9178 C   0  0  0  0  0  0
  -23.6290   -8.2247   22.0751 C   0  0  0  0  0  0
  -22.4272   -8.0284   21.3547 C   0  0  0  0  0  0
  -21.9907   -9.0256   20.4650 C   0  0  0  0  0  0
  -22.7234  -10.2134   20.3053 C   0  0  0  0  0  0
  -21.6855   -6.0733   22.5278 C   0  0  0  0  0  0
  -21.4017   -6.5634   23.8211 C   0  0  0  0  0  0
  -21.3661   -5.6788   24.9174 C   0  0  0  0  0  0
  -21.6044   -4.3051   24.7225 C   0  0  0  0  0  0
  -21.8819   -3.8143   23.4347 C   0  0  0  0  0  0
  -21.9194   -4.6961   22.3403 C   0  0  0  0  0  0
  -22.7844  -13.5231   21.1847 C   0  0  0  0  0  0
  -22.1661   -4.2144   21.0982 F   0  0  0  0  0  0
  -21.5631   -3.4538   25.7739 F   0  0  0  0  0  0
  -30.0146  -13.3962   20.4264 N   0  0  0  0  0  0
  -26.2985  -12.9360   20.3312 N   0  0  0  0  0  0
  -25.9323  -11.6513   20.5749 N   0  0  0  0  0  0
  -22.0488  -12.8229   22.0411 N   0  0  0  0  0  0
  -25.4261  -15.1899   20.4096 N   0  0  0  0  0  0
  -31.8313  -14.7163   20.1285 O   0  0  0  0  0  0
  -21.6640   -6.8878   21.4241 O   0  0  0  0  0  0
  -22.3530  -14.5538   20.6698 O   0  0  0  0  0  0
  -24.6221  -31.8625   23.2045 C   0  0  0  0  0  0
  -25.9085  -32.4791   23.8364 C   0  0  1  0  0  0
  -27.2304  -27.3666   20.1102 C   0  0  0  0  0  0
  -25.5919  -33.8587   24.2299 N   0  0  0  0  0  0
  -23.4152  -30.4842   21.5458 C   0  0  2  0  0  0
  -24.8653  -28.9447   20.1095 C   0  0  0  0  0  0
  -22.7460  -29.4622   22.4946 C   0  0  0  0  0  0
  -18.0284  -28.1380   22.8487 C   0  0  0  0  0  0
  -24.1489  -36.7296   23.2638 C   0  0  0  0  0  0
  -25.9513  -30.8077   21.3690 C   0  0  0  0  0  0
  -26.0306  -29.4380   20.7132 C   0  0  0  0  0  0
  -27.2200  -28.6569   20.7104 C   0  0  0  0  0  0
  -26.0509  -26.9099   19.4905 C   0  0  0  0  0  0
  -24.8740  -27.6832   19.4902 C   0  0  0  0  0  0
  -23.6290  -29.8178   20.1607 C   0  0  0  0  0  0
  -25.4109  -36.3085   24.0336 C   0  0  1  0  0  0
  -20.5883  -28.3672   23.1298 C   0  0  2  0  0  0
  -20.6769  -26.9398   22.5415 C   0  0  0  0  0  0
  -19.5745  -26.6383   21.5213 C   0  0  0  0  0  0
  -18.1925  -26.7927   22.1622 C   0  0  0  0  0  0
  -19.1536  -28.8843   23.2890 C   0  0  0  0  0  0
  -18.9458  -30.1451   23.8896 C   0  0  0  0  0  0
  -17.6456  -30.6583   24.0559 C   0  0  0  0  0  0
  -25.9040  -34.9456   23.5114 C   0  0  0  0  0  0
  -16.5348  -29.9076   23.6330 C   0  0  0  0  0  0
  -16.7272  -28.6497   23.0346 C   0  0  0  0  0  0
  -26.4491  -31.6584   25.0715 C   0  0  0  0  0  0
  -25.3746  -31.3711   26.1458 C   0  0  0  0  0  0
  -27.0326  -30.3016   24.6133 C   0  0  0  0  0  0
  -27.6064  -32.4307   25.7477 C   0  0  0  0  0  0
  -27.5582  -37.1799   24.8463 C   0  0  0  0  0  0
  -21.4177  -29.3030   22.3694 N   0  0  0  0  0  0
  -26.4291  -37.3778   23.9412 N   0  0  0  0  0  0
  -24.6811  -31.0667   22.0975 N   0  0  0  0  0  0
  -23.4200  -28.8163   23.3010 O   0  0  0  0  0  0
  -28.3137  -26.4958   20.1455 O   0  0  0  0  0  0
  -26.5603  -34.8918   22.4675 O   0  0  0  0  0  0
  -23.5394  -32.1399   23.7402 O   0  0  0  0  0  0
  -31.3565  -17.6412   20.2195 C   0  0  0  0  0  0
  -30.1586  -17.0385   20.5504 C   0  0  0  0  0  0
  -30.0729  -19.5717   20.0804 C   0  0  0  0  0  0
  -28.2504  -25.5332   21.1505 C   0  0  0  0  0  0
  -29.7605  -20.9766   19.5876 C   0  0  0  0  0  0
  -28.5483  -24.1911   21.1592 C   0  0  0  0  0  0
  -29.0376  -23.3756   20.0227 C   0  0  0  0  0  0
  -31.2883  -19.0186   19.9400 N   0  0  0  0  0  0
  -30.1432  -21.1182   18.3627 N   0  0  0  0  0  0
  -29.8896  -15.6963   20.7840 N   0  0  0  0  0  0
  -29.2216  -22.0502   20.3528 N   0  0  0  0  0  0
  -29.2592  -23.8506   18.9047 O   0  0  0  0  0  0
  -28.3738  -23.5455   22.3269 O   0  0  0  0  0  0
  -28.9162  -18.3171   20.6198 S   0  0  0  0  0  0
  -31.4720  -12.4653   19.1546 H   0  0  0  0  0  0
  -30.3381  -11.3715   19.8958 H   0  0  0  0  0  0
  -29.7644  -11.7476   17.4748 H   0  0  0  0  0  0
  -29.6585  -13.4684   17.7482 H   0  0  0  0  0  0
  -27.8599  -11.2920   18.8635 H   0  0  0  0  0  0
  -27.3752  -12.5791   17.7913 H   0  0  0  0  0  0
  -27.6709  -14.2522   19.5176 H   0  0  0  0  0  0
  -28.6959  -12.0652   21.3952 H   0  0  0  0  0  0
  -28.4503  -13.7337   21.8319 H   0  0  0  0  0  0
  -25.2765   -9.5684   22.4747 H   0  0  0  0  0  0
  -24.0003   -7.4638   22.7467 H   0  0  0  0  0  0
  -21.0840   -8.8777   19.8955 H   0  0  0  0  0  0
  -22.3697  -10.9672   19.6159 H   0  0  0  0  0  0
  -21.2011   -7.6143   23.9712 H   0  0  0  0  0  0
  -21.1482   -6.0520   25.9075 H   0  0  0  0  0  0
  -22.0598   -2.7606   23.2850 H   0  0  0  0  0  0
  -22.4102  -11.9894   22.4805 H   0  0  0  0  0  0
  -21.1107  -13.1257   22.2616 H   0  0  0  0  0  0
  -24.6560  -15.8414   20.5161 H   0  0  0  0  0  0
  -26.2711  -15.6317   20.0710 H   0  0  0  0  0  0
  -26.7154  -32.5483   23.1120 H   0  0  0  0  0  0
  -25.0091  -33.9737   25.0459 H   0  0  0  0  0  0
  -22.7070  -31.3029   21.4036 H   0  0  0  0  0  0
  -23.3745  -35.9635   23.3304 H   0  0  0  0  0  0
  -24.3584  -36.8904   22.2051 H   0  0  0  0  0  0
  -23.7251  -37.6507   23.6649 H   0  0  0  0  0  0
  -26.0755  -31.5727   20.6010 H   0  0  0  0  0  0
  -26.8346  -30.8594   21.9942 H   0  0  0  0  0  0
  -28.1152  -29.0241   21.1926 H   0  0  0  0  0  0
  -26.0395  -25.9329   19.0283 H   0  0  0  0  0  0
  -23.9806  -27.2979   19.0183 H   0  0  0  0  0  0
  -23.7414  -30.5938   19.4025 H   0  0  0  0  0  0
  -22.7512  -29.2419   19.8619 H   0  0  0  0  0  0
  -25.1286  -36.1944   25.0831 H   0  0  0  0  0  0
  -20.9987  -28.3246   24.1415 H   0  0  0  0  0  0
  -20.5667  -26.2274   23.3606 H   0  0  0  0  0  0
  -21.6637  -26.7429   22.1206 H   0  0  0  0  0  0
  -19.6895  -25.6295   21.1239 H   0  0  0  0  0  0
  -19.6688  -27.3198   20.6748 H   0  0  0  0  0  0
  -17.4196  -26.6676   21.4024 H   0  0  0  0  0  0
  -18.0316  -26.0077   22.9025 H   0  0  0  0  0  0
  -19.7934  -30.7272   24.2258 H   0  0  0  0  0  0
  -17.5008  -31.6263   24.5157 H   0  0  0  0  0  0
  -15.5345  -30.2969   23.7661 H   0  0  0  0  0  0
  -15.8676  -28.0818   22.7053 H   0  0  0  0  0  0
  -24.5916  -30.7060   25.7796 H   0  0  0  0  0  0
  -24.8941  -32.2872   26.4901 H   0  0  0  0  0  0
  -25.8090  -30.8883   27.0220 H   0  0  0  0  0  0
  -26.2881  -29.6770   24.1181 H   0  0  0  0  0  0
  -27.4069  -29.7265   25.4611 H   0  0  0  0  0  0
  -27.8729  -30.4312   23.9310 H   0  0  0  0  0  0
  -27.2687  -33.3604   26.2069 H   0  0  0  0  0  0
  -28.3865  -32.6872   25.0298 H   0  0  0  0  0  0
  -28.0742  -31.8423   26.5380 H   0  0  0  0  0  0
  -28.2599  -38.0097   24.7515 H   0  0  0  0  0  0
  -28.1081  -36.2630   24.6281 H   0  0  0  0  0  0
  -27.2301  -37.1444   25.8867 H   0  0  0  0  0  0
  -20.9342  -29.8754   21.6917 H   0  0  0  0  0  0
  -26.0175  -38.2854   24.1417 H   0  0  0  0  0  0
  -32.3199  -17.1635   20.1107 H   0  0  0  0  0  0
  -27.8956  -25.9997   22.0606 H   0  0  0  0  0  0
  -30.5558  -20.2276   18.0802 H   0  0  0  0  0  0
  -28.9451  -15.4783   21.0633 H   0  0  0  0  0  0
  -28.9796  -21.8563   21.3156 H   0  0  0  0  0  0
  -28.0634  -24.1782   22.9616 H   0  0  0  0  0  0
  1 25  1  0  0  0
  1 30  2  0  0  0
  1 80  1  0  0  0
  2  3  1  0  0  0
  2 25  1  0  0  0
  2 85  1  0  0  0
  2 86  1  0  0  0
  3  4  1  0  0  0
  3 87  1  0  0  0
  3 88  1  0  0  0
  4  5  1  0  0  0
  4 89  1  0  0  0
  4 90  1  0  0  0
  5  6  1  0  0  0
  5 26  1  0  0  0
  5 91  1  0  0  0
  6 25  1  0  0  0
  6 92  1  0  0  0
  6 93  1  0  0  0
  7  8  2  0  0  0
  7 26  1  0  0  0
  7 29  1  0  0  0
  8  9  1  0  0  0
  8 22  1  0  0  0
  9 10  1  0  0  0
  9 27  2  0  0  0
 10 11  2  0  0  0
 10 15  1  0  0  0
 11 12  1  0  0  0
 11 94  1  0  0  0
 12 13  2  0  0  0
 12 95  1  0  0  0
 13 14  1  0  0  0
 13 31  1  0  0  0
 14 15  2  0  0  0
 14 96  1  0  0  0
 15 97  1  0  0  0
 16 17  2  0  0  0
 16 21  1  0  0  0
 16 31  1  0  0  0
 17 18  1  0  0  0
 17 98  1  0  0  0
 18 19  2  0  0  0
 18 99  1  0  0  0
 19 20  1  0  0  0
 19 24  1  0  0  0
 20 21  2  0  0  0
 20100  1  0  0  0
 21 23  1  0  0  0
 22 28  1  0  0  0
 22 32  2  0  0  0
 26 27  1  0  0  0
 28101  1  0  0  0
 28102  1  0  0  0
 29103  1  0  0  0
 29104  1  0  0  0
 33 34  1  0  0  0
 33 66  1  0  0  0
 33 70  2  0  0  0
 34 36  1  0  0  0
 34 59  1  0  0  0
 34105  1  0  0  0
 35 44  2  0  0  0
 35 45  1  0  0  0
 35 68  1  0  0  0
 36 56  1  0  0  0
 36106  1  0  0  0
 37 39  1  0  0  0
 37 47  1  0  0  0
 37 66  1  0  0  0
 37107  1  0  0  0
 38 43  2  0  0  0
 38 46  1  0  0  0
 38 47  1  0  0  0
 39 64  1  0  0  0
 39 67  2  0  0  0
 40 52  1  0  0  0
 40 53  2  0  0  0
 40 58  1  0  0  0
 41108  1  0  0  0
 41109  1  0  0  0
 41110  1  0  0  0
 41 48  1  0  0  0
 42 43  1  0  0  0
 42 66  1  0  0  0
 42111  1  0  0  0
 42112  1  0  0  0
 43 44  1  0  0  0
 44113  1  0  0  0
 45 46  2  0  0  0
 45114  1  0  0  0
 46115  1  0  0  0
 47116  1  0  0  0
 47117  1  0  0  0
 48 56  1  0  0  0
 48 65  1  0  0  0
 48118  1  0  0  0
 49 50  1  0  0  0
 49 53  1  0  0  0
 49 64  1  0  0  0
 49119  1  0  0  0
 50 51  1  0  0  0
 50120  1  0  0  0
 50121  1  0  0  0
 51 52  1  0  0  0
 51122  1  0  0  0
 51123  1  0  0  0
 52124  1  0  0  0
 52125  1  0  0  0
 53 54  1  0  0  0
 54 55  2  0  0  0
 54126  1  0  0  0
 55 57  1  0  0  0
 55127  1  0  0  0
 56 69  2  0  0  0
 57 58  2  0  0  0
 57128  1  0  0  0
 58129  1  0  0  0
 59 60  1  0  0  0
 59 61  1  0  0  0
 59 62  1  0  0  0
 60130  1  0  0  0
 60131  1  0  0  0
 60132  1  0  0  0
 61133  1  0  0  0
 61134  1  0  0  0
 61135  1  0  0  0
 62136  1  0  0  0
 62137  1  0  0  0
 62138  1  0  0  0
 63 65  1  0  0  0
 63139  1  0  0  0
 63140  1  0  0  0
 63141  1  0  0  0
 64142  1  0  0  0
 65143  1  0  0  0
 68 74  1  0  0  0
 71 72  2  0  0  0
 71 78  1  0  0  0
 71144  1  0  0  0
 72 80  1  0  0  0
 72 84  1  0  0  0
 73 75  1  0  0  0
 73 78  2  0  0  0
 73 84  1  0  0  0
 74 76  2  0  0  0
 74145  1  0  0  0
 75 79  2  0  0  0
 75 81  1  0  0  0
 76 77  1  0  0  0
 76 83  1  0  0  0
 77 81  1  0  0  0
 77 82  2  0  0  0
 79146  1  0  0  0
 80147  1  0  0  0
 81148  1  0  0  0
 83149  1  0  0  0
M  ISO  4   1 100  68 101  74 101  80 100
M  END
> <chiral flag>
0

> <version>
0

> <s_m_source_file>
/data/baiqing/PycharmProjects/Reinvent-master-3.2/result/LINK_invent/BTK/process_docking_weight1_custom_product_contain_oxygen_bond_distance_aromatic_linkinvent_7_9_3/rearranged_h_0176.sdf

> <i_m_source_file_index>
38

> <r_mmod_Potential_Energy-OPLS-2005>
-79.7567977905273

> <r_mmod_Stretch_Energy-OPLS-2005>
62.0695953369141

> <r_mmod_Bend_Energy-OPLS-2005>
149.053024291992

> <r_mmod_Torsional_Energy-OPLS-2005>
230.681381225586

> <r_mmod_Improper_Torsional_Energy-OPLS-2005>
6.666015625

> <r_mmod_Van_der_Waal_Energy-OPLS-2005>
137.885284423828

> <r_mmod_Electrostatic_Energy-OPLS-2005>
-427.635345458984

> <r_mmod_Solvation_Energy-OPLS-2005>
-276.580505371094

> <b_mmod_Minimization_Converged-OPLS-2005>
0

> <r_mmod_RMS_Derivative-OPLS-2005>
0.761128187179565

$$$$
38
                    3D
 Structure written by MMmdl.
155163  0  0  1  0            999 V2000
  -30.6358  -14.7304   20.4392 C   0  0  0  0  0  0
  -30.4373  -12.4413   19.4868 C   0  0  0  0  0  0
  -29.5200  -12.4906   18.2462 C   0  0  0  0  0  0
  -28.0399  -12.3397   18.6511 C   0  0  0  0  0  0
  -27.6494  -13.2390   19.8568 C   0  0  2  0  0  0
  -28.6916  -13.1738   20.9931 C   0  0  0  0  0  0
  -25.2523  -13.8220   20.5750 C   0  0  0  0  0  0
  -24.1808  -13.0443   20.9237 C   0  0  0  0  0  0
  -24.6427  -11.6935   20.8783 C   0  0  0  0  0  0
  -23.9111  -10.4283   21.0421 C   0  0  0  0  0  0
  -24.3644   -9.4191   21.9205 C   0  0  0  0  0  0
  -23.6325   -8.2216   22.0768 C   0  0  0  0  0  0
  -22.4293   -8.0296   21.3552 C   0  0  0  0  0  0
  -21.9928   -9.0271   20.4648 C   0  0  0  0  0  0
  -22.7275  -10.2147   20.3068 C   0  0  0  0  0  0
  -21.6833   -6.0772   22.5288 C   0  0  0  0  0  0
  -21.4021   -6.5665   23.8239 C   0  0  0  0  0  0
  -21.3666   -5.6798   24.9183 C   0  0  0  0  0  0
  -21.6043   -4.3067   24.7204 C   0  0  0  0  0  0
  -21.8807   -3.8181   23.4318 C   0  0  0  0  0  0
  -21.9168   -4.6999   22.3391 C   0  0  0  0  0  0
  -22.7817  -13.5239   21.1844 C   0  0  0  0  0  0
  -22.1625   -4.2199   21.0963 F   0  0  0  0  0  0
  -21.5610   -3.4547   25.7716 F   0  0  0  0  0  0
  -30.0029  -13.5082   20.4165 N   0  0  0  0  0  0
  -26.2969  -12.9455   20.3325 N   0  0  0  0  0  0
  -25.9376  -11.6583   20.5818 N   0  0  0  0  0  0
  -22.0391  -12.8292   22.0378 N   0  0  0  0  0  0
  -25.4141  -15.1958   20.4160 N   0  0  0  0  0  0
  -31.8129  -14.8133   20.0742 O   0  0  0  0  0  0
  -21.6633   -6.8923   21.4259 O   0  0  0  0  0  0
  -22.3543  -14.5556   20.6675 O   0  0  0  0  0  0
  -24.6295  -31.8567   23.2009 C   0  0  0  0  0  0
  -25.9123  -32.4774   23.8347 C   0  0  1  0  0  0
  -27.2242  -27.2748   20.1351 C   0  0  0  0  0  0
  -25.5925  -33.8572   24.2272 N   0  0  0  0  0  0
  -23.4263  -30.4810   21.5438 C   0  0  2  0  0  0
  -24.8733  -28.9303   20.1119 C   0  0  0  0  0  0
  -22.7508  -29.4603   22.4900 C   0  0  0  0  0  0
  -18.0312  -28.1391   22.8475 C   0  0  0  0  0  0
  -24.1491  -36.7295   23.2635 C   0  0  0  0  0  0
  -25.9694  -30.7743   21.3792 C   0  0  0  0  0  0
  -26.0418  -29.3960   20.7266 C   0  0  0  0  0  0
  -27.2153  -28.5795   20.7324 C   0  0  0  0  0  0
  -26.0325  -26.8824   19.4790 C   0  0  0  0  0  0
  -24.8715  -27.6800   19.4796 C   0  0  0  0  0  0
  -23.6460  -29.8181   20.1589 C   0  0  0  0  0  0
  -25.4109  -36.3074   24.0320 C   0  0  1  0  0  0
  -20.5912  -28.3718   23.1258 C   0  0  2  0  0  0
  -20.6808  -26.9436   22.5408 C   0  0  0  0  0  0
  -19.5772  -26.6380   21.5224 C   0  0  0  0  0  0
  -18.1943  -26.7936   22.1626 C   0  0  0  0  0  0
  -19.1558  -28.8873   23.2863 C   0  0  0  0  0  0
  -18.9480  -30.1460   23.8882 C   0  0  0  0  0  0
  -17.6479  -30.6594   24.0566 C   0  0  0  0  0  0
  -25.9053  -34.9449   23.5108 C   0  0  0  0  0  0
  -16.5374  -29.9086   23.6324 C   0  0  0  0  0  0
  -16.7294  -28.6514   23.0335 C   0  0  0  0  0  0
  -26.4493  -31.6591   25.0735 C   0  0  0  0  0  0
  -25.3708  -31.3768   26.1461 C   0  0  0  0  0  0
  -27.0345  -30.3008   24.6196 C   0  0  0  0  0  0
  -27.6043  -32.4326   25.7520 C   0  0  0  0  0  0
  -27.5569  -37.1803   24.8454 C   0  0  0  0  0  0
  -21.4224  -29.3057   22.3640 N   0  0  0  0  0  0
  -26.4283  -37.3772   23.9414 N   0  0  0  0  0  0
  -24.6945  -31.0546   22.0984 N   0  0  0  0  0  0
  -23.4210  -28.8138   23.3000 O   0  0  0  0  0  0
  -28.3277  -26.3948   20.2283 O   0  0  0  0  0  0
  -26.5608  -34.8918   22.4670 O   0  0  0  0  0  0
  -23.5450  -32.1374   23.7316 O   0  0  0  0  0  0
  -30.7466  -18.6660   18.2512 C   0  0  0  0  0  0
  -30.5916  -17.3690   18.8657 C   0  0  0  0  0  0
  -30.4108  -19.7688   18.9390 C   0  0  0  0  0  0
  -30.0933  -17.2186   20.1184 C   0  0  0  0  0  0
  -29.6735  -18.4804   20.8566 C   0  0  0  0  0  0
  -28.9560  -23.8396   20.6587 C   0  0  0  0  0  0
  -31.1427  -21.4865   21.4685 C   0  0  0  0  0  0
  -29.0720  -22.3415   20.0938 C   0  0  0  0  0  0
  -28.1854  -24.9579   19.8206 C   0  0  0  0  0  0
  -29.7396  -21.1062   20.9282 C   0  0  1  0  0  0
  -29.8769  -19.7325   20.2420 N   0  0  0  0  0  0
  -29.8909  -15.8764   20.6588 N   0  0  0  0  0  0
  -29.1757  -18.4106   21.9857 O   0  0  0  0  0  0
  -29.4270  -24.1298   21.7610 O   0  0  0  0  0  0
  -31.4786  -12.5499   19.1793 H   0  0  0  0  0  0
  -30.3841  -11.4708   19.9830 H   0  0  0  0  0  0
  -29.7956  -11.6911   17.5554 H   0  0  0  0  0  0
  -29.6689  -13.4255   17.7021 H   0  0  0  0  0  0
  -27.8729  -11.2942   18.9049 H   0  0  0  0  0  0
  -27.3961  -12.5516   17.8003 H   0  0  0  0  0  0
  -27.6451  -14.2630   19.4812 H   0  0  0  0  0  0
  -28.7094  -12.1816   21.4436 H   0  0  0  0  0  0
  -28.4301  -13.8606   21.8011 H   0  0  0  0  0  0
  -25.2763   -9.5661   22.4827 H   0  0  0  0  0  0
  -24.0000   -7.4609   22.7512 H   0  0  0  0  0  0
  -21.0831   -8.8835   19.8982 H   0  0  0  0  0  0
  -22.3730  -10.9719   19.6217 H   0  0  0  0  0  0
  -21.2043   -7.6182   23.9776 H   0  0  0  0  0  0
  -21.1490   -6.0513   25.9099 H   0  0  0  0  0  0
  -22.0579   -2.7654   23.2793 H   0  0  0  0  0  0
  -22.3968  -12.0066   22.4961 H   0  0  0  0  0  0
  -21.1005  -13.1439   22.2504 H   0  0  0  0  0  0
  -24.6481  -15.8462   20.5510 H   0  0  0  0  0  0
  -26.2526  -15.6403   20.0665 H   0  0  0  0  0  0
  -26.7186  -32.5439   23.1098 H   0  0  0  0  0  0
  -25.0103  -33.9725   25.0427 H   0  0  0  0  0  0
  -22.7196  -31.3016   21.4006 H   0  0  0  0  0  0
  -23.3753  -35.9634   23.3289 H   0  0  0  0  0  0
  -24.3592  -36.8924   22.2057 H   0  0  0  0  0  0
  -23.7254  -37.6494   23.6664 H   0  0  0  0  0  0
  -26.0984  -31.5283   20.6022 H   0  0  0  0  0  0
  -26.8532  -30.8316   22.0041 H   0  0  0  0  0  0
  -28.1051  -28.9293   21.2372 H   0  0  0  0  0  0
  -25.9530  -25.9392   18.9618 H   0  0  0  0  0  0
  -23.9781  -27.3209   18.9883 H   0  0  0  0  0  0
  -23.7770  -30.5981   19.4073 H   0  0  0  0  0  0
  -22.7652  -29.2535   19.8476 H   0  0  0  0  0  0
  -25.1296  -36.1926   25.0808 H   0  0  0  0  0  0
  -21.0000  -28.3324   24.1384 H   0  0  0  0  0  0
  -20.5766  -26.2332   23.3618 H   0  0  0  0  0  0
  -21.6672  -26.7495   22.1172 H   0  0  0  0  0  0
  -19.6959  -25.6283   21.1258 H   0  0  0  0  0  0
  -19.6715  -27.3193   20.6746 H   0  0  0  0  0  0
  -17.4233  -26.6679   21.4004 H   0  0  0  0  0  0
  -18.0346  -26.0076   22.9020 H   0  0  0  0  0  0
  -19.7954  -30.7274   24.2246 H   0  0  0  0  0  0
  -17.5041  -31.6275   24.5170 H   0  0  0  0  0  0
  -15.5368  -30.2999   23.7651 H   0  0  0  0  0  0
  -15.8691  -28.0839   22.7035 H   0  0  0  0  0  0
  -24.5864  -30.7137   25.7801 H   0  0  0  0  0  0
  -24.8930  -32.2963   26.4842 H   0  0  0  0  0  0
  -25.8013  -30.8970   27.0257 H   0  0  0  0  0  0
  -26.2937  -29.6763   24.1196 H   0  0  0  0  0  0
  -27.4021  -29.7256   25.4700 H   0  0  0  0  0  0
  -27.8806  -30.4303   23.9451 H   0  0  0  0  0  0
  -27.2636  -33.3617   26.2096 H   0  0  0  0  0  0
  -28.3865  -32.6891   25.0369 H   0  0  0  0  0  0
  -28.0691  -31.8448   26.5444 H   0  0  0  0  0  0
  -28.2575  -38.0106   24.7506 H   0  0  0  0  0  0
  -28.1070  -36.2637   24.6273 H   0  0  0  0  0  0
  -27.2290  -37.1452   25.8853 H   0  0  0  0  0  0
  -20.9408  -29.8752   21.6813 H   0  0  0  0  0  0
  -26.0154  -38.2841   24.1428 H   0  0  0  0  0  0
  -31.1490  -18.7486   17.2496 H   0  0  0  0  0  0
  -30.8766  -16.5093   18.2759 H   0  0  0  0  0  0
  -30.5470  -20.7514   18.5253 H   0  0  0  0  0  0
  -31.1017  -22.3040   22.1861 H   0  0  0  0  0  0
  -31.8210  -21.7841   20.6676 H   0  0  0  0  0  0
  -31.6086  -20.6502   21.9927 H   0  0  0  0  0  0
  -29.6018  -22.4623   19.1530 H   0  0  0  0  0  0
  -28.0628  -22.0373   19.8150 H   0  0  0  0  0  0
  -27.1480  -24.6404   19.8787 H   0  0  0  0  0  0
  -28.4819  -24.8712   18.7767 H   0  0  0  0  0  0
  -29.0981  -20.9584   21.8013 H   0  0  0  0  0  0
  -29.0186  -15.7579   21.1531 H   0  0  0  0  0  0
  1 25  1  0  0  0
  1 30  2  0  0  0
  1 82  1  0  0  0
  2  3  1  0  0  0
  2 25  1  0  0  0
  2 85  1  0  0  0
  2 86  1  0  0  0
  3  4  1  0  0  0
  3 87  1  0  0  0
  3 88  1  0  0  0
  4  5  1  0  0  0
  4 89  1  0  0  0
  4 90  1  0  0  0
  5  6  1  0  0  0
  5 26  1  0  0  0
  5 91  1  0  0  0
  6 25  1  0  0  0
  6 92  1  0  0  0
  6 93  1  0  0  0
  7  8  2  0  0  0
  7 26  1  0  0  0
  7 29  1  0  0  0
  8  9  1  0  0  0
  8 22  1  0  0  0
  9 10  1  0  0  0
  9 27  2  0  0  0
 10 11  2  0  0  0
 10 15  1  0  0  0
 11 12  1  0  0  0
 11 94  1  0  0  0
 12 13  2  0  0  0
 12 95  1  0  0  0
 13 14  1  0  0  0
 13 31  1  0  0  0
 14 15  2  0  0  0
 14 96  1  0  0  0
 15 97  1  0  0  0
 16 17  2  0  0  0
 16 21  1  0  0  0
 16 31  1  0  0  0
 17 18  1  0  0  0
 17 98  1  0  0  0
 18 19  2  0  0  0
 18 99  1  0  0  0
 19 20  1  0  0  0
 19 24  1  0  0  0
 20 21  2  0  0  0
 20100  1  0  0  0
 21 23  1  0  0  0
 22 28  1  0  0  0
 22 32  2  0  0  0
 26 27  1  0  0  0
 28101  1  0  0  0
 28102  1  0  0  0
 29103  1  0  0  0
 29104  1  0  0  0
 33 34  1  0  0  0
 33 66  1  0  0  0
 33 70  2  0  0  0
 34 36  1  0  0  0
 34 59  1  0  0  0
 34105  1  0  0  0
 35 44  2  0  0  0
 35 45  1  0  0  0
 35 68  1  0  0  0
 36 56  1  0  0  0
 36106  1  0  0  0
 37 39  1  0  0  0
 37 47  1  0  0  0
 37 66  1  0  0  0
 37107  1  0  0  0
 38 43  2  0  0  0
 38 46  1  0  0  0
 38 47  1  0  0  0
 39 64  1  0  0  0
 39 67  2  0  0  0
 40 52  1  0  0  0
 40 53  2  0  0  0
 40 58  1  0  0  0
 41108  1  0  0  0
 41109  1  0  0  0
 41110  1  0  0  0
 41 48  1  0  0  0
 42 43  1  0  0  0
 42 66  1  0  0  0
 42111  1  0  0  0
 42112  1  0  0  0
 43 44  1  0  0  0
 44113  1  0  0  0
 45 46  2  0  0  0
 45114  1  0  0  0
 46115  1  0  0  0
 47116  1  0  0  0
 47117  1  0  0  0
 48 56  1  0  0  0
 48 65  1  0  0  0
 48118  1  0  0  0
 49 50  1  0  0  0
 49 53  1  0  0  0
 49 64  1  0  0  0
 49119  1  0  0  0
 50 51  1  0  0  0
 50120  1  0  0  0
 50121  1  0  0  0
 51 52  1  0  0  0
 51122  1  0  0  0
 51123  1  0  0  0
 52124  1  0  0  0
 52125  1  0  0  0
 53 54  1  0  0  0
 54 55  2  0  0  0
 54126  1  0  0  0
 55 57  1  0  0  0
 55127  1  0  0  0
 56 69  2  0  0  0
 57 58  2  0  0  0
 57128  1  0  0  0
 58129  1  0  0  0
 59 60  1  0  0  0
 59 61  1  0  0  0
 59 62  1  0  0  0
 60130  1  0  0  0
 60131  1  0  0  0
 60132  1  0  0  0
 61133  1  0  0  0
 61134  1  0  0  0
 61135  1  0  0  0
 62136  1  0  0  0
 62137  1  0  0  0
 62138  1  0  0  0
 63 65  1  0  0  0
 63139  1  0  0  0
 63140  1  0  0  0
 63141  1  0  0  0
 64142  1  0  0  0
 65143  1  0  0  0
 68 79  1  0  0  0
 71 72  1  0  0  0
 71 73  2  0  0  0
 71144  1  0  0  0
 72 74  2  0  0  0
 72145  1  0  0  0
 73 81  1  0  0  0
 73146  1  0  0  0
 74 75  1  0  0  0
 74 82  1  0  0  0
 75 81  1  0  0  0
 75 83  2  0  0  0
 76 78  1  0  0  0
 76 79  1  0  0  0
 76 84  2  0  0  0
 77147  1  0  0  0
 77148  1  0  0  0
 77149  1  0  0  0
 77 80  1  0  0  0
 78 80  1  0  0  0
 78150  1  0  0  0
 78151  1  0  0  0
 79152  1  0  0  0
 79153  1  0  0  0
 80 81  1  0  0  0
 80154  1  0  0  0
 82155  1  0  0  0
M  ISO  4   1 100  68 101  79 101  82 100
M  END
> <chiral flag>
0

> <version>
0

> <s_m_source_file>
/data/baiqing/PycharmProjects/Reinvent-master-3.2/result/LINK_invent/BTK/process_docking_weight1_custom_product_contain_oxygen_bond_distance_aromatic_linkinvent_7_9_3/rearranged_h_0176.sdf

> <i_m_source_file_index>
39

> <r_mmod_Potential_Energy-OPLS-2005>
175.026229858398

> <r_mmod_Stretch_Energy-OPLS-2005>
132.721282958984

> <r_mmod_Bend_Energy-OPLS-2005>
163.123168945312

> <r_mmod_Torsional_Energy-OPLS-2005>
217.566543579102

> <r_mmod_Improper_Torsional_Energy-OPLS-2005>
5.48315286636353

> <r_mmod_Van_der_Waal_Energy-OPLS-2005>
152.934371948242

> <r_mmod_Electrostatic_Energy-OPLS-2005>
-338.783538818359

> <r_mmod_Solvation_Energy-OPLS-2005>
-237.962295532227

> <b_mmod_Minimization_Converged-OPLS-2005>
0

> <r_mmod_RMS_Derivative-OPLS-2005>
4.80715608596802

$$$$
39
                    3D
 Structure written by MMmdl.
153161  0  0  1  0            999 V2000
  -30.6591  -14.5464   20.4698 C   0  0  0  0  0  0
  -30.4251  -12.3269   19.4435 C   0  0  0  0  0  0
  -29.4998  -12.4791   18.2167 C   0  0  0  0  0  0
  -28.0215  -12.3363   18.6296 C   0  0  0  0  0  0
  -27.6527  -13.2086   19.8590 C   0  0  2  0  0  0
  -28.6957  -13.0526   20.9898 C   0  0  0  0  0  0
  -25.2570  -13.8161   20.5657 C   0  0  0  0  0  0
  -24.1826  -13.0442   20.9169 C   0  0  0  0  0  0
  -24.6375  -11.6905   20.8725 C   0  0  0  0  0  0
  -23.9041  -10.4296   21.0400 C   0  0  0  0  0  0
  -24.3601   -9.4215   21.9178 C   0  0  0  0  0  0
  -23.6283   -8.2248   22.0752 C   0  0  0  0  0  0
  -22.4266   -8.0284   21.3544 C   0  0  0  0  0  0
  -21.9888   -9.0253   20.4647 C   0  0  0  0  0  0
  -22.7209  -10.2137   20.3056 C   0  0  0  0  0  0
  -21.6855   -6.0731   22.5272 C   0  0  0  0  0  0
  -21.4018   -6.5633   23.8205 C   0  0  0  0  0  0
  -21.3654   -5.6788   24.9168 C   0  0  0  0  0  0
  -21.6042   -4.3050   24.7216 C   0  0  0  0  0  0
  -21.8824   -3.8140   23.4337 C   0  0  0  0  0  0
  -21.9192   -4.6960   22.3393 C   0  0  0  0  0  0
  -22.7853  -13.5249   21.1845 C   0  0  0  0  0  0
  -22.1665   -4.2150   21.0970 F   0  0  0  0  0  0
  -21.5625   -3.4530   25.7724 F   0  0  0  0  0  0
  -30.0197  -13.3460   20.4249 N   0  0  0  0  0  0
  -26.2983  -12.9323   20.3294 N   0  0  0  0  0  0
  -25.9302  -11.6487   20.5744 N   0  0  0  0  0  0
  -22.0492  -12.8252   22.0405 N   0  0  0  0  0  0
  -25.4316  -15.1878   20.4064 N   0  0  0  0  0  0
  -31.8553  -14.6627   20.1916 O   0  0  0  0  0  0
  -21.6642   -6.8876   21.4234 O   0  0  0  0  0  0
  -22.3539  -14.5554   20.6695 O   0  0  0  0  0  0
  -24.6186  -31.8659   23.2081 C   0  0  0  0  0  0
  -25.9069  -32.4808   23.8381 C   0  0  1  0  0  0
  -27.2269  -27.3932   20.0966 C   0  0  0  0  0  0
  -25.5916  -33.8608   24.2317 N   0  0  0  0  0  0
  -23.4064  -30.4914   21.5503 C   0  0  2  0  0  0
  -24.8480  -28.9515   20.1165 C   0  0  0  0  0  0
  -22.7426  -29.4661   22.4982 C   0  0  0  0  0  0
  -18.0277  -28.1378   22.8482 C   0  0  0  0  0  0
  -24.1491  -36.7313   23.2637 C   0  0  0  0  0  0
  -25.9397  -30.8194   21.3659 C   0  0  0  0  0  0
  -26.0123  -29.4512   20.7111 C   0  0  0  0  0  0
  -27.2022  -28.6816   20.6926 C   0  0  0  0  0  0
  -26.0331  -26.9132   19.5080 C   0  0  0  0  0  0
  -24.8557  -27.6839   19.5132 C   0  0  0  0  0  0
  -23.6143  -29.8253   20.1646 C   0  0  0  0  0  0
  -25.4111  -36.3107   24.0335 C   0  0  1  0  0  0
  -20.5866  -28.3675   23.1307 C   0  0  2  0  0  0
  -20.6770  -26.9408   22.5415 C   0  0  0  0  0  0
  -19.5750  -26.6384   21.5210 C   0  0  0  0  0  0
  -18.1926  -26.7924   22.1615 C   0  0  0  0  0  0
  -19.1527  -28.8841   23.2890 C   0  0  0  0  0  0
  -18.9456  -30.1446   23.8908 C   0  0  0  0  0  0
  -17.6455  -30.6582   24.0567 C   0  0  0  0  0  0
  -25.9042  -34.9472   23.5123 C   0  0  0  0  0  0
  -16.5348  -29.9082   23.6322 C   0  0  0  0  0  0
  -16.7268  -28.6501   23.0341 C   0  0  0  0  0  0
  -26.4482  -31.6592   25.0720 C   0  0  0  0  0  0
  -25.3743  -31.3709   26.1467 C   0  0  0  0  0  0
  -27.0308  -30.3025   24.6116 C   0  0  0  0  0  0
  -27.6063  -32.4307   25.7475 C   0  0  0  0  0  0
  -27.5588  -37.1808   24.8460 C   0  0  0  0  0  0
  -21.4151  -29.3038   22.3714 N   0  0  0  0  0  0
  -26.4297  -37.3792   23.9410 N   0  0  0  0  0  0
  -24.6735  -31.0738   22.0994 N   0  0  0  0  0  0
  -23.4187  -28.8201   23.3032 O   0  0  0  0  0  0
  -28.4124  -26.6696   20.1018 O   0  0  0  0  0  0
  -26.5604  -34.8927   22.4684 O   0  0  0  0  0  0
  -23.5376  -32.1430   23.7461 O   0  0  0  0  0  0
  -29.4062  -18.0987   20.5558 C   0  0  0  0  0  0
  -30.2267  -19.4735   18.7168 C   0  0  0  0  0  0
  -29.5122  -19.3815   19.9325 C   0  0  0  0  0  0
  -30.0012  -16.9289   19.9848 C   0  0  0  0  0  0
  -30.7790  -18.3308   18.1185 C   0  0  0  0  0  0
  -30.6493  -17.0686   18.7254 C   0  0  0  0  0  0
  -27.9574  -22.8271   20.6516 C   0  0  0  0  0  0
  -29.1285  -21.8555   20.2711 C   0  0  0  0  0  0
  -28.2678  -24.3130   20.9687 C   0  0  0  0  0  0
  -28.4486  -25.2612   19.7491 C   0  0  0  0  0  0
  -28.8327  -20.5406   20.4586 N   0  0  0  0  0  0
  -29.8605  -15.6349   20.6257 N   0  0  0  0  0  0
  -26.7922  -22.4185   20.7294 O   0  0  0  0  0  0
  -30.2175  -22.2789   19.8680 O   0  0  0  0  0  0
  -31.4123  -18.4421   16.9257 F   0  0  0  0  0  0
  -31.1098  -15.9944   18.0409 F   0  0  0  0  0  0
  -31.4697  -12.4293   19.1427 H   0  0  0  0  0  0
  -30.3347  -11.3302   19.8767 H   0  0  0  0  0  0
  -29.7487  -11.7301   17.4636 H   0  0  0  0  0  0
  -29.6589  -13.4509   17.7468 H   0  0  0  0  0  0
  -27.8463  -11.2844   18.8593 H   0  0  0  0  0  0
  -27.3705  -12.5741   17.7875 H   0  0  0  0  0  0
  -27.6751  -14.2436   19.5176 H   0  0  0  0  0  0
  -28.6810  -12.0376   21.3888 H   0  0  0  0  0  0
  -28.4640  -13.7090   21.8304 H   0  0  0  0  0  0
  -25.2750   -9.5695   22.4747 H   0  0  0  0  0  0
  -23.9996   -7.4639   22.7467 H   0  0  0  0  0  0
  -21.0821   -8.8767   19.8952 H   0  0  0  0  0  0
  -22.3665  -10.9676   19.6167 H   0  0  0  0  0  0
  -21.2026   -7.6146   23.9710 H   0  0  0  0  0  0
  -21.1466   -6.0519   25.9072 H   0  0  0  0  0  0
  -22.0610   -2.7606   23.2836 H   0  0  0  0  0  0
  -22.4100  -11.9913   22.4803 H   0  0  0  0  0  0
  -21.1119  -13.1305   22.2615 H   0  0  0  0  0  0
  -24.6672  -15.8459   20.5122 H   0  0  0  0  0  0
  -26.2804  -15.6203   20.0655 H   0  0  0  0  0  0
  -26.7136  -32.5500   23.1139 H   0  0  0  0  0  0
  -25.0079  -33.9763   25.0471 H   0  0  0  0  0  0
  -22.6965  -31.3097   21.4123 H   0  0  0  0  0  0
  -23.3752  -35.9647   23.3298 H   0  0  0  0  0  0
  -24.3592  -36.8929   22.2053 H   0  0  0  0  0  0
  -23.7244  -37.6516   23.6654 H   0  0  0  0  0  0
  -26.0590  -31.5850   20.5980 H   0  0  0  0  0  0
  -26.8255  -30.8697   21.9873 H   0  0  0  0  0  0
  -28.1033  -29.0692   21.1472 H   0  0  0  0  0  0
  -25.9709  -25.9471   19.0344 H   0  0  0  0  0  0
  -23.9583  -27.2915   19.0545 H   0  0  0  0  0  0
  -23.7278  -30.6014   19.4066 H   0  0  0  0  0  0
  -22.7349  -29.2513   19.8664 H   0  0  0  0  0  0
  -25.1285  -36.1972   25.0827 H   0  0  0  0  0  0
  -20.9956  -28.3247   24.1429 H   0  0  0  0  0  0
  -20.5668  -26.2288   23.3608 H   0  0  0  0  0  0
  -21.6645  -26.7444   22.1219 H   0  0  0  0  0  0
  -19.6915  -25.6297   21.1236 H   0  0  0  0  0  0
  -19.6687  -27.3199   20.6743 H   0  0  0  0  0  0
  -17.4199  -26.6673   21.4013 H   0  0  0  0  0  0
  -18.0319  -26.0061   22.9005 H   0  0  0  0  0  0
  -19.7934  -30.7255   24.2280 H   0  0  0  0  0  0
  -17.5015  -31.6259   24.5168 H   0  0  0  0  0  0
  -15.5350  -30.2988   23.7641 H   0  0  0  0  0  0
  -15.8669  -28.0827   22.7046 H   0  0  0  0  0  0
  -24.5911  -30.7059   25.7806 H   0  0  0  0  0  0
  -24.8942  -32.2871   26.4916 H   0  0  0  0  0  0
  -25.8092  -30.8875   27.0224 H   0  0  0  0  0  0
  -26.2854  -29.6782   24.1175 H   0  0  0  0  0  0
  -27.4071  -29.7265   25.4581 H   0  0  0  0  0  0
  -27.8695  -30.4330   23.9273 H   0  0  0  0  0  0
  -27.2690  -33.3594   26.2089 H   0  0  0  0  0  0
  -28.3848  -32.6886   25.0282 H   0  0  0  0  0  0
  -28.0759  -31.8408   26.5357 H   0  0  0  0  0  0
  -28.2602  -38.0109   24.7522 H   0  0  0  0  0  0
  -28.1086  -36.2644   24.6261 H   0  0  0  0  0  0
  -27.2314  -37.1430   25.8865 H   0  0  0  0  0  0
  -20.9318  -29.8769   21.6941 H   0  0  0  0  0  0
  -26.0185  -38.2871   24.1410 H   0  0  0  0  0  0
  -28.8571  -18.0112   21.4830 H   0  0  0  0  0  0
  -30.3213  -20.4121   18.1913 H   0  0  0  0  0  0
  -29.1519  -24.3556   21.6036 H   0  0  0  0  0  0
  -27.4422  -24.6819   21.5757 H   0  0  0  0  0  0
  -27.7833  -25.0015   18.9284 H   0  0  0  0  0  0
  -29.4437  -25.0831   19.3405 H   0  0  0  0  0  0
  -27.9564  -20.3820   20.9410 H   0  0  0  0  0  0
  -28.9661  -15.4530   21.0532 H   0  0  0  0  0  0
  1 25  1  0  0  0
  1 30  2  0  0  0
  1 82  1  0  0  0
  2  3  1  0  0  0
  2 25  1  0  0  0
  2 87  1  0  0  0
  2 88  1  0  0  0
  3  4  1  0  0  0
  3 89  1  0  0  0
  3 90  1  0  0  0
  4  5  1  0  0  0
  4 91  1  0  0  0
  4 92  1  0  0  0
  5  6  1  0  0  0
  5 26  1  0  0  0
  5 93  1  0  0  0
  6 25  1  0  0  0
  6 94  1  0  0  0
  6 95  1  0  0  0
  7  8  2  0  0  0
  7 26  1  0  0  0
  7 29  1  0  0  0
  8  9  1  0  0  0
  8 22  1  0  0  0
  9 10  1  0  0  0
  9 27  2  0  0  0
 10 11  2  0  0  0
 10 15  1  0  0  0
 11 12  1  0  0  0
 11 96  1  0  0  0
 12 13  2  0  0  0
 12 97  1  0  0  0
 13 14  1  0  0  0
 13 31  1  0  0  0
 14 15  2  0  0  0
 14 98  1  0  0  0
 15 99  1  0  0  0
 16 17  2  0  0  0
 16 21  1  0  0  0
 16 31  1  0  0  0
 17 18  1  0  0  0
 17100  1  0  0  0
 18 19  2  0  0  0
 18101  1  0  0  0
 19 20  1  0  0  0
 19 24  1  0  0  0
 20 21  2  0  0  0
 20102  1  0  0  0
 21 23  1  0  0  0
 22 28  1  0  0  0
 22 32  2  0  0  0
 26 27  1  0  0  0
 28103  1  0  0  0
 28104  1  0  0  0
 29105  1  0  0  0
 29106  1  0  0  0
 33 34  1  0  0  0
 33 66  1  0  0  0
 33 70  2  0  0  0
 34 36  1  0  0  0
 34 59  1  0  0  0
 34107  1  0  0  0
 35 44  2  0  0  0
 35 45  1  0  0  0
 35 68  1  0  0  0
 36 56  1  0  0  0
 36108  1  0  0  0
 37 39  1  0  0  0
 37 47  1  0  0  0
 37 66  1  0  0  0
 37109  1  0  0  0
 38 43  2  0  0  0
 38 46  1  0  0  0
 38 47  1  0  0  0
 39 64  1  0  0  0
 39 67  2  0  0  0
 40 52  1  0  0  0
 40 53  2  0  0  0
 40 58  1  0  0  0
 41110  1  0  0  0
 41111  1  0  0  0
 41112  1  0  0  0
 41 48  1  0  0  0
 42 43  1  0  0  0
 42 66  1  0  0  0
 42113  1  0  0  0
 42114  1  0  0  0
 43 44  1  0  0  0
 44115  1  0  0  0
 45 46  2  0  0  0
 45116  1  0  0  0
 46117  1  0  0  0
 47118  1  0  0  0
 47119  1  0  0  0
 48 56  1  0  0  0
 48 65  1  0  0  0
 48120  1  0  0  0
 49 50  1  0  0  0
 49 53  1  0  0  0
 49 64  1  0  0  0
 49121  1  0  0  0
 50 51  1  0  0  0
 50122  1  0  0  0
 50123  1  0  0  0
 51 52  1  0  0  0
 51124  1  0  0  0
 51125  1  0  0  0
 52126  1  0  0  0
 52127  1  0  0  0
 53 54  1  0  0  0
 54 55  2  0  0  0
 54128  1  0  0  0
 55 57  1  0  0  0
 55129  1  0  0  0
 56 69  2  0  0  0
 57 58  2  0  0  0
 57130  1  0  0  0
 58131  1  0  0  0
 59 60  1  0  0  0
 59 61  1  0  0  0
 59 62  1  0  0  0
 60132  1  0  0  0
 60133  1  0  0  0
 60134  1  0  0  0
 61135  1  0  0  0
 61136  1  0  0  0
 61137  1  0  0  0
 62138  1  0  0  0
 62139  1  0  0  0
 62140  1  0  0  0
 63 65  1  0  0  0
 63141  1  0  0  0
 63142  1  0  0  0
 63143  1  0  0  0
 64144  1  0  0  0
 65145  1  0  0  0
 68 80  1  0  0  0
 71 73  2  0  0  0
 71 74  1  0  0  0
 71146  1  0  0  0
 72 73  1  0  0  0
 72 75  2  0  0  0
 72147  1  0  0  0
 73 81  1  0  0  0
 74 76  2  0  0  0
 74 82  1  0  0  0
 75 76  1  0  0  0
 75 85  1  0  0  0
 76 86  1  0  0  0
 77 78  1  0  0  0
 77 79  1  0  0  0
 77 83  2  0  0  0
 78 81  1  0  0  0
 78 84  2  0  0  0
 79 80  1  0  0  0
 79148  1  0  0  0
 79149  1  0  0  0
 80150  1  0  0  0
 80151  1  0  0  0
 81152  1  0  0  0
 82153  1  0  0  0
M  ISO  4   1 100  68 101  80 101  82 100
M  END
> <chiral flag>
0

> <version>
0

> <s_m_source_file>
/data/baiqing/PycharmProjects/Reinvent-master-3.2/result/LINK_invent/BTK/process_docking_weight1_custom_product_contain_oxygen_bond_distance_aromatic_linkinvent_7_9_3/rearranged_h_0176.sdf

> <i_m_source_file_index>
40

> <r_mmod_Potential_Energy-OPLS-2005>
3.89940619468689

> <r_mmod_Stretch_Energy-OPLS-2005>
51.0471229553223

> <r_mmod_Bend_Energy-OPLS-2005>
112.798805236816

> <r_mmod_Torsional_Energy-OPLS-2005>
252.367935180664

> <r_mmod_Improper_Torsional_Energy-OPLS-2005>
6.3307056427002

> <r_mmod_Van_der_Waal_Energy-OPLS-2005>
156.33349609375

> <r_mmod_Electrostatic_Energy-OPLS-2005>
-364.07470703125

> <r_mmod_Solvation_Energy-OPLS-2005>
-237.191635131836

> <b_mmod_Minimization_Converged-OPLS-2005>
0

> <r_mmod_RMS_Derivative-OPLS-2005>
1.13605487346649

$$$$
40
                    3D
 Structure written by MMmdl.
149157  0  0  1  0            999 V2000
  -30.6649  -14.5533   20.5137 C   0  0  0  0  0  0
  -30.4288  -12.3364   19.4420 C   0  0  0  0  0  0
  -29.4969  -12.4827   18.2197 C   0  0  0  0  0  0
  -28.0191  -12.3503   18.6337 C   0  0  0  0  0  0
  -27.6587  -13.2126   19.8716 C   0  0  2  0  0  0
  -28.7037  -13.0318   20.9969 C   0  0  0  0  0  0
  -25.2574  -13.8151   20.5669 C   0  0  0  0  0  0
  -24.1831  -13.0423   20.9166 C   0  0  0  0  0  0
  -24.6402  -11.6898   20.8750 C   0  0  0  0  0  0
  -23.9075  -10.4277   21.0410 C   0  0  0  0  0  0
  -24.3619   -9.4191   21.9191 C   0  0  0  0  0  0
  -23.6281   -8.2237   22.0762 C   0  0  0  0  0  0
  -22.4271   -8.0272   21.3545 C   0  0  0  0  0  0
  -21.9905   -9.0259   20.4659 C   0  0  0  0  0  0
  -22.7240  -10.2132   20.3060 C   0  0  0  0  0  0
  -21.6848   -6.0732   22.5276 C   0  0  0  0  0  0
  -21.4022   -6.5643   23.8210 C   0  0  0  0  0  0
  -21.3654   -5.6796   24.9173 C   0  0  0  0  0  0
  -21.6037   -4.3058   24.7223 C   0  0  0  0  0  0
  -21.8828   -3.8156   23.4345 C   0  0  0  0  0  0
  -21.9198   -4.6966   22.3399 C   0  0  0  0  0  0
  -22.7850  -13.5241   21.1863 C   0  0  0  0  0  0
  -22.1680   -4.2156   21.0974 F   0  0  0  0  0  0
  -21.5607   -3.4539   25.7728 F   0  0  0  0  0  0
  -30.0293  -13.3472   20.4380 N   0  0  0  0  0  0
  -26.3020  -12.9342   20.3365 N   0  0  0  0  0  0
  -25.9343  -11.6501   20.5819 N   0  0  0  0  0  0
  -22.0487  -12.8251   22.0424 N   0  0  0  0  0  0
  -25.4291  -15.1863   20.4071 N   0  0  0  0  0  0
  -31.8094  -14.7153   20.0805 O   0  0  0  0  0  0
  -21.6637   -6.8866   21.4238 O   0  0  0  0  0  0
  -22.3553  -14.5570   20.6739 O   0  0  0  0  0  0
  -24.6196  -31.8657   23.2061 C   0  0  0  0  0  0
  -25.9071  -32.4812   23.8372 C   0  0  1  0  0  0
  -27.2220  -27.3868   20.1078 C   0  0  0  0  0  0
  -25.5919  -33.8603   24.2326 N   0  0  0  0  0  0
  -23.4101  -30.4893   21.5494 C   0  0  2  0  0  0
  -24.8561  -28.9556   20.1091 C   0  0  0  0  0  0
  -22.7449  -29.4636   22.4977 C   0  0  0  0  0  0
  -18.0273  -28.1373   22.8481 C   0  0  0  0  0  0
  -24.1481  -36.7289   23.2634 C   0  0  0  0  0  0
  -25.9447  -30.8189   21.3651 C   0  0  0  0  0  0
  -26.0220  -29.4511   20.7091 C   0  0  0  0  0  0
  -27.2131  -28.6774   20.7002 C   0  0  0  0  0  0
  -26.0411  -26.9244   19.4881 C   0  0  0  0  0  0
  -24.8646  -27.6952   19.4898 C   0  0  0  0  0  0
  -23.6191  -29.8260   20.1626 C   0  0  0  0  0  0
  -25.4103  -36.3103   24.0345 C   0  0  1  0  0  0
  -20.5874  -28.3659   23.1292 C   0  0  2  0  0  0
  -20.6760  -26.9390   22.5403 C   0  0  0  0  0  0
  -19.5736  -26.6380   21.5200 C   0  0  0  0  0  0
  -18.1917  -26.7915   22.1617 C   0  0  0  0  0  0
  -19.1527  -28.8836   23.2883 C   0  0  0  0  0  0
  -18.9455  -30.1445   23.8892 C   0  0  0  0  0  0
  -17.6458  -30.6578   24.0553 C   0  0  0  0  0  0
  -25.9041  -34.9468   23.5138 C   0  0  0  0  0  0
  -16.5347  -29.9077   23.6329 C   0  0  0  0  0  0
  -16.7262  -28.6494   23.0347 C   0  0  0  0  0  0
  -26.4492  -31.6586   25.0704 C   0  0  0  0  0  0
  -25.3757  -31.3702   26.1456 C   0  0  0  0  0  0
  -27.0318  -30.3023   24.6081 C   0  0  0  0  0  0
  -27.6069  -32.4301   25.7466 C   0  0  0  0  0  0
  -27.5589  -37.1786   24.8469 C   0  0  0  0  0  0
  -21.4174  -29.3022   22.3708 N   0  0  0  0  0  0
  -26.4290  -37.3795   23.9434 N   0  0  0  0  0  0
  -24.6770  -31.0725   22.0979 N   0  0  0  0  0  0
  -23.4207  -28.8177   23.3027 O   0  0  0  0  0  0
  -28.3230  -26.5427   20.1508 O   0  0  0  0  0  0
  -26.5594  -34.8931   22.4698 O   0  0  0  0  0  0
  -23.5374  -32.1424   23.7430 O   0  0  0  0  0  0
  -29.2217  -17.9271   21.3196 C   0  0  0  0  0  0
  -29.4475  -19.2834   20.8656 C   0  0  0  0  0  0
  -29.9929  -16.9372   20.7242 C   0  0  0  0  0  0
  -30.4139  -19.2842   19.8976 C   0  0  0  0  0  0
  -28.0980  -25.3001   20.7435 C   0  0  0  0  0  0
  -28.7176  -20.4916   21.4313 C   0  0  0  0  0  0
  -28.7721  -24.1340   20.5176 C   0  0  0  0  0  0
  -28.3758  -22.9169   21.2735 C   0  0  0  0  0  0
  -29.9131  -15.5845   20.9822 N   0  0  0  0  0  0
  -28.9236  -21.7245   20.8736 N   0  0  0  0  0  0
  -27.9521  -20.2953   22.3848 O   0  0  0  0  0  0
  -27.5802  -22.9945   22.2172 O   0  0  0  0  0  0
  -29.7914  -24.0976   19.6457 O   0  0  0  0  0  0
  -30.8582  -20.3982   19.2627 F   0  0  0  0  0  0
  -31.0472  -17.6952   19.5305 S   0  0  0  0  0  0
  -31.4703  -12.4454   19.1332 H   0  0  0  0  0  0
  -30.3508  -11.3369   19.8739 H   0  0  0  0  0  0
  -29.7362  -11.7272   17.4692 H   0  0  0  0  0  0
  -29.6617  -13.4501   17.7441 H   0  0  0  0  0  0
  -27.8369  -11.2989   18.8569 H   0  0  0  0  0  0
  -27.3680  -12.6010   17.7959 H   0  0  0  0  0  0
  -27.6926  -14.2530   19.5479 H   0  0  0  0  0  0
  -28.6965  -12.0048   21.3661 H   0  0  0  0  0  0
  -28.4626  -13.6543   21.8596 H   0  0  0  0  0  0
  -25.2756   -9.5679   22.4772 H   0  0  0  0  0  0
  -23.9997   -7.4634   22.7481 H   0  0  0  0  0  0
  -21.0839   -8.8791   19.8954 H   0  0  0  0  0  0
  -22.3706  -10.9686   19.6184 H   0  0  0  0  0  0
  -21.2031   -7.6155   23.9733 H   0  0  0  0  0  0
  -21.1456   -6.0510   25.9074 H   0  0  0  0  0  0
  -22.0612   -2.7624   23.2842 H   0  0  0  0  0  0
  -22.4098  -11.9904   22.4798 H   0  0  0  0  0  0
  -21.1102  -13.1280   22.2640 H   0  0  0  0  0  0
  -24.6580  -15.8372   20.5111 H   0  0  0  0  0  0
  -26.2768  -15.6275   20.0722 H   0  0  0  0  0  0
  -26.7139  -32.5522   23.1127 H   0  0  0  0  0  0
  -25.0107  -33.9764   25.0497 H   0  0  0  0  0  0
  -22.6982  -31.3067   21.4114 H   0  0  0  0  0  0
  -23.3764  -35.9606   23.3298 H   0  0  0  0  0  0
  -24.3580  -36.8886   22.2048 H   0  0  0  0  0  0
  -23.7199  -37.6483   23.6634 H   0  0  0  0  0  0
  -26.0635  -31.5831   20.5959 H   0  0  0  0  0  0
  -26.8301  -30.8708   21.9863 H   0  0  0  0  0  0
  -28.1113  -29.0515   21.1702 H   0  0  0  0  0  0
  -26.0247  -25.9501   19.0203 H   0  0  0  0  0  0
  -23.9701  -27.3099   19.0190 H   0  0  0  0  0  0
  -23.7262  -30.6034   19.4050 H   0  0  0  0  0  0
  -22.7408  -29.2486   19.8667 H   0  0  0  0  0  0
  -25.1264  -36.1973   25.0833 H   0  0  0  0  0  0
  -20.9958  -28.3225   24.1416 H   0  0  0  0  0  0
  -20.5636  -26.2275   23.3602 H   0  0  0  0  0  0
  -21.6631  -26.7409   22.1210 H   0  0  0  0  0  0
  -19.6895  -25.6299   21.1210 H   0  0  0  0  0  0
  -19.6671  -27.3204   20.6741 H   0  0  0  0  0  0
  -17.4186  -26.6652   21.4020 H   0  0  0  0  0  0
  -18.0323  -26.0061   22.9012 H   0  0  0  0  0  0
  -19.7935  -30.7254   24.2261 H   0  0  0  0  0  0
  -17.5013  -31.6256   24.5154 H   0  0  0  0  0  0
  -15.5347  -30.2971   23.7666 H   0  0  0  0  0  0
  -15.8659  -28.0810   22.7070 H   0  0  0  0  0  0
  -24.5933  -30.7041   25.7801 H   0  0  0  0  0  0
  -24.8954  -32.2861   26.4899 H   0  0  0  0  0  0
  -25.8118  -30.8879   27.0210 H   0  0  0  0  0  0
  -26.2856  -29.6779   24.1153 H   0  0  0  0  0  0
  -27.4108  -29.7257   25.4523 H   0  0  0  0  0  0
  -27.8681  -30.4334   23.9214 H   0  0  0  0  0  0
  -27.2697  -33.3594   26.2063 H   0  0  0  0  0  0
  -28.3872  -32.6862   25.0288 H   0  0  0  0  0  0
  -28.0749  -31.8407   26.5360 H   0  0  0  0  0  0
  -28.2593  -38.0100   24.7574 H   0  0  0  0  0  0
  -28.1101  -36.2639   24.6221 H   0  0  0  0  0  0
  -27.2321  -37.1352   25.8874 H   0  0  0  0  0  0
  -20.9351  -29.8763   21.6935 H   0  0  0  0  0  0
  -26.0178  -38.2867   24.1474 H   0  0  0  0  0  0
  -28.4881  -17.7285   22.0878 H   0  0  0  0  0  0
  -27.2809  -25.3493   21.4550 H   0  0  0  0  0  0
  -29.0757  -15.2863   21.4600 H   0  0  0  0  0  0
  -29.5314  -21.7151   20.0694 H   0  0  0  0  0  0
  -30.3363  -23.3583   19.8743 H   0  0  0  0  0  0
  1 25  1  0  0  0
  1 30  2  0  0  0
  1 79  1  0  0  0
  2  3  1  0  0  0
  2 25  1  0  0  0
  2 86  1  0  0  0
  2 87  1  0  0  0
  3  4  1  0  0  0
  3 88  1  0  0  0
  3 89  1  0  0  0
  4  5  1  0  0  0
  4 90  1  0  0  0
  4 91  1  0  0  0
  5  6  1  0  0  0
  5 26  1  0  0  0
  5 92  1  0  0  0
  6 25  1  0  0  0
  6 93  1  0  0  0
  6 94  1  0  0  0
  7  8  2  0  0  0
  7 26  1  0  0  0
  7 29  1  0  0  0
  8  9  1  0  0  0
  8 22  1  0  0  0
  9 10  1  0  0  0
  9 27  2  0  0  0
 10 11  2  0  0  0
 10 15  1  0  0  0
 11 12  1  0  0  0
 11 95  1  0  0  0
 12 13  2  0  0  0
 12 96  1  0  0  0
 13 14  1  0  0  0
 13 31  1  0  0  0
 14 15  2  0  0  0
 14 97  1  0  0  0
 15 98  1  0  0  0
 16 17  2  0  0  0
 16 21  1  0  0  0
 16 31  1  0  0  0
 17 18  1  0  0  0
 17 99  1  0  0  0
 18 19  2  0  0  0
 18100  1  0  0  0
 19 20  1  0  0  0
 19 24  1  0  0  0
 20 21  2  0  0  0
 20101  1  0  0  0
 21 23  1  0  0  0
 22 28  1  0  0  0
 22 32  2  0  0  0
 26 27  1  0  0  0
 28102  1  0  0  0
 28103  1  0  0  0
 29104  1  0  0  0
 29105  1  0  0  0
 33 34  1  0  0  0
 33 66  1  0  0  0
 33 70  2  0  0  0
 34 36  1  0  0  0
 34 59  1  0  0  0
 34106  1  0  0  0
 35 44  2  0  0  0
 35 45  1  0  0  0
 35 68  1  0  0  0
 36 56  1  0  0  0
 36107  1  0  0  0
 37 39  1  0  0  0
 37 47  1  0  0  0
 37 66  1  0  0  0
 37108  1  0  0  0
 38 43  2  0  0  0
 38 46  1  0  0  0
 38 47  1  0  0  0
 39 64  1  0  0  0
 39 67  2  0  0  0
 40 52  1  0  0  0
 40 53  2  0  0  0
 40 58  1  0  0  0
 41109  1  0  0  0
 41110  1  0  0  0
 41111  1  0  0  0
 41 48  1  0  0  0
 42 43  1  0  0  0
 42 66  1  0  0  0
 42112  1  0  0  0
 42113  1  0  0  0
 43 44  1  0  0  0
 44114  1  0  0  0
 45 46  2  0  0  0
 45115  1  0  0  0
 46116  1  0  0  0
 47117  1  0  0  0
 47118  1  0  0  0
 48 56  1  0  0  0
 48 65  1  0  0  0
 48119  1  0  0  0
 49 50  1  0  0  0
 49 53  1  0  0  0
 49 64  1  0  0  0
 49120  1  0  0  0
 50 51  1  0  0  0
 50121  1  0  0  0
 50122  1  0  0  0
 51 52  1  0  0  0
 51123  1  0  0  0
 51124  1  0  0  0
 52125  1  0  0  0
 52126  1  0  0  0
 53 54  1  0  0  0
 54 55  2  0  0  0
 54127  1  0  0  0
 55 57  1  0  0  0
 55128  1  0  0  0
 56 69  2  0  0  0
 57 58  2  0  0  0
 57129  1  0  0  0
 58130  1  0  0  0
 59 60  1  0  0  0
 59 61  1  0  0  0
 59 62  1  0  0  0
 60131  1  0  0  0
 60132  1  0  0  0
 60133  1  0  0  0
 61134  1  0  0  0
 61135  1  0  0  0
 61136  1  0  0  0
 62137  1  0  0  0
 62138  1  0  0  0
 62139  1  0  0  0
 63 65  1  0  0  0
 63140  1  0  0  0
 63141  1  0  0  0
 63142  1  0  0  0
 64143  1  0  0  0
 65144  1  0  0  0
 68 75  1  0  0  0
 71 72  1  0  0  0
 71 73  2  0  0  0
 71145  1  0  0  0
 72 74  2  0  0  0
 72 76  1  0  0  0
 73 79  1  0  0  0
 73 85  1  0  0  0
 74 84  1  0  0  0
 74 85  1  0  0  0
 75 77  2  0  0  0
 75146  1  0  0  0
 76 80  1  0  0  0
 76 81  2  0  0  0
 77 78  1  0  0  0
 77 83  1  0  0  0
 78 80  1  0  0  0
 78 82  2  0  0  0
 79147  1  0  0  0
 80148  1  0  0  0
 83149  1  0  0  0
M  ISO  4   1 100  68 101  75 101  79 100
M  END
> <chiral flag>
0

> <version>
0

> <s_m_source_file>
/data/baiqing/PycharmProjects/Reinvent-master-3.2/result/LINK_invent/BTK/process_docking_weight1_custom_product_contain_oxygen_bond_distance_aromatic_linkinvent_7_9_3/rearranged_h_0176.sdf

> <i_m_source_file_index>
41

> <r_mmod_Potential_Energy-OPLS-2005>
-182.778121948242

> <r_mmod_Stretch_Energy-OPLS-2005>
52.867073059082

> <r_mmod_Bend_Energy-OPLS-2005>
121.635681152344

> <r_mmod_Torsional_Energy-OPLS-2005>
219.076721191406

> <r_mmod_Improper_Torsional_Energy-OPLS-2005>
3.50687599182129

> <r_mmod_Van_der_Waal_Energy-OPLS-2005>
146.218063354492

> <r_mmod_Electrostatic_Energy-OPLS-2005>
-485.279815673828

> <r_mmod_Solvation_Energy-OPLS-2005>
-268.348907470703

> <b_mmod_Minimization_Converged-OPLS-2005>
0

> <r_mmod_RMS_Derivative-OPLS-2005>
2.26258397102356

$$$$
41
                    3D
 Structure written by MMmdl.
150158  0  0  1  0            999 V2000
  -30.6853  -14.5852   20.5267 C   0  0  0  0  0  0
  -30.4210  -12.3691   19.4441 C   0  0  0  0  0  0
  -29.4967  -12.5000   18.2165 C   0  0  0  0  0  0
  -28.0205  -12.3488   18.6312 C   0  0  0  0  0  0
  -27.6501  -13.2220   19.8604 C   0  0  2  0  0  0
  -28.6954  -13.0861   20.9892 C   0  0  0  0  0  0
  -25.2547  -13.8190   20.5700 C   0  0  0  0  0  0
  -24.1819  -13.0446   20.9198 C   0  0  0  0  0  0
  -24.6397  -11.6918   20.8746 C   0  0  0  0  0  0
  -23.9072  -10.4296   21.0408 C   0  0  0  0  0  0
  -24.3621   -9.4211   21.9188 C   0  0  0  0  0  0
  -23.6294   -8.2248   22.0758 C   0  0  0  0  0  0
  -22.4278   -8.0286   21.3547 C   0  0  0  0  0  0
  -21.9917   -9.0260   20.4648 C   0  0  0  0  0  0
  -22.7245  -10.2140   20.3057 C   0  0  0  0  0  0
  -21.6855   -6.0739   22.5279 C   0  0  0  0  0  0
  -21.4014   -6.5639   23.8213 C   0  0  0  0  0  0
  -21.3658   -5.6793   24.9175 C   0  0  0  0  0  0
  -21.6043   -4.3057   24.7224 C   0  0  0  0  0  0
  -21.8819   -3.8152   23.4345 C   0  0  0  0  0  0
  -21.9193   -4.6967   22.3401 C   0  0  0  0  0  0
  -22.7837  -13.5233   21.1854 C   0  0  0  0  0  0
  -22.1661   -4.2153   21.0978 F   0  0  0  0  0  0
  -21.5630   -3.4541   25.7736 F   0  0  0  0  0  0
  -30.0103  -13.4014   20.4155 N   0  0  0  0  0  0
  -26.2976  -12.9381   20.3325 N   0  0  0  0  0  0
  -25.9328  -11.6531   20.5769 N   0  0  0  0  0  0
  -22.0480  -12.8220   22.0404 N   0  0  0  0  0  0
  -25.4251  -15.1913   20.4116 N   0  0  0  0  0  0
  -31.8512  -14.6919   20.1401 O   0  0  0  0  0  0
  -21.6642   -6.8883   21.4243 O   0  0  0  0  0  0
  -22.3521  -14.5539   20.6702 O   0  0  0  0  0  0
  -24.6220  -31.8622   23.2057 C   0  0  0  0  0  0
  -25.9083  -32.4795   23.8374 C   0  0  1  0  0  0
  -27.2283  -27.3651   20.1142 C   0  0  0  0  0  0
  -25.5916  -33.8595   24.2304 N   0  0  0  0  0  0
  -23.4145  -30.4850   21.5464 C   0  0  2  0  0  0
  -24.8644  -28.9424   20.1136 C   0  0  0  0  0  0
  -22.7450  -29.4633   22.4956 C   0  0  0  0  0  0
  -18.0280  -28.1382   22.8494 C   0  0  0  0  0  0
  -24.1486  -36.7298   23.2638 C   0  0  0  0  0  0
  -25.9504  -30.8064   21.3709 C   0  0  0  0  0  0
  -26.0285  -29.4343   20.7205 C   0  0  0  0  0  0
  -27.2170  -28.6526   20.7216 C   0  0  0  0  0  0
  -26.0520  -26.9106   19.4900 C   0  0  0  0  0  0
  -24.8742  -27.6819   19.4923 C   0  0  0  0  0  0
  -23.6286  -29.8170   20.1618 C   0  0  0  0  0  0
  -25.4109  -36.3094   24.0334 C   0  0  1  0  0  0
  -20.5877  -28.3678   23.1296 C   0  0  2  0  0  0
  -20.6766  -26.9404   22.5413 C   0  0  0  0  0  0
  -19.5742  -26.6385   21.5213 C   0  0  0  0  0  0
  -18.1922  -26.7931   22.1624 C   0  0  0  0  0  0
  -19.1533  -28.8848   23.2891 C   0  0  0  0  0  0
  -18.9456  -30.1453   23.8904 C   0  0  0  0  0  0
  -17.6456  -30.6585   24.0567 C   0  0  0  0  0  0
  -25.9043  -34.9462   23.5118 C   0  0  0  0  0  0
  -16.5347  -29.9086   23.6332 C   0  0  0  0  0  0
  -16.7267  -28.6503   23.0355 C   0  0  0  0  0  0
  -26.4486  -31.6591   25.0725 C   0  0  0  0  0  0
  -25.3737  -31.3707   26.1460 C   0  0  0  0  0  0
  -27.0322  -30.3026   24.6139 C   0  0  0  0  0  0
  -27.6055  -32.4314   25.7488 C   0  0  0  0  0  0
  -27.5581  -37.1799   24.8460 C   0  0  0  0  0  0
  -21.4169  -29.3039   22.3697 N   0  0  0  0  0  0
  -26.4287  -37.3787   23.9417 N   0  0  0  0  0  0
  -24.6808  -31.0669   22.0986 N   0  0  0  0  0  0
  -23.4188  -28.8179   23.3029 O   0  0  0  0  0  0
  -28.3147  -26.4997   20.1022 O   0  0  0  0  0  0
  -26.5606  -34.8922   22.4681 O   0  0  0  0  0  0
  -23.5392  -32.1403   23.7406 O   0  0  0  0  0  0
  -28.9521  -20.2011   19.7508 C   0  0  0  0  0  0
  -29.2936  -18.7970   19.7729 C   0  0  0  0  0  0
  -29.9211  -18.3479   20.9116 C   0  0  0  0  0  0
  -29.3110  -20.8850   20.8955 C   0  0  0  0  0  0
  -28.5999  -25.8478   21.2903 C   0  0  0  0  0  0
  -28.8471  -24.5250   21.5653 C   0  0  0  0  0  0
  -28.8410  -23.3645   20.6297 C   0  0  0  0  0  0
  -30.6040  -17.0117   21.2725 C   0  0  0  0  0  0
  -29.1765  -22.2071   21.2746 N   0  0  0  0  0  0
  -29.9924  -15.6848   20.9433 N   0  0  0  0  0  0
  -28.5692  -23.4067   19.4282 O   0  0  0  0  0  0
  -29.1240  -24.2476   22.8539 O   0  0  0  0  0  0
  -29.0545  -18.0203   18.7411 F   0  0  0  0  0  0
  -30.0477  -19.7239   22.0086 S   0  0  0  0  0  0
  -31.4646  -12.4686   19.1404 H   0  0  0  0  0  0
  -30.3348  -11.3763   19.8885 H   0  0  0  0  0  0
  -29.7532  -11.7485   17.4688 H   0  0  0  0  0  0
  -29.6477  -13.4702   17.7407 H   0  0  0  0  0  0
  -27.8499  -11.2964   18.8605 H   0  0  0  0  0  0
  -27.3666  -12.5852   17.7910 H   0  0  0  0  0  0
  -27.6684  -14.2570   19.5186 H   0  0  0  0  0  0
  -28.6971  -12.0725   21.3926 H   0  0  0  0  0  0
  -28.4517  -13.7424   21.8260 H   0  0  0  0  0  0
  -25.2768   -9.5689   22.4763 H   0  0  0  0  0  0
  -24.0006   -7.4639   22.7477 H   0  0  0  0  0  0
  -21.0851   -8.8778   19.8950 H   0  0  0  0  0  0
  -22.3707  -10.9679   19.6165 H   0  0  0  0  0  0
  -21.2005   -7.6146   23.9718 H   0  0  0  0  0  0
  -21.1479   -6.0524   25.9078 H   0  0  0  0  0  0
  -22.0599   -2.7614   23.2844 H   0  0  0  0  0  0
  -22.4090  -11.9873   22.4779 H   0  0  0  0  0  0
  -21.1100  -13.1251   22.2611 H   0  0  0  0  0  0
  -24.6585  -15.8464   20.5215 H   0  0  0  0  0  0
  -26.2739  -15.6304   20.0781 H   0  0  0  0  0  0
  -26.7158  -32.5482   23.1133 H   0  0  0  0  0  0
  -25.0088  -33.9751   25.0464 H   0  0  0  0  0  0
  -22.7069  -31.3043   21.4033 H   0  0  0  0  0  0
  -23.3754  -35.9621   23.3286 H   0  0  0  0  0  0
  -24.3588  -36.8928   22.2055 H   0  0  0  0  0  0
  -23.7225  -37.6493   23.6663 H   0  0  0  0  0  0
  -26.0710  -31.5683   20.5996 H   0  0  0  0  0  0
  -26.8348  -30.8611   21.9940 H   0  0  0  0  0  0
  -28.1132  -29.0236   21.1990 H   0  0  0  0  0  0
  -26.0455  -25.9371   19.0195 H   0  0  0  0  0  0
  -23.9817  -27.2968   19.0184 H   0  0  0  0  0  0
  -23.7420  -30.5920   19.4026 H   0  0  0  0  0  0
  -22.7511  -29.2409   19.8623 H   0  0  0  0  0  0
  -25.1287  -36.1949   25.0825 H   0  0  0  0  0  0
  -20.9967  -28.3243   24.1417 H   0  0  0  0  0  0
  -20.5659  -26.2285   23.3608 H   0  0  0  0  0  0
  -21.6637  -26.7432   22.1206 H   0  0  0  0  0  0
  -19.6896  -25.6295   21.1242 H   0  0  0  0  0  0
  -19.6685  -27.3199   20.6747 H   0  0  0  0  0  0
  -17.4190  -26.6688   21.4023 H   0  0  0  0  0  0
  -18.0316  -26.0066   22.9012 H   0  0  0  0  0  0
  -19.7931  -30.7274   24.2268 H   0  0  0  0  0  0
  -17.5008  -31.6267   24.5165 H   0  0  0  0  0  0
  -15.5349  -30.2990   23.7653 H   0  0  0  0  0  0
  -15.8665  -28.0824   22.7069 H   0  0  0  0  0  0
  -24.5923  -30.7038   25.7797 H   0  0  0  0  0  0
  -24.8910  -32.2859   26.4899 H   0  0  0  0  0  0
  -25.8083  -30.8887   27.0228 H   0  0  0  0  0  0
  -26.2880  -29.6785   24.1176 H   0  0  0  0  0  0
  -27.4056  -29.7271   25.4621 H   0  0  0  0  0  0
  -27.8733  -30.4335   23.9326 H   0  0  0  0  0  0
  -27.2688  -33.3630   26.2049 H   0  0  0  0  0  0
  -28.3875  -32.6845   25.0314 H   0  0  0  0  0  0
  -28.0708  -31.8439   26.5414 H   0  0  0  0  0  0
  -28.2580  -38.0116   24.7539 H   0  0  0  0  0  0
  -28.1097  -36.2650   24.6245 H   0  0  0  0  0  0
  -27.2304  -37.1397   25.8862 H   0  0  0  0  0  0
  -20.9334  -29.8780   21.6930 H   0  0  0  0  0  0
  -26.0168  -38.2856   24.1443 H   0  0  0  0  0  0
  -28.4715  -20.6475   18.8928 H   0  0  0  0  0  0
  -28.6268  -26.5745   22.0912 H   0  0  0  0  0  0
  -30.7650  -16.9977   22.3510 H   0  0  0  0  0  0
  -31.6106  -17.0552   20.8543 H   0  0  0  0  0  0
  -29.3914  -22.4032   22.2457 H   0  0  0  0  0  0
  -29.0235  -15.5486   21.1872 H   0  0  0  0  0  0
  -29.0955  -25.0635   23.3364 H   0  0  0  0  0  0
  1 25  1  0  0  0
  1 30  2  0  0  0
  1 80  1  0  0  0
  2  3  1  0  0  0
  2 25  1  0  0  0
  2 85  1  0  0  0
  2 86  1  0  0  0
  3  4  1  0  0  0
  3 87  1  0  0  0
  3 88  1  0  0  0
  4  5  1  0  0  0
  4 89  1  0  0  0
  4 90  1  0  0  0
  5  6  1  0  0  0
  5 26  1  0  0  0
  5 91  1  0  0  0
  6 25  1  0  0  0
  6 92  1  0  0  0
  6 93  1  0  0  0
  7  8  2  0  0  0
  7 26  1  0  0  0
  7 29  1  0  0  0
  8  9  1  0  0  0
  8 22  1  0  0  0
  9 10  1  0  0  0
  9 27  2  0  0  0
 10 11  2  0  0  0
 10 15  1  0  0  0
 11 12  1  0  0  0
 11 94  1  0  0  0
 12 13  2  0  0  0
 12 95  1  0  0  0
 13 14  1  0  0  0
 13 31  1  0  0  0
 14 15  2  0  0  0
 14 96  1  0  0  0
 15 97  1  0  0  0
 16 17  2  0  0  0
 16 21  1  0  0  0
 16 31  1  0  0  0
 17 18  1  0  0  0
 17 98  1  0  0  0
 18 19  2  0  0  0
 18 99  1  0  0  0
 19 20  1  0  0  0
 19 24  1  0  0  0
 20 21  2  0  0  0
 20100  1  0  0  0
 21 23  1  0  0  0
 22 28  1  0  0  0
 22 32  2  0  0  0
 26 27  1  0  0  0
 28101  1  0  0  0
 28102  1  0  0  0
 29103  1  0  0  0
 29104  1  0  0  0
 33 34  1  0  0  0
 33 66  1  0  0  0
 33 70  2  0  0  0
 34 36  1  0  0  0
 34 59  1  0  0  0
 34105  1  0  0  0
 35 44  2  0  0  0
 35 45  1  0  0  0
 35 68  1  0  0  0
 36 56  1  0  0  0
 36106  1  0  0  0
 37 39  1  0  0  0
 37 47  1  0  0  0
 37 66  1  0  0  0
 37107  1  0  0  0
 38 43  2  0  0  0
 38 46  1  0  0  0
 38 47  1  0  0  0
 39 64  1  0  0  0
 39 67  2  0  0  0
 40 52  1  0  0  0
 40 53  2  0  0  0
 40 58  1  0  0  0
 41108  1  0  0  0
 41109  1  0  0  0
 41110  1  0  0  0
 41 48  1  0  0  0
 42 43  1  0  0  0
 42 66  1  0  0  0
 42111  1  0  0  0
 42112  1  0  0  0
 43 44  1  0  0  0
 44113  1  0  0  0
 45 46  2  0  0  0
 45114  1  0  0  0
 46115  1  0  0  0
 47116  1  0  0  0
 47117  1  0  0  0
 48 56  1  0  0  0
 48 65  1  0  0  0
 48118  1  0  0  0
 49 50  1  0  0  0
 49 53  1  0  0  0
 49 64  1  0  0  0
 49119  1  0  0  0
 50 51  1  0  0  0
 50120  1  0  0  0
 50121  1  0  0  0
 51 52  1  0  0  0
 51122  1  0  0  0
 51123  1  0  0  0
 52124  1  0  0  0
 52125  1  0  0  0
 53 54  1  0  0  0
 54 55  2  0  0  0
 54126  1  0  0  0
 55 57  1  0  0  0
 55127  1  0  0  0
 56 69  2  0  0  0
 57 58  2  0  0  0
 57128  1  0  0  0
 58129  1  0  0  0
 59 60  1  0  0  0
 59 61  1  0  0  0
 59 62  1  0  0  0
 60130  1  0  0  0
 60131  1  0  0  0
 60132  1  0  0  0
 61133  1  0  0  0
 61134  1  0  0  0
 61135  1  0  0  0
 62136  1  0  0  0
 62137  1  0  0  0
 62138  1  0  0  0
 63 65  1  0  0  0
 63139  1  0  0  0
 63140  1  0  0  0
 63141  1  0  0  0
 64142  1  0  0  0
 65143  1  0  0  0
 68 75  1  0  0  0
 71 72  1  0  0  0
 71 74  2  0  0  0
 71144  1  0  0  0
 72 73  2  0  0  0
 72 83  1  0  0  0
 73 78  1  0  0  0
 73 84  1  0  0  0
 74 79  1  0  0  0
 74 84  1  0  0  0
 75 76  2  0  0  0
 75145  1  0  0  0
 76 77  1  0  0  0
 76 82  1  0  0  0
 77 79  1  0  0  0
 77 81  2  0  0  0
 78 80  1  0  0  0
 78146  1  0  0  0
 78147  1  0  0  0
 79148  1  0  0  0
 80149  1  0  0  0
 82150  1  0  0  0
M  ISO  4   1 100  68 101  75 101  80 100
M  END
> <chiral flag>
0

> <version>
0

> <s_m_source_file>
/data/baiqing/PycharmProjects/Reinvent-master-3.2/result/LINK_invent/BTK/process_docking_weight1_custom_product_contain_oxygen_bond_distance_aromatic_linkinvent_7_9_3/rearranged_h_0176.sdf

> <i_m_source_file_index>
42

> <r_mmod_Potential_Energy-OPLS-2005>
-55.5210800170898

> <r_mmod_Stretch_Energy-OPLS-2005>
56.234302520752

> <r_mmod_Bend_Energy-OPLS-2005>
158.376434326172

> <r_mmod_Torsional_Energy-OPLS-2005>
210.632385253906

> <r_mmod_Improper_Torsional_Energy-OPLS-2005>
3.709792137146

> <r_mmod_Van_der_Waal_Energy-OPLS-2005>
126.385406494141

> <r_mmod_Electrostatic_Energy-OPLS-2005>
-414.695678710938

> <r_mmod_Solvation_Energy-OPLS-2005>
-231.317276000977

> <b_mmod_Minimization_Converged-OPLS-2005>
0

> <r_mmod_RMS_Derivative-OPLS-2005>
0.583694934844971

$$$$
42
                    3D
 Structure written by MMmdl.
155163  0  0  1  0            999 V2000
  -30.5744  -14.5468   20.6235 C   0  0  0  0  0  0
  -30.4549  -12.3693   19.4157 C   0  0  0  0  0  0
  -29.5089  -12.5478   18.2063 C   0  0  0  0  0  0
  -28.0266  -12.3660   18.6083 C   0  0  0  0  0  0
  -27.6595  -13.1877   19.8728 C   0  0  2  0  0  0
  -28.6952  -12.9111   20.9831 C   0  0  0  0  0  0
  -25.2605  -13.8103   20.5730 C   0  0  0  0  0  0
  -24.1832  -13.0416   20.9202 C   0  0  0  0  0  0
  -24.6341  -11.6865   20.8699 C   0  0  0  0  0  0
  -23.9002  -10.4266   21.0408 C   0  0  0  0  0  0
  -24.3555   -9.4186   21.9196 C   0  0  0  0  0  0
  -23.6252   -8.2210   22.0744 C   0  0  0  0  0  0
  -22.4241   -8.0251   21.3535 C   0  0  0  0  0  0
  -21.9873   -9.0215   20.4632 C   0  0  0  0  0  0
  -22.7177  -10.2111   20.3047 C   0  0  0  0  0  0
  -21.6831   -6.0724   22.5290 C   0  0  0  0  0  0
  -21.4005   -6.5623   23.8240 C   0  0  0  0  0  0
  -21.3664   -5.6764   24.9196 C   0  0  0  0  0  0
  -21.6043   -4.3028   24.7226 C   0  0  0  0  0  0
  -21.8815   -3.8128   23.4345 C   0  0  0  0  0  0
  -21.9177   -4.6950   22.3406 C   0  0  0  0  0  0
  -22.7863  -13.5242   21.1879 C   0  0  0  0  0  0
  -22.1657   -4.2146   21.0977 F   0  0  0  0  0  0
  -21.5632   -3.4508   25.7734 F   0  0  0  0  0  0
  -30.0213  -13.3067   20.4641 N   0  0  0  0  0  0
  -26.2980  -12.9211   20.3286 N   0  0  0  0  0  0
  -25.9243  -11.6391   20.5662 N   0  0  0  0  0  0
  -22.0469  -12.8237   22.0423 N   0  0  0  0  0  0
  -25.4393  -15.1819   20.4304 N   0  0  0  0  0  0
  -31.6716  -14.8566   20.1391 O   0  0  0  0  0  0
  -21.6581   -6.8861   21.4252 O   0  0  0  0  0  0
  -22.3573  -14.5557   20.6736 O   0  0  0  0  0  0
  -24.6157  -31.8626   23.2034 C   0  0  0  0  0  0
  -25.9018  -32.4813   23.8338 C   0  0  1  0  0  0
  -27.2364  -27.3785   20.0912 C   0  0  0  0  0  0
  -25.5832  -33.8601   24.2255 N   0  0  0  0  0  0
  -23.4070  -30.4829   21.5475 C   0  0  2  0  0  0
  -24.8522  -28.9394   20.1170 C   0  0  0  0  0  0
  -22.7414  -29.4623   22.4980 C   0  0  0  0  0  0
  -18.0254  -28.1406   22.8522 C   0  0  0  0  0  0
  -24.1439  -36.7262   23.2650 C   0  0  0  0  0  0
  -25.9405  -30.8114   21.3625 C   0  0  0  0  0  0
  -26.0167  -29.4404   20.7099 C   0  0  0  0  0  0
  -27.2057  -28.6665   20.6931 C   0  0  0  0  0  0
  -26.0399  -26.8989   19.5070 C   0  0  0  0  0  0
  -24.8613  -27.6691   19.5177 C   0  0  0  0  0  0
  -23.6156  -29.8100   20.1653 C   0  0  0  0  0  0
  -25.4083  -36.3103   24.0340 C   0  0  1  0  0  0
  -20.5848  -28.3668   23.1340 C   0  0  2  0  0  0
  -20.6735  -26.9403   22.5441 C   0  0  0  0  0  0
  -19.5716  -26.6405   21.5232 C   0  0  0  0  0  0
  -18.1897  -26.7944   22.1656 C   0  0  0  0  0  0
  -19.1515  -28.8848   23.2934 C   0  0  0  0  0  0
  -18.9456  -30.1451   23.8954 C   0  0  0  0  0  0
  -17.6472  -30.6625   24.0570 C   0  0  0  0  0  0
  -25.9045  -34.9474   23.5120 C   0  0  0  0  0  0
  -16.5352  -29.9150   23.6322 C   0  0  0  0  0  0
  -16.7248  -28.6550   23.0372 C   0  0  0  0  0  0
  -26.4440  -31.6628   25.0690 C   0  0  0  0  0  0
  -25.3682  -31.3755   26.1426 C   0  0  0  0  0  0
  -27.0268  -30.3063   24.6101 C   0  0  0  0  0  0
  -27.6021  -32.4348   25.7441 C   0  0  0  0  0  0
  -27.5555  -37.1761   24.8467 C   0  0  0  0  0  0
  -21.4130  -29.3020   22.3728 N   0  0  0  0  0  0
  -26.4251  -37.3814   23.9457 N   0  0  0  0  0  0
  -24.6738  -31.0673   22.0967 N   0  0  0  0  0  0
  -23.4167  -28.8176   23.3038 O   0  0  0  0  0  0
  -28.4198  -26.6453   20.1184 O   0  0  0  0  0  0
  -26.5675  -34.8951   22.4725 O   0  0  0  0  0  0
  -23.5338  -32.1378   23.7418 O   0  0  0  0  0  0
  -29.0171  -17.1476   22.7833 C   0  0  0  0  0  0
  -29.6224  -16.7800   21.5969 C   0  0  0  0  0  0
  -29.3862  -19.0559   21.2360 C   0  0  0  0  0  0
  -28.8700  -22.6861   19.9378 C   0  0  0  0  0  0
  -29.0578  -21.5416   21.0090 C   0  0  0  0  0  0
  -29.9414  -25.5028   18.7419 C   0  0  0  0  0  0
  -28.5696  -24.1304   20.4708 C   0  0  0  0  0  0
  -28.5939  -25.3479   19.4678 C   0  0  1  0  0  0
  -28.5521  -16.2800   23.9173 C   0  0  0  0  0  0
  -29.8191  -17.8771   20.7079 N   0  0  0  0  0  0
  -29.7671  -15.3691   21.3420 N   0  0  0  0  0  0
  -29.3539  -20.3041   20.5115 N   0  0  0  0  0  0
  -28.9268  -22.4444   18.7272 O   0  0  0  0  0  0
  -28.9572  -21.8043   22.2123 O   0  0  0  0  0  0
  -27.6669  -15.3773   23.4947 F   0  0  0  0  0  0
  -29.5669  -15.6151   24.4662 F   0  0  0  0  0  0
  -27.9667  -16.9814   24.8901 F   0  0  0  0  0  0
  -28.7635  -18.8681   22.8739 S   0  0  0  0  0  0
  -31.4909  -12.5402   19.1206 H   0  0  0  0  0  0
  -30.4163  -11.3453   19.7891 H   0  0  0  0  0  0
  -29.7742  -11.8472   17.4149 H   0  0  0  0  0  0
  -29.6441  -13.5465   17.7869 H   0  0  0  0  0  0
  -27.8602  -11.3051   18.7996 H   0  0  0  0  0  0
  -27.3715  -12.6295   17.7759 H   0  0  0  0  0  0
  -27.7134  -14.2424   19.6000 H   0  0  0  0  0  0
  -28.6978  -11.8476   21.2284 H   0  0  0  0  0  0
  -28.4131  -13.4003   21.9153 H   0  0  0  0  0  0
  -25.2713   -9.5639   22.4761 H   0  0  0  0  0  0
  -23.9969   -7.4585   22.7439 H   0  0  0  0  0  0
  -21.0817   -8.8712   19.8916 H   0  0  0  0  0  0
  -22.3654  -10.9636   19.6120 H   0  0  0  0  0  0
  -21.2006   -7.6144   23.9749 H   0  0  0  0  0  0
  -21.1496   -6.0495   25.9105 H   0  0  0  0  0  0
  -22.0586   -2.7589   23.2833 H   0  0  0  0  0  0
  -22.4026  -11.9894   22.4828 H   0  0  0  0  0  0
  -21.1104  -13.1317   22.2625 H   0  0  0  0  0  0
  -24.6953  -15.8431   20.6256 H   0  0  0  0  0  0
  -26.2914  -15.6251   20.1144 H   0  0  0  0  0  0
  -26.7087  -32.5507   23.1095 H   0  0  0  0  0  0
  -24.9791  -33.9734   25.0262 H   0  0  0  0  0  0
  -22.7000  -31.3021   21.4048 H   0  0  0  0  0  0
  -23.3756  -35.9538   23.3303 H   0  0  0  0  0  0
  -24.3522  -36.8897   22.2066 H   0  0  0  0  0  0
  -23.7112  -37.6421   23.6688 H   0  0  0  0  0  0
  -26.0523  -31.5739   20.5907 H   0  0  0  0  0  0
  -26.8286  -30.8686   21.9796 H   0  0  0  0  0  0
  -28.1022  -29.0542   21.1572 H   0  0  0  0  0  0
  -25.9755  -25.9217   19.0572 H   0  0  0  0  0  0
  -23.9601  -27.2690   19.0736 H   0  0  0  0  0  0
  -23.7272  -30.5794   19.4016 H   0  0  0  0  0  0
  -22.7379  -29.2299   19.8743 H   0  0  0  0  0  0
  -25.1257  -36.1945   25.0832 H   0  0  0  0  0  0
  -20.9947  -28.3230   24.1457 H   0  0  0  0  0  0
  -20.5618  -26.2276   23.3631 H   0  0  0  0  0  0
  -21.6612  -26.7440   22.1241 H   0  0  0  0  0  0
  -19.6870  -25.6328   21.1234 H   0  0  0  0  0  0
  -19.6650  -27.3242   20.6788 H   0  0  0  0  0  0
  -17.4153  -26.6677   21.4075 H   0  0  0  0  0  0
  -18.0325  -26.0101   22.9073 H   0  0  0  0  0  0
  -19.7939  -30.7226   24.2366 H   0  0  0  0  0  0
  -17.5050  -31.6318   24.5162 H   0  0  0  0  0  0
  -15.5366  -30.3102   23.7608 H   0  0  0  0  0  0
  -15.8634  -28.0893   22.7098 H   0  0  0  0  0  0
  -24.5826  -30.7164   25.7726 H   0  0  0  0  0  0
  -24.8906  -32.2923   26.4892 H   0  0  0  0  0  0
  -25.7983  -30.8869   27.0171 H   0  0  0  0  0  0
  -26.2814  -29.6842   24.1139 H   0  0  0  0  0  0
  -27.3996  -29.7311   25.4582 H   0  0  0  0  0  0
  -27.8669  -30.4379   23.9280 H   0  0  0  0  0  0
  -27.2672  -33.3673   26.1997 H   0  0  0  0  0  0
  -28.3832  -32.6865   25.0255 H   0  0  0  0  0  0
  -28.0682  -31.8471   26.5359 H   0  0  0  0  0  0
  -28.2575  -38.0065   24.7620 H   0  0  0  0  0  0
  -28.1054  -36.2616   24.6184 H   0  0  0  0  0  0
  -27.2288  -37.1274   25.8869 H   0  0  0  0  0  0
  -20.9292  -29.8740   21.6952 H   0  0  0  0  0  0
  -26.0126  -38.2857   24.1607 H   0  0  0  0  0  0
  -30.2645  -24.5837   18.2558 H   0  0  0  0  0  0
  -30.7282  -25.8113   19.4305 H   0  0  0  0  0  0
  -29.8721  -26.2595   17.9606 H   0  0  0  0  0  0
  -29.2665  -24.3230   21.2859 H   0  0  0  0  0  0
  -27.5834  -24.0885   20.9327 H   0  0  0  0  0  0
  -27.8562  -25.1745   18.6873 H   0  0  0  0  0  0
  -29.0264  -14.8215   21.7546 H   0  0  0  0  0  0
  -29.4858  -20.2593   19.5107 H   0  0  0  0  0  0
  1 25  1  0  0  0
  1 30  2  0  0  0
  1 81  1  0  0  0
  2  3  1  0  0  0
  2 25  1  0  0  0
  2 89  1  0  0  0
  2 90  1  0  0  0
  3  4  1  0  0  0
  3 91  1  0  0  0
  3 92  1  0  0  0
  4  5  1  0  0  0
  4 93  1  0  0  0
  4 94  1  0  0  0
  5  6  1  0  0  0
  5 26  1  0  0  0
  5 95  1  0  0  0
  6 25  1  0  0  0
  6 96  1  0  0  0
  6 97  1  0  0  0
  7  8  2  0  0  0
  7 26  1  0  0  0
  7 29  1  0  0  0
  8  9  1  0  0  0
  8 22  1  0  0  0
  9 10  1  0  0  0
  9 27  2  0  0  0
 10 11  2  0  0  0
 10 15  1  0  0  0
 11 12  1  0  0  0
 11 98  1  0  0  0
 12 13  2  0  0  0
 12 99  1  0  0  0
 13 14  1  0  0  0
 13 31  1  0  0  0
 14 15  2  0  0  0
 14100  1  0  0  0
 15101  1  0  0  0
 16 17  2  0  0  0
 16 21  1  0  0  0
 16 31  1  0  0  0
 17 18  1  0  0  0
 17102  1  0  0  0
 18 19  2  0  0  0
 18103  1  0  0  0
 19 20  1  0  0  0
 19 24  1  0  0  0
 20 21  2  0  0  0
 20104  1  0  0  0
 21 23  1  0  0  0
 22 28  1  0  0  0
 22 32  2  0  0  0
 26 27  1  0  0  0
 28105  1  0  0  0
 28106  1  0  0  0
 29107  1  0  0  0
 29108  1  0  0  0
 33 34  1  0  0  0
 33 66  1  0  0  0
 33 70  2  0  0  0
 34 36  1  0  0  0
 34 59  1  0  0  0
 34109  1  0  0  0
 35 44  2  0  0  0
 35 45  1  0  0  0
 35 68  1  0  0  0
 36 56  1  0  0  0
 36110  1  0  0  0
 37 39  1  0  0  0
 37 47  1  0  0  0
 37 66  1  0  0  0
 37111  1  0  0  0
 38 43  2  0  0  0
 38 46  1  0  0  0
 38 47  1  0  0  0
 39 64  1  0  0  0
 39 67  2  0  0  0
 40 52  1  0  0  0
 40 53  2  0  0  0
 40 58  1  0  0  0
 41112  1  0  0  0
 41113  1  0  0  0
 41114  1  0  0  0
 41 48  1  0  0  0
 42 43  1  0  0  0
 42 66  1  0  0  0
 42115  1  0  0  0
 42116  1  0  0  0
 43 44  1  0  0  0
 44117  1  0  0  0
 45 46  2  0  0  0
 45118  1  0  0  0
 46119  1  0  0  0
 47120  1  0  0  0
 47121  1  0  0  0
 48 56  1  0  0  0
 48 65  1  0  0  0
 48122  1  0  0  0
 49 50  1  0  0  0
 49 53  1  0  0  0
 49 64  1  0  0  0
 49123  1  0  0  0
 50 51  1  0  0  0
 50124  1  0  0  0
 50125  1  0  0  0
 51 52  1  0  0  0
 51126  1  0  0  0
 51127  1  0  0  0
 52128  1  0  0  0
 52129  1  0  0  0
 53 54  1  0  0  0
 54 55  2  0  0  0
 54130  1  0  0  0
 55 57  1  0  0  0
 55131  1  0  0  0
 56 69  2  0  0  0
 57 58  2  0  0  0
 57132  1  0  0  0
 58133  1  0  0  0
 59 60  1  0  0  0
 59 61  1  0  0  0
 59 62  1  0  0  0
 60134  1  0  0  0
 60135  1  0  0  0
 60136  1  0  0  0
 61137  1  0  0  0
 61138  1  0  0  0
 61139  1  0  0  0
 62140  1  0  0  0
 62141  1  0  0  0
 62142  1  0  0  0
 63 65  1  0  0  0
 63143  1  0  0  0
 63144  1  0  0  0
 63145  1  0  0  0
 64146  1  0  0  0
 65147  1  0  0  0
 68 78  1  0  0  0
 71 72  2  0  0  0
 71 79  1  0  0  0
 71 88  1  0  0  0
 72 80  1  0  0  0
 72 81  1  0  0  0
 73 80  2  0  0  0
 73 82  1  0  0  0
 73 88  1  0  0  0
 74 75  1  0  0  0
 74 77  1  0  0  0
 74 83  2  0  0  0
 75 82  1  0  0  0
 75 84  2  0  0  0
 76148  1  0  0  0
 76149  1  0  0  0
 76150  1  0  0  0
 76 78  1  0  0  0
 77 78  1  0  0  0
 77151  1  0  0  0
 77152  1  0  0  0
 78153  1  0  0  0
 79 85  1  0  0  0
 79 86  1  0  0  0
 79 87  1  0  0  0
 81154  1  0  0  0
 82155  1  0  0  0
M  ISO  4   1 100  68 101  78 101  81 100
M  END
> <chiral flag>
0

> <version>
0

> <s_m_source_file>
/data/baiqing/PycharmProjects/Reinvent-master-3.2/result/LINK_invent/BTK/process_docking_weight1_custom_product_contain_oxygen_bond_distance_aromatic_linkinvent_7_9_3/rearranged_h_0176.sdf

> <i_m_source_file_index>
43

> <r_mmod_Potential_Energy-OPLS-2005>
-76.8282775878906

> <r_mmod_Stretch_Energy-OPLS-2005>
57.4930076599121

> <r_mmod_Bend_Energy-OPLS-2005>
158.195693969727

> <r_mmod_Torsional_Energy-OPLS-2005>
196.976638793945

> <r_mmod_Improper_Torsional_Energy-OPLS-2005>
3.87233400344849

> <r_mmod_Van_der_Waal_Energy-OPLS-2005>
131.894393920898

> <r_mmod_Electrostatic_Energy-OPLS-2005>
-427.60791015625

> <r_mmod_Solvation_Energy-OPLS-2005>
-226.330322265625

> <b_mmod_Minimization_Converged-OPLS-2005>
0

> <r_mmod_RMS_Derivative-OPLS-2005>
3.36123156547546

$$$$
43
                    3D
 Structure written by MMmdl.
153161  0  0  1  0            999 V2000
  -30.7261  -14.4812   20.5719 C   0  0  0  0  0  0
  -30.4151  -12.3172   19.4250 C   0  0  0  0  0  0
  -29.4890  -12.5008   18.2065 C   0  0  0  0  0  0
  -28.0133  -12.3573   18.6239 C   0  0  0  0  0  0
  -27.6569  -13.2127   19.8695 C   0  0  2  0  0  0
  -28.7009  -13.0261   20.9938 C   0  0  0  0  0  0
  -25.2572  -13.8178   20.5692 C   0  0  0  0  0  0
  -24.1830  -13.0445   20.9184 C   0  0  0  0  0  0
  -24.6393  -11.6914   20.8743 C   0  0  0  0  0  0
  -23.9062  -10.4296   21.0407 C   0  0  0  0  0  0
  -24.3614   -9.4210   21.9184 C   0  0  0  0  0  0
  -23.6292   -8.2245   22.0753 C   0  0  0  0  0  0
  -22.4274   -8.0282   21.3545 C   0  0  0  0  0  0
  -21.9909   -9.0256   20.4646 C   0  0  0  0  0  0
  -22.7236  -10.2136   20.3057 C   0  0  0  0  0  0
  -21.6853   -6.0739   22.5280 C   0  0  0  0  0  0
  -21.4012   -6.5641   23.8213 C   0  0  0  0  0  0
  -21.3660   -5.6794   24.9175 C   0  0  0  0  0  0
  -21.6043   -4.3056   24.7226 C   0  0  0  0  0  0
  -21.8820   -3.8148   23.4347 C   0  0  0  0  0  0
  -21.9192   -4.6966   22.3403 C   0  0  0  0  0  0
  -22.7851  -13.5237   21.1848 C   0  0  0  0  0  0
  -22.1662   -4.2152   21.0981 F   0  0  0  0  0  0
  -21.5630   -3.4539   25.7739 F   0  0  0  0  0  0
  -30.0276  -13.3209   20.4305 N   0  0  0  0  0  0
  -26.3006  -12.9357   20.3360 N   0  0  0  0  0  0
  -25.9320  -11.6510   20.5773 N   0  0  0  0  0  0
  -22.0492  -12.8229   22.0402 N   0  0  0  0  0  0
  -25.4294  -15.1900   20.4106 N   0  0  0  0  0  0
  -31.8601  -14.6226   20.1066 O   0  0  0  0  0  0
  -21.6638   -6.8880   21.4241 O   0  0  0  0  0  0
  -22.3536  -14.5546   20.6701 O   0  0  0  0  0  0
  -24.6167  -31.8674   23.2101 C   0  0  0  0  0  0
  -25.9054  -32.4820   23.8399 C   0  0  1  0  0  0
  -27.2248  -27.4128   20.1029 C   0  0  0  0  0  0
  -25.5903  -33.8618   24.2325 N   0  0  0  0  0  0
  -23.4054  -30.4924   21.5512 C   0  0  2  0  0  0
  -24.8512  -28.9601   20.1125 C   0  0  0  0  0  0
  -22.7423  -29.4658   22.4981 C   0  0  0  0  0  0
  -18.0274  -28.1378   22.8492 C   0  0  0  0  0  0
  -24.1490  -36.7315   23.2640 C   0  0  0  0  0  0
  -25.9379  -30.8264   21.3680 C   0  0  0  0  0  0
  -26.0142  -29.4611   20.7124 C   0  0  0  0  0  0
  -27.2068  -28.6962   20.7023 C   0  0  0  0  0  0
  -26.0494  -26.9450   19.4745 C   0  0  0  0  0  0
  -24.8650  -27.7022   19.4886 C   0  0  0  0  0  0
  -23.6145  -29.8290   20.1647 C   0  0  0  0  0  0
  -25.4111  -36.3112   24.0337 C   0  0  1  0  0  0
  -20.5871  -28.3666   23.1311 C   0  0  2  0  0  0
  -20.6766  -26.9401   22.5415 C   0  0  0  0  0  0
  -19.5742  -26.6388   21.5213 C   0  0  0  0  0  0
  -18.1919  -26.7925   22.1625 C   0  0  0  0  0  0
  -19.1526  -28.8837   23.2898 C   0  0  0  0  0  0
  -18.9455  -30.1444   23.8910 C   0  0  0  0  0  0
  -17.6456  -30.6584   24.0565 C   0  0  0  0  0  0
  -25.9038  -34.9476   23.5128 C   0  0  0  0  0  0
  -16.5346  -29.9086   23.6329 C   0  0  0  0  0  0
  -16.7263  -28.6503   23.0349 C   0  0  0  0  0  0
  -26.4473  -31.6606   25.0733 C   0  0  0  0  0  0
  -25.3734  -31.3712   26.1477 C   0  0  0  0  0  0
  -27.0302  -30.3047   24.6118 C   0  0  0  0  0  0
  -27.6051  -32.4326   25.7490 C   0  0  0  0  0  0
  -27.5581  -37.1813   24.8465 C   0  0  0  0  0  0
  -21.4148  -29.3033   22.3716 N   0  0  0  0  0  0
  -26.4298  -37.3794   23.9405 N   0  0  0  0  0  0
  -24.6716  -31.0761   22.1013 N   0  0  0  0  0  0
  -23.4188  -28.8194   23.3023 O   0  0  0  0  0  0
  -28.3623  -26.6259   20.1219 O   0  0  0  0  0  0
  -26.5603  -34.8925   22.4690 O   0  0  0  0  0  0
  -23.5356  -32.1436   23.7485 O   0  0  0  0  0  0
  -31.6688  -19.4321   21.7921 C   0  0  0  0  0  0
  -31.8805  -17.0062   21.9077 C   0  0  0  0  0  0
  -30.3823  -19.3166   21.2110 C   0  0  0  0  0  0
  -30.6004  -16.8459   21.3272 C   0  0  0  0  0  0
  -32.4085  -18.2878   22.1372 C   0  0  0  0  0  0
  -29.8474  -18.0112   21.0065 C   0  0  0  0  0  0
  -28.8329  -22.7691   20.4916 C   0  0  0  0  0  0
  -30.0084  -21.7448   20.6310 C   0  0  0  0  0  0
  -29.1877  -24.2382   20.1368 C   0  0  0  0  0  0
  -28.1740  -25.2924   20.6604 C   0  0  0  0  0  0
  -29.5966  -20.4774   20.8820 N   0  0  0  0  0  0
  -30.0616  -15.5317   21.1020 N   0  0  0  0  0  0
  -27.6561  -22.4154   20.6415 O   0  0  0  0  0  0
  -31.1878  -22.0884   20.4954 O   0  0  0  0  0  0
  -33.6335  -18.4213   22.6995 F   0  0  0  0  0  0
  -28.6052  -17.8744   20.4811 F   0  0  0  0  0  0
  -31.4595  -12.4041   19.1199 H   0  0  0  0  0  0
  -30.3112  -11.3130   19.8387 H   0  0  0  0  0  0
  -29.7313  -11.7690   17.4346 H   0  0  0  0  0  0
  -29.6526  -13.4832   17.7600 H   0  0  0  0  0  0
  -27.8332  -11.3029   18.8362 H   0  0  0  0  0  0
  -27.3583  -12.6139   17.7906 H   0  0  0  0  0  0
  -27.6916  -14.2554   19.5530 H   0  0  0  0  0  0
  -28.6804  -12.0010   21.3664 H   0  0  0  0  0  0
  -28.4654  -13.6565   21.8522 H   0  0  0  0  0  0
  -25.2760   -9.5687   22.4757 H   0  0  0  0  0  0
  -24.0004   -7.4635   22.7470 H   0  0  0  0  0  0
  -21.0842   -8.8774   19.8949 H   0  0  0  0  0  0
  -22.3695  -10.9676   19.6165 H   0  0  0  0  0  0
  -21.2003   -7.6148   23.9719 H   0  0  0  0  0  0
  -21.1481   -6.0523   25.9080 H   0  0  0  0  0  0
  -22.0598   -2.7611   23.2846 H   0  0  0  0  0  0
  -22.4104  -11.9885   22.4787 H   0  0  0  0  0  0
  -21.1111  -13.1255   22.2607 H   0  0  0  0  0  0
  -24.6642  -15.8461   20.5230 H   0  0  0  0  0  0
  -26.2845  -15.6320   20.0972 H   0  0  0  0  0  0
  -26.7124  -32.5527   23.1161 H   0  0  0  0  0  0
  -25.0048  -33.9780   25.0465 H   0  0  0  0  0  0
  -22.6955  -31.3105   21.4133 H   0  0  0  0  0  0
  -23.3746  -35.9656   23.3319 H   0  0  0  0  0  0
  -24.3578  -36.8913   22.2051 H   0  0  0  0  0  0
  -23.7250  -37.6527   23.6642 H   0  0  0  0  0  0
  -26.0561  -31.5931   20.6008 H   0  0  0  0  0  0
  -26.8239  -30.8764   21.9892 H   0  0  0  0  0  0
  -28.1027  -29.0739   21.1751 H   0  0  0  0  0  0
  -26.0397  -25.9894   18.9694 H   0  0  0  0  0  0
  -23.9744  -27.3154   19.0129 H   0  0  0  0  0  0
  -23.7237  -30.6057   19.4070 H   0  0  0  0  0  0
  -22.7375  -29.2511   19.8676 H   0  0  0  0  0  0
  -25.1288  -36.1982   25.0831 H   0  0  0  0  0  0
  -20.9962  -28.3236   24.1431 H   0  0  0  0  0  0
  -20.5682  -26.2270   23.3601 H   0  0  0  0  0  0
  -21.6634  -26.7449   22.1197 H   0  0  0  0  0  0
  -19.6908  -25.6307   21.1224 H   0  0  0  0  0  0
  -19.6686  -27.3216   20.6757 H   0  0  0  0  0  0
  -17.4193  -26.6681   21.4022 H   0  0  0  0  0  0
  -18.0313  -26.0064   22.9018 H   0  0  0  0  0  0
  -19.7933  -30.7250   24.2292 H   0  0  0  0  0  0
  -17.5016  -31.6268   24.5160 H   0  0  0  0  0  0
  -15.5348  -30.2991   23.7649 H   0  0  0  0  0  0
  -15.8663  -28.0826   22.7061 H   0  0  0  0  0  0
  -24.5900  -30.7068   25.7809 H   0  0  0  0  0  0
  -24.8930  -32.2868   26.4940 H   0  0  0  0  0  0
  -25.8082  -30.8866   27.0229 H   0  0  0  0  0  0
  -26.2849  -29.6812   24.1165 H   0  0  0  0  0  0
  -27.4060  -29.7279   25.4580 H   0  0  0  0  0  0
  -27.8693  -30.4361   23.9279 H   0  0  0  0  0  0
  -27.2670  -33.3613   26.2096 H   0  0  0  0  0  0
  -28.3838  -32.6908   25.0302 H   0  0  0  0  0  0
  -28.0742  -31.8435   26.5378 H   0  0  0  0  0  0
  -28.2611  -38.0099   24.7498 H   0  0  0  0  0  0
  -28.1063  -36.2628   24.6309 H   0  0  0  0  0  0
  -27.2292  -37.1486   25.8867 H   0  0  0  0  0  0
  -20.9310  -29.8760   21.6941 H   0  0  0  0  0  0
  -26.0190  -38.2876   24.1397 H   0  0  0  0  0  0
  -32.1080  -20.3944   22.0037 H   0  0  0  0  0  0
  -32.4725  -16.1476   22.1878 H   0  0  0  0  0  0
  -29.2411  -24.2984   19.0504 H   0  0  0  0  0  0
  -30.1850  -24.4710   20.5094 H   0  0  0  0  0  0
  -28.2738  -25.3641   21.7442 H   0  0  0  0  0  0
  -27.1648  -24.9181   20.4952 H   0  0  0  0  0  0
  -28.5939  -20.3462   20.8252 H   0  0  0  0  0  0
  -29.0729  -15.4097   21.2604 H   0  0  0  0  0  0
  1 25  1  0  0  0
  1 30  2  0  0  0
  1 82  1  0  0  0
  2  3  1  0  0  0
  2 25  1  0  0  0
  2 87  1  0  0  0
  2 88  1  0  0  0
  3  4  1  0  0  0
  3 89  1  0  0  0
  3 90  1  0  0  0
  4  5  1  0  0  0
  4 91  1  0  0  0
  4 92  1  0  0  0
  5  6  1  0  0  0
  5 26  1  0  0  0
  5 93  1  0  0  0
  6 25  1  0  0  0
  6 94  1  0  0  0
  6 95  1  0  0  0
  7  8  2  0  0  0
  7 26  1  0  0  0
  7 29  1  0  0  0
  8  9  1  0  0  0
  8 22  1  0  0  0
  9 10  1  0  0  0
  9 27  2  0  0  0
 10 11  2  0  0  0
 10 15  1  0  0  0
 11 12  1  0  0  0
 11 96  1  0  0  0
 12 13  2  0  0  0
 12 97  1  0  0  0
 13 14  1  0  0  0
 13 31  1  0  0  0
 14 15  2  0  0  0
 14 98  1  0  0  0
 15 99  1  0  0  0
 16 17  2  0  0  0
 16 21  1  0  0  0
 16 31  1  0  0  0
 17 18  1  0  0  0
 17100  1  0  0  0
 18 19  2  0  0  0
 18101  1  0  0  0
 19 20  1  0  0  0
 19 24  1  0  0  0
 20 21  2  0  0  0
 20102  1  0  0  0
 21 23  1  0  0  0
 22 28  1  0  0  0
 22 32  2  0  0  0
 26 27  1  0  0  0
 28103  1  0  0  0
 28104  1  0  0  0
 29105  1  0  0  0
 29106  1  0  0  0
 33 34  1  0  0  0
 33 66  1  0  0  0
 33 70  2  0  0  0
 34 36  1  0  0  0
 34 59  1  0  0  0
 34107  1  0  0  0
 35 44  2  0  0  0
 35 45  1  0  0  0
 35 68  1  0  0  0
 36 56  1  0  0  0
 36108  1  0  0  0
 37 39  1  0  0  0
 37 47  1  0  0  0
 37 66  1  0  0  0
 37109  1  0  0  0
 38 43  2  0  0  0
 38 46  1  0  0  0
 38 47  1  0  0  0
 39 64  1  0  0  0
 39 67  2  0  0  0
 40 52  1  0  0  0
 40 53  2  0  0  0
 40 58  1  0  0  0
 41110  1  0  0  0
 41111  1  0  0  0
 41112  1  0  0  0
 41 48  1  0  0  0
 42 43  1  0  0  0
 42 66  1  0  0  0
 42113  1  0  0  0
 42114  1  0  0  0
 43 44  1  0  0  0
 44115  1  0  0  0
 45 46  2  0  0  0
 45116  1  0  0  0
 46117  1  0  0  0
 47118  1  0  0  0
 47119  1  0  0  0
 48 56  1  0  0  0
 48 65  1  0  0  0
 48120  1  0  0  0
 49 50  1  0  0  0
 49 53  1  0  0  0
 49 64  1  0  0  0
 49121  1  0  0  0
 50 51  1  0  0  0
 50122  1  0  0  0
 50123  1  0  0  0
 51 52  1  0  0  0
 51124  1  0  0  0
 51125  1  0  0  0
 52126  1  0  0  0
 52127  1  0  0  0
 53 54  1  0  0  0
 54 55  2  0  0  0
 54128  1  0  0  0
 55 57  1  0  0  0
 55129  1  0  0  0
 56 69  2  0  0  0
 57 58  2  0  0  0
 57130  1  0  0  0
 58131  1  0  0  0
 59 60  1  0  0  0
 59 61  1  0  0  0
 59 62  1  0  0  0
 60132  1  0  0  0
 60133  1  0  0  0
 60134  1  0  0  0
 61135  1  0  0  0
 61136  1  0  0  0
 61137  1  0  0  0
 62138  1  0  0  0
 62139  1  0  0  0
 62140  1  0  0  0
 63 65  1  0  0  0
 63141  1  0  0  0
 63142  1  0  0  0
 63143  1  0  0  0
 64144  1  0  0  0
 65145  1  0  0  0
 68 80  1  0  0  0
 71 73  2  0  0  0
 71 75  1  0  0  0
 71146  1  0  0  0
 72 74  1  0  0  0
 72 75  2  0  0  0
 72147  1  0  0  0
 73 76  1  0  0  0
 73 81  1  0  0  0
 74 76  2  0  0  0
 74 82  1  0  0  0
 75 85  1  0  0  0
 76 86  1  0  0  0
 77 78  1  0  0  0
 77 79  1  0  0  0
 77 83  2  0  0  0
 78 81  1  0  0  0
 78 84  2  0  0  0
 79 80  1  0  0  0
 79148  1  0  0  0
 79149  1  0  0  0
 80150  1  0  0  0
 80151  1  0  0  0
 81152  1  0  0  0
 82153  1  0  0  0
M  ISO  4   1 100  68 101  80 101  82 100
M  END
> <chiral flag>
0

> <version>
0

> <s_m_source_file>
/data/baiqing/PycharmProjects/Reinvent-master-3.2/result/LINK_invent/BTK/process_docking_weight1_custom_product_contain_oxygen_bond_distance_aromatic_linkinvent_7_9_3/rearranged_h_0176.sdf

> <i_m_source_file_index>
44

> <r_mmod_Potential_Energy-OPLS-2005>
-70.3362579345703

> <r_mmod_Stretch_Energy-OPLS-2005>
45.0093307495117

> <r_mmod_Bend_Energy-OPLS-2005>
96.4846038818359

> <r_mmod_Torsional_Energy-OPLS-2005>
248.14631652832

> <r_mmod_Improper_Torsional_Energy-OPLS-2005>
3.57781887054443

> <r_mmod_Van_der_Waal_Energy-OPLS-2005>
163.904235839844

> <r_mmod_Electrostatic_Energy-OPLS-2005>
-424.252227783203

> <r_mmod_Solvation_Energy-OPLS-2005>
-220.260375976562

> <b_mmod_Minimization_Converged-OPLS-2005>
0

> <r_mmod_RMS_Derivative-OPLS-2005>
0.500125050544739

$$$$
44
                    3D
 Structure written by MMmdl.
154162  0  0  1  0            999 V2000
  -30.6717  -14.5415   20.4949 C   0  0  0  0  0  0
  -30.4223  -12.3290   19.4376 C   0  0  0  0  0  0
  -29.5002  -12.4958   18.2115 C   0  0  0  0  0  0
  -28.0201  -12.3531   18.6223 C   0  0  0  0  0  0
  -27.6545  -13.2134   19.8616 C   0  0  2  0  0  0
  -28.6976  -13.0436   20.9895 C   0  0  0  0  0  0
  -25.2558  -13.8170   20.5661 C   0  0  0  0  0  0
  -24.1821  -13.0440   20.9182 C   0  0  0  0  0  0
  -24.6385  -11.6913   20.8733 C   0  0  0  0  0  0
  -23.9053  -10.4298   21.0410 C   0  0  0  0  0  0
  -24.3601   -9.4212   21.9188 C   0  0  0  0  0  0
  -23.6283   -8.2237   22.0750 C   0  0  0  0  0  0
  -22.4266   -8.0271   21.3543 C   0  0  0  0  0  0
  -21.9894   -9.0254   20.4653 C   0  0  0  0  0  0
  -22.7219  -10.2137   20.3069 C   0  0  0  0  0  0
  -21.6849   -6.0725   22.5281 C   0  0  0  0  0  0
  -21.4009   -6.5630   23.8212 C   0  0  0  0  0  0
  -21.3662   -5.6789   24.9177 C   0  0  0  0  0  0
  -21.6048   -4.3051   24.7229 C   0  0  0  0  0  0
  -21.8820   -3.8139   23.4353 C   0  0  0  0  0  0
  -21.9187   -4.6953   22.3406 C   0  0  0  0  0  0
  -22.7845  -13.5240   21.1846 C   0  0  0  0  0  0
  -22.1659   -4.2145   21.0985 F   0  0  0  0  0  0
  -21.5633   -3.4535   25.7741 F   0  0  0  0  0  0
  -30.0210  -13.3458   20.4255 N   0  0  0  0  0  0
  -26.2983  -12.9347   20.3296 N   0  0  0  0  0  0
  -25.9307  -11.6508   20.5741 N   0  0  0  0  0  0
  -22.0468  -12.8260   22.0407 N   0  0  0  0  0  0
  -25.4289  -15.1887   20.4066 N   0  0  0  0  0  0
  -31.8456  -14.6546   20.1316 O   0  0  0  0  0  0
  -21.6631   -6.8868   21.4243 O   0  0  0  0  0  0
  -22.3541  -14.5545   20.6687 O   0  0  0  0  0  0
  -24.6176  -31.8655   23.2076 C   0  0  0  0  0  0
  -25.9055  -32.4802   23.8385 C   0  0  1  0  0  0
  -27.2275  -27.3955   20.1132 C   0  0  0  0  0  0
  -25.5905  -33.8595   24.2317 N   0  0  0  0  0  0
  -23.4089  -30.4883   21.5470 C   0  0  2  0  0  0
  -24.8563  -28.9472   20.1173 C   0  0  0  0  0  0
  -22.7435  -29.4642   22.4960 C   0  0  0  0  0  0
  -18.0276  -28.1381   22.8479 C   0  0  0  0  0  0
  -24.1492  -36.7308   23.2631 C   0  0  0  0  0  0
  -25.9424  -30.8171   21.3694 C   0  0  0  0  0  0
  -26.0185  -29.4468   20.7216 C   0  0  0  0  0  0
  -27.2096  -28.6773   20.7192 C   0  0  0  0  0  0
  -26.0543  -26.9247   19.4925 C   0  0  0  0  0  0
  -24.8696  -27.6841   19.5004 C   0  0  0  0  0  0
  -23.6214  -29.8198   20.1624 C   0  0  0  0  0  0
  -25.4104  -36.3096   24.0339 C   0  0  1  0  0  0
  -20.5876  -28.3666   23.1307 C   0  0  2  0  0  0
  -20.6761  -26.9394   22.5421 C   0  0  0  0  0  0
  -19.5744  -26.6384   21.5215 C   0  0  0  0  0  0
  -18.1921  -26.7924   22.1618 C   0  0  0  0  0  0
  -19.1528  -28.8837   23.2891 C   0  0  0  0  0  0
  -18.9454  -30.1442   23.8897 C   0  0  0  0  0  0
  -17.6456  -30.6575   24.0565 C   0  0  0  0  0  0
  -25.9037  -34.9464   23.5126 C   0  0  0  0  0  0
  -16.5345  -29.9077   23.6329 C   0  0  0  0  0  0
  -16.7264  -28.6502   23.0335 C   0  0  0  0  0  0
  -26.4475  -31.6573   25.0716 C   0  0  0  0  0  0
  -25.3737  -31.3706   26.1468 C   0  0  0  0  0  0
  -27.0283  -30.2993   24.6114 C   0  0  0  0  0  0
  -27.6074  -32.4271   25.7467 C   0  0  0  0  0  0
  -27.5594  -37.1789   24.8450 C   0  0  0  0  0  0
  -21.4156  -29.3025   22.3702 N   0  0  0  0  0  0
  -26.4282  -37.3791   23.9428 N   0  0  0  0  0  0
  -24.6746  -31.0733   22.0988 N   0  0  0  0  0  0
  -23.4193  -28.8177   23.3012 O   0  0  0  0  0  0
  -28.3603  -26.6048   20.0715 O   0  0  0  0  0  0
  -26.5609  -34.8917   22.4690 O   0  0  0  0  0  0
  -23.5362  -32.1415   23.7458 O   0  0  0  0  0  0
  -31.2500  -17.5448   19.9485 C   0  0  0  0  0  0
  -31.2341  -18.9760   19.8997 C   0  0  0  0  0  0
  -30.1682  -16.9597   20.5709 C   0  0  0  0  0  0
  -30.1205  -19.5404   20.4736 C   0  0  0  0  0  0
  -29.1876  -23.1132   20.8313 C   0  0  0  0  0  0
  -28.2801  -24.1359   20.7357 C   0  0  0  0  0  0
  -28.8618  -21.6890   20.5498 C   0  0  0  0  0  0
  -32.3410  -19.7776   19.2787 C   0  0  0  0  0  0
  -28.4905  -25.6244   21.1275 C   0  0  0  0  0  0
  -29.9482  -20.8911   20.6413 N   0  0  0  0  0  0
  -29.9054  -15.6247   20.7979 N   0  0  0  0  0  0
  -27.7421  -21.2598   20.2586 O   0  0  0  0  0  0
  -30.4445  -23.3915   21.2215 O   0  0  0  0  0  0
  -27.0134  -23.9594   20.3293 O   0  0  0  0  0  0
  -29.0534  -18.2507   21.0437 S   0  0  0  0  0  0
  -31.4683  -12.4221   19.1397 H   0  0  0  0  0  0
  -30.3183  -11.3291   19.8617 H   0  0  0  0  0  0
  -29.7510  -11.7567   17.4491 H   0  0  0  0  0  0
  -29.6632  -13.4729   17.7531 H   0  0  0  0  0  0
  -27.8399  -11.2996   18.8391 H   0  0  0  0  0  0
  -27.3694  -12.6063   17.7849 H   0  0  0  0  0  0
  -27.6829  -14.2524   19.5319 H   0  0  0  0  0  0
  -28.6836  -12.0217   21.3733 H   0  0  0  0  0  0
  -28.4622  -13.6841   21.8400 H   0  0  0  0  0  0
  -25.2755   -9.5684   22.4746 H   0  0  0  0  0  0
  -24.0001   -7.4630   22.7460 H   0  0  0  0  0  0
  -21.0823   -8.8775   19.8973 H   0  0  0  0  0  0
  -22.3677  -10.9668   19.6167 H   0  0  0  0  0  0
  -21.2005   -7.6139   23.9712 H   0  0  0  0  0  0
  -21.1484   -6.0519   25.9081 H   0  0  0  0  0  0
  -22.0597   -2.7600   23.2852 H   0  0  0  0  0  0
  -22.4060  -11.9934   22.4849 H   0  0  0  0  0  0
  -21.1091  -13.1314   22.2594 H   0  0  0  0  0  0
  -24.6617  -15.8444   20.5105 H   0  0  0  0  0  0
  -26.2759  -15.6238   20.0630 H   0  0  0  0  0  0
  -26.7122  -32.5512   23.1147 H   0  0  0  0  0  0
  -25.0066  -33.9754   25.0469 H   0  0  0  0  0  0
  -22.6981  -31.3058   21.4052 H   0  0  0  0  0  0
  -23.3762  -35.9631   23.3248 H   0  0  0  0  0  0
  -24.3617  -36.8959   22.2058 H   0  0  0  0  0  0
  -23.7224  -37.6489   23.6668 H   0  0  0  0  0  0
  -26.0648  -31.5781   20.5975 H   0  0  0  0  0  0
  -26.8276  -30.8708   21.9921 H   0  0  0  0  0  0
  -28.1073  -29.0577   21.1846 H   0  0  0  0  0  0
  -26.0557  -25.9634   19.0010 H   0  0  0  0  0  0
  -23.9798  -27.2938   19.0259 H   0  0  0  0  0  0
  -23.7362  -30.5934   19.4019 H   0  0  0  0  0  0
  -22.7460  -29.2410   19.8639 H   0  0  0  0  0  0
  -25.1276  -36.1954   25.0829 H   0  0  0  0  0  0
  -20.9987  -28.3227   24.1423 H   0  0  0  0  0  0
  -20.5654  -26.2272   23.3611 H   0  0  0  0  0  0
  -21.6629  -26.7412   22.1231 H   0  0  0  0  0  0
  -19.6900  -25.6300   21.1233 H   0  0  0  0  0  0
  -19.6696  -27.3204   20.6758 H   0  0  0  0  0  0
  -17.4206  -26.6676   21.4004 H   0  0  0  0  0  0
  -18.0305  -26.0064   22.9008 H   0  0  0  0  0  0
  -19.7928  -30.7260   24.2259 H   0  0  0  0  0  0
  -17.5010  -31.6257   24.5168 H   0  0  0  0  0  0
  -15.5345  -30.2981   23.7652 H   0  0  0  0  0  0
  -15.8666  -28.0837   22.7026 H   0  0  0  0  0  0
  -24.5938  -30.7010   25.7820 H   0  0  0  0  0  0
  -24.8899  -32.2866   26.4862 H   0  0  0  0  0  0
  -25.8096  -30.8930   27.0248 H   0  0  0  0  0  0
  -26.2810  -29.6779   24.1160 H   0  0  0  0  0  0
  -27.3999  -29.7219   25.4585 H   0  0  0  0  0  0
  -27.8687  -30.4266   23.9290 H   0  0  0  0  0  0
  -27.2718  -33.3559   26.2081 H   0  0  0  0  0  0
  -28.3865  -32.6825   25.0278 H   0  0  0  0  0  0
  -28.0760  -31.8364   26.5343 H   0  0  0  0  0  0
  -28.2567  -38.0131   24.7569 H   0  0  0  0  0  0
  -28.1134  -36.2668   24.6169 H   0  0  0  0  0  0
  -27.2343  -37.1315   25.8859 H   0  0  0  0  0  0
  -20.9317  -29.8761   21.6939 H   0  0  0  0  0  0
  -26.0167  -38.2858   24.1468 H   0  0  0  0  0  0
  -32.0844  -17.0081   19.5215 H   0  0  0  0  0  0
  -33.0453  -19.1433   18.7398 H   0  0  0  0  0  0
  -32.9056  -20.3249   20.0333 H   0  0  0  0  0  0
  -31.9511  -20.5049   18.5653 H   0  0  0  0  0  0
  -29.4888  -25.7497   21.5469 H   0  0  0  0  0  0
  -27.8128  -25.8552   21.9516 H   0  0  0  0  0  0
  -30.7881  -21.4333   20.7989 H   0  0  0  0  0  0
  -28.9760  -15.4070   21.1260 H   0  0  0  0  0  0
  -30.5046  -24.3270   21.3546 H   0  0  0  0  0  0
  -26.9039  -23.0312   20.1421 H   0  0  0  0  0  0
  1 25  1  0  0  0
  1 30  2  0  0  0
  1 81  1  0  0  0
  2  3  1  0  0  0
  2 25  1  0  0  0
  2 86  1  0  0  0
  2 87  1  0  0  0
  3  4  1  0  0  0
  3 88  1  0  0  0
  3 89  1  0  0  0
  4  5  1  0  0  0
  4 90  1  0  0  0
  4 91  1  0  0  0
  5  6  1  0  0  0
  5 26  1  0  0  0
  5 92  1  0  0  0
  6 25  1  0  0  0
  6 93  1  0  0  0
  6 94  1  0  0  0
  7  8  2  0  0  0
  7 26  1  0  0  0
  7 29  1  0  0  0
  8  9  1  0  0  0
  8 22  1  0  0  0
  9 10  1  0  0  0
  9 27  2  0  0  0
 10 11  2  0  0  0
 10 15  1  0  0  0
 11 12  1  0  0  0
 11 95  1  0  0  0
 12 13  2  0  0  0
 12 96  1  0  0  0
 13 14  1  0  0  0
 13 31  1  0  0  0
 14 15  2  0  0  0
 14 97  1  0  0  0
 15 98  1  0  0  0
 16 17  2  0  0  0
 16 21  1  0  0  0
 16 31  1  0  0  0
 17 18  1  0  0  0
 17 99  1  0  0  0
 18 19  2  0  0  0
 18100  1  0  0  0
 19 20  1  0  0  0
 19 24  1  0  0  0
 20 21  2  0  0  0
 20101  1  0  0  0
 21 23  1  0  0  0
 22 28  1  0  0  0
 22 32  2  0  0  0
 26 27  1  0  0  0
 28102  1  0  0  0
 28103  1  0  0  0
 29104  1  0  0  0
 29105  1  0  0  0
 33 34  1  0  0  0
 33 66  1  0  0  0
 33 70  2  0  0  0
 34 36  1  0  0  0
 34 59  1  0  0  0
 34106  1  0  0  0
 35 44  2  0  0  0
 35 45  1  0  0  0
 35 68  1  0  0  0
 36 56  1  0  0  0
 36107  1  0  0  0
 37 39  1  0  0  0
 37 47  1  0  0  0
 37 66  1  0  0  0
 37108  1  0  0  0
 38 43  2  0  0  0
 38 46  1  0  0  0
 38 47  1  0  0  0
 39 64  1  0  0  0
 39 67  2  0  0  0
 40 52  1  0  0  0
 40 53  2  0  0  0
 40 58  1  0  0  0
 41109  1  0  0  0
 41110  1  0  0  0
 41111  1  0  0  0
 41 48  1  0  0  0
 42 43  1  0  0  0
 42 66  1  0  0  0
 42112  1  0  0  0
 42113  1  0  0  0
 43 44  1  0  0  0
 44114  1  0  0  0
 45 46  2  0  0  0
 45115  1  0  0  0
 46116  1  0  0  0
 47117  1  0  0  0
 47118  1  0  0  0
 48 56  1  0  0  0
 48 65  1  0  0  0
 48119  1  0  0  0
 49 50  1  0  0  0
 49 53  1  0  0  0
 49 64  1  0  0  0
 49120  1  0  0  0
 50 51  1  0  0  0
 50121  1  0  0  0
 50122  1  0  0  0
 51 52  1  0  0  0
 51123  1  0  0  0
 51124  1  0  0  0
 52125  1  0  0  0
 52126  1  0  0  0
 53 54  1  0  0  0
 54 55  2  0  0  0
 54127  1  0  0  0
 55 57  1  0  0  0
 55128  1  0  0  0
 56 69  2  0  0  0
 57 58  2  0  0  0
 57129  1  0  0  0
 58130  1  0  0  0
 59 60  1  0  0  0
 59 61  1  0  0  0
 59 62  1  0  0  0
 60131  1  0  0  0
 60132  1  0  0  0
 60133  1  0  0  0
 61134  1  0  0  0
 61135  1  0  0  0
 61136  1  0  0  0
 62137  1  0  0  0
 62138  1  0  0  0
 62139  1  0  0  0
 63 65  1  0  0  0
 63140  1  0  0  0
 63141  1  0  0  0
 63142  1  0  0  0
 64143  1  0  0  0
 65144  1  0  0  0
 68 79  1  0  0  0
 71 72  1  0  0  0
 71 73  2  0  0  0
 71145  1  0  0  0
 72 74  2  0  0  0
 72 78  1  0  0  0
 73 81  1  0  0  0
 73 85  1  0  0  0
 74 80  1  0  0  0
 74 85  1  0  0  0
 75 76  2  0  0  0
 75 77  1  0  0  0
 75 83  1  0  0  0
 76 79  1  0  0  0
 76 84  1  0  0  0
 77 80  1  0  0  0
 77 82  2  0  0  0
 78146  1  0  0  0
 78147  1  0  0  0
 78148  1  0  0  0
 79149  1  0  0  0
 79150  1  0  0  0
 80151  1  0  0  0
 81152  1  0  0  0
 83153  1  0  0  0
 84154  1  0  0  0
M  ISO  4   1 100  68 101  79 101  81 100
M  END
> <chiral flag>
0

> <version>
0

> <s_m_source_file>
/data/baiqing/PycharmProjects/Reinvent-master-3.2/result/LINK_invent/BTK/process_docking_weight1_custom_product_contain_oxygen_bond_distance_aromatic_linkinvent_7_9_3/rearranged_h_0176.sdf

> <i_m_source_file_index>
45

> <r_mmod_Potential_Energy-OPLS-2005>
-64.4405059814453

> <r_mmod_Stretch_Energy-OPLS-2005>
48.285228729248

> <r_mmod_Bend_Energy-OPLS-2005>
122.467109680176

> <r_mmod_Torsional_Energy-OPLS-2005>
229.140914916992

> <r_mmod_Improper_Torsional_Energy-OPLS-2005>
5.13800764083862

> <r_mmod_Van_der_Waal_Energy-OPLS-2005>
139.933258056641

> <r_mmod_Electrostatic_Energy-OPLS-2005>
-409.149993896484

> <r_mmod_Solvation_Energy-OPLS-2005>
-223.822036743164

> <b_mmod_Minimization_Converged-OPLS-2005>
0

> <r_mmod_RMS_Derivative-OPLS-2005>
1.83489918708801

$$$$
45
                    3D
 Structure written by MMmdl.
153161  0  0  1  0            999 V2000
  -30.5888  -14.7767   20.4267 C   0  0  0  0  0  0
  -30.4422  -12.4734   19.4831 C   0  0  0  0  0  0
  -29.5221  -12.5074   18.2432 C   0  0  0  0  0  0
  -28.0462  -12.3302   18.6498 C   0  0  0  0  0  0
  -27.6427  -13.2317   19.8468 C   0  0  2  0  0  0
  -28.6834  -13.1791   20.9866 C   0  0  0  0  0  0
  -25.2519  -13.8195   20.5672 C   0  0  0  0  0  0
  -24.1800  -13.0438   20.9189 C   0  0  0  0  0  0
  -24.6397  -11.6923   20.8723 C   0  0  0  0  0  0
  -23.9069  -10.4301   21.0390 C   0  0  0  0  0  0
  -24.3629   -9.4215   21.9172 C   0  0  0  0  0  0
  -23.6305   -8.2252   22.0749 C   0  0  0  0  0  0
  -22.4288   -8.0284   21.3548 C   0  0  0  0  0  0
  -21.9918   -9.0254   20.4647 C   0  0  0  0  0  0
  -22.7238  -10.2137   20.3048 C   0  0  0  0  0  0
  -21.6862   -6.0730   22.5275 C   0  0  0  0  0  0
  -21.4016   -6.5633   23.8204 C   0  0  0  0  0  0
  -21.3661   -5.6788   24.9170 C   0  0  0  0  0  0
  -21.6044   -4.3051   24.7223 C   0  0  0  0  0  0
  -21.8825   -3.8139   23.4345 C   0  0  0  0  0  0
  -21.9196   -4.6958   22.3398 C   0  0  0  0  0  0
  -22.7831  -13.5225   21.1853 C   0  0  0  0  0  0
  -22.1662   -4.2139   21.0981 F   0  0  0  0  0  0
  -21.5632   -3.4538   25.7736 F   0  0  0  0  0  0
  -29.9854  -13.5361   20.4104 N   0  0  0  0  0  0
  -26.2938  -12.9407   20.3229 N   0  0  0  0  0  0
  -25.9329  -11.6548   20.5713 N   0  0  0  0  0  0
  -22.0472  -12.8232   22.0417 N   0  0  0  0  0  0
  -25.4185  -15.1925   20.4088 N   0  0  0  0  0  0
  -31.7898  -14.8597   20.1457 O   0  0  0  0  0  0
  -21.6657   -6.8878   21.4240 O   0  0  0  0  0  0
  -22.3514  -14.5526   20.6685 O   0  0  0  0  0  0
  -24.6323  -31.8527   23.1939 C   0  0  0  0  0  0
  -25.9135  -32.4738   23.8314 C   0  0  1  0  0  0
  -27.2310  -27.2522   20.1278 C   0  0  0  0  0  0
  -25.5919  -33.8547   24.2236 N   0  0  0  0  0  0
  -23.4298  -30.4722   21.5358 C   0  0  2  0  0  0
  -24.8769  -28.9082   20.1126 C   0  0  0  0  0  0
  -22.7513  -29.4593   22.4896 C   0  0  0  0  0  0
  -18.0293  -28.1403   22.8479 C   0  0  0  0  0  0
  -24.1489  -36.7288   23.2632 C   0  0  0  0  0  0
  -25.9743  -30.7646   21.3709 C   0  0  0  0  0  0
  -26.0466  -29.3839   20.7155 C   0  0  0  0  0  0
  -27.2214  -28.5684   20.7078 C   0  0  0  0  0  0
  -26.0280  -26.8308   19.5232 C   0  0  0  0  0  0
  -24.8716  -27.6400   19.5084 C   0  0  0  0  0  0
  -23.6502  -29.7981   20.1547 C   0  0  0  0  0  0
  -25.4113  -36.3056   24.0317 C   0  0  1  0  0  0
  -20.5898  -28.3720   23.1263 C   0  0  2  0  0  0
  -20.6781  -26.9432   22.5411 C   0  0  0  0  0  0
  -19.5758  -26.6385   21.5216 C   0  0  0  0  0  0
  -18.1937  -26.7942   22.1623 C   0  0  0  0  0  0
  -19.1546  -28.8878   23.2867 C   0  0  0  0  0  0
  -18.9465  -30.1469   23.8901 C   0  0  0  0  0  0
  -17.6460  -30.6601   24.0565 C   0  0  0  0  0  0
  -25.9058  -34.9431   23.5088 C   0  0  0  0  0  0
  -16.5354  -29.9104   23.6320 C   0  0  0  0  0  0
  -16.7276  -28.6520   23.0350 C   0  0  0  0  0  0
  -26.4489  -31.6578   25.0727 C   0  0  0  0  0  0
  -25.3692  -31.3768   26.1442 C   0  0  0  0  0  0
  -27.0328  -30.2976   24.6245 C   0  0  0  0  0  0
  -27.6031  -32.4332   25.7516 C   0  0  0  0  0  0
  -27.5586  -37.1796   24.8453 C   0  0  0  0  0  0
  -21.4222  -29.3057   22.3657 N   0  0  0  0  0  0
  -26.4284  -37.3760   23.9413 N   0  0  0  0  0  0
  -24.6976  -31.0494   22.0898 N   0  0  0  0  0  0
  -23.4212  -28.8140   23.3003 O   0  0  0  0  0  0
  -28.3754  -26.4221   20.2127 O   0  0  0  0  0  0
  -26.5637  -34.8899   22.4666 O   0  0  0  0  0  0
  -23.5471  -32.1346   23.7236 O   0  0  0  0  0  0
  -30.2562  -18.4694   17.8786 C   0  0  0  0  0  0
  -29.7754  -19.6599   18.4460 C   0  0  0  0  0  0
  -30.2858  -17.2733   18.6120 C   0  0  0  0  0  0
  -29.3747  -19.6906   19.8064 C   0  0  0  0  0  0
  -29.8531  -17.2540   19.9603 C   0  0  0  0  0  0
  -29.2279  -22.3126   20.0306 C   0  0  0  0  0  0
  -28.2558  -24.9405   18.1572 C   0  0  0  0  0  0
  -28.3609  -23.6158   20.4340 C   0  0  0  0  0  0
  -28.6057  -25.0341   19.6541 C   0  0  2  0  0  0
  -29.3928  -18.4694   20.5097 N   0  0  0  0  0  0
  -28.8538  -20.9972   20.3190 N   0  0  0  0  0  0
  -29.7992  -15.9127   20.6138 N   0  0  0  0  0  0
  -30.3251  -22.5367   19.5139 O   0  0  0  0  0  0
  -29.6514  -20.7406   17.6368 F   0  0  0  0  0  0
  -30.6634  -16.1432   17.9659 F   0  0  0  0  0  0
  -31.4791  -12.6174   19.1736 H   0  0  0  0  0  0
  -30.4078  -11.4984   19.9729 H   0  0  0  0  0  0
  -29.8167  -11.7274   17.5406 H   0  0  0  0  0  0
  -29.6479  -13.4547   17.7164 H   0  0  0  0  0  0
  -27.9052  -11.2820   18.9141 H   0  0  0  0  0  0
  -27.3936  -12.5180   17.7955 H   0  0  0  0  0  0
  -27.6336  -14.2515   19.4622 H   0  0  0  0  0  0
  -28.7228  -12.1852   21.4353 H   0  0  0  0  0  0
  -28.4118  -13.8687   21.7872 H   0  0  0  0  0  0
  -25.2777   -9.5706   22.4742 H   0  0  0  0  0  0
  -24.0010   -7.4662   22.7487 H   0  0  0  0  0  0
  -21.0828   -8.8774   19.8980 H   0  0  0  0  0  0
  -22.3674  -10.9676   19.6163 H   0  0  0  0  0  0
  -21.2010   -7.6146   23.9702 H   0  0  0  0  0  0
  -21.1474   -6.0522   25.9071 H   0  0  0  0  0  0
  -22.0603   -2.7600   23.2849 H   0  0  0  0  0  0
  -22.4081  -11.9909   22.4838 H   0  0  0  0  0  0
  -21.1088  -13.1265   22.2598 H   0  0  0  0  0  0
  -24.6483  -15.8421   20.5272 H   0  0  0  0  0  0
  -26.2547  -15.6353   20.0514 H   0  0  0  0  0  0
  -26.7219  -32.5381   23.1074 H   0  0  0  0  0  0
  -25.0054  -33.9682   25.0376 H   0  0  0  0  0  0
  -22.7249  -31.2923   21.3835 H   0  0  0  0  0  0
  -23.3745  -35.9626   23.3271 H   0  0  0  0  0  0
  -24.3577  -36.8945   22.2049 H   0  0  0  0  0  0
  -23.7249  -37.6483   23.6683 H   0  0  0  0  0  0
  -26.1120  -31.5234   20.5990 H   0  0  0  0  0  0
  -26.8519  -30.8173   22.0039 H   0  0  0  0  0  0
  -28.1200  -28.9333   21.1847 H   0  0  0  0  0  0
  -25.9429  -25.8479   19.0930 H   0  0  0  0  0  0
  -23.9687  -27.2646   19.0465 H   0  0  0  0  0  0
  -23.7823  -30.5685   19.3943 H   0  0  0  0  0  0
  -22.7697  -29.2303   19.8495 H   0  0  0  0  0  0
  -25.1299  -36.1892   25.0809 H   0  0  0  0  0  0
  -20.9984  -28.3291   24.1388 H   0  0  0  0  0  0
  -20.5668  -26.2334   23.3624 H   0  0  0  0  0  0
  -21.6652  -26.7448   22.1213 H   0  0  0  0  0  0
  -19.6917  -25.6284   21.1277 H   0  0  0  0  0  0
  -19.6699  -27.3170   20.6724 H   0  0  0  0  0  0
  -17.4208  -26.6682   21.4024 H   0  0  0  0  0  0
  -18.0335  -26.0095   22.9026 H   0  0  0  0  0  0
  -19.7939  -30.7285   24.2282 H   0  0  0  0  0  0
  -17.5016  -31.6275   24.5181 H   0  0  0  0  0  0
  -15.5359  -30.3019   23.7630 H   0  0  0  0  0  0
  -15.8673  -28.0837   22.7076 H   0  0  0  0  0  0
  -24.5865  -30.7117   25.7773 H   0  0  0  0  0  0
  -24.8888  -32.2962   26.4804 H   0  0  0  0  0  0
  -25.7979  -30.8986   27.0262 H   0  0  0  0  0  0
  -26.2929  -29.6736   24.1217 H   0  0  0  0  0  0
  -27.3924  -29.7222   25.4789 H   0  0  0  0  0  0
  -27.8841  -30.4213   23.9547 H   0  0  0  0  0  0
  -27.2617  -33.3630   26.2082 H   0  0  0  0  0  0
  -28.3855  -32.6909   25.0366 H   0  0  0  0  0  0
  -28.0694  -31.8481   26.5455 H   0  0  0  0  0  0
  -28.2569  -38.0119   24.7524 H   0  0  0  0  0  0
  -28.1113  -36.2659   24.6245 H   0  0  0  0  0  0
  -27.2319  -37.1405   25.8853 H   0  0  0  0  0  0
  -20.9412  -29.8780   21.6865 H   0  0  0  0  0  0
  -26.0153  -38.2830   24.1428 H   0  0  0  0  0  0
  -30.5571  -18.4607   16.8424 H   0  0  0  0  0  0
  -28.8963  -24.2088   17.6658 H   0  0  0  0  0  0
  -28.4017  -25.8914   17.6451 H   0  0  0  0  0  0
  -27.2324  -24.6122   17.9860 H   0  0  0  0  0  0
  -28.5552  -23.7800   21.4936 H   0  0  0  0  0  0
  -27.3033  -23.3623   20.3690 H   0  0  0  0  0  0
  -29.6951  -25.0855   19.6452 H   0  0  0  0  0  0
  -28.0740  -20.9101   20.9529 H   0  0  0  0  0  0
  -28.9270  -15.7286   21.0796 H   0  0  0  0  0  0
  1 25  1  0  0  0
  1 30  2  0  0  0
  1 82  1  0  0  0
  2  3  1  0  0  0
  2 25  1  0  0  0
  2 86  1  0  0  0
  2 87  1  0  0  0
  3  4  1  0  0  0
  3 88  1  0  0  0
  3 89  1  0  0  0
  4  5  1  0  0  0
  4 90  1  0  0  0
  4 91  1  0  0  0
  5  6  1  0  0  0
  5 26  1  0  0  0
  5 92  1  0  0  0
  6 25  1  0  0  0
  6 93  1  0  0  0
  6 94  1  0  0  0
  7  8  2  0  0  0
  7 26  1  0  0  0
  7 29  1  0  0  0
  8  9  1  0  0  0
  8 22  1  0  0  0
  9 10  1  0  0  0
  9 27  2  0  0  0
 10 11  2  0  0  0
 10 15  1  0  0  0
 11 12  1  0  0  0
 11 95  1  0  0  0
 12 13  2  0  0  0
 12 96  1  0  0  0
 13 14  1  0  0  0
 13 31  1  0  0  0
 14 15  2  0  0  0
 14 97  1  0  0  0
 15 98  1  0  0  0
 16 17  2  0  0  0
 16 21  1  0  0  0
 16 31  1  0  0  0
 17 18  1  0  0  0
 17 99  1  0  0  0
 18 19  2  0  0  0
 18100  1  0  0  0
 19 20  1  0  0  0
 19 24  1  0  0  0
 20 21  2  0  0  0
 20101  1  0  0  0
 21 23  1  0  0  0
 22 28  1  0  0  0
 22 32  2  0  0  0
 26 27  1  0  0  0
 28102  1  0  0  0
 28103  1  0  0  0
 29104  1  0  0  0
 29105  1  0  0  0
 33 34  1  0  0  0
 33 66  1  0  0  0
 33 70  2  0  0  0
 34 36  1  0  0  0
 34 59  1  0  0  0
 34106  1  0  0  0
 35 44  2  0  0  0
 35 45  1  0  0  0
 35 68  1  0  0  0
 36 56  1  0  0  0
 36107  1  0  0  0
 37 39  1  0  0  0
 37 47  1  0  0  0
 37 66  1  0  0  0
 37108  1  0  0  0
 38 43  2  0  0  0
 38 46  1  0  0  0
 38 47  1  0  0  0
 39 64  1  0  0  0
 39 67  2  0  0  0
 40 52  1  0  0  0
 40 53  2  0  0  0
 40 58  1  0  0  0
 41109  1  0  0  0
 41110  1  0  0  0
 41111  1  0  0  0
 41 48  1  0  0  0
 42 43  1  0  0  0
 42 66  1  0  0  0
 42112  1  0  0  0
 42113  1  0  0  0
 43 44  1  0  0  0
 44114  1  0  0  0
 45 46  2  0  0  0
 45115  1  0  0  0
 46116  1  0  0  0
 47117  1  0  0  0
 47118  1  0  0  0
 48 56  1  0  0  0
 48 65  1  0  0  0
 48119  1  0  0  0
 49 50  1  0  0  0
 49 53  1  0  0  0
 49 64  1  0  0  0
 49120  1  0  0  0
 50 51  1  0  0  0
 50121  1  0  0  0
 50122  1  0  0  0
 51 52  1  0  0  0
 51123  1  0  0  0
 51124  1  0  0  0
 52125  1  0  0  0
 52126  1  0  0  0
 53 54  1  0  0  0
 54 55  2  0  0  0
 54127  1  0  0  0
 55 57  1  0  0  0
 55128  1  0  0  0
 56 69  2  0  0  0
 57 58  2  0  0  0
 57129  1  0  0  0
 58130  1  0  0  0
 59 60  1  0  0  0
 59 61  1  0  0  0
 59 62  1  0  0  0
 60131  1  0  0  0
 60132  1  0  0  0
 60133  1  0  0  0
 61134  1  0  0  0
 61135  1  0  0  0
 61136  1  0  0  0
 62137  1  0  0  0
 62138  1  0  0  0
 62139  1  0  0  0
 63 65  1  0  0  0
 63140  1  0  0  0
 63141  1  0  0  0
 63142  1  0  0  0
 64143  1  0  0  0
 65144  1  0  0  0
 68 79  1  0  0  0
 71 72  2  0  0  0
 71 73  1  0  0  0
 71145  1  0  0  0
 72 74  1  0  0  0
 72 84  1  0  0  0
 73 75  2  0  0  0
 73 85  1  0  0  0
 74 80  2  0  0  0
 74 81  1  0  0  0
 75 80  1  0  0  0
 75 82  1  0  0  0
 76 78  1  0  0  0
 76 81  1  0  0  0
 76 83  2  0  0  0
 77146  1  0  0  0
 77147  1  0  0  0
 77148  1  0  0  0
 77 79  1  0  0  0
 78 79  1  0  0  0
 78149  1  0  0  0
 78150  1  0  0  0
 79151  1  0  0  0
 81152  1  0  0  0
 82153  1  0  0  0
M  ISO  4   1 100  68 101  79 101  82 100
M  END
> <chiral flag>
0

> <version>
0

> <s_m_source_file>
/data/baiqing/PycharmProjects/Reinvent-master-3.2/result/LINK_invent/BTK/process_docking_weight1_custom_product_contain_oxygen_bond_distance_aromatic_linkinvent_7_9_3/rearranged_h_0176.sdf

> <i_m_source_file_index>
46

> <r_mmod_Potential_Energy-OPLS-2005>
82.6724090576172

> <r_mmod_Stretch_Energy-OPLS-2005>
146.170822143555

> <r_mmod_Bend_Energy-OPLS-2005>
207.591644287109

> <r_mmod_Torsional_Energy-OPLS-2005>
241.70686340332

> <r_mmod_Improper_Torsional_Energy-OPLS-2005>
5.97153091430664

> <r_mmod_Van_der_Waal_Energy-OPLS-2005>
145.364654541016

> <r_mmod_Electrostatic_Energy-OPLS-2005>
-511.592163085938

> <r_mmod_Solvation_Energy-OPLS-2005>
-245.116119384766

> <b_mmod_Minimization_Converged-OPLS-2005>
0

> <r_mmod_RMS_Derivative-OPLS-2005>
2.17765641212463

$$$$
46
                    3D
 Structure written by MMmdl.
152160  0  0  1  0            999 V2000
  -30.6601  -14.5465   20.4884 C   0  0  0  0  0  0
  -30.4216  -12.3265   19.4435 C   0  0  0  0  0  0
  -29.5013  -12.4938   18.2156 C   0  0  0  0  0  0
  -28.0208  -12.3536   18.6226 C   0  0  0  0  0  0
  -27.6543  -13.2100   19.8652 C   0  0  2  0  0  0
  -28.6971  -13.0407   20.9945 C   0  0  0  0  0  0
  -25.2572  -13.8161   20.5659 C   0  0  0  0  0  0
  -24.1831  -13.0436   20.9175 C   0  0  0  0  0  0
  -24.6380  -11.6909   20.8725 C   0  0  0  0  0  0
  -23.9046  -10.4295   21.0406 C   0  0  0  0  0  0
  -24.3602   -9.4222   21.9185 C   0  0  0  0  0  0
  -23.6292   -8.2255   22.0753 C   0  0  0  0  0  0
  -22.4276   -8.0275   21.3547 C   0  0  0  0  0  0
  -21.9911   -9.0242   20.4643 C   0  0  0  0  0  0
  -22.7224  -10.2133   20.3056 C   0  0  0  0  0  0
  -21.6854   -6.0739   22.5277 C   0  0  0  0  0  0
  -21.4011   -6.5643   23.8206 C   0  0  0  0  0  0
  -21.3660   -5.6799   24.9170 C   0  0  0  0  0  0
  -21.6042   -4.3061   24.7229 C   0  0  0  0  0  0
  -21.8824   -3.8150   23.4348 C   0  0  0  0  0  0
  -21.9197   -4.6965   22.3400 C   0  0  0  0  0  0
  -22.7867  -13.5245   21.1845 C   0  0  0  0  0  0
  -22.1667   -4.2153   21.0981 F   0  0  0  0  0  0
  -21.5622   -3.4543   25.7746 F   0  0  0  0  0  0
  -30.0218  -13.3423   20.4327 N   0  0  0  0  0  0
  -26.2989  -12.9327   20.3311 N   0  0  0  0  0  0
  -25.9310  -11.6493   20.5746 N   0  0  0  0  0  0
  -22.0510  -12.8222   22.0394 N   0  0  0  0  0  0
  -25.4307  -15.1884   20.4061 N   0  0  0  0  0  0
  -31.8340  -14.6704   20.1231 O   0  0  0  0  0  0
  -21.6641   -6.8875   21.4242 O   0  0  0  0  0  0
  -22.3568  -14.5564   20.6711 O   0  0  0  0  0  0
  -24.6194  -31.8650   23.2063 C   0  0  0  0  0  0
  -25.9074  -32.4798   23.8378 C   0  0  1  0  0  0
  -27.2314  -27.3929   20.1001 C   0  0  0  0  0  0
  -25.5909  -33.8598   24.2301 N   0  0  0  0  0  0
  -23.4070  -30.4886   21.5482 C   0  0  2  0  0  0
  -24.8516  -28.9469   20.1170 C   0  0  0  0  0  0
  -22.7400  -29.4675   22.4986 C   0  0  0  0  0  0
  -18.0260  -28.1391   22.8518 C   0  0  0  0  0  0
  -24.1474  -36.7295   23.2625 C   0  0  0  0  0  0
  -25.9396  -30.8179   21.3629 C   0  0  0  0  0  0
  -26.0140  -29.4479   20.7142 C   0  0  0  0  0  0
  -27.2034  -28.6780   20.7020 C   0  0  0  0  0  0
  -26.0430  -26.9140   19.5011 C   0  0  0  0  0  0
  -24.8629  -27.6807   19.5099 C   0  0  0  0  0  0
  -23.6157  -29.8178   20.1648 C   0  0  0  0  0  0
  -25.4090  -36.3083   24.0329 C   0  0  1  0  0  0
  -20.5856  -28.3703   23.1328 C   0  0  2  0  0  0
  -20.6766  -26.9437   22.5438 C   0  0  0  0  0  0
  -19.5736  -26.6407   21.5243 C   0  0  0  0  0  0
  -18.1905  -26.7945   22.1637 C   0  0  0  0  0  0
  -19.1510  -28.8861   23.2922 C   0  0  0  0  0  0
  -18.9438  -30.1464   23.8939 C   0  0  0  0  0  0
  -17.6444  -30.6604   24.0583 C   0  0  0  0  0  0
  -25.9047  -34.9459   23.5116 C   0  0  0  0  0  0
  -16.5342  -29.9110   23.6341 C   0  0  0  0  0  0
  -16.7253  -28.6522   23.0375 C   0  0  0  0  0  0
  -26.4483  -31.6581   25.0721 C   0  0  0  0  0  0
  -25.3732  -31.3681   26.1456 C   0  0  0  0  0  0
  -27.0331  -30.3024   24.6124 C   0  0  0  0  0  0
  -27.6056  -32.4311   25.7490 C   0  0  0  0  0  0
  -27.5600  -37.1732   24.8414 C   0  0  0  0  0  0
  -21.4129  -29.3058   22.3714 N   0  0  0  0  0  0
  -26.4231  -37.3816   23.9485 N   0  0  0  0  0  0
  -24.6745  -31.0716   22.0981 N   0  0  0  0  0  0
  -23.4155  -28.8221   23.3047 O   0  0  0  0  0  0
  -28.4095  -26.6598   20.1275 O   0  0  0  0  0  0
  -26.5613  -34.8926   22.4680 O   0  0  0  0  0  0
  -23.5376  -32.1436   23.7436 O   0  0  0  0  0  0
  -29.8375  -19.4458   19.8909 C   0  0  0  0  0  0
  -30.8614  -18.7788   19.2389 C   0  0  0  0  0  0
  -30.0188  -16.9916   20.4102 C   0  0  0  0  0  0
  -29.4398  -20.8836   19.7956 C   0  0  0  0  0  0
  -28.2491  -24.1873   20.6023 C   0  0  0  0  0  0
  -28.3548  -21.5244   20.6915 C   0  0  0  0  0  0
  -27.7120  -22.8278   20.0927 C   0  0  0  0  0  0
  -28.4717  -25.3226   19.5646 C   0  0  0  0  0  0
  -30.9460  -17.4153   19.5421 N   0  0  0  0  0  0
  -31.7939  -19.2991   18.3366 N   0  0  0  0  0  0
  -29.8800  -15.6123   20.8101 N   0  0  0  0  0  0
  -29.9974  -21.6301   18.9848 O   0  0  0  0  0  0
  -28.4978  -24.3555   21.8007 O   0  0  0  0  0  0
  -28.9455  -18.3168   20.9193 S   0  0  0  0  0  0
  -31.4685  -12.4198   19.1478 H   0  0  0  0  0  0
  -30.3193  -11.3263   19.8660 H   0  0  0  0  0  0
  -29.7520  -11.7551   17.4527 H   0  0  0  0  0  0
  -29.6651  -13.4711   17.7594 H   0  0  0  0  0  0
  -27.8358  -11.2998   18.8320 H   0  0  0  0  0  0
  -27.3765  -12.6154   17.7825 H   0  0  0  0  0  0
  -27.6804  -14.2498   19.5395 H   0  0  0  0  0  0
  -28.6834  -12.0199   21.3794 H   0  0  0  0  0  0
  -28.4634  -13.6798   21.8475 H   0  0  0  0  0  0
  -25.2745   -9.5705   22.4764 H   0  0  0  0  0  0
  -24.0009   -7.4657   22.7486 H   0  0  0  0  0  0
  -21.0839   -8.8749   19.8950 H   0  0  0  0  0  0
  -22.3671  -10.9667   19.6167 H   0  0  0  0  0  0
  -21.2001   -7.6147   23.9713 H   0  0  0  0  0  0
  -21.1470   -6.0528   25.9078 H   0  0  0  0  0  0
  -22.0599   -2.7615   23.2853 H   0  0  0  0  0  0
  -22.4129  -11.9866   22.4745 H   0  0  0  0  0  0
  -21.1133  -13.1241   22.2608 H   0  0  0  0  0  0
  -24.6564  -15.8382   20.4897 H   0  0  0  0  0  0
  -26.2736  -15.6224   20.0504 H   0  0  0  0  0  0
  -26.7143  -32.5500   23.1138 H   0  0  0  0  0  0
  -25.0047  -33.9756   25.0441 H   0  0  0  0  0  0
  -22.7013  -31.3091   21.4038 H   0  0  0  0  0  0
  -23.3785  -35.9560   23.3136 H   0  0  0  0  0  0
  -24.3618  -36.9087   22.2075 H   0  0  0  0  0  0
  -23.7135  -37.6411   23.6760 H   0  0  0  0  0  0
  -26.0481  -31.5773   20.5880 H   0  0  0  0  0  0
  -26.8295  -30.8811   21.9768 H   0  0  0  0  0  0
  -28.1022  -29.0617   21.1654 H   0  0  0  0  0  0
  -25.9880  -25.9452   19.0302 H   0  0  0  0  0  0
  -23.9658  -27.2878   19.0507 H   0  0  0  0  0  0
  -23.7255  -30.5911   19.4043 H   0  0  0  0  0  0
  -22.7387  -29.2396   19.8683 H   0  0  0  0  0  0
  -25.1233  -36.1908   25.0809 H   0  0  0  0  0  0
  -20.9942  -28.3282   24.1454 H   0  0  0  0  0  0
  -20.5731  -26.2298   23.3624 H   0  0  0  0  0  0
  -21.6630  -26.7513   22.1203 H   0  0  0  0  0  0
  -19.6913  -25.6324   21.1257 H   0  0  0  0  0  0
  -19.6666  -27.3238   20.6794 H   0  0  0  0  0  0
  -17.4185  -26.6728   21.4021 H   0  0  0  0  0  0
  -18.0279  -26.0072   22.9012 H   0  0  0  0  0  0
  -19.7910  -30.7277   24.2327 H   0  0  0  0  0  0
  -17.4996  -31.6284   24.5177 H   0  0  0  0  0  0
  -15.5346  -30.3028   23.7651 H   0  0  0  0  0  0
  -15.8645  -28.0855   22.7098 H   0  0  0  0  0  0
  -24.5958  -30.6963   25.7805 H   0  0  0  0  0  0
  -24.8850  -32.2813   26.4866 H   0  0  0  0  0  0
  -25.8091  -30.8906   27.0238 H   0  0  0  0  0  0
  -26.2881  -29.6754   24.1217 H   0  0  0  0  0  0
  -27.4136  -29.7304   25.4600 H   0  0  0  0  0  0
  -27.8688  -30.4353   23.9253 H   0  0  0  0  0  0
  -27.2713  -33.3654   26.2019 H   0  0  0  0  0  0
  -28.3893  -32.6802   25.0320 H   0  0  0  0  0  0
  -28.0676  -31.8445   26.5441 H   0  0  0  0  0  0
  -28.2411  -38.0231   24.7805 H   0  0  0  0  0  0
  -28.1305  -36.2805   24.5798 H   0  0  0  0  0  0
  -27.2387  -37.0836   25.8806 H   0  0  0  0  0  0
  -20.9292  -29.8752   21.6909 H   0  0  0  0  0  0
  -26.0091  -38.2828   24.1720 H   0  0  0  0  0  0
  -28.7750  -21.7110   21.6795 H   0  0  0  0  0  0
  -27.5657  -20.7874   20.8324 H   0  0  0  0  0  0
  -27.7387  -22.8138   19.0033 H   0  0  0  0  0  0
  -26.6528  -22.8190   20.3502 H   0  0  0  0  0  0
  -27.8350  -25.1918   18.6923 H   0  0  0  0  0  0
  -29.4871  -25.1924   19.1897 H   0  0  0  0  0  0
  -31.8077  -20.2886   18.1038 H   0  0  0  0  0  0
  -32.5334  -18.7346   17.9332 H   0  0  0  0  0  0
  -28.9907  -15.3782   21.2210 H   0  0  0  0  0  0
  1 25  1  0  0  0
  1 30  2  0  0  0
  1 81  1  0  0  0
  2  3  1  0  0  0
  2 25  1  0  0  0
  2 85  1  0  0  0
  2 86  1  0  0  0
  3  4  1  0  0  0
  3 87  1  0  0  0
  3 88  1  0  0  0
  4  5  1  0  0  0
  4 89  1  0  0  0
  4 90  1  0  0  0
  5  6  1  0  0  0
  5 26  1  0  0  0
  5 91  1  0  0  0
  6 25  1  0  0  0
  6 92  1  0  0  0
  6 93  1  0  0  0
  7  8  2  0  0  0
  7 26  1  0  0  0
  7 29  1  0  0  0
  8  9  1  0  0  0
  8 22  1  0  0  0
  9 10  1  0  0  0
  9 27  2  0  0  0
 10 11  2  0  0  0
 10 15  1  0  0  0
 11 12  1  0  0  0
 11 94  1  0  0  0
 12 13  2  0  0  0
 12 95  1  0  0  0
 13 14  1  0  0  0
 13 31  1  0  0  0
 14 15  2  0  0  0
 14 96  1  0  0  0
 15 97  1  0  0  0
 16 17  2  0  0  0
 16 21  1  0  0  0
 16 31  1  0  0  0
 17 18  1  0  0  0
 17 98  1  0  0  0
 18 19  2  0  0  0
 18 99  1  0  0  0
 19 20  1  0  0  0
 19 24  1  0  0  0
 20 21  2  0  0  0
 20100  1  0  0  0
 21 23  1  0  0  0
 22 28  1  0  0  0
 22 32  2  0  0  0
 26 27  1  0  0  0
 28101  1  0  0  0
 28102  1  0  0  0
 29103  1  0  0  0
 29104  1  0  0  0
 33 34  1  0  0  0
 33 66  1  0  0  0
 33 70  2  0  0  0
 34 36  1  0  0  0
 34 59  1  0  0  0
 34105  1  0  0  0
 35 44  2  0  0  0
 35 45  1  0  0  0
 35 68  1  0  0  0
 36 56  1  0  0  0
 36106  1  0  0  0
 37 39  1  0  0  0
 37 47  1  0  0  0
 37 66  1  0  0  0
 37107  1  0  0  0
 38 43  2  0  0  0
 38 46  1  0  0  0
 38 47  1  0  0  0
 39 64  1  0  0  0
 39 67  2  0  0  0
 40 52  1  0  0  0
 40 53  2  0  0  0
 40 58  1  0  0  0
 41108  1  0  0  0
 41109  1  0  0  0
 41110  1  0  0  0
 41 48  1  0  0  0
 42 43  1  0  0  0
 42 66  1  0  0  0
 42111  1  0  0  0
 42112  1  0  0  0
 43 44  1  0  0  0
 44113  1  0  0  0
 45 46  2  0  0  0
 45114  1  0  0  0
 46115  1  0  0  0
 47116  1  0  0  0
 47117  1  0  0  0
 48 56  1  0  0  0
 48 65  1  0  0  0
 48118  1  0  0  0
 49 50  1  0  0  0
 49 53  1  0  0  0
 49 64  1  0  0  0
 49119  1  0  0  0
 50 51  1  0  0  0
 50120  1  0  0  0
 50121  1  0  0  0
 51 52  1  0  0  0
 51122  1  0  0  0
 51123  1  0  0  0
 52124  1  0  0  0
 52125  1  0  0  0
 53 54  1  0  0  0
 54 55  2  0  0  0
 54126  1  0  0  0
 55 57  1  0  0  0
 55127  1  0  0  0
 56 69  2  0  0  0
 57 58  2  0  0  0
 57128  1  0  0  0
 58129  1  0  0  0
 59 60  1  0  0  0
 59 61  1  0  0  0
 59 62  1  0  0  0
 60130  1  0  0  0
 60131  1  0  0  0
 60132  1  0  0  0
 61133  1  0  0  0
 61134  1  0  0  0
 61135  1  0  0  0
 62136  1  0  0  0
 62137  1  0  0  0
 62138  1  0  0  0
 63 65  1  0  0  0
 63139  1  0  0  0
 63140  1  0  0  0
 63141  1  0  0  0
 64142  1  0  0  0
 65143  1  0  0  0
 68 78  1  0  0  0
 71 72  2  0  0  0
 71 74  1  0  0  0
 71 84  1  0  0  0
 72 79  1  0  0  0
 72 80  1  0  0  0
 73 79  2  0  0  0
 73 81  1  0  0  0
 73 84  1  0  0  0
 74 76  1  0  0  0
 74 82  2  0  0  0
 75 77  1  0  0  0
 75 78  1  0  0  0
 75 83  2  0  0  0
 76 77  1  0  0  0
 76144  1  0  0  0
 76145  1  0  0  0
 77146  1  0  0  0
 77147  1  0  0  0
 78148  1  0  0  0
 78149  1  0  0  0
 80150  1  0  0  0
 80151  1  0  0  0
 81152  1  0  0  0
M  ISO  4   1 100  68 101  78 101  81 100
M  END
> <chiral flag>
0

> <version>
0

> <s_m_source_file>
/data/baiqing/PycharmProjects/Reinvent-master-3.2/result/LINK_invent/BTK/process_docking_weight1_custom_product_contain_oxygen_bond_distance_aromatic_linkinvent_7_9_3/rearranged_h_0176.sdf

> <i_m_source_file_index>
47

> <r_mmod_Potential_Energy-OPLS-2005>
-172.238067626953

> <r_mmod_Stretch_Energy-OPLS-2005>
47.105655670166

> <r_mmod_Bend_Energy-OPLS-2005>
127.137084960938

> <r_mmod_Torsional_Energy-OPLS-2005>
200.840667724609

> <r_mmod_Improper_Torsional_Energy-OPLS-2005>
4.59500551223755

> <r_mmod_Van_der_Waal_Energy-OPLS-2005>
131.034408569336

> <r_mmod_Electrostatic_Energy-OPLS-2005>
-443.142639160156

> <r_mmod_Solvation_Energy-OPLS-2005>
-263.587982177734

> <b_mmod_Minimization_Converged-OPLS-2005>
0

> <r_mmod_RMS_Derivative-OPLS-2005>
2.30391216278076

$$$$
47
                    3D
 Structure written by MMmdl.
153161  0  0  1  0            999 V2000
  -30.7083  -14.5339   20.4805 C   0  0  0  0  0  0
  -30.4154  -12.3244   19.4412 C   0  0  0  0  0  0
  -29.4960  -12.4895   18.2133 C   0  0  0  0  0  0
  -28.0177  -12.3492   18.6239 C   0  0  0  0  0  0
  -27.6527  -13.2186   19.8570 C   0  0  2  0  0  0
  -28.6977  -13.0786   20.9878 C   0  0  0  0  0  0
  -25.2545  -13.8195   20.5686 C   0  0  0  0  0  0
  -24.1803  -13.0462   20.9196 C   0  0  0  0  0  0
  -24.6374  -11.6938   20.8732 C   0  0  0  0  0  0
  -23.9032  -10.4318   21.0399 C   0  0  0  0  0  0
  -24.3581   -9.4245   21.9179 C   0  0  0  0  0  0
  -23.6284   -8.2265   22.0744 C   0  0  0  0  0  0
  -22.4267   -8.0280   21.3532 C   0  0  0  0  0  0
  -21.9894   -9.0257   20.4641 C   0  0  0  0  0  0
  -22.7194  -10.2152   20.3062 C   0  0  0  0  0  0
  -21.6867   -6.0732   22.5275 C   0  0  0  0  0  0
  -21.4014   -6.5636   23.8203 C   0  0  0  0  0  0
  -21.3667   -5.6785   24.9169 C   0  0  0  0  0  0
  -21.6050   -4.3055   24.7220 C   0  0  0  0  0  0
  -21.8814   -3.8144   23.4340 C   0  0  0  0  0  0
  -21.9198   -4.6959   22.3395 C   0  0  0  0  0  0
  -22.7820  -13.5256   21.1860 C   0  0  0  0  0  0
  -22.1662   -4.2138   21.0976 F   0  0  0  0  0  0
  -21.5634   -3.4540   25.7739 F   0  0  0  0  0  0
  -30.0245  -13.3551   20.4189 N   0  0  0  0  0  0
  -26.2972  -12.9381   20.3295 N   0  0  0  0  0  0
  -25.9304  -11.6533   20.5733 N   0  0  0  0  0  0
  -22.0447  -12.8270   22.0416 N   0  0  0  0  0  0
  -25.4278  -15.1921   20.4101 N   0  0  0  0  0  0
  -31.9015  -14.6156   20.1864 O   0  0  0  0  0  0
  -21.6646   -6.8869   21.4230 O   0  0  0  0  0  0
  -22.3527  -14.5568   20.6710 O   0  0  0  0  0  0
  -24.6149  -31.8656   23.2069 C   0  0  0  0  0  0
  -25.9036  -32.4808   23.8372 C   0  0  1  0  0  0
  -27.2362  -27.4196   20.1134 C   0  0  0  0  0  0
  -25.5894  -33.8599   24.2316 N   0  0  0  0  0  0
  -23.4037  -30.4902   21.5448 C   0  0  2  0  0  0
  -24.8534  -28.9519   20.1108 C   0  0  0  0  0  0
  -22.7397  -29.4667   22.4943 C   0  0  0  0  0  0
  -18.0273  -28.1390   22.8479 C   0  0  0  0  0  0
  -24.1487  -36.7321   23.2636 C   0  0  0  0  0  0
  -25.9321  -30.8312   21.3570 C   0  0  0  0  0  0
  -26.0122  -29.4624   20.7105 C   0  0  0  0  0  0
  -27.2087  -28.7063   20.7041 C   0  0  0  0  0  0
  -26.0634  -26.9311   19.4984 C   0  0  0  0  0  0
  -24.8750  -27.6867   19.4975 C   0  0  0  0  0  0
  -23.6132  -29.8177   20.1602 C   0  0  0  0  0  0
  -25.4098  -36.3099   24.0337 C   0  0  1  0  0  0
  -20.5865  -28.3691   23.1301 C   0  0  2  0  0  0
  -20.6767  -26.9424   22.5421 C   0  0  0  0  0  0
  -19.5759  -26.6390   21.5210 C   0  0  0  0  0  0
  -18.1931  -26.7936   22.1607 C   0  0  0  0  0  0
  -19.1520  -28.8858   23.2894 C   0  0  0  0  0  0
  -18.9452  -30.1456   23.8910 C   0  0  0  0  0  0
  -17.6459  -30.6598   24.0562 C   0  0  0  0  0  0
  -25.9029  -34.9464   23.5124 C   0  0  0  0  0  0
  -16.5352  -29.9100   23.6321 C   0  0  0  0  0  0
  -16.7261  -28.6518   23.0344 C   0  0  0  0  0  0
  -26.4464  -31.6579   25.0693 C   0  0  0  0  0  0
  -25.3745  -31.3682   26.1457 C   0  0  0  0  0  0
  -27.0287  -30.3022   24.6056 C   0  0  0  0  0  0
  -27.6050  -32.4280   25.7453 C   0  0  0  0  0  0
  -27.5590  -37.1792   24.8447 C   0  0  0  0  0  0
  -21.4129  -29.3053   22.3689 N   0  0  0  0  0  0
  -26.4278  -37.3795   23.9429 N   0  0  0  0  0  0
  -24.6696  -31.0757   22.0961 N   0  0  0  0  0  0
  -23.4157  -28.8223   23.3007 O   0  0  0  0  0  0
  -28.3823  -26.6464   20.1221 O   0  0  0  0  0  0
  -26.5593  -34.8925   22.4682 O   0  0  0  0  0  0
  -23.5340  -32.1404   23.7468 O   0  0  0  0  0  0
  -29.8741  -18.1736   20.6808 C   0  0  0  0  0  0
  -30.5737  -19.4448   18.7182 C   0  0  0  0  0  0
  -30.0500  -19.4370   20.0315 C   0  0  0  0  0  0
  -30.2185  -16.9439   20.0340 C   0  0  0  0  0  0
  -30.9060  -18.2474   18.0654 C   0  0  0  0  0  0
  -30.7164  -17.0109   18.7032 C   0  0  0  0  0  0
  -29.0781  -22.9826   20.7708 C   0  0  0  0  0  0
  -29.2644  -24.3149   20.5270 C   0  0  0  0  0  0
  -30.0254  -21.9352   20.3521 C   0  0  0  0  0  0
  -28.2792  -25.4340   20.9058 C   0  0  0  0  0  0
  -29.6068  -20.6731   20.6322 N   0  0  0  0  0  0
  -29.9715  -15.6598   20.6616 N   0  0  0  0  0  0
  -31.1162  -22.1694   19.8181 O   0  0  0  0  0  0
  -30.3420  -24.8349   19.9090 O   0  0  0  0  0  0
  -31.3716  -18.2841   16.7945 F   0  0  0  0  0  0
  -30.9686  -15.8895   17.9859 F   0  0  0  0  0  0
  -27.9539  -22.6064   21.4085 F   0  0  0  0  0  0
  -31.4630  -12.4039   19.1415 H   0  0  0  0  0  0
  -30.2999  -11.3292   19.8732 H   0  0  0  0  0  0
  -29.7450  -11.7495   17.4508 H   0  0  0  0  0  0
  -29.6598  -13.4661   17.7530 H   0  0  0  0  0  0
  -27.8343  -11.2961   18.8397 H   0  0  0  0  0  0
  -27.3684  -12.5998   17.7841 H   0  0  0  0  0  0
  -27.6732  -14.2530   19.5142 H   0  0  0  0  0  0
  -28.6801  -12.0712   21.4068 H   0  0  0  0  0  0
  -28.4670  -13.7542   21.8128 H   0  0  0  0  0  0
  -25.2718   -9.5751   22.4757 H   0  0  0  0  0  0
  -24.0012   -7.4661   22.7463 H   0  0  0  0  0  0
  -21.0824   -8.8762   19.8967 H   0  0  0  0  0  0
  -22.3625  -10.9678   19.6188 H   0  0  0  0  0  0
  -21.2007   -7.6146   23.9701 H   0  0  0  0  0  0
  -21.1494   -6.0518   25.9064 H   0  0  0  0  0  0
  -22.0595   -2.7603   23.2834 H   0  0  0  0  0  0
  -22.4025  -11.9930   22.4823 H   0  0  0  0  0  0
  -21.1075  -13.1323   22.2613 H   0  0  0  0  0  0
  -24.6616  -15.8471   20.5157 H   0  0  0  0  0  0
  -26.2825  -15.6333   20.0945 H   0  0  0  0  0  0
  -26.7102  -32.5525   23.1134 H   0  0  0  0  0  0
  -25.0045  -33.9754   25.0462 H   0  0  0  0  0  0
  -22.6944  -31.3076   21.4013 H   0  0  0  0  0  0
  -23.3751  -35.9654   23.3265 H   0  0  0  0  0  0
  -24.3610  -36.8969   22.2065 H   0  0  0  0  0  0
  -23.7229  -37.6509   23.6670 H   0  0  0  0  0  0
  -26.0317  -31.5942   20.5833 H   0  0  0  0  0  0
  -26.8249  -30.8943   21.9668 H   0  0  0  0  0  0
  -28.1029  -29.0971   21.1711 H   0  0  0  0  0  0
  -26.0656  -25.9604   19.0241 H   0  0  0  0  0  0
  -23.9864  -27.2906   19.0248 H   0  0  0  0  0  0
  -23.7135  -30.5874   19.3938 H   0  0  0  0  0  0
  -22.7400  -29.2298   19.8721 H   0  0  0  0  0  0
  -25.1269  -36.1948   25.0829 H   0  0  0  0  0  0
  -20.9964  -28.3284   24.1418 H   0  0  0  0  0  0
  -20.5658  -26.2319   23.3618 H   0  0  0  0  0  0
  -21.6644  -26.7469   22.1231 H   0  0  0  0  0  0
  -19.6935  -25.6297   21.1255 H   0  0  0  0  0  0
  -19.6715  -27.3181   20.6722 H   0  0  0  0  0  0
  -17.4213  -26.6683   21.4000 H   0  0  0  0  0  0
  -18.0338  -26.0076   22.8997 H   0  0  0  0  0  0
  -19.7932  -30.7259   24.2282 H   0  0  0  0  0  0
  -17.5027  -31.6277   24.5165 H   0  0  0  0  0  0
  -15.5353  -30.3019   23.7647 H   0  0  0  0  0  0
  -15.8659  -28.0852   22.7046 H   0  0  0  0  0  0
  -24.5923  -30.7014   25.7811 H   0  0  0  0  0  0
  -24.8933  -32.2838   26.4908 H   0  0  0  0  0  0
  -25.8129  -30.8859   27.0206 H   0  0  0  0  0  0
  -26.2821  -29.6780   24.1135 H   0  0  0  0  0  0
  -27.4087  -29.7255   25.4501 H   0  0  0  0  0  0
  -27.8643  -30.4340   23.9177 H   0  0  0  0  0  0
  -27.2678  -33.3565   26.2071 H   0  0  0  0  0  0
  -28.3848  -32.6854   25.0272 H   0  0  0  0  0  0
  -28.0731  -31.8367   26.5334 H   0  0  0  0  0  0
  -28.2553  -38.0141   24.7560 H   0  0  0  0  0  0
  -28.1133  -36.2675   24.6161 H   0  0  0  0  0  0
  -27.2337  -37.1316   25.8855 H   0  0  0  0  0  0
  -20.9279  -29.8761   21.6903 H   0  0  0  0  0  0
  -26.0159  -38.2861   24.1472 H   0  0  0  0  0  0
  -29.4595  -18.1449   21.6801 H   0  0  0  0  0  0
  -30.6879  -20.3642   18.1632 H   0  0  0  0  0  0
  -28.4569  -25.6884   21.9516 H   0  0  0  0  0  0
  -27.2733  -25.0156   20.8591 H   0  0  0  0  0  0
  -28.8021  -20.6285   21.2445 H   0  0  0  0  0  0
  -29.0502  -15.5286   21.0465 H   0  0  0  0  0  0
  -30.9270  -24.1089   19.7059 H   0  0  0  0  0  0
  1 25  1  0  0  0
  1 30  2  0  0  0
  1 82  1  0  0  0
  2  3  1  0  0  0
  2 25  1  0  0  0
  2 88  1  0  0  0
  2 89  1  0  0  0
  3  4  1  0  0  0
  3 90  1  0  0  0
  3 91  1  0  0  0
  4  5  1  0  0  0
  4 92  1  0  0  0
  4 93  1  0  0  0
  5  6  1  0  0  0
  5 26  1  0  0  0
  5 94  1  0  0  0
  6 25  1  0  0  0
  6 95  1  0  0  0
  6 96  1  0  0  0
  7  8  2  0  0  0
  7 26  1  0  0  0
  7 29  1  0  0  0
  8  9  1  0  0  0
  8 22  1  0  0  0
  9 10  1  0  0  0
  9 27  2  0  0  0
 10 11  2  0  0  0
 10 15  1  0  0  0
 11 12  1  0  0  0
 11 97  1  0  0  0
 12 13  2  0  0  0
 12 98  1  0  0  0
 13 14  1  0  0  0
 13 31  1  0  0  0
 14 15  2  0  0  0
 14 99  1  0  0  0
 15100  1  0  0  0
 16 17  2  0  0  0
 16 21  1  0  0  0
 16 31  1  0  0  0
 17 18  1  0  0  0
 17101  1  0  0  0
 18 19  2  0  0  0
 18102  1  0  0  0
 19 20  1  0  0  0
 19 24  1  0  0  0
 20 21  2  0  0  0
 20103  1  0  0  0
 21 23  1  0  0  0
 22 28  1  0  0  0
 22 32  2  0  0  0
 26 27  1  0  0  0
 28104  1  0  0  0
 28105  1  0  0  0
 29106  1  0  0  0
 29107  1  0  0  0
 33 34  1  0  0  0
 33 66  1  0  0  0
 33 70  2  0  0  0
 34 36  1  0  0  0
 34 59  1  0  0  0
 34108  1  0  0  0
 35 44  2  0  0  0
 35 45  1  0  0  0
 35 68  1  0  0  0
 36 56  1  0  0  0
 36109  1  0  0  0
 37 39  1  0  0  0
 37 47  1  0  0  0
 37 66  1  0  0  0
 37110  1  0  0  0
 38 43  2  0  0  0
 38 46  1  0  0  0
 38 47  1  0  0  0
 39 64  1  0  0  0
 39 67  2  0  0  0
 40 52  1  0  0  0
 40 53  2  0  0  0
 40 58  1  0  0  0
 41111  1  0  0  0
 41112  1  0  0  0
 41113  1  0  0  0
 41 48  1  0  0  0
 42 43  1  0  0  0
 42 66  1  0  0  0
 42114  1  0  0  0
 42115  1  0  0  0
 43 44  1  0  0  0
 44116  1  0  0  0
 45 46  2  0  0  0
 45117  1  0  0  0
 46118  1  0  0  0
 47119  1  0  0  0
 47120  1  0  0  0
 48 56  1  0  0  0
 48 65  1  0  0  0
 48121  1  0  0  0
 49 50  1  0  0  0
 49 53  1  0  0  0
 49 64  1  0  0  0
 49122  1  0  0  0
 50 51  1  0  0  0
 50123  1  0  0  0
 50124  1  0  0  0
 51 52  1  0  0  0
 51125  1  0  0  0
 51126  1  0  0  0
 52127  1  0  0  0
 52128  1  0  0  0
 53 54  1  0  0  0
 54 55  2  0  0  0
 54129  1  0  0  0
 55 57  1  0  0  0
 55130  1  0  0  0
 56 69  2  0  0  0
 57 58  2  0  0  0
 57131  1  0  0  0
 58132  1  0  0  0
 59 60  1  0  0  0
 59 61  1  0  0  0
 59 62  1  0  0  0
 60133  1  0  0  0
 60134  1  0  0  0
 60135  1  0  0  0
 61136  1  0  0  0
 61137  1  0  0  0
 61138  1  0  0  0
 62139  1  0  0  0
 62140  1  0  0  0
 62141  1  0  0  0
 63 65  1  0  0  0
 63142  1  0  0  0
 63143  1  0  0  0
 63144  1  0  0  0
 64145  1  0  0  0
 65146  1  0  0  0
 68 80  1  0  0  0
 71 73  2  0  0  0
 71 74  1  0  0  0
 71147  1  0  0  0
 72 73  1  0  0  0
 72 75  2  0  0  0
 72148  1  0  0  0
 73 81  1  0  0  0
 74 76  2  0  0  0
 74 82  1  0  0  0
 75 76  1  0  0  0
 75 85  1  0  0  0
 76 86  1  0  0  0
 77 78  2  0  0  0
 77 79  1  0  0  0
 77 87  1  0  0  0
 78 80  1  0  0  0
 78 84  1  0  0  0
 79 81  1  0  0  0
 79 83  2  0  0  0
 80149  1  0  0  0
 80150  1  0  0  0
 81151  1  0  0  0
 82152  1  0  0  0
 84153  1  0  0  0
M  ISO  4   1 100  68 101  80 101  82 100
M  END
> <chiral flag>
0

> <version>
0

> <s_m_source_file>
/data/baiqing/PycharmProjects/Reinvent-master-3.2/result/LINK_invent/BTK/process_docking_weight1_custom_product_contain_oxygen_bond_distance_aromatic_linkinvent_7_9_3/rearranged_h_0176.sdf

> <i_m_source_file_index>
48

> <r_mmod_Potential_Energy-OPLS-2005>
50.9631309509277

> <r_mmod_Stretch_Energy-OPLS-2005>
50.5886306762695

> <r_mmod_Bend_Energy-OPLS-2005>
97.4170532226562

> <r_mmod_Torsional_Energy-OPLS-2005>
264.286651611328

> <r_mmod_Improper_Torsional_Energy-OPLS-2005>
6.71489763259888

> <r_mmod_Van_der_Waal_Energy-OPLS-2005>
166.498168945312

> <r_mmod_Electrostatic_Energy-OPLS-2005>
-329.766326904297

> <r_mmod_Solvation_Energy-OPLS-2005>
-229.861206054688

> <b_mmod_Minimization_Converged-OPLS-2005>
0

> <r_mmod_RMS_Derivative-OPLS-2005>
2.98073887825012

$$$$
48
                    3D
 Structure written by MMmdl.
155163  0  0  1  0            999 V2000
  -30.6172  -14.7850   20.4310 C   0  0  0  0  0  0
  -30.4306  -12.4752   19.4948 C   0  0  0  0  0  0
  -29.5186  -12.5127   18.2486 C   0  0  0  0  0  0
  -28.0438  -12.3327   18.6556 C   0  0  0  0  0  0
  -27.6391  -13.2410   19.8471 C   0  0  2  0  0  0
  -28.6818  -13.2072   20.9878 C   0  0  0  0  0  0
  -25.2486  -13.8211   20.5686 C   0  0  0  0  0  0
  -24.1786  -13.0450   20.9205 C   0  0  0  0  0  0
  -24.6395  -11.6932   20.8757 C   0  0  0  0  0  0
  -23.9075  -10.4297   21.0411 C   0  0  0  0  0  0
  -24.3629   -9.4212   21.9177 C   0  0  0  0  0  0
  -23.6302   -8.2244   22.0746 C   0  0  0  0  0  0
  -22.4277   -8.0295   21.3550 C   0  0  0  0  0  0
  -21.9919   -9.0262   20.4652 C   0  0  0  0  0  0
  -22.7247  -10.2138   20.3057 C   0  0  0  0  0  0
  -21.6850   -6.0749   22.5277 C   0  0  0  0  0  0
  -21.4013   -6.5644   23.8214 C   0  0  0  0  0  0
  -21.3661   -5.6791   24.9176 C   0  0  0  0  0  0
  -21.6040   -4.3053   24.7218 C   0  0  0  0  0  0
  -21.8816   -3.8153   23.4338 C   0  0  0  0  0  0
  -21.9185   -4.6976   22.3398 C   0  0  0  0  0  0
  -22.7797  -13.5225   21.1868 C   0  0  0  0  0  0
  -22.1654   -4.2170   21.0971 F   0  0  0  0  0  0
  -21.5633   -3.4533   25.7727 F   0  0  0  0  0  0
  -29.9831  -13.5587   20.4046 N   0  0  0  0  0  0
  -26.2924  -12.9439   20.3260 N   0  0  0  0  0  0
  -25.9331  -11.6578   20.5732 N   0  0  0  0  0  0
  -22.0441  -12.8225   22.0430 N   0  0  0  0  0  0
  -25.4163  -15.1930   20.4096 N   0  0  0  0  0  0
  -31.8166  -14.8288   20.1382 O   0  0  0  0  0  0
  -21.6645   -6.8894   21.4241 O   0  0  0  0  0  0
  -22.3480  -14.5534   20.6721 O   0  0  0  0  0  0
  -24.6337  -31.8527   23.1960 C   0  0  0  0  0  0
  -25.9148  -32.4740   23.8321 C   0  0  1  0  0  0
  -27.2165  -27.2359   20.1289 C   0  0  0  0  0  0
  -25.5935  -33.8545   24.2242 N   0  0  0  0  0  0
  -23.4323  -30.4747   21.5400 C   0  0  2  0  0  0
  -24.8775  -28.9165   20.1124 C   0  0  0  0  0  0
  -22.7516  -29.4584   22.4892 C   0  0  0  0  0  0
  -18.0289  -28.1383   22.8473 C   0  0  0  0  0  0
  -24.1492  -36.7286   23.2639 C   0  0  0  0  0  0
  -25.9812  -30.7559   21.3818 C   0  0  0  0  0  0
  -26.0517  -29.3765   20.7234 C   0  0  0  0  0  0
  -27.2240  -28.5499   20.7172 C   0  0  0  0  0  0
  -26.0213  -26.8550   19.4810 C   0  0  0  0  0  0
  -24.8695  -27.6657   19.4793 C   0  0  0  0  0  0
  -23.6518  -29.8075   20.1572 C   0  0  0  0  0  0
  -25.4118  -36.3066   24.0322 C   0  0  1  0  0  0
  -20.5898  -28.3698   23.1256 C   0  0  2  0  0  0
  -20.6780  -26.9410   22.5404 C   0  0  0  0  0  0
  -19.5767  -26.6374   21.5203 C   0  0  0  0  0  0
  -18.1940  -26.7928   22.1609 C   0  0  0  0  0  0
  -19.1545  -28.8861   23.2861 C   0  0  0  0  0  0
  -18.9466  -30.1453   23.8889 C   0  0  0  0  0  0
  -17.6465  -30.6585   24.0556 C   0  0  0  0  0  0
  -25.9058  -34.9433   23.5086 C   0  0  0  0  0  0
  -16.5353  -29.9077   23.6326 C   0  0  0  0  0  0
  -16.7278  -28.6496   23.0349 C   0  0  0  0  0  0
  -26.4500  -31.6580   25.0728 C   0  0  0  0  0  0
  -25.3712  -31.3755   26.1444 C   0  0  0  0  0  0
  -27.0339  -30.2982   24.6256 C   0  0  0  0  0  0
  -27.6045  -32.4333   25.7501 C   0  0  0  0  0  0
  -27.5586  -37.1797   24.8457 C   0  0  0  0  0  0
  -21.4219  -29.3042   22.3639 N   0  0  0  0  0  0
  -26.4295  -37.3763   23.9404 N   0  0  0  0  0  0
  -24.7018  -31.0469   22.0948 N   0  0  0  0  0  0
  -23.4200  -28.8122   23.3003 O   0  0  0  0  0  0
  -28.3109  -26.3326   20.1426 O   0  0  0  0  0  0
  -26.5630  -34.8917   22.4655 O   0  0  0  0  0  0
  -23.5479  -32.1356   23.7232 O   0  0  0  0  0  0
  -30.9943  -19.3257   18.8421 C   0  0  0  0  0  0
  -29.9919  -19.7091   19.7193 C   0  0  0  0  0  0
  -30.1713  -17.3423   20.1368 C   0  0  0  0  0  0
  -31.7592  -20.0704   17.8435 C   0  0  0  0  0  0
  -29.0035  -22.1537   20.4166 C   0  0  0  0  0  0
  -31.7889  -23.6623   19.6782 C   0  0  0  0  0  0
  -30.5784  -24.2287   20.4384 C   0  0  0  0  0  0
  -28.0884  -24.8490   20.4009 C   0  0  0  0  0  0
  -29.1879  -23.7145   19.9812 C   0  0  2  0  0  0
  -29.5155  -18.5337   20.4476 N   0  0  0  0  0  0
  -29.6240  -21.1643   19.6688 N   0  0  0  0  0  0
  -29.8766  -15.9576   20.6173 N   0  0  0  0  0  0
  -31.5028  -21.2380   17.5376 O   0  0  0  0  0  0
  -28.3195  -21.8806   21.4044 O   0  0  0  0  0  0
  -31.4230  -17.6337   18.9347 S   0  0  0  0  0  0
  -31.4754  -12.5847   19.2009 H   0  0  0  0  0  0
  -30.3657  -11.5079   19.9952 H   0  0  0  0  0  0
  -29.8137  -11.7390   17.5404 H   0  0  0  0  0  0
  -29.6431  -13.4631   17.7279 H   0  0  0  0  0  0
  -27.9044  -11.2855   18.9263 H   0  0  0  0  0  0
  -27.3907  -12.5140   17.8011 H   0  0  0  0  0  0
  -27.6238  -14.2568   19.4510 H   0  0  0  0  0  0
  -28.7205  -12.2202   21.4535 H   0  0  0  0  0  0
  -28.4110  -13.9081   21.7787 H   0  0  0  0  0  0
  -25.2774   -9.5694   22.4751 H   0  0  0  0  0  0
  -24.0026   -7.4626   22.7450 H   0  0  0  0  0  0
  -21.0852   -8.8787   19.8946 H   0  0  0  0  0  0
  -22.3708  -10.9685   19.6174 H   0  0  0  0  0  0
  -21.2017   -7.6151   23.9735 H   0  0  0  0  0  0
  -21.1482   -6.0513   25.9079 H   0  0  0  0  0  0
  -22.0597   -2.7628   23.2820 H   0  0  0  0  0  0
  -22.4061  -11.9916   22.4869 H   0  0  0  0  0  0
  -21.1061  -13.1262   22.2630 H   0  0  0  0  0  0
  -24.6476  -15.8457   20.5167 H   0  0  0  0  0  0
  -26.2604  -15.6341   20.0671 H   0  0  0  0  0  0
  -26.7211  -32.5377   23.1057 H   0  0  0  0  0  0
  -25.0079  -33.9687   25.0387 H   0  0  0  0  0  0
  -22.7304  -31.2975   21.3910 H   0  0  0  0  0  0
  -23.3758  -35.9614   23.3286 H   0  0  0  0  0  0
  -24.3586  -36.8931   22.2057 H   0  0  0  0  0  0
  -23.7250  -37.6485   23.6676 H   0  0  0  0  0  0
  -26.1282  -31.5174   20.6146 H   0  0  0  0  0  0
  -26.8567  -30.8008   22.0189 H   0  0  0  0  0  0
  -28.1262  -28.8987   21.1998 H   0  0  0  0  0  0
  -25.9575  -25.9144   18.9554 H   0  0  0  0  0  0
  -23.9758  -27.3147   18.9810 H   0  0  0  0  0  0
  -23.7787  -30.5827   19.4000 H   0  0  0  0  0  0
  -22.7702  -29.2410   19.8515 H   0  0  0  0  0  0
  -25.1301  -36.1908   25.0815 H   0  0  0  0  0  0
  -20.9988  -28.3286   24.1382 H   0  0  0  0  0  0
  -20.5662  -26.2316   23.3614 H   0  0  0  0  0  0
  -21.6651  -26.7424   22.1219 H   0  0  0  0  0  0
  -19.6930  -25.6277   21.1256 H   0  0  0  0  0  0
  -19.6714  -27.3163   20.6717 H   0  0  0  0  0  0
  -17.4209  -26.6661   21.4006 H   0  0  0  0  0  0
  -18.0342  -26.0068   22.9010 H   0  0  0  0  0  0
  -19.7937  -30.7262   24.2266 H   0  0  0  0  0  0
  -17.5019  -31.6265   24.5148 H   0  0  0  0  0  0
  -15.5359  -30.2977   23.7654 H   0  0  0  0  0  0
  -15.8677  -28.0811   22.7080 H   0  0  0  0  0  0
  -24.5882  -30.7107   25.7783 H   0  0  0  0  0  0
  -24.8906  -32.2929   26.4849 H   0  0  0  0  0  0
  -25.8019  -30.8950   27.0237 H   0  0  0  0  0  0
  -26.2928  -29.6736   24.1256 H   0  0  0  0  0  0
  -27.3957  -29.7254   25.4808 H   0  0  0  0  0  0
  -27.8840  -30.4228   23.9544 H   0  0  0  0  0  0
  -27.2639  -33.3630   26.2074 H   0  0  0  0  0  0
  -28.3851  -32.6908   25.0328 H   0  0  0  0  0  0
  -28.0718  -31.8468   26.5425 H   0  0  0  0  0  0
  -28.2587  -38.0110   24.7510 H   0  0  0  0  0  0
  -28.1099  -36.2640   24.6259 H   0  0  0  0  0  0
  -27.2311  -37.1421   25.8863 H   0  0  0  0  0  0
  -20.9401  -29.8778   21.6857 H   0  0  0  0  0  0
  -26.0172  -38.2838   24.1409 H   0  0  0  0  0  0
  -32.5725  -19.5168   17.3731 H   0  0  0  0  0  0
  -32.7063  -24.1582   19.9959 H   0  0  0  0  0  0
  -31.6902  -23.8207   18.6031 H   0  0  0  0  0  0
  -31.9312  -22.5977   19.8567 H   0  0  0  0  0  0
  -30.6137  -25.3109   20.3166 H   0  0  0  0  0  0
  -30.7042  -24.0548   21.5069 H   0  0  0  0  0  0
  -27.9321  -24.7624   21.4762 H   0  0  0  0  0  0
  -27.1463  -24.5199   19.9704 H   0  0  0  0  0  0
  -29.1868  -23.7126   18.8905 H   0  0  0  0  0  0
  -30.0874  -21.6028   18.8804 H   0  0  0  0  0  0
  -28.9499  -15.8232   20.9863 H   0  0  0  0  0  0
  1 25  1  0  0  0
  1 30  2  0  0  0
  1 82  1  0  0  0
  2  3  1  0  0  0
  2 25  1  0  0  0
  2 86  1  0  0  0
  2 87  1  0  0  0
  3  4  1  0  0  0
  3 88  1  0  0  0
  3 89  1  0  0  0
  4  5  1  0  0  0
  4 90  1  0  0  0
  4 91  1  0  0  0
  5  6  1  0  0  0
  5 26  1  0  0  0
  5 92  1  0  0  0
  6 25  1  0  0  0
  6 93  1  0  0  0
  6 94  1  0  0  0
  7  8  2  0  0  0
  7 26  1  0  0  0
  7 29  1  0  0  0
  8  9  1  0  0  0
  8 22  1  0  0  0
  9 10  1  0  0  0
  9 27  2  0  0  0
 10 11  2  0  0  0
 10 15  1  0  0  0
 11 12  1  0  0  0
 11 95  1  0  0  0
 12 13  2  0  0  0
 12 96  1  0  0  0
 13 14  1  0  0  0
 13 31  1  0  0  0
 14 15  2  0  0  0
 14 97  1  0  0  0
 15 98  1  0  0  0
 16 17  2  0  0  0
 16 21  1  0  0  0
 16 31  1  0  0  0
 17 18  1  0  0  0
 17 99  1  0  0  0
 18 19  2  0  0  0
 18100  1  0  0  0
 19 20  1  0  0  0
 19 24  1  0  0  0
 20 21  2  0  0  0
 20101  1  0  0  0
 21 23  1  0  0  0
 22 28  1  0  0  0
 22 32  2  0  0  0
 26 27  1  0  0  0
 28102  1  0  0  0
 28103  1  0  0  0
 29104  1  0  0  0
 29105  1  0  0  0
 33 34  1  0  0  0
 33 66  1  0  0  0
 33 70  2  0  0  0
 34 36  1  0  0  0
 34 59  1  0  0  0
 34106  1  0  0  0
 35 44  2  0  0  0
 35 45  1  0  0  0
 35 68  1  0  0  0
 36 56  1  0  0  0
 36107  1  0  0  0
 37 39  1  0  0  0
 37 47  1  0  0  0
 37 66  1  0  0  0
 37108  1  0  0  0
 38 43  2  0  0  0
 38 46  1  0  0  0
 38 47  1  0  0  0
 39 64  1  0  0  0
 39 67  2  0  0  0
 40 52  1  0  0  0
 40 53  2  0  0  0
 40 58  1  0  0  0
 41109  1  0  0  0
 41110  1  0  0  0
 41111  1  0  0  0
 41 48  1  0  0  0
 42 43  1  0  0  0
 42 66  1  0  0  0
 42112  1  0  0  0
 42113  1  0  0  0
 43 44  1  0  0  0
 44114  1  0  0  0
 45 46  2  0  0  0
 45115  1  0  0  0
 46116  1  0  0  0
 47117  1  0  0  0
 47118  1  0  0  0
 48 56  1  0  0  0
 48 65  1  0  0  0
 48119  1  0  0  0
 49 50  1  0  0  0
 49 53  1  0  0  0
 49 64  1  0  0  0
 49120  1  0  0  0
 50 51  1  0  0  0
 50121  1  0  0  0
 50122  1  0  0  0
 51 52  1  0  0  0
 51123  1  0  0  0
 51124  1  0  0  0
 52125  1  0  0  0
 52126  1  0  0  0
 53 54  1  0  0  0
 54 55  2  0  0  0
 54127  1  0  0  0
 55 57  1  0  0  0
 55128  1  0  0  0
 56 69  2  0  0  0
 57 58  2  0  0  0
 57129  1  0  0  0
 58130  1  0  0  0
 59 60  1  0  0  0
 59 61  1  0  0  0
 59 62  1  0  0  0
 60131  1  0  0  0
 60132  1  0  0  0
 60133  1  0  0  0
 61134  1  0  0  0
 61135  1  0  0  0
 61136  1  0  0  0
 62137  1  0  0  0
 62138  1  0  0  0
 62139  1  0  0  0
 63 65  1  0  0  0
 63140  1  0  0  0
 63141  1  0  0  0
 63142  1  0  0  0
 64143  1  0  0  0
 65144  1  0  0  0
 68 78  1  0  0  0
 71 72  2  0  0  0
 71 74  1  0  0  0
 71 85  1  0  0  0
 72 80  1  0  0  0
 72 81  1  0  0  0
 73 80  2  0  0  0
 73 82  1  0  0  0
 73 85  1  0  0  0
 74 83  2  0  0  0
 74145  1  0  0  0
 75 79  1  0  0  0
 75 81  1  0  0  0
 75 84  2  0  0  0
 76 77  1  0  0  0
 76146  1  0  0  0
 76147  1  0  0  0
 76148  1  0  0  0
 77149  1  0  0  0
 77150  1  0  0  0
 77 79  1  0  0  0
 78 79  1  0  0  0
 78151  1  0  0  0
 78152  1  0  0  0
 79153  1  0  0  0
 81154  1  0  0  0
 82155  1  0  0  0
M  ISO  4   1 100  68 101  78 101  82 100
M  END
> <chiral flag>
0

> <version>
0

> <s_m_source_file>
/data/baiqing/PycharmProjects/Reinvent-master-3.2/result/LINK_invent/BTK/process_docking_weight1_custom_product_contain_oxygen_bond_distance_aromatic_linkinvent_7_9_3/rearranged_h_0176.sdf

> <i_m_source_file_index>
49

> <r_mmod_Potential_Energy-OPLS-2005>
160.823532104492

> <r_mmod_Stretch_Energy-OPLS-2005>
148.661956787109

> <r_mmod_Bend_Energy-OPLS-2005>
219.571640014648

> <r_mmod_Torsional_Energy-OPLS-2005>
230.818145751953

> <r_mmod_Improper_Torsional_Energy-OPLS-2005>
4.44393634796143

> <r_mmod_Van_der_Waal_Energy-OPLS-2005>
120.509712219238

> <r_mmod_Electrostatic_Energy-OPLS-2005>
-427.533813476562

> <r_mmod_Solvation_Energy-OPLS-2005>
-236.686019897461

> <b_mmod_Minimization_Converged-OPLS-2005>
0

> <r_mmod_RMS_Derivative-OPLS-2005>
2.11497354507446

$$$$
49
                    3D
 Structure written by MMmdl.
152160  0  0  1  0            999 V2000
  -30.7040  -14.5073   20.5418 C   0  0  0  0  0  0
  -30.4187  -12.3186   19.4369 C   0  0  0  0  0  0
  -29.4961  -12.4963   18.2136 C   0  0  0  0  0  0
  -28.0178  -12.3563   18.6252 C   0  0  0  0  0  0
  -27.6571  -13.2128   19.8689 C   0  0  2  0  0  0
  -28.7000  -13.0323   20.9959 C   0  0  0  0  0  0
  -25.2566  -13.8167   20.5676 C   0  0  0  0  0  0
  -24.1832  -13.0440   20.9193 C   0  0  0  0  0  0
  -24.6394  -11.6910   20.8747 C   0  0  0  0  0  0
  -23.9062  -10.4294   21.0409 C   0  0  0  0  0  0
  -24.3615   -9.4208   21.9185 C   0  0  0  0  0  0
  -23.6291   -8.2243   22.0752 C   0  0  0  0  0  0
  -22.4274   -8.0281   21.3542 C   0  0  0  0  0  0
  -21.9908   -9.0256   20.4646 C   0  0  0  0  0  0
  -22.7235  -10.2137   20.3058 C   0  0  0  0  0  0
  -21.6853   -6.0736   22.5279 C   0  0  0  0  0  0
  -21.4015   -6.5641   23.8212 C   0  0  0  0  0  0
  -21.3657   -5.6793   24.9174 C   0  0  0  0  0  0
  -21.6043   -4.3056   24.7225 C   0  0  0  0  0  0
  -21.8820   -3.8148   23.4346 C   0  0  0  0  0  0
  -21.9193   -4.6964   22.3402 C   0  0  0  0  0  0
  -22.7853  -13.5237   21.1849 C   0  0  0  0  0  0
  -22.1661   -4.2149   21.0980 F   0  0  0  0  0  0
  -21.5626   -3.4539   25.7737 F   0  0  0  0  0  0
  -30.0276  -13.3288   20.4351 N   0  0  0  0  0  0
  -26.3003  -12.9350   20.3343 N   0  0  0  0  0  0
  -25.9323  -11.6507   20.5772 N   0  0  0  0  0  0
  -22.0491  -12.8236   22.0408 N   0  0  0  0  0  0
  -25.4270  -15.1879   20.4042 N   0  0  0  0  0  0
  -31.8538  -14.6295   20.1119 O   0  0  0  0  0  0
  -21.6638   -6.8878   21.4240 O   0  0  0  0  0  0
  -22.3542  -14.5541   20.6691 O   0  0  0  0  0  0
  -24.6166  -31.8667   23.2095 C   0  0  0  0  0  0
  -25.9053  -32.4815   23.8394 C   0  0  1  0  0  0
  -27.2281  -27.4133   20.1040 C   0  0  0  0  0  0
  -25.5904  -33.8615   24.2325 N   0  0  0  0  0  0
  -23.4059  -30.4906   21.5502 C   0  0  2  0  0  0
  -24.8529  -28.9570   20.1123 C   0  0  0  0  0  0
  -22.7424  -29.4651   22.4979 C   0  0  0  0  0  0
  -18.0275  -28.1376   22.8491 C   0  0  0  0  0  0
  -24.1486  -36.7313   23.2637 C   0  0  0  0  0  0
  -25.9374  -30.8260   21.3668 C   0  0  0  0  0  0
  -26.0148  -29.4594   20.7132 C   0  0  0  0  0  0
  -27.2079  -28.6951   20.7063 C   0  0  0  0  0  0
  -26.0519  -26.9376   19.4839 C   0  0  0  0  0  0
  -24.8672  -27.6960   19.4929 C   0  0  0  0  0  0
  -23.6155  -29.8254   20.1640 C   0  0  0  0  0  0
  -25.4107  -36.3107   24.0336 C   0  0  1  0  0  0
  -20.5868  -28.3666   23.1311 C   0  0  2  0  0  0
  -20.6765  -26.9401   22.5415 C   0  0  0  0  0  0
  -19.5745  -26.6384   21.5211 C   0  0  0  0  0  0
  -18.1923  -26.7921   22.1624 C   0  0  0  0  0  0
  -19.1525  -28.8837   23.2897 C   0  0  0  0  0  0
  -18.9452  -30.1444   23.8908 C   0  0  0  0  0  0
  -17.6455  -30.6582   24.0565 C   0  0  0  0  0  0
  -25.9036  -34.9472   23.5127 C   0  0  0  0  0  0
  -16.5345  -29.9085   23.6327 C   0  0  0  0  0  0
  -16.7264  -28.6501   23.0348 C   0  0  0  0  0  0
  -26.4474  -31.6597   25.0726 C   0  0  0  0  0  0
  -25.3741  -31.3709   26.1476 C   0  0  0  0  0  0
  -27.0304  -30.3037   24.6109 C   0  0  0  0  0  0
  -27.6054  -32.4313   25.7483 C   0  0  0  0  0  0
  -27.5582  -37.1807   24.8464 C   0  0  0  0  0  0
  -21.4149  -29.3032   22.3717 N   0  0  0  0  0  0
  -26.4293  -37.3793   23.9409 N   0  0  0  0  0  0
  -24.6716  -31.0754   22.1005 N   0  0  0  0  0  0
  -23.4187  -28.8193   23.3028 O   0  0  0  0  0  0
  -28.3618  -26.6215   20.1189 O   0  0  0  0  0  0
  -26.5598  -34.8925   22.4688 O   0  0  0  0  0  0
  -23.5353  -32.1426   23.7478 O   0  0  0  0  0  0
  -31.4974  -19.1432   20.9634 C   0  0  0  0  0  0
  -29.4522  -17.9904   20.9267 C   0  0  0  0  0  0
  -30.1344  -19.2657   20.9006 C   0  0  0  0  0  0
  -30.3182  -16.9036   20.9661 C   0  0  0  0  0  0
  -28.1973  -25.3094   20.5379 C   0  0  0  0  0  0
  -29.0705  -24.3066   20.2802 C   0  0  0  0  0  0
  -28.8011  -22.8993   20.7634 C   0  0  0  0  0  0
  -29.9320  -21.7922   20.7414 C   0  0  0  0  0  0
  -27.9583  -17.8388   20.8856 C   0  0  0  0  0  0
  -29.4407  -20.5278   20.8287 N   0  0  0  0  0  0
  -29.9773  -15.5708   20.9692 N   0  0  0  0  0  0
  -27.6856  -22.5802   21.1971 O   0  0  0  0  0  0
  -31.1365  -22.0702   20.6935 O   0  0  0  0  0  0
  -30.1814  -24.5676   19.5743 O   0  0  0  0  0  0
  -31.9798  -17.4781   21.0473 S   0  0  0  0  0  0
  -31.4646  -12.4038   19.1363 H   0  0  0  0  0  0
  -30.3131  -11.3170   19.8566 H   0  0  0  0  0  0
  -29.7407  -11.7600   17.4469 H   0  0  0  0  0  0
  -29.6623  -13.4756   17.7619 H   0  0  0  0  0  0
  -27.8350  -11.3021   18.8367 H   0  0  0  0  0  0
  -27.3672  -12.6137   17.7885 H   0  0  0  0  0  0
  -27.6892  -14.2545   19.5493 H   0  0  0  0  0  0
  -28.6813  -12.0087   21.3726 H   0  0  0  0  0  0
  -28.4636  -13.6657   21.8524 H   0  0  0  0  0  0
  -25.2761   -9.5681   22.4757 H   0  0  0  0  0  0
  -23.9998   -7.4634   22.7471 H   0  0  0  0  0  0
  -21.0837   -8.8778   19.8953 H   0  0  0  0  0  0
  -22.3695  -10.9677   19.6168 H   0  0  0  0  0  0
  -21.2013   -7.6150   23.9717 H   0  0  0  0  0  0
  -21.1475   -6.0523   25.9076 H   0  0  0  0  0  0
  -22.0602   -2.7610   23.2847 H   0  0  0  0  0  0
  -22.4106  -11.9903   22.4807 H   0  0  0  0  0  0
  -21.1106  -13.1262   22.2602 H   0  0  0  0  0  0
  -24.6535  -15.8373   20.4966 H   0  0  0  0  0  0
  -26.2614  -15.6164   20.0272 H   0  0  0  0  0  0
  -26.7126  -32.5523   23.1161 H   0  0  0  0  0  0
  -25.0061  -33.9776   25.0474 H   0  0  0  0  0  0
  -22.6953  -31.3081   21.4116 H   0  0  0  0  0  0
  -23.3743  -35.9651   23.3307 H   0  0  0  0  0  0
  -24.3580  -36.8919   22.2050 H   0  0  0  0  0  0
  -23.7243  -37.6522   23.6646 H   0  0  0  0  0  0
  -26.0531  -31.5916   20.5983 H   0  0  0  0  0  0
  -26.8241  -30.8783   21.9870 H   0  0  0  0  0  0
  -28.1039  -29.0738   21.1780 H   0  0  0  0  0  0
  -26.0469  -25.9700   19.0019 H   0  0  0  0  0  0
  -23.9760  -27.3052   19.0213 H   0  0  0  0  0  0
  -23.7247  -30.6018   19.4061 H   0  0  0  0  0  0
  -22.7389  -29.2468   19.8666 H   0  0  0  0  0  0
  -25.1282  -36.1973   25.0829 H   0  0  0  0  0  0
  -20.9957  -28.3231   24.1433 H   0  0  0  0  0  0
  -20.5667  -26.2274   23.3603 H   0  0  0  0  0  0
  -21.6636  -26.7442   22.1208 H   0  0  0  0  0  0
  -19.6908  -25.6298   21.1230 H   0  0  0  0  0  0
  -19.6686  -27.3203   20.6748 H   0  0  0  0  0  0
  -17.4194  -26.6669   21.4025 H   0  0  0  0  0  0
  -18.0329  -26.0059   22.9017 H   0  0  0  0  0  0
  -19.7927  -30.7255   24.2284 H   0  0  0  0  0  0
  -17.5010  -31.6263   24.5164 H   0  0  0  0  0  0
  -15.5347  -30.2991   23.7643 H   0  0  0  0  0  0
  -15.8664  -28.0826   22.7057 H   0  0  0  0  0  0
  -24.5906  -30.7064   25.7814 H   0  0  0  0  0  0
  -24.8943  -32.2869   26.4935 H   0  0  0  0  0  0
  -25.8092  -30.8868   27.0228 H   0  0  0  0  0  0
  -26.2851  -29.6798   24.1162 H   0  0  0  0  0  0
  -27.4070  -29.7272   25.4569 H   0  0  0  0  0  0
  -27.8689  -30.4353   23.9266 H   0  0  0  0  0  0
  -27.2679  -33.3603   26.2091 H   0  0  0  0  0  0
  -28.3845  -32.6888   25.0295 H   0  0  0  0  0  0
  -28.0743  -31.8419   26.5372 H   0  0  0  0  0  0
  -28.2602  -38.0101   24.7511 H   0  0  0  0  0  0
  -28.1073  -36.2634   24.6286 H   0  0  0  0  0  0
  -27.2301  -37.1454   25.8867 H   0  0  0  0  0  0
  -20.9312  -29.8758   21.6940 H   0  0  0  0  0  0
  -26.0181  -38.2871   24.1411 H   0  0  0  0  0  0
  -32.2607  -19.9113   20.9717 H   0  0  0  0  0  0
  -27.2867  -25.1605   21.1062 H   0  0  0  0  0  0
  -27.4442  -18.7453   21.2026 H   0  0  0  0  0  0
  -27.6192  -17.0410   21.5463 H   0  0  0  0  0  0
  -27.6175  -17.6032   19.8776 H   0  0  0  0  0  0
  -28.4296  -20.5016   20.8692 H   0  0  0  0  0  0
  -29.0217  -15.3544   21.2040 H   0  0  0  0  0  0
  -30.1600  -25.4937   19.3676 H   0  0  0  0  0  0
  1 25  1  0  0  0
  1 30  2  0  0  0
  1 81  1  0  0  0
  2  3  1  0  0  0
  2 25  1  0  0  0
  2 86  1  0  0  0
  2 87  1  0  0  0
  3  4  1  0  0  0
  3 88  1  0  0  0
  3 89  1  0  0  0
  4  5  1  0  0  0
  4 90  1  0  0  0
  4 91  1  0  0  0
  5  6  1  0  0  0
  5 26  1  0  0  0
  5 92  1  0  0  0
  6 25  1  0  0  0
  6 93  1  0  0  0
  6 94  1  0  0  0
  7  8  2  0  0  0
  7 26  1  0  0  0
  7 29  1  0  0  0
  8  9  1  0  0  0
  8 22  1  0  0  0
  9 10  1  0  0  0
  9 27  2  0  0  0
 10 11  2  0  0  0
 10 15  1  0  0  0
 11 12  1  0  0  0
 11 95  1  0  0  0
 12 13  2  0  0  0
 12 96  1  0  0  0
 13 14  1  0  0  0
 13 31  1  0  0  0
 14 15  2  0  0  0
 14 97  1  0  0  0
 15 98  1  0  0  0
 16 17  2  0  0  0
 16 21  1  0  0  0
 16 31  1  0  0  0
 17 18  1  0  0  0
 17 99  1  0  0  0
 18 19  2  0  0  0
 18100  1  0  0  0
 19 20  1  0  0  0
 19 24  1  0  0  0
 20 21  2  0  0  0
 20101  1  0  0  0
 21 23  1  0  0  0
 22 28  1  0  0  0
 22 32  2  0  0  0
 26 27  1  0  0  0
 28102  1  0  0  0
 28103  1  0  0  0
 29104  1  0  0  0
 29105  1  0  0  0
 33 34  1  0  0  0
 33 66  1  0  0  0
 33 70  2  0  0  0
 34 36  1  0  0  0
 34 59  1  0  0  0
 34106  1  0  0  0
 35 44  2  0  0  0
 35 45  1  0  0  0
 35 68  1  0  0  0
 36 56  1  0  0  0
 36107  1  0  0  0
 37 39  1  0  0  0
 37 47  1  0  0  0
 37 66  1  0  0  0
 37108  1  0  0  0
 38 43  2  0  0  0
 38 46  1  0  0  0
 38 47  1  0  0  0
 39 64  1  0  0  0
 39 67  2  0  0  0
 40 52  1  0  0  0
 40 53  2  0  0  0
 40 58  1  0  0  0
 41109  1  0  0  0
 41110  1  0  0  0
 41111  1  0  0  0
 41 48  1  0  0  0
 42 43  1  0  0  0
 42 66  1  0  0  0
 42112  1  0  0  0
 42113  1  0  0  0
 43 44  1  0  0  0
 44114  1  0  0  0
 45 46  2  0  0  0
 45115  1  0  0  0
 46116  1  0  0  0
 47117  1  0  0  0
 47118  1  0  0  0
 48 56  1  0  0  0
 48 65  1  0  0  0
 48119  1  0  0  0
 49 50  1  0  0  0
 49 53  1  0  0  0
 49 64  1  0  0  0
 49120  1  0  0  0
 50 51  1  0  0  0
 50121  1  0  0  0
 50122  1  0  0  0
 51 52  1  0  0  0
 51123  1  0  0  0
 51124  1  0  0  0
 52125  1  0  0  0
 52126  1  0  0  0
 53 54  1  0  0  0
 54 55  2  0  0  0
 54127  1  0  0  0
 55 57  1  0  0  0
 55128  1  0  0  0
 56 69  2  0  0  0
 57 58  2  0  0  0
 57129  1  0  0  0
 58130  1  0  0  0
 59 60  1  0  0  0
 59 61  1  0  0  0
 59 62  1  0  0  0
 60131  1  0  0  0
 60132  1  0  0  0
 60133  1  0  0  0
 61134  1  0  0  0
 61135  1  0  0  0
 61136  1  0  0  0
 62137  1  0  0  0
 62138  1  0  0  0
 62139  1  0  0  0
 63 65  1  0  0  0
 63140  1  0  0  0
 63141  1  0  0  0
 63142  1  0  0  0
 64143  1  0  0  0
 65144  1  0  0  0
 68 75  1  0  0  0
 71 73  2  0  0  0
 71 85  1  0  0  0
 71145  1  0  0  0
 72 73  1  0  0  0
 72 74  2  0  0  0
 72 79  1  0  0  0
 73 80  1  0  0  0
 74 81  1  0  0  0
 74 85  1  0  0  0
 75 76  2  0  0  0
 75146  1  0  0  0
 76 77  1  0  0  0
 76 84  1  0  0  0
 77 78  1  0  0  0
 77 82  2  0  0  0
 78 80  1  0  0  0
 78 83  2  0  0  0
 79147  1  0  0  0
 79148  1  0  0  0
 79149  1  0  0  0
 80150  1  0  0  0
 81151  1  0  0  0
 84152  1  0  0  0
M  ISO  4   1 100  68 101  75 101  81 100
M  END
> <chiral flag>
0

> <version>
0

> <s_m_source_file>
/data/baiqing/PycharmProjects/Reinvent-master-3.2/result/LINK_invent/BTK/process_docking_weight1_custom_product_contain_oxygen_bond_distance_aromatic_linkinvent_7_9_3/rearranged_h_0176.sdf

> <i_m_source_file_index>
50

> <r_mmod_Potential_Energy-OPLS-2005>
-31.0469627380371

> <r_mmod_Stretch_Energy-OPLS-2005>
48.0813331604004

> <r_mmod_Bend_Energy-OPLS-2005>
111.069305419922

> <r_mmod_Torsional_Energy-OPLS-2005>
205.965774536133

> <r_mmod_Improper_Torsional_Energy-OPLS-2005>
4.64130926132202

> <r_mmod_Van_der_Waal_Energy-OPLS-2005>
144.251174926758

> <r_mmod_Electrostatic_Energy-OPLS-2005>
-327.116027832031

> <r_mmod_Solvation_Energy-OPLS-2005>
-236.865524291992

> <b_mmod_Minimization_Converged-OPLS-2005>
0

> <r_mmod_RMS_Derivative-OPLS-2005>
0.336428076028824

$$$$
50
                    3D
 Structure written by MMmdl.
154162  0  0  1  0            999 V2000
  -30.6772  -14.4967   20.5707 C   0  0  0  0  0  0
  -30.4315  -12.3189   19.4250 C   0  0  0  0  0  0
  -29.4995  -12.5111   18.2092 C   0  0  0  0  0  0
  -28.0197  -12.3676   18.6193 C   0  0  0  0  0  0
  -27.6633  -13.2045   19.8769 C   0  0  2  0  0  0
  -28.7049  -12.9767   20.9963 C   0  0  0  0  0  0
  -25.2599  -13.8154   20.5678 C   0  0  0  0  0  0
  -24.1848  -13.0435   20.9178 C   0  0  0  0  0  0
  -24.6395  -11.6899   20.8730 C   0  0  0  0  0  0
  -23.9059  -10.4288   21.0400 C   0  0  0  0  0  0
  -24.3612   -9.4205   21.9179 C   0  0  0  0  0  0
  -23.6289   -8.2242   22.0752 C   0  0  0  0  0  0
  -22.4272   -8.0280   21.3543 C   0  0  0  0  0  0
  -21.9905   -9.0252   20.4646 C   0  0  0  0  0  0
  -22.7232  -10.2131   20.3051 C   0  0  0  0  0  0
  -21.6851   -6.0736   22.5281 C   0  0  0  0  0  0
  -21.4014   -6.5639   23.8215 C   0  0  0  0  0  0
  -21.3661   -5.6791   24.9176 C   0  0  0  0  0  0
  -21.6044   -4.3053   24.7226 C   0  0  0  0  0  0
  -21.8820   -3.8147   23.4345 C   0  0  0  0  0  0
  -21.9193   -4.6964   22.3401 C   0  0  0  0  0  0
  -22.7871  -13.5238   21.1846 C   0  0  0  0  0  0
  -22.1659   -4.2150   21.0978 F   0  0  0  0  0  0
  -21.5629   -3.4536   25.7737 F   0  0  0  0  0  0
  -30.0368  -13.2983   20.4507 N   0  0  0  0  0  0
  -26.3032  -12.9317   20.3365 N   0  0  0  0  0  0
  -25.9322  -11.6479   20.5762 N   0  0  0  0  0  0
  -22.0508  -12.8230   22.0401 N   0  0  0  0  0  0
  -25.4327  -15.1872   20.4079 N   0  0  0  0  0  0
  -31.8019  -14.6935   20.0977 O   0  0  0  0  0  0
  -21.6639   -6.8877   21.4241 O   0  0  0  0  0  0
  -22.3557  -14.5547   20.6697 O   0  0  0  0  0  0
  -24.6179  -31.8671   23.2102 C   0  0  0  0  0  0
  -25.9062  -32.4818   23.8401 C   0  0  1  0  0  0
  -27.2268  -27.4079   20.0922 C   0  0  0  0  0  0
  -25.5906  -33.8619   24.2325 N   0  0  0  0  0  0
  -23.4060  -30.4940   21.5518 C   0  0  2  0  0  0
  -24.8501  -28.9640   20.1121 C   0  0  0  0  0  0
  -22.7425  -29.4662   22.4977 C   0  0  0  0  0  0
  -18.0274  -28.1379   22.8494 C   0  0  0  0  0  0
  -24.1486  -36.7316   23.2639 C   0  0  0  0  0  0
  -25.9405  -30.8244   21.3690 C   0  0  0  0  0  0
  -26.0157  -29.4598   20.7102 C   0  0  0  0  0  0
  -27.2068  -28.6912   20.6956 C   0  0  0  0  0  0
  -26.0381  -26.9454   19.4745 C   0  0  0  0  0  0
  -24.8584  -27.7073   19.4901 C   0  0  0  0  0  0
  -23.6148  -29.8335   20.1647 C   0  0  0  0  0  0
  -25.4107  -36.3114   24.0337 C   0  0  1  0  0  0
  -20.5868  -28.3669   23.1310 C   0  0  2  0  0  0
  -20.6768  -26.9403   22.5415 C   0  0  0  0  0  0
  -19.5746  -26.6387   21.5214 C   0  0  0  0  0  0
  -18.1923  -26.7926   22.1626 C   0  0  0  0  0  0
  -19.1525  -28.8839   23.2901 C   0  0  0  0  0  0
  -18.9453  -30.1444   23.8910 C   0  0  0  0  0  0
  -17.6457  -30.6586   24.0565 C   0  0  0  0  0  0
  -25.9037  -34.9477   23.5130 C   0  0  0  0  0  0
  -16.5347  -29.9088   23.6326 C   0  0  0  0  0  0
  -16.7264  -28.6504   23.0350 C   0  0  0  0  0  0
  -26.4474  -31.6604   25.0739 C   0  0  0  0  0  0
  -25.3734  -31.3717   26.1483 C   0  0  0  0  0  0
  -27.0302  -30.3040   24.6131 C   0  0  0  0  0  0
  -27.6045  -32.4326   25.7501 C   0  0  0  0  0  0
  -27.5579  -37.1814   24.8464 C   0  0  0  0  0  0
  -21.4149  -29.3041   22.3716 N   0  0  0  0  0  0
  -26.4293  -37.3796   23.9409 N   0  0  0  0  0  0
  -24.6733  -31.0759   22.1014 N   0  0  0  0  0  0
  -23.4192  -28.8192   23.3011 O   0  0  0  0  0  0
  -28.3722  -26.6237   20.1283 O   0  0  0  0  0  0
  -26.5603  -34.8928   22.4693 O   0  0  0  0  0  0
  -23.5364  -32.1433   23.7481 O   0  0  0  0  0  0
  -29.6425  -19.3620   21.1864 C   0  0  0  0  0  0
  -30.8407  -18.9811   20.6043 C   0  0  0  0  0  0
  -30.0246  -16.8906   21.0757 C   0  0  0  0  0  0
  -28.9678  -20.6641   21.5222 C   0  0  0  0  0  0
  -29.3110  -24.3165   20.5001 C   0  0  0  0  0  0
  -29.4598  -23.5247   22.9231 C   0  0  0  0  0  0
  -28.1380  -25.1975   20.0132 C   0  0  0  0  0  0
  -28.9833  -23.1721   21.5008 C   0  0  2  0  0  0
  -31.0280  -17.5901   20.5279 N   0  0  0  0  0  0
  -31.8502  -19.8053   20.0977 N   0  0  0  0  0  0
  -29.9399  -15.4640   21.1563 N   0  0  0  0  0  0
  -29.4953  -21.8368   21.1045 N   0  0  0  0  0  0
  -27.9326  -20.6556   22.1955 O   0  0  0  0  0  0
  -30.4585  -24.5254   20.0929 O   0  0  0  0  0  0
  -28.7497  -17.9287   21.6963 S   0  0  0  0  0  0
  -31.4751  -12.4283   19.1243 H   0  0  0  0  0  0
  -30.3420  -11.3058   19.8207 H   0  0  0  0  0  0
  -29.7431  -11.7869   17.4305 H   0  0  0  0  0  0
  -29.6648  -13.4968   17.7712 H   0  0  0  0  0  0
  -27.8315  -11.3110   18.8130 H   0  0  0  0  0  0
  -27.3701  -12.6431   17.7878 H   0  0  0  0  0  0
  -27.7086  -14.2536   19.5835 H   0  0  0  0  0  0
  -28.6863  -11.9349   21.3204 H   0  0  0  0  0  0
  -28.4578  -13.5563   21.8869 H   0  0  0  0  0  0
  -25.2758   -9.5682   22.4751 H   0  0  0  0  0  0
  -24.0001   -7.4633   22.7467 H   0  0  0  0  0  0
  -21.0838   -8.8768   19.8950 H   0  0  0  0  0  0
  -22.3691  -10.9669   19.6158 H   0  0  0  0  0  0
  -21.2005   -7.6148   23.9717 H   0  0  0  0  0  0
  -21.1483   -6.0521   25.9079 H   0  0  0  0  0  0
  -22.0598   -2.7610   23.2844 H   0  0  0  0  0  0
  -22.4119  -11.9885   22.4782 H   0  0  0  0  0  0
  -21.1128  -13.1261   22.2607 H   0  0  0  0  0  0
  -24.6634  -15.8402   20.5092 H   0  0  0  0  0  0
  -26.2783  -15.6243   20.0644 H   0  0  0  0  0  0
  -26.7131  -32.5513   23.1162 H   0  0  0  0  0  0
  -25.0056  -33.9780   25.0469 H   0  0  0  0  0  0
  -22.6961  -31.3122   21.4155 H   0  0  0  0  0  0
  -23.3745  -35.9653   23.3317 H   0  0  0  0  0  0
  -24.3579  -36.8914   22.2051 H   0  0  0  0  0  0
  -23.7245  -37.6527   23.6643 H   0  0  0  0  0  0
  -26.0622  -31.5926   20.6040 H   0  0  0  0  0  0
  -26.8256  -30.8713   21.9916 H   0  0  0  0  0  0
  -28.1032  -29.0686   21.1680 H   0  0  0  0  0  0
  -25.9917  -25.9913   18.9713 H   0  0  0  0  0  0
  -23.9646  -27.3227   19.0182 H   0  0  0  0  0  0
  -23.7253  -30.6122   19.4093 H   0  0  0  0  0  0
  -22.7372  -29.2579   19.8649 H   0  0  0  0  0  0
  -25.1285  -36.1981   25.0830 H   0  0  0  0  0  0
  -20.9961  -28.3236   24.1429 H   0  0  0  0  0  0
  -20.5674  -26.2274   23.3603 H   0  0  0  0  0  0
  -21.6638  -26.7448   22.1202 H   0  0  0  0  0  0
  -19.6908  -25.6302   21.1231 H   0  0  0  0  0  0
  -19.6684  -27.3208   20.6753 H   0  0  0  0  0  0
  -17.4193  -26.6672   21.4029 H   0  0  0  0  0  0
  -18.0326  -26.0064   22.9018 H   0  0  0  0  0  0
  -19.7930  -30.7258   24.2284 H   0  0  0  0  0  0
  -17.5013  -31.6266   24.5167 H   0  0  0  0  0  0
  -15.5348  -30.3000   23.7643 H   0  0  0  0  0  0
  -15.8661  -28.0831   22.7060 H   0  0  0  0  0  0
  -24.5903  -30.7066   25.7826 H   0  0  0  0  0  0
  -24.8930  -32.2876   26.4936 H   0  0  0  0  0  0
  -25.8084  -30.8885   27.0240 H   0  0  0  0  0  0
  -26.2855  -29.6812   24.1158 H   0  0  0  0  0  0
  -27.4035  -29.7265   25.4598 H   0  0  0  0  0  0
  -27.8709  -30.4352   23.9314 H   0  0  0  0  0  0
  -27.2655  -33.3611   26.2106 H   0  0  0  0  0  0
  -28.3838  -32.6909   25.0320 H   0  0  0  0  0  0
  -28.0731  -31.8437   26.5395 H   0  0  0  0  0  0
  -28.2606  -38.0101   24.7508 H   0  0  0  0  0  0
  -28.1065  -36.2636   24.6295 H   0  0  0  0  0  0
  -27.2299  -37.1472   25.8867 H   0  0  0  0  0  0
  -20.9305  -29.8775   21.6952 H   0  0  0  0  0  0
  -26.0184  -38.2876   24.1404 H   0  0  0  0  0  0
  -29.0940  -22.8076   23.6584 H   0  0  0  0  0  0
  -29.1018  -24.5095   23.2268 H   0  0  0  0  0  0
  -30.5484  -23.5379   22.9844 H   0  0  0  0  0  0
  -27.2497  -24.9237   20.5830 H   0  0  0  0  0  0
  -27.9472  -24.9463   18.9696 H   0  0  0  0  0  0
  -27.8956  -23.0994   21.5441 H   0  0  0  0  0  0
  -32.7330  -19.3699   19.8522 H   0  0  0  0  0  0
  -31.9663  -20.7382   20.4740 H   0  0  0  0  0  0
  -29.0866  -15.1213   21.5682 H   0  0  0  0  0  0
  -30.3000  -21.8183   20.4937 H   0  0  0  0  0  0
  1 25  1  0  0  0
  1 30  2  0  0  0
  1 81  1  0  0  0
  2  3  1  0  0  0
  2 25  1  0  0  0
  2 86  1  0  0  0
  2 87  1  0  0  0
  3  4  1  0  0  0
  3 88  1  0  0  0
  3 89  1  0  0  0
  4  5  1  0  0  0
  4 90  1  0  0  0
  4 91  1  0  0  0
  5  6  1  0  0  0
  5 26  1  0  0  0
  5 92  1  0  0  0
  6 25  1  0  0  0
  6 93  1  0  0  0
  6 94  1  0  0  0
  7  8  2  0  0  0
  7 26  1  0  0  0
  7 29  1  0  0  0
  8  9  1  0  0  0
  8 22  1  0  0  0
  9 10  1  0  0  0
  9 27  2  0  0  0
 10 11  2  0  0  0
 10 15  1  0  0  0
 11 12  1  0  0  0
 11 95  1  0  0  0
 12 13  2  0  0  0
 12 96  1  0  0  0
 13 14  1  0  0  0
 13 31  1  0  0  0
 14 15  2  0  0  0
 14 97  1  0  0  0
 15 98  1  0  0  0
 16 17  2  0  0  0
 16 21  1  0  0  0
 16 31  1  0  0  0
 17 18  1  0  0  0
 17 99  1  0  0  0
 18 19  2  0  0  0
 18100  1  0  0  0
 19 20  1  0  0  0
 19 24  1  0  0  0
 20 21  2  0  0  0
 20101  1  0  0  0
 21 23  1  0  0  0
 22 28  1  0  0  0
 22 32  2  0  0  0
 26 27  1  0  0  0
 28102  1  0  0  0
 28103  1  0  0  0
 29104  1  0  0  0
 29105  1  0  0  0
 33 34  1  0  0  0
 33 66  1  0  0  0
 33 70  2  0  0  0
 34 36  1  0  0  0
 34 59  1  0  0  0
 34106  1  0  0  0
 35 44  2  0  0  0
 35 45  1  0  0  0
 35 68  1  0  0  0
 36 56  1  0  0  0
 36107  1  0  0  0
 37 39  1  0  0  0
 37 47  1  0  0  0
 37 66  1  0  0  0
 37108  1  0  0  0
 38 43  2  0  0  0
 38 46  1  0  0  0
 38 47  1  0  0  0
 39 64  1  0  0  0
 39 67  2  0  0  0
 40 52  1  0  0  0
 40 53  2  0  0  0
 40 58  1  0  0  0
 41109  1  0  0  0
 41110  1  0  0  0
 41111  1  0  0  0
 41 48  1  0  0  0
 42 43  1  0  0  0
 42 66  1  0  0  0
 42112  1  0  0  0
 42113  1  0  0  0
 43 44  1  0  0  0
 44114  1  0  0  0
 45 46  2  0  0  0
 45115  1  0  0  0
 46116  1  0  0  0
 47117  1  0  0  0
 47118  1  0  0  0
 48 56  1  0  0  0
 48 65  1  0  0  0
 48119  1  0  0  0
 49 50  1  0  0  0
 49 53  1  0  0  0
 49 64  1  0  0  0
 49120  1  0  0  0
 50 51  1  0  0  0
 50121  1  0  0  0
 50122  1  0  0  0
 51 52  1  0  0  0
 51123  1  0  0  0
 51124  1  0  0  0
 52125  1  0  0  0
 52126  1  0  0  0
 53 54  1  0  0  0
 54 55  2  0  0  0
 54127  1  0  0  0
 55 57  1  0  0  0
 55128  1  0  0  0
 56 69  2  0  0  0
 57 58  2  0  0  0
 57129  1  0  0  0
 58130  1  0  0  0
 59 60  1  0  0  0
 59 61  1  0  0  0
 59 62  1  0  0  0
 60131  1  0  0  0
 60132  1  0  0  0
 60133  1  0  0  0
 61134  1  0  0  0
 61135  1  0  0  0
 61136  1  0  0  0
 62137  1  0  0  0
 62138  1  0  0  0
 62139  1  0  0  0
 63 65  1  0  0  0
 63140  1  0  0  0
 63141  1  0  0  0
 63142  1  0  0  0
 64143  1  0  0  0
 65144  1  0  0  0
 68 77  1  0  0  0
 71 72  2  0  0  0
 71 74  1  0  0  0
 71 85  1  0  0  0
 72 79  1  0  0  0
 72 80  1  0  0  0
 73 79  2  0  0  0
 73 81  1  0  0  0
 73 85  1  0  0  0
 74 82  1  0  0  0
 74 83  2  0  0  0
 75 77  1  0  0  0
 75 78  1  0  0  0
 75 84  2  0  0  0
 76145  1  0  0  0
 76146  1  0  0  0
 76147  1  0  0  0
 76 78  1  0  0  0
 77148  1  0  0  0
 77149  1  0  0  0
 78 82  1  0  0  0
 78150  1  0  0  0
 80151  1  0  0  0
 80152  1  0  0  0
 81153  1  0  0  0
 82154  1  0  0  0
M  ISO  4   1 100  68 101  77 101  81 100
M  END
> <chiral flag>
0

> <version>
0

> <s_m_source_file>
/data/baiqing/PycharmProjects/Reinvent-master-3.2/result/LINK_invent/BTK/process_docking_weight1_custom_product_contain_oxygen_bond_distance_aromatic_linkinvent_7_9_3/rearranged_h_0176.sdf

> <i_m_source_file_index>
51

> <r_mmod_Potential_Energy-OPLS-2005>
-157.331024169922

> <r_mmod_Stretch_Energy-OPLS-2005>
43.3409538269043

> <r_mmod_Bend_Energy-OPLS-2005>
112.276756286621

> <r_mmod_Torsional_Energy-OPLS-2005>
227.41667175293

> <r_mmod_Improper_Torsional_Energy-OPLS-2005>
6.33990430831909

> <r_mmod_Van_der_Waal_Energy-OPLS-2005>
137.719131469727

> <r_mmod_Electrostatic_Energy-OPLS-2005>
-434.82275390625

> <r_mmod_Solvation_Energy-OPLS-2005>
-266.486602783203

> <b_mmod_Minimization_Converged-OPLS-2005>
0

> <r_mmod_RMS_Derivative-OPLS-2005>
0.649294555187225

$$$$
51
                    3D
 Structure written by MMmdl.
159167  0  0  1  0            999 V2000
  -30.6128  -14.6125   20.4382 C   0  0  0  0  0  0
  -30.4292  -12.3553   19.4381 C   0  0  0  0  0  0
  -29.4974  -12.4843   18.2141 C   0  0  0  0  0  0
  -28.0240  -12.3130   18.6317 C   0  0  0  0  0  0
  -27.6484  -13.2010   19.8477 C   0  0  2  0  0  0
  -28.6906  -13.0533   20.9790 C   0  0  0  0  0  0
  -25.2564  -13.8143   20.5563 C   0  0  0  0  0  0
  -24.1824  -13.0391   20.9129 C   0  0  0  0  0  0
  -24.6380  -11.6868   20.8670 C   0  0  0  0  0  0
  -23.9025  -10.4264   21.0405 C   0  0  0  0  0  0
  -24.3589   -9.4189   21.9179 C   0  0  0  0  0  0
  -23.6283   -8.2218   22.0755 C   0  0  0  0  0  0
  -22.4264   -8.0257   21.3549 C   0  0  0  0  0  0
  -21.9893   -9.0218   20.4629 C   0  0  0  0  0  0
  -22.7200  -10.2121   20.3042 C   0  0  0  0  0  0
  -21.6838   -6.0716   22.5281 C   0  0  0  0  0  0
  -21.4004   -6.5632   23.8210 C   0  0  0  0  0  0
  -21.3660   -5.6799   24.9177 C   0  0  0  0  0  0
  -21.6048   -4.3061   24.7228 C   0  0  0  0  0  0
  -21.8819   -3.8140   23.4344 C   0  0  0  0  0  0
  -21.9186   -4.6951   22.3400 C   0  0  0  0  0  0
  -22.7857  -13.5212   21.1829 C   0  0  0  0  0  0
  -22.1651   -4.2142   21.0981 F   0  0  0  0  0  0
  -21.5640   -3.4555   25.7743 F   0  0  0  0  0  0
  -30.0147  -13.3782   20.4229 N   0  0  0  0  0  0
  -26.2934  -12.9263   20.3158 N   0  0  0  0  0  0
  -25.9283  -11.6431   20.5644 N   0  0  0  0  0  0
  -22.0506  -12.8192   22.0395 N   0  0  0  0  0  0
  -25.4343  -15.1840   20.4055 N   0  0  0  0  0  0
  -31.7606  -14.7734   20.0056 O   0  0  0  0  0  0
  -21.6626   -6.8855   21.4238 O   0  0  0  0  0  0
  -22.3494  -14.5454   20.6614 O   0  0  0  0  0  0
  -24.6270  -31.8572   23.2025 C   0  0  0  0  0  0
  -25.9109  -32.4754   23.8316 C   0  0  1  0  0  0
  -27.2082  -27.2958   20.1337 C   0  0  0  0  0  0
  -25.5918  -33.8551   24.2248 N   0  0  0  0  0  0
  -23.4175  -30.4832   21.5501 C   0  0  2  0  0  0
  -24.8604  -28.9262   20.1282 C   0  0  0  0  0  0
  -22.7382  -29.4656   22.4971 C   0  0  0  0  0  0
  -18.0305  -28.1313   22.8517 C   0  0  0  0  0  0
  -24.1489  -36.7301   23.2643 C   0  0  0  0  0  0
  -25.9625  -30.7745   21.3805 C   0  0  0  0  0  0
  -26.0327  -29.4003   20.7306 C   0  0  0  0  0  0
  -27.2139  -28.5968   20.7240 C   0  0  0  0  0  0
  -26.0214  -26.8778   19.5006 C   0  0  0  0  0  0
  -24.8552  -27.6683   19.5041 C   0  0  0  0  0  0
  -23.6339  -29.8179   20.1668 C   0  0  0  0  0  0
  -25.4114  -36.3085   24.0338 C   0  0  1  0  0  0
  -20.5891  -28.3646   23.1354 C   0  0  2  0  0  0
  -20.6821  -26.9387   22.5440 C   0  0  0  0  0  0
  -19.5794  -26.6311   21.5276 C   0  0  0  0  0  0
  -18.2047  -26.7771   22.1833 C   0  0  0  0  0  0
  -19.1531  -28.8809   23.2932 C   0  0  0  0  0  0
  -18.9437  -30.1376   23.8971 C   0  0  0  0  0  0
  -17.6407  -30.6467   24.0615 C   0  0  0  0  0  0
  -25.9038  -34.9442   23.5086 C   0  0  0  0  0  0
  -16.5310  -29.8977   23.6299 C   0  0  0  0  0  0
  -16.7273  -28.6394   23.0323 C   0  0  0  0  0  0
  -26.4487  -31.6592   25.0684 C   0  0  0  0  0  0
  -25.3725  -31.3763   26.1419 C   0  0  0  0  0  0
  -27.0339  -30.3019   24.6167 C   0  0  0  0  0  0
  -27.6041  -32.4352   25.7445 C   0  0  0  0  0  0
  -27.5598  -37.1799   24.8474 C   0  0  0  0  0  0
  -21.4124  -29.3041   22.3718 N   0  0  0  0  0  0
  -26.4299  -37.3770   23.9411 N   0  0  0  0  0  0
  -24.6891  -31.0544   22.1026 N   0  0  0  0  0  0
  -23.4108  -28.8190   23.3047 O   0  0  0  0  0  0
  -28.2932  -26.4083   20.1564 O   0  0  0  0  0  0
  -26.5610  -34.8914   22.4655 O   0  0  0  0  0  0
  -23.5443  -32.1391   23.7339 O   0  0  0  0  0  0
  -29.7822  -17.2697   18.9589 C   0  0  0  0  0  0
  -29.4606  -18.6693   18.8359 C   0  0  0  0  0  0
  -29.7827  -16.9546   20.2980 C   0  0  0  0  0  0
  -29.3192  -19.1273   20.1248 C   0  0  0  0  0  0
  -28.4654  -23.7488   20.3407 C   0  0  0  0  0  0
  -27.8059  -21.0232   20.2185 C   0  0  0  0  0  0
  -29.2721  -19.4814   17.5641 C   0  0  0  0  0  0
  -26.4766  -22.8360   19.1702 C   0  0  0  0  0  0
  -26.5754  -22.6490   21.6971 C   0  0  0  0  0  0
  -28.0946  -25.1768   20.9626 C   0  0  0  0  0  0
  -27.3996  -22.5667   20.3872 C   0  0  0  0  0  0
  -29.0165  -20.4418   20.4463 N   0  0  0  0  0  0
  -29.8427  -15.6738   20.8306 N   0  0  0  0  0  0
  -29.5729  -23.5664   19.8262 O   0  0  0  0  0  0
  -26.8791  -20.2605   19.9110 O   0  0  0  0  0  0
  -29.4899  -18.0949   21.0396 O   0  0  0  0  0  0
  -31.4686  -12.4705   19.1228 H   0  0  0  0  0  0
  -30.3632  -11.3516   19.8650 H   0  0  0  0  0  0
  -29.7669  -11.7547   17.4491 H   0  0  0  0  0  0
  -29.6329  -13.4611   17.7489 H   0  0  0  0  0  0
  -27.8888  -11.2607   18.8898 H   0  0  0  0  0  0
  -27.3624  -12.5080   17.7867 H   0  0  0  0  0  0
  -27.6670  -14.2323   19.4944 H   0  0  0  0  0  0
  -28.6772  -12.0314   21.3633 H   0  0  0  0  0  0
  -28.4335  -13.6950   21.8227 H   0  0  0  0  0  0
  -25.2739   -9.5697   22.4741 H   0  0  0  0  0  0
  -24.0006   -7.4629   22.7487 H   0  0  0  0  0  0
  -21.0807   -8.8674   19.8967 H   0  0  0  0  0  0
  -22.3591  -10.9634   19.6149 H   0  0  0  0  0  0
  -21.1973   -7.6153   23.9696 H   0  0  0  0  0  0
  -21.1492   -6.0541   25.9088 H   0  0  0  0  0  0
  -22.0603   -2.7602   23.2834 H   0  0  0  0  0  0
  -22.4134  -11.9839   22.4722 H   0  0  0  0  0  0
  -21.1151  -13.1244   22.2680 H   0  0  0  0  0  0
  -24.6703  -15.8431   20.5189 H   0  0  0  0  0  0
  -26.2801  -15.6256   20.0657 H   0  0  0  0  0  0
  -26.7157  -32.5381   23.1035 H   0  0  0  0  0  0
  -25.0039  -33.9690   25.0385 H   0  0  0  0  0  0
  -22.7156  -31.3101   21.4120 H   0  0  0  0  0  0
  -23.3737  -35.9648   23.3300 H   0  0  0  0  0  0
  -24.3625  -36.8881   22.2061 H   0  0  0  0  0  0
  -23.7238  -37.6497   23.6650 H   0  0  0  0  0  0
  -26.0973  -31.5260   20.6021 H   0  0  0  0  0  0
  -26.8478  -30.8284   22.0051 H   0  0  0  0  0  0
  -28.1165  -28.9492   21.2048 H   0  0  0  0  0  0
  -25.9815  -25.9237   19.0048 H   0  0  0  0  0  0
  -23.9566  -27.3029   19.0275 H   0  0  0  0  0  0
  -23.7690  -30.5986   19.4204 H   0  0  0  0  0  0
  -22.7430  -29.2729   19.8551 H   0  0  0  0  0  0
  -25.1299  -36.1935   25.0835 H   0  0  0  0  0  0
  -21.0065  -28.3172   24.1462 H   0  0  0  0  0  0
  -20.5722  -26.2213   23.3605 H   0  0  0  0  0  0
  -21.6727  -26.7381   22.1327 H   0  0  0  0  0  0
  -19.6955  -25.6177   21.1449 H   0  0  0  0  0  0
  -19.6644  -27.3020   20.6722 H   0  0  0  0  0  0
  -18.0835  -26.0099   22.9463 H   0  0  0  0  0  0
  -17.4241  -26.6129   21.4432 H   0  0  0  0  0  0
  -19.7896  -30.7105   24.2492 H   0  0  0  0  0  0
  -17.4878  -31.6106   24.5309 H   0  0  0  0  0  0
  -15.5275  -30.2797   23.7606 H   0  0  0  0  0  0
  -15.8681  -28.0692   22.7044 H   0  0  0  0  0  0
  -24.5873  -30.7134   25.7758 H   0  0  0  0  0  0
  -24.8949  -32.2935   26.4853 H   0  0  0  0  0  0
  -25.8045  -30.8917   27.0178 H   0  0  0  0  0  0
  -26.2919  -29.6774   24.1157 H   0  0  0  0  0  0
  -27.3981  -29.7284   25.4693 H   0  0  0  0  0  0
  -27.8816  -30.4300   23.9445 H   0  0  0  0  0  0
  -27.2620  -33.3639   26.2038 H   0  0  0  0  0  0
  -28.3823  -32.6923   25.0252 H   0  0  0  0  0  0
  -28.0741  -31.8459   26.5324 H   0  0  0  0  0  0
  -28.2603  -38.0099   24.7501 H   0  0  0  0  0  0
  -28.1092  -36.2618   24.6317 H   0  0  0  0  0  0
  -27.2326  -37.1475   25.8878 H   0  0  0  0  0  0
  -20.9236  -29.8707   21.6902 H   0  0  0  0  0  0
  -26.0180  -38.2846   24.1380 H   0  0  0  0  0  0
  -29.9320  -16.5641   18.1531 H   0  0  0  0  0  0
  -29.5352  -18.9211   16.6675 H   0  0  0  0  0  0
  -29.8755  -20.3903   17.5814 H   0  0  0  0  0  0
  -28.2303  -19.8003   17.4620 H   0  0  0  0  0  0
  -26.9909  -22.5839   18.2389 H   0  0  0  0  0  0
  -26.1498  -23.8665   19.0869 H   0  0  0  0  0  0
  -25.5690  -22.2333   19.2080 H   0  0  0  0  0  0
  -25.9509  -21.7699   21.8668 H   0  0  0  0  0  0
  -25.8845  -23.4900   21.6860 H   0  0  0  0  0  0
  -27.2345  -22.7399   22.5636 H   0  0  0  0  0  0
  -28.7535  -25.2896   21.8249 H   0  0  0  0  0  0
  -27.0916  -25.1624   21.3863 H   0  0  0  0  0  0
  -29.7421  -20.9893   20.8874 H   0  0  0  0  0  0
  -29.0462  -15.4249   21.3926 H   0  0  0  0  0  0
  1 25  1  0  0  0
  1 30  2  0  0  0
  1 83  1  0  0  0
  2  3  1  0  0  0
  2 25  1  0  0  0
  2 87  1  0  0  0
  2 88  1  0  0  0
  3  4  1  0  0  0
  3 89  1  0  0  0
  3 90  1  0  0  0
  4  5  1  0  0  0
  4 91  1  0  0  0
  4 92  1  0  0  0
  5  6  1  0  0  0
  5 26  1  0  0  0
  5 93  1  0  0  0
  6 25  1  0  0  0
  6 94  1  0  0  0
  6 95  1  0  0  0
  7  8  2  0  0  0
  7 26  1  0  0  0
  7 29  1  0  0  0
  8  9  1  0  0  0
  8 22  1  0  0  0
  9 10  1  0  0  0
  9 27  2  0  0  0
 10 11  2  0  0  0
 10 15  1  0  0  0
 11 12  1  0  0  0
 11 96  1  0  0  0
 12 13  2  0  0  0
 12 97  1  0  0  0
 13 14  1  0  0  0
 13 31  1  0  0  0
 14 15  2  0  0  0
 14 98  1  0  0  0
 15 99  1  0  0  0
 16 17  2  0  0  0
 16 21  1  0  0  0
 16 31  1  0  0  0
 17 18  1  0  0  0
 17100  1  0  0  0
 18 19  2  0  0  0
 18101  1  0  0  0
 19 20  1  0  0  0
 19 24  1  0  0  0
 20 21  2  0  0  0
 20102  1  0  0  0
 21 23  1  0  0  0
 22 28  1  0  0  0
 22 32  2  0  0  0
 26 27  1  0  0  0
 28103  1  0  0  0
 28104  1  0  0  0
 29105  1  0  0  0
 29106  1  0  0  0
 33 34  1  0  0  0
 33 66  1  0  0  0
 33 70  2  0  0  0
 34 36  1  0  0  0
 34 59  1  0  0  0
 34107  1  0  0  0
 35 44  2  0  0  0
 35 45  1  0  0  0
 35 68  1  0  0  0
 36 56  1  0  0  0
 36108  1  0  0  0
 37 39  1  0  0  0
 37 47  1  0  0  0
 37 66  1  0  0  0
 37109  1  0  0  0
 38 43  2  0  0  0
 38 46  1  0  0  0
 38 47  1  0  0  0
 39 64  1  0  0  0
 39 67  2  0  0  0
 40 52  1  0  0  0
 40 53  2  0  0  0
 40 58  1  0  0  0
 41110  1  0  0  0
 41111  1  0  0  0
 41112  1  0  0  0
 41 48  1  0  0  0
 42 43  1  0  0  0
 42 66  1  0  0  0
 42113  1  0  0  0
 42114  1  0  0  0
 43 44  1  0  0  0
 44115  1  0  0  0
 45 46  2  0  0  0
 45116  1  0  0  0
 46117  1  0  0  0
 47118  1  0  0  0
 47119  1  0  0  0
 48 56  1  0  0  0
 48 65  1  0  0  0
 48120  1  0  0  0
 49 50  1  0  0  0
 49 53  1  0  0  0
 49 64  1  0  0  0
 49121  1  0  0  0
 50 51  1  0  0  0
 50122  1  0  0  0
 50123  1  0  0  0
 51 52  1  0  0  0
 51124  1  0  0  0
 51125  1  0  0  0
 52126  1  0  0  0
 52127  1  0  0  0
 53 54  1  0  0  0
 54 55  2  0  0  0
 54128  1  0  0  0
 55 57  1  0  0  0
 55129  1  0  0  0
 56 69  2  0  0  0
 57 58  2  0  0  0
 57130  1  0  0  0
 58131  1  0  0  0
 59 60  1  0  0  0
 59 61  1  0  0  0
 59 62  1  0  0  0
 60132  1  0  0  0
 60133  1  0  0  0
 60134  1  0  0  0
 61135  1  0  0  0
 61136  1  0  0  0
 61137  1  0  0  0
 62138  1  0  0  0
 62139  1  0  0  0
 62140  1  0  0  0
 63 65  1  0  0  0
 63141  1  0  0  0
 63142  1  0  0  0
 63143  1  0  0  0
 64144  1  0  0  0
 65145  1  0  0  0
 68 80  1  0  0  0
 71 72  1  0  0  0
 71 73  2  0  0  0
 71146  1  0  0  0
 72 74  2  0  0  0
 72 77  1  0  0  0
 73 83  1  0  0  0
 73 86  1  0  0  0
 74 82  1  0  0  0
 74 86  1  0  0  0
 75 80  1  0  0  0
 75 81  1  0  0  0
 75 84  2  0  0  0
 76 81  1  0  0  0
 76 82  1  0  0  0
 76 85  2  0  0  0
 77147  1  0  0  0
 77148  1  0  0  0
 77149  1  0  0  0
 78150  1  0  0  0
 78151  1  0  0  0
 78152  1  0  0  0
 78 81  1  0  0  0
 79 81  1  0  0  0
 79153  1  0  0  0
 79154  1  0  0  0
 79155  1  0  0  0
 80156  1  0  0  0
 80157  1  0  0  0
 82158  1  0  0  0
 83159  1  0  0  0
M  ISO  4   1 100  68 101  80 101  83 100
M  END
> <chiral flag>
0

> <version>
0

> <s_m_source_file>
/data/baiqing/PycharmProjects/Reinvent-master-3.2/result/LINK_invent/BTK/process_docking_weight1_custom_product_contain_oxygen_bond_distance_aromatic_linkinvent_7_9_3/rearranged_h_0176.sdf

> <i_m_source_file_index>
52

> <r_mmod_Potential_Energy-OPLS-2005>
138.843566894531

> <r_mmod_Stretch_Energy-OPLS-2005>
84.9792251586914

> <r_mmod_Bend_Energy-OPLS-2005>
178.895309448242

> <r_mmod_Torsional_Energy-OPLS-2005>
317.198822021484

> <r_mmod_Improper_Torsional_Energy-OPLS-2005>
5.74118947982788

> <r_mmod_Van_der_Waal_Energy-OPLS-2005>
132.807952880859

> <r_mmod_Electrostatic_Energy-OPLS-2005>
-402.232604980469

> <r_mmod_Solvation_Energy-OPLS-2005>
-232.968765258789

> <b_mmod_Minimization_Converged-OPLS-2005>
0

> <r_mmod_RMS_Derivative-OPLS-2005>
7.16279649734497

$$$$
52
                    3D
 Structure written by MMmdl.
154162  0  0  1  0            999 V2000
  -30.7701  -14.3732   20.6541 C   0  0  0  0  0  0
  -30.4110  -12.2773   19.4044 C   0  0  0  0  0  0
  -29.4840  -12.5149   18.1965 C   0  0  0  0  0  0
  -28.0070  -12.3797   18.6135 C   0  0  0  0  0  0
  -27.6660  -13.2057   19.8820 C   0  0  2  0  0  0
  -28.7050  -12.9594   20.9992 C   0  0  0  0  0  0
  -25.2618  -13.8175   20.5701 C   0  0  0  0  0  0
  -24.1862  -13.0451   20.9176 C   0  0  0  0  0  0
  -24.6408  -11.6911   20.8745 C   0  0  0  0  0  0
  -23.9080  -10.4298   21.0407 C   0  0  0  0  0  0
  -24.3624   -9.4208   21.9189 C   0  0  0  0  0  0
  -23.6293   -8.2246   22.0757 C   0  0  0  0  0  0
  -22.4278   -8.0286   21.3543 C   0  0  0  0  0  0
  -21.9922   -9.0264   20.4650 C   0  0  0  0  0  0
  -22.7252  -10.2139   20.3060 C   0  0  0  0  0  0
  -21.6857   -6.0740   22.5276 C   0  0  0  0  0  0
  -21.4014   -6.5645   23.8208 C   0  0  0  0  0  0
  -21.3659   -5.6799   24.9171 C   0  0  0  0  0  0
  -21.6042   -4.3060   24.7223 C   0  0  0  0  0  0
  -21.8818   -3.8151   23.4347 C   0  0  0  0  0  0
  -21.9191   -4.6968   22.3399 C   0  0  0  0  0  0
  -22.7880  -13.5234   21.1836 C   0  0  0  0  0  0
  -22.1663   -4.2154   21.0980 F   0  0  0  0  0  0
  -21.5630   -3.4547   25.7739 F   0  0  0  0  0  0
  -30.0457  -13.2405   20.4533 N   0  0  0  0  0  0
  -26.3057  -12.9342   20.3405 N   0  0  0  0  0  0
  -25.9337  -11.6500   20.5793 N   0  0  0  0  0  0
  -22.0523  -12.8223   22.0388 N   0  0  0  0  0  0
  -25.4384  -15.1886   20.4097 N   0  0  0  0  0  0
  -31.8217  -14.6107   20.0494 O   0  0  0  0  0  0
  -21.6644   -6.8882   21.4236 O   0  0  0  0  0  0
  -22.3561  -14.5543   20.6685 O   0  0  0  0  0  0
  -24.6117  -31.8723   23.2143 C   0  0  0  0  0  0
  -25.9025  -32.4851   23.8429 C   0  0  1  0  0  0
  -27.2321  -27.4646   20.0915 C   0  0  0  0  0  0
  -25.5909  -33.8646   24.2362 N   0  0  0  0  0  0
  -23.3971  -30.4959   21.5541 C   0  0  2  0  0  0
  -24.8412  -28.9657   20.1148 C   0  0  0  0  0  0
  -22.7392  -29.4673   22.5013 C   0  0  0  0  0  0
  -18.0259  -28.1391   22.8478 C   0  0  0  0  0  0
  -24.1491  -36.7313   23.2637 C   0  0  0  0  0  0
  -25.9234  -30.8452   21.3634 C   0  0  0  0  0  0
  -25.9986  -29.4828   20.7088 C   0  0  0  0  0  0
  -27.1963  -28.7396   20.6930 C   0  0  0  0  0  0
  -26.0598  -26.9544   19.4894 C   0  0  0  0  0  0
  -24.8648  -27.6989   19.5025 C   0  0  0  0  0  0
  -23.6041  -29.8321   20.1669 C   0  0  0  0  0  0
  -25.4110  -36.3133   24.0357 C   0  0  1  0  0  0
  -20.5847  -28.3665   23.1342 C   0  0  2  0  0  0
  -20.6752  -26.9413   22.5425 C   0  0  0  0  0  0
  -19.5744  -26.6386   21.5206 C   0  0  0  0  0  0
  -18.1911  -26.7936   22.1606 C   0  0  0  0  0  0
  -19.1508  -28.8841   23.2900 C   0  0  0  0  0  0
  -18.9451  -30.1434   23.8935 C   0  0  0  0  0  0
  -17.6467  -30.6592   24.0564 C   0  0  0  0  0  0
  -25.9044  -34.9494   23.5162 C   0  0  0  0  0  0
  -16.5356  -29.9114   23.6317 C   0  0  0  0  0  0
  -16.7252  -28.6525   23.0344 C   0  0  0  0  0  0
  -26.4470  -31.6604   25.0730 C   0  0  0  0  0  0
  -25.3761  -31.3675   26.1500 C   0  0  0  0  0  0
  -27.0280  -30.3065   24.6038 C   0  0  0  0  0  0
  -27.6072  -32.4296   25.7474 C   0  0  0  0  0  0
  -27.5600  -37.1802   24.8458 C   0  0  0  0  0  0
  -21.4127  -29.3034   22.3766 N   0  0  0  0  0  0
  -26.4295  -37.3821   23.9441 N   0  0  0  0  0  0
  -24.6621  -31.0845   22.1034 N   0  0  0  0  0  0
  -23.4180  -28.8200   23.3028 O   0  0  0  0  0  0
  -28.4159  -26.7677   20.1024 O   0  0  0  0  0  0
  -26.5581  -34.8937   22.4708 O   0  0  0  0  0  0
  -23.5323  -32.1464   23.7552 O   0  0  0  0  0  0
  -31.3349  -18.8577   22.2178 C   0  0  0  0  0  0
  -32.3327  -17.9848   22.6001 C   0  0  0  0  0  0
  -30.7866  -16.4988   21.8501 C   0  0  0  0  0  0
  -31.3597  -20.2922   22.2424 C   0  0  0  0  0  0
  -30.4812  -21.1398   21.6696 C   0  0  0  0  0  0
  -29.5693  -23.3108   21.1136 C   0  0  0  0  0  0
  -30.5411  -22.5928   21.7259 C   0  0  0  0  0  0
  -29.4513  -24.7863   21.0565 C   0  0  0  0  0  0
  -33.6768  -18.3095   23.1818 C   0  0  0  0  0  0
  -28.3230  -25.3426   20.1773 C   0  0  0  0  0  0
  -31.9984  -16.6409   22.3964 N   0  0  0  0  0  0
  -30.2471  -15.2373   21.5308 N   0  0  0  0  0  0
  -30.1764  -25.5710   21.6807 O   0  0  0  0  0  0
  -31.5579  -23.1807   22.3774 O   0  0  0  0  0  0
  -29.9334  -18.0060   21.5977 S   0  0  0  0  0  0
  -31.4577  -12.3560   19.1035 H   0  0  0  0  0  0
  -30.2912  -11.2605   19.7819 H   0  0  0  0  0  0
  -29.7117  -11.8064   17.3993 H   0  0  0  0  0  0
  -29.6611  -13.5098   17.7832 H   0  0  0  0  0  0
  -27.8074  -11.3233   18.7943 H   0  0  0  0  0  0
  -27.3529  -12.6766   17.7928 H   0  0  0  0  0  0
  -27.7226  -14.2581   19.6031 H   0  0  0  0  0  0
  -28.6650  -11.9212   21.3322 H   0  0  0  0  0  0
  -28.4587  -13.5517   21.8808 H   0  0  0  0  0  0
  -25.2766   -9.5683   22.4769 H   0  0  0  0  0  0
  -24.0003   -7.4636   22.7476 H   0  0  0  0  0  0
  -21.0853   -8.8782   19.8953 H   0  0  0  0  0  0
  -22.3714  -10.9683   19.6173 H   0  0  0  0  0  0
  -21.2011   -7.6153   23.9712 H   0  0  0  0  0  0
  -21.1485   -6.0533   25.9070 H   0  0  0  0  0  0
  -22.0598   -2.7616   23.2848 H   0  0  0  0  0  0
  -22.4128  -11.9860   22.4749 H   0  0  0  0  0  0
  -21.1146  -13.1256   22.2609 H   0  0  0  0  0  0
  -24.6785  -15.8522   20.5132 H   0  0  0  0  0  0
  -26.2955  -15.6201   20.0872 H   0  0  0  0  0  0
  -26.7111  -32.5581   23.1212 H   0  0  0  0  0  0
  -25.0114  -33.9809   25.0547 H   0  0  0  0  0  0
  -22.6842  -31.3123   21.4180 H   0  0  0  0  0  0
  -23.3769  -35.9622   23.3283 H   0  0  0  0  0  0
  -24.3592  -36.8945   22.2050 H   0  0  0  0  0  0
  -23.7201  -37.6506   23.6642 H   0  0  0  0  0  0
  -26.0265  -31.6121   20.5955 H   0  0  0  0  0  0
  -26.8141  -30.9001   21.9776 H   0  0  0  0  0  0
  -28.0919  -29.1349   21.1540 H   0  0  0  0  0  0
  -26.0584  -25.9938   18.9972 H   0  0  0  0  0  0
  -23.9772  -27.2938   19.0363 H   0  0  0  0  0  0
  -23.7168  -30.6104   19.4116 H   0  0  0  0  0  0
  -22.7268  -29.2589   19.8641 H   0  0  0  0  0  0
  -25.1272  -36.2007   25.0852 H   0  0  0  0  0  0
  -20.9917  -28.3248   24.1471 H   0  0  0  0  0  0
  -20.5662  -26.2301   23.3626 H   0  0  0  0  0  0
  -21.6626  -26.7491   22.1215 H   0  0  0  0  0  0
  -19.6935  -25.6300   21.1243 H   0  0  0  0  0  0
  -19.6685  -27.3189   20.6736 H   0  0  0  0  0  0
  -17.4187  -26.6679   21.3998 H   0  0  0  0  0  0
  -18.0305  -26.0070   22.9000 H   0  0  0  0  0  0
  -19.7940  -30.7196   24.2354 H   0  0  0  0  0  0
  -17.5038  -31.6276   24.5155 H   0  0  0  0  0  0
  -15.5360  -30.3040   23.7619 H   0  0  0  0  0  0
  -15.8648  -28.0853   22.7078 H   0  0  0  0  0  0
  -24.5950  -30.7007   25.7854 H   0  0  0  0  0  0
  -24.8918  -32.2805   26.4984 H   0  0  0  0  0  0
  -25.8148  -30.8843   27.0240 H   0  0  0  0  0  0
  -26.2785  -29.6851   24.1129 H   0  0  0  0  0  0
  -27.4140  -29.7285   25.4442 H   0  0  0  0  0  0
  -27.8593  -30.4425   23.9106 H   0  0  0  0  0  0
  -27.2722  -33.3593   26.2075 H   0  0  0  0  0  0
  -28.3863  -32.6851   25.0282 H   0  0  0  0  0  0
  -28.0743  -31.8385   26.5367 H   0  0  0  0  0  0
  -28.2580  -38.0135   24.7568 H   0  0  0  0  0  0
  -28.1133  -36.2672   24.6194 H   0  0  0  0  0  0
  -27.2315  -37.1340   25.8855 H   0  0  0  0  0  0
  -20.9292  -29.8810   21.7035 H   0  0  0  0  0  0
  -26.0204  -38.2907   24.1472 H   0  0  0  0  0  0
  -32.1856  -20.7076   22.8004 H   0  0  0  0  0  0
  -29.6621  -20.7082   21.1104 H   0  0  0  0  0  0
  -28.7798  -22.7755   20.6029 H   0  0  0  0  0  0
  -33.5900  -18.6070   24.2267 H   0  0  0  0  0  0
  -34.1664  -19.1202   22.6422 H   0  0  0  0  0  0
  -34.3471  -17.4490   23.1467 H   0  0  0  0  0  0
  -27.3765  -25.0250   20.6176 H   0  0  0  0  0  0
  -28.3843  -24.9131   19.1773 H   0  0  0  0  0  0
  -29.3168  -15.0395   21.8600 H   0  0  0  0  0  0
  -32.1144  -22.4963   22.7243 H   0  0  0  0  0  0
  1 25  1  0  0  0
  1 30  2  0  0  0
  1 82  1  0  0  0
  2  3  1  0  0  0
  2 25  1  0  0  0
  2 86  1  0  0  0
  2 87  1  0  0  0
  3  4  1  0  0  0
  3 88  1  0  0  0
  3 89  1  0  0  0
  4  5  1  0  0  0
  4 90  1  0  0  0
  4 91  1  0  0  0
  5  6  1  0  0  0
  5 26  1  0  0  0
  5 92  1  0  0  0
  6 25  1  0  0  0
  6 93  1  0  0  0
  6 94  1  0  0  0
  7  8  2  0  0  0
  7 26  1  0  0  0
  7 29  1  0  0  0
  8  9  1  0  0  0
  8 22  1  0  0  0
  9 10  1  0  0  0
  9 27  2  0  0  0
 10 11  2  0  0  0
 10 15  1  0  0  0
 11 12  1  0  0  0
 11 95  1  0  0  0
 12 13  2  0  0  0
 12 96  1  0  0  0
 13 14  1  0  0  0
 13 31  1  0  0  0
 14 15  2  0  0  0
 14 97  1  0  0  0
 15 98  1  0  0  0
 16 17  2  0  0  0
 16 21  1  0  0  0
 16 31  1  0  0  0
 17 18  1  0  0  0
 17 99  1  0  0  0
 18 19  2  0  0  0
 18100  1  0  0  0
 19 20  1  0  0  0
 19 24  1  0  0  0
 20 21  2  0  0  0
 20101  1  0  0  0
 21 23  1  0  0  0
 22 28  1  0  0  0
 22 32  2  0  0  0
 26 27  1  0  0  0
 28102  1  0  0  0
 28103  1  0  0  0
 29104  1  0  0  0
 29105  1  0  0  0
 33 34  1  0  0  0
 33 66  1  0  0  0
 33 70  2  0  0  0
 34 36  1  0  0  0
 34 59  1  0  0  0
 34106  1  0  0  0
 35 44  2  0  0  0
 35 45  1  0  0  0
 35 68  1  0  0  0
 36 56  1  0  0  0
 36107  1  0  0  0
 37 39  1  0  0  0
 37 47  1  0  0  0
 37 66  1  0  0  0
 37108  1  0  0  0
 38 43  2  0  0  0
 38 46  1  0  0  0
 38 47  1  0  0  0
 39 64  1  0  0  0
 39 67  2  0  0  0
 40 52  1  0  0  0
 40 53  2  0  0  0
 40 58  1  0  0  0
 41109  1  0  0  0
 41110  1  0  0  0
 41111  1  0  0  0
 41 48  1  0  0  0
 42 43  1  0  0  0
 42 66  1  0  0  0
 42112  1  0  0  0
 42113  1  0  0  0
 43 44  1  0  0  0
 44114  1  0  0  0
 45 46  2  0  0  0
 45115  1  0  0  0
 46116  1  0  0  0
 47117  1  0  0  0
 47118  1  0  0  0
 48 56  1  0  0  0
 48 65  1  0  0  0
 48119  1  0  0  0
 49 50  1  0  0  0
 49 53  1  0  0  0
 49 64  1  0  0  0
 49120  1  0  0  0
 50 51  1  0  0  0
 50121  1  0  0  0
 50122  1  0  0  0
 51 52  1  0  0  0
 51123  1  0  0  0
 51124  1  0  0  0
 52125  1  0  0  0
 52126  1  0  0  0
 53 54  1  0  0  0
 54 55  2  0  0  0
 54127  1  0  0  0
 55 57  1  0  0  0
 55128  1  0  0  0
 56 69  2  0  0  0
 57 58  2  0  0  0
 57129  1  0  0  0
 58130  1  0  0  0
 59 60  1  0  0  0
 59 61  1  0  0  0
 59 62  1  0  0  0
 60131  1  0  0  0
 60132  1  0  0  0
 60133  1  0  0  0
 61134  1  0  0  0
 61135  1  0  0  0
 61136  1  0  0  0
 62137  1  0  0  0
 62138  1  0  0  0
 62139  1  0  0  0
 63 65  1  0  0  0
 63140  1  0  0  0
 63141  1  0  0  0
 63142  1  0  0  0
 64143  1  0  0  0
 65144  1  0  0  0
 68 80  1  0  0  0
 71 72  2  0  0  0
 71 74  1  0  0  0
 71 85  1  0  0  0
 72 79  1  0  0  0
 72 81  1  0  0  0
 73 81  2  0  0  0
 73 82  1  0  0  0
 73 85  1  0  0  0
 74 75  2  0  0  0
 74145  1  0  0  0
 75 77  1  0  0  0
 75146  1  0  0  0
 76 77  2  0  0  0
 76 78  1  0  0  0
 76147  1  0  0  0
 77 84  1  0  0  0
 78 80  1  0  0  0
 78 83  2  0  0  0
 79148  1  0  0  0
 79149  1  0  0  0
 79150  1  0  0  0
 80151  1  0  0  0
 80152  1  0  0  0
 82153  1  0  0  0
 84154  1  0  0  0
M  ISO  4   1 100  68 101  80 101  82 100
M  END
> <chiral flag>
0

> <version>
0

> <s_m_source_file>
/data/baiqing/PycharmProjects/Reinvent-master-3.2/result/LINK_invent/BTK/process_docking_weight1_custom_product_contain_oxygen_bond_distance_aromatic_linkinvent_7_9_3/rearranged_h_0176.sdf

> <i_m_source_file_index>
53

> <r_mmod_Potential_Energy-OPLS-2005>
-112.284965515137

> <r_mmod_Stretch_Energy-OPLS-2005>
31.7752685546875

> <r_mmod_Bend_Energy-OPLS-2005>
94.4910354614258

> <r_mmod_Torsional_Energy-OPLS-2005>
215.022171020508

> <r_mmod_Improper_Torsional_Energy-OPLS-2005>
2.18609404563904

> <r_mmod_Van_der_Waal_Energy-OPLS-2005>
144.400451660156

> <r_mmod_Electrostatic_Energy-OPLS-2005>
-339.503448486328

> <r_mmod_Solvation_Energy-OPLS-2005>
-268.605377197266

> <b_mmod_Minimization_Converged-OPLS-2005>
0

> <r_mmod_RMS_Derivative-OPLS-2005>
2.40375995635986

$$$$
53
                    3D
 Structure written by MMmdl.
155163  0  0  1  0            999 V2000
  -30.7404  -14.3988   20.6451 C   0  0  0  0  0  0
  -30.4201  -12.2871   19.4051 C   0  0  0  0  0  0
  -29.4884  -12.5147   18.1983 C   0  0  0  0  0  0
  -28.0109  -12.3754   18.6132 C   0  0  0  0  0  0
  -27.6662  -13.2010   19.8810 C   0  0  2  0  0  0
  -28.7048  -12.9425   20.9957 C   0  0  0  0  0  0
  -25.2605  -13.8151   20.5672 C   0  0  0  0  0  0
  -24.1844  -13.0438   20.9163 C   0  0  0  0  0  0
  -24.6390  -11.6900   20.8726 C   0  0  0  0  0  0
  -23.9053  -10.4291   21.0402 C   0  0  0  0  0  0
  -24.3606   -9.4210   21.9182 C   0  0  0  0  0  0
  -23.6280   -8.2247   22.0759 C   0  0  0  0  0  0
  -22.4264   -8.0284   21.3547 C   0  0  0  0  0  0
  -21.9897   -9.0256   20.4652 C   0  0  0  0  0  0
  -22.7225  -10.2134   20.3057 C   0  0  0  0  0  0
  -21.6850   -6.0735   22.5279 C   0  0  0  0  0  0
  -21.4014   -6.5638   23.8213 C   0  0  0  0  0  0
  -21.3659   -5.6789   24.9173 C   0  0  0  0  0  0
  -21.6044   -4.3051   24.7222 C   0  0  0  0  0  0
  -21.8819   -3.8144   23.4343 C   0  0  0  0  0  0
  -21.9191   -4.6961   22.3402 C   0  0  0  0  0  0
  -22.7870  -13.5244   21.1828 C   0  0  0  0  0  0
  -22.1658   -4.2149   21.0977 F   0  0  0  0  0  0
  -21.5630   -3.4535   25.7733 F   0  0  0  0  0  0
  -30.0460  -13.2438   20.4576 N   0  0  0  0  0  0
  -26.3042  -12.9314   20.3382 N   0  0  0  0  0  0
  -25.9315  -11.6474   20.5761 N   0  0  0  0  0  0
  -22.0509  -12.8245   22.0391 N   0  0  0  0  0  0
  -25.4341  -15.1869   20.4086 N   0  0  0  0  0  0
  -31.8085  -14.6294   20.0674 O   0  0  0  0  0  0
  -21.6635   -6.8878   21.4242 O   0  0  0  0  0  0
  -22.3560  -14.5552   20.6681 O   0  0  0  0  0  0
  -24.6115  -31.8706   23.2124 C   0  0  0  0  0  0
  -25.9017  -32.4835   23.8415 C   0  0  1  0  0  0
  -27.2331  -27.4600   20.0945 C   0  0  0  0  0  0
  -25.5881  -33.8632   24.2344 N   0  0  0  0  0  0
  -23.3983  -30.4946   21.5523 C   0  0  2  0  0  0
  -24.8441  -28.9648   20.1155 C   0  0  0  0  0  0
  -22.7394  -29.4673   22.5001 C   0  0  0  0  0  0
  -18.0272  -28.1379   22.8494 C   0  0  0  0  0  0
  -24.1481  -36.7335   23.2638 C   0  0  0  0  0  0
  -25.9241  -30.8454   21.3605 C   0  0  0  0  0  0
  -26.0028  -29.4816   20.7085 C   0  0  0  0  0  0
  -27.2022  -28.7376   20.6924 C   0  0  0  0  0  0
  -26.0602  -26.9558   19.4890 C   0  0  0  0  0  0
  -24.8665  -27.6997   19.5034 C   0  0  0  0  0  0
  -23.6049  -29.8281   20.1665 C   0  0  0  0  0  0
  -25.4099  -36.3122   24.0339 C   0  0  1  0  0  0
  -20.5859  -28.3665   23.1327 C   0  0  2  0  0  0
  -20.6765  -26.9405   22.5420 C   0  0  0  0  0  0
  -19.5743  -26.6391   21.5216 C   0  0  0  0  0  0
  -18.1923  -26.7926   22.1628 C   0  0  0  0  0  0
  -19.1519  -28.8837   23.2907 C   0  0  0  0  0  0
  -18.9449  -30.1444   23.8916 C   0  0  0  0  0  0
  -17.6452  -30.6586   24.0570 C   0  0  0  0  0  0
  -25.9024  -34.9483   23.5140 C   0  0  0  0  0  0
  -16.5344  -29.9089   23.6323 C   0  0  0  0  0  0
  -16.7263  -28.6509   23.0339 C   0  0  0  0  0  0
  -26.4459  -31.6597   25.0727 C   0  0  0  0  0  0
  -25.3746  -31.3681   26.1490 C   0  0  0  0  0  0
  -27.0281  -30.3041   24.6073 C   0  0  0  0  0  0
  -27.6039  -32.4317   25.7488 C   0  0  0  0  0  0
  -27.5581  -37.1819   24.8462 C   0  0  0  0  0  0
  -21.4126  -29.3031   22.3731 N   0  0  0  0  0  0
  -26.4291  -37.3802   23.9406 N   0  0  0  0  0  0
  -24.6629  -31.0836   22.1008 N   0  0  0  0  0  0
  -23.4180  -28.8221   23.3037 O   0  0  0  0  0  0
  -28.4054  -26.7385   20.0978 O   0  0  0  0  0  0
  -26.5591  -34.8928   22.4705 O   0  0  0  0  0  0
  -23.5314  -32.1444   23.7531 O   0  0  0  0  0  0
  -31.5524  -18.6197   21.6528 C   0  0  0  0  0  0
  -30.4380  -19.0145   22.3529 C   0  0  0  0  0  0
  -30.4410  -16.6360   21.7169 C   0  0  0  0  0  0
  -29.3983  -23.1011   20.2914 C   0  0  0  0  0  0
  -30.1909  -22.4361   21.4462 C   0  0  0  0  0  0
  -28.2371  -25.4707   22.1509 C   0  0  0  0  0  0
  -30.1276  -20.3822   22.8736 C   0  0  0  0  0  0
  -29.5470  -24.6164   20.1111 C   0  0  0  0  0  0
  -28.3217  -25.4038   20.6133 C   0  0  2  0  0  0
  -31.5454  -17.2658   21.2975 N   0  0  0  0  0  0
  -30.1540  -15.2674   21.4843 N   0  0  0  0  0  0
  -29.6483  -21.2686   21.8191 N   0  0  0  0  0  0
  -28.6557  -22.4479   19.5471 O   0  0  0  0  0  0
  -31.1988  -22.9348   21.9558 O   0  0  0  0  0  0
  -29.3371  -17.6798   22.6016 S   0  0  0  0  0  0
  -31.4640  -12.3829   19.1004 H   0  0  0  0  0  0
  -30.3171  -11.2677   19.7799 H   0  0  0  0  0  0
  -29.7213  -11.8035   17.4045 H   0  0  0  0  0  0
  -29.6615  -13.5078   17.7802 H   0  0  0  0  0  0
  -27.8175  -11.3178   18.7976 H   0  0  0  0  0  0
  -27.3588  -12.6631   17.7878 H   0  0  0  0  0  0
  -27.7237  -14.2541   19.6054 H   0  0  0  0  0  0
  -28.6710  -11.8964   21.3038 H   0  0  0  0  0  0
  -28.4529  -13.5068   21.8941 H   0  0  0  0  0  0
  -25.2750   -9.5689   22.4757 H   0  0  0  0  0  0
  -23.9989   -7.4645   22.7487 H   0  0  0  0  0  0
  -21.0823   -8.8777   19.8963 H   0  0  0  0  0  0
  -22.3680  -10.9673   19.6167 H   0  0  0  0  0  0
  -21.2010   -7.6146   23.9717 H   0  0  0  0  0  0
  -21.1480   -6.0516   25.9078 H   0  0  0  0  0  0
  -22.0599   -2.7607   23.2841 H   0  0  0  0  0  0
  -22.4117  -11.9899   22.4771 H   0  0  0  0  0  0
  -21.1135  -13.1287   22.2607 H   0  0  0  0  0  0
  -24.6688  -15.8437   20.5165 H   0  0  0  0  0  0
  -26.2895  -15.6253   20.0909 H   0  0  0  0  0  0
  -26.7091  -32.5563   23.1186 H   0  0  0  0  0  0
  -25.0002  -33.9792   25.0469 H   0  0  0  0  0  0
  -22.6854  -31.3103   21.4150 H   0  0  0  0  0  0
  -23.3728  -35.9684   23.3305 H   0  0  0  0  0  0
  -24.3575  -36.8950   22.2053 H   0  0  0  0  0  0
  -23.7251  -37.6548   23.6651 H   0  0  0  0  0  0
  -26.0305  -31.6126   20.5923 H   0  0  0  0  0  0
  -26.8139  -30.9004   21.9756 H   0  0  0  0  0  0
  -28.0987  -29.1327   21.1502 H   0  0  0  0  0  0
  -26.0606  -25.9965   18.9923 H   0  0  0  0  0  0
  -23.9770  -27.2986   19.0371 H   0  0  0  0  0  0
  -23.7101  -30.6030   19.4064 H   0  0  0  0  0  0
  -22.7294  -29.2461   19.8728 H   0  0  0  0  0  0
  -25.1273  -36.1997   25.0831 H   0  0  0  0  0  0
  -20.9954  -28.3236   24.1447 H   0  0  0  0  0  0
  -20.5688  -26.2268   23.3602 H   0  0  0  0  0  0
  -21.6637  -26.7463   22.1210 H   0  0  0  0  0  0
  -19.6908  -25.6311   21.1229 H   0  0  0  0  0  0
  -19.6683  -27.3213   20.6756 H   0  0  0  0  0  0
  -17.4197  -26.6675   21.4027 H   0  0  0  0  0  0
  -18.0319  -26.0068   22.9024 H   0  0  0  0  0  0
  -19.7925  -30.7254   24.2295 H   0  0  0  0  0  0
  -17.5010  -31.6264   24.5179 H   0  0  0  0  0  0
  -15.5347  -30.3000   23.7631 H   0  0  0  0  0  0
  -15.8664  -28.0844   22.7030 H   0  0  0  0  0  0
  -24.5917  -30.7027   25.7833 H   0  0  0  0  0  0
  -24.8936  -32.2825   26.4974 H   0  0  0  0  0  0
  -25.8128  -30.8834   27.0224 H   0  0  0  0  0  0
  -26.2809  -29.6811   24.1142 H   0  0  0  0  0  0
  -27.4072  -29.7265   25.4514 H   0  0  0  0  0  0
  -27.8636  -30.4361   23.9194 H   0  0  0  0  0  0
  -27.2655  -33.3603   26.2100 H   0  0  0  0  0  0
  -28.3825  -32.6908   25.0301 H   0  0  0  0  0  0
  -28.0730  -31.8426   26.5377 H   0  0  0  0  0  0
  -28.2599  -38.0115   24.7508 H   0  0  0  0  0  0
  -28.1074  -36.2647   24.6285 H   0  0  0  0  0  0
  -27.2301  -37.1472   25.8866 H   0  0  0  0  0  0
  -20.9279  -29.8742   21.6949 H   0  0  0  0  0  0
  -26.0184  -38.2883   24.1406 H   0  0  0  0  0  0
  -32.3912  -19.2381   21.3637 H   0  0  0  0  0  0
  -28.1399  -24.4789   22.5929 H   0  0  0  0  0  0
  -27.3720  -26.0485   22.4774 H   0  0  0  0  0  0
  -29.1250  -25.9392   22.5756 H   0  0  0  0  0  0
  -31.0130  -20.7931   23.3632 H   0  0  0  0  0  0
  -29.3618  -20.3224   23.6479 H   0  0  0  0  0  0
  -29.6838  -24.7998   19.0462 H   0  0  0  0  0  0
  -30.4541  -24.9680   20.6025 H   0  0  0  0  0  0
  -27.4304  -24.8965   20.2441 H   0  0  0  0  0  0
  -29.3044  -14.9291   21.9070 H   0  0  0  0  0  0
  -28.8227  -20.9904   21.3029 H   0  0  0  0  0  0
  1 25  1  0  0  0
  1 30  2  0  0  0
  1 81  1  0  0  0
  2  3  1  0  0  0
  2 25  1  0  0  0
  2 86  1  0  0  0
  2 87  1  0  0  0
  3  4  1  0  0  0
  3 88  1  0  0  0
  3 89  1  0  0  0
  4  5  1  0  0  0
  4 90  1  0  0  0
  4 91  1  0  0  0
  5  6  1  0  0  0
  5 26  1  0  0  0
  5 92  1  0  0  0
  6 25  1  0  0  0
  6 93  1  0  0  0
  6 94  1  0  0  0
  7  8  2  0  0  0
  7 26  1  0  0  0
  7 29  1  0  0  0
  8  9  1  0  0  0
  8 22  1  0  0  0
  9 10  1  0  0  0
  9 27  2  0  0  0
 10 11  2  0  0  0
 10 15  1  0  0  0
 11 12  1  0  0  0
 11 95  1  0  0  0
 12 13  2  0  0  0
 12 96  1  0  0  0
 13 14  1  0  0  0
 13 31  1  0  0  0
 14 15  2  0  0  0
 14 97  1  0  0  0
 15 98  1  0  0  0
 16 17  2  0  0  0
 16 21  1  0  0  0
 16 31  1  0  0  0
 17 18  1  0  0  0
 17 99  1  0  0  0
 18 19  2  0  0  0
 18100  1  0  0  0
 19 20  1  0  0  0
 19 24  1  0  0  0
 20 21  2  0  0  0
 20101  1  0  0  0
 21 23  1  0  0  0
 22 28  1  0  0  0
 22 32  2  0  0  0
 26 27  1  0  0  0
 28102  1  0  0  0
 28103  1  0  0  0
 29104  1  0  0  0
 29105  1  0  0  0
 33 34  1  0  0  0
 33 66  1  0  0  0
 33 70  2  0  0  0
 34 36  1  0  0  0
 34 59  1  0  0  0
 34106  1  0  0  0
 35 44  2  0  0  0
 35 45  1  0  0  0
 35 68  1  0  0  0
 36 56  1  0  0  0
 36107  1  0  0  0
 37 39  1  0  0  0
 37 47  1  0  0  0
 37 66  1  0  0  0
 37108  1  0  0  0
 38 43  2  0  0  0
 38 46  1  0  0  0
 38 47  1  0  0  0
 39 64  1  0  0  0
 39 67  2  0  0  0
 40 52  1  0  0  0
 40 53  2  0  0  0
 40 58  1  0  0  0
 41109  1  0  0  0
 41110  1  0  0  0
 41111  1  0  0  0
 41 48  1  0  0  0
 42 43  1  0  0  0
 42 66  1  0  0  0
 42112  1  0  0  0
 42113  1  0  0  0
 43 44  1  0  0  0
 44114  1  0  0  0
 45 46  2  0  0  0
 45115  1  0  0  0
 46116  1  0  0  0
 47117  1  0  0  0
 47118  1  0  0  0
 48 56  1  0  0  0
 48 65  1  0  0  0
 48119  1  0  0  0
 49 50  1  0  0  0
 49 53  1  0  0  0
 49 64  1  0  0  0
 49120  1  0  0  0
 50 51  1  0  0  0
 50121  1  0  0  0
 50122  1  0  0  0
 51 52  1  0  0  0
 51123  1  0  0  0
 51124  1  0  0  0
 52125  1  0  0  0
 52126  1  0  0  0
 53 54  1  0  0  0
 54 55  2  0  0  0
 54127  1  0  0  0
 55 57  1  0  0  0
 55128  1  0  0  0
 56 69  2  0  0  0
 57 58  2  0  0  0
 57129  1  0  0  0
 58130  1  0  0  0
 59 60  1  0  0  0
 59 61  1  0  0  0
 59 62  1  0  0  0
 60131  1  0  0  0
 60132  1  0  0  0
 60133  1  0  0  0
 61134  1  0  0  0
 61135  1  0  0  0
 61136  1  0  0  0
 62137  1  0  0  0
 62138  1  0  0  0
 62139  1  0  0  0
 63 65  1  0  0  0
 63140  1  0  0  0
 63141  1  0  0  0
 63142  1  0  0  0
 64143  1  0  0  0
 65144  1  0  0  0
 68 79  1  0  0  0
 71 72  2  0  0  0
 71 80  1  0  0  0
 71145  1  0  0  0
 72 77  1  0  0  0
 72 85  1  0  0  0
 73 80  2  0  0  0
 73 81  1  0  0  0
 73 85  1  0  0  0
 74 75  1  0  0  0
 74 78  1  0  0  0
 74 83  2  0  0  0
 75 82  1  0  0  0
 75 84  2  0  0  0
 76146  1  0  0  0
 76147  1  0  0  0
 76148  1  0  0  0
 76 79  1  0  0  0
 77 82  1  0  0  0
 77149  1  0  0  0
 77150  1  0  0  0
 78 79  1  0  0  0
 78151  1  0  0  0
 78152  1  0  0  0
 79153  1  0  0  0
 81154  1  0  0  0
 82155  1  0  0  0
M  ISO  4   1 100  68 101  79 101  81 100
M  END
> <chiral flag>
0

> <version>
0

> <s_m_source_file>
/data/baiqing/PycharmProjects/Reinvent-master-3.2/result/LINK_invent/BTK/process_docking_weight1_custom_product_contain_oxygen_bond_distance_aromatic_linkinvent_7_9_3/rearranged_h_0176.sdf

> <i_m_source_file_index>
54

> <r_mmod_Potential_Energy-OPLS-2005>
-192.279144287109

> <r_mmod_Stretch_Energy-OPLS-2005>
32.0936050415039

> <r_mmod_Bend_Energy-OPLS-2005>
96.3445205688477

> <r_mmod_Torsional_Energy-OPLS-2005>
204.332763671875

> <r_mmod_Improper_Torsional_Energy-OPLS-2005>
2.13339900970459

> <r_mmod_Van_der_Waal_Energy-OPLS-2005>
134.543884277344

> <r_mmod_Electrostatic_Energy-OPLS-2005>
-416.259338378906

> <r_mmod_Solvation_Energy-OPLS-2005>
-253.265426635742

> <b_mmod_Minimization_Converged-OPLS-2005>
0

> <r_mmod_RMS_Derivative-OPLS-2005>
0.674064576625824

$$$$
54
                    3D
 Structure written by MMmdl.
152160  0  0  1  0            999 V2000
  -30.6436  -14.5475   20.5819 C   0  0  0  0  0  0
  -30.4420  -12.3557   19.4235 C   0  0  0  0  0  0
  -29.5027  -12.5245   18.2083 C   0  0  0  0  0  0
  -28.0243  -12.3679   18.6206 C   0  0  0  0  0  0
  -27.6647  -13.2041   19.8771 C   0  0  2  0  0  0
  -28.7072  -12.9757   20.9947 C   0  0  0  0  0  0
  -25.2609  -13.8146   20.5670 C   0  0  0  0  0  0
  -24.1848  -13.0432   20.9156 C   0  0  0  0  0  0
  -24.6395  -11.6898   20.8717 C   0  0  0  0  0  0
  -23.9050  -10.4292   21.0395 C   0  0  0  0  0  0
  -24.3602   -9.4208   21.9173 C   0  0  0  0  0  0
  -23.6281   -8.2243   22.0751 C   0  0  0  0  0  0
  -22.4258   -8.0277   21.3542 C   0  0  0  0  0  0
  -21.9891   -9.0253   20.4651 C   0  0  0  0  0  0
  -22.7218  -10.2132   20.3052 C   0  0  0  0  0  0
  -21.6853   -6.0725   22.5278 C   0  0  0  0  0  0
  -21.4019   -6.5632   23.8209 C   0  0  0  0  0  0
  -21.3659   -5.6787   24.9173 C   0  0  0  0  0  0
  -21.6040   -4.3049   24.7226 C   0  0  0  0  0  0
  -21.8817   -3.8140   23.4352 C   0  0  0  0  0  0
  -21.9195   -4.6952   22.3403 C   0  0  0  0  0  0
  -22.7870  -13.5248   21.1828 C   0  0  0  0  0  0
  -22.1659   -4.2138   21.0980 F   0  0  0  0  0  0
  -21.5630   -3.4535   25.7744 F   0  0  0  0  0  0
  -30.0354  -13.3282   20.4549 N   0  0  0  0  0  0
  -26.3044  -12.9303   20.3357 N   0  0  0  0  0  0
  -25.9325  -11.6469   20.5739 N   0  0  0  0  0  0
  -22.0504  -12.8260   22.0389 N   0  0  0  0  0  0
  -25.4361  -15.1864   20.4097 N   0  0  0  0  0  0
  -31.7370  -14.7973   20.0609 O   0  0  0  0  0  0
  -21.6635   -6.8869   21.4238 O   0  0  0  0  0  0
  -22.3557  -14.5558   20.6681 O   0  0  0  0  0  0
  -24.6214  -31.8616   23.2045 C   0  0  0  0  0  0
  -25.9072  -32.4795   23.8371 C   0  0  1  0  0  0
  -27.2394  -27.3673   20.0943 C   0  0  0  0  0  0
  -25.5897  -33.8595   24.2294 N   0  0  0  0  0  0
  -23.4141  -30.4837   21.5459 C   0  0  2  0  0  0
  -24.8607  -28.9403   20.1114 C   0  0  0  0  0  0
  -22.7449  -29.4619   22.4947 C   0  0  0  0  0  0
  -18.0283  -28.1371   22.8489 C   0  0  0  0  0  0
  -24.1479  -36.7299   23.2641 C   0  0  0  0  0  0
  -25.9499  -30.8041   21.3690 C   0  0  0  0  0  0
  -26.0240  -29.4341   20.7128 C   0  0  0  0  0  0
  -27.2105  -28.6546   20.7011 C   0  0  0  0  0  0
  -26.0460  -26.8992   19.4958 C   0  0  0  0  0  0
  -24.8699  -27.6753   19.5012 C   0  0  0  0  0  0
  -23.6270  -29.8158   20.1611 C   0  0  0  0  0  0
  -25.4104  -36.3093   24.0334 C   0  0  1  0  0  0
  -20.5877  -28.3657   23.1292 C   0  0  2  0  0  0
  -20.6761  -26.9383   22.5406 C   0  0  0  0  0  0
  -19.5747  -26.6378   21.5195 C   0  0  0  0  0  0
  -18.1930  -26.7920   22.1616 C   0  0  0  0  0  0
  -19.1534  -28.8833   23.2894 C   0  0  0  0  0  0
  -18.9457  -30.1435   23.8910 C   0  0  0  0  0  0
  -17.6459  -30.6577   24.0557 C   0  0  0  0  0  0
  -25.9035  -34.9461   23.5116 C   0  0  0  0  0  0
  -16.5350  -29.9076   23.6324 C   0  0  0  0  0  0
  -16.7271  -28.6490   23.0353 C   0  0  0  0  0  0
  -26.4474  -31.6609   25.0733 C   0  0  0  0  0  0
  -25.3722  -31.3732   26.1473 C   0  0  0  0  0  0
  -27.0305  -30.3045   24.6147 C   0  0  0  0  0  0
  -27.6048  -32.4337   25.7490 C   0  0  0  0  0  0
  -27.5576  -37.1800   24.8464 C   0  0  0  0  0  0
  -21.4167  -29.3022   22.3690 N   0  0  0  0  0  0
  -26.4285  -37.3784   23.9413 N   0  0  0  0  0  0
  -24.6805  -31.0657   22.0979 N   0  0  0  0  0  0
  -23.4192  -28.8157   23.3012 O   0  0  0  0  0  0
  -28.4095  -26.6097   20.1402 O   0  0  0  0  0  0
  -26.5607  -34.8921   22.4682 O   0  0  0  0  0  0
  -23.5382  -32.1396   23.7394 O   0  0  0  0  0  0
  -29.4556  -17.4861   22.5127 C   0  0  0  0  0  0
  -29.8919  -16.8860   21.3576 C   0  0  0  0  0  0
  -29.7707  -19.0990   20.6534 C   0  0  0  0  0  0
  -29.7944  -20.3518   19.7749 C   0  0  0  0  0  0
  -28.6520  -24.0495   20.1700 C   0  0  0  0  0  0
  -27.7720  -22.4189   18.3806 C   0  0  0  0  0  0
  -28.5729  -25.3872   19.3532 C   0  0  0  0  0  0
  -28.9146  -22.7103   19.3753 C   0  0  2  0  0  0
  -30.0847  -17.8173   20.3075 N   0  0  0  0  0  0
  -29.9424  -15.4471   21.3159 N   0  0  0  0  0  0
  -29.1721  -21.4879   20.2030 N   0  0  0  0  0  0
  -30.3252  -20.2917   18.6616 O   0  0  0  0  0  0
  -28.5001  -24.0588   21.3966 O   0  0  0  0  0  0
  -29.2795  -19.2186   22.3438 S   0  0  0  0  0  0
  -31.4824  -12.4881   19.1209 H   0  0  0  0  0  0
  -30.3758  -11.3403   19.8171 H   0  0  0  0  0  0
  -29.7510  -11.7968   17.4345 H   0  0  0  0  0  0
  -29.6535  -13.5080   17.7602 H   0  0  0  0  0  0
  -27.8453  -11.3107   18.8180 H   0  0  0  0  0  0
  -27.3710  -12.6373   17.7900 H   0  0  0  0  0  0
  -27.7106  -14.2532   19.5841 H   0  0  0  0  0  0
  -28.7031  -11.9290   21.3044 H   0  0  0  0  0  0
  -28.4446  -13.5340   21.8935 H   0  0  0  0  0  0
  -25.2751   -9.5689   22.4746 H   0  0  0  0  0  0
  -23.9993   -7.4635   22.7476 H   0  0  0  0  0  0
  -21.0817   -8.8777   19.8966 H   0  0  0  0  0  0
  -22.3676  -10.9668   19.6167 H   0  0  0  0  0  0
  -21.2015   -7.6143   23.9712 H   0  0  0  0  0  0
  -21.1481   -6.0518   25.9074 H   0  0  0  0  0  0
  -22.0599   -2.7604   23.2855 H   0  0  0  0  0  0
  -22.4105  -11.9931   22.4799 H   0  0  0  0  0  0
  -21.1125  -13.1313   22.2589 H   0  0  0  0  0  0
  -24.6738  -15.8468   20.5166 H   0  0  0  0  0  0
  -26.2970  -15.6218   20.1006 H   0  0  0  0  0  0
  -26.7138  -32.5472   23.1123 H   0  0  0  0  0  0
  -25.0031  -33.9751   25.0430 H   0  0  0  0  0  0
  -22.7071  -31.3031   21.4029 H   0  0  0  0  0  0
  -23.3744  -35.9630   23.3309 H   0  0  0  0  0  0
  -24.3571  -36.8911   22.2055 H   0  0  0  0  0  0
  -23.7229  -37.6502   23.6658 H   0  0  0  0  0  0
  -26.0743  -31.5679   20.6005 H   0  0  0  0  0  0
  -26.8341  -30.8546   21.9929 H   0  0  0  0  0  0
  -28.1079  -29.0327   21.1710 H   0  0  0  0  0  0
  -25.9833  -25.9233   19.0401 H   0  0  0  0  0  0
  -23.9719  -27.2859   19.0417 H   0  0  0  0  0  0
  -23.7446  -30.5920   19.4043 H   0  0  0  0  0  0
  -22.7489  -29.2418   19.8598 H   0  0  0  0  0  0
  -25.1282  -36.1953   25.0827 H   0  0  0  0  0  0
  -20.9982  -28.3217   24.1407 H   0  0  0  0  0  0
  -20.5626  -26.2261   23.3593 H   0  0  0  0  0  0
  -21.6634  -26.7391   22.1215 H   0  0  0  0  0  0
  -19.6900  -25.6291   21.1216 H   0  0  0  0  0  0
  -19.6695  -27.3190   20.6728 H   0  0  0  0  0  0
  -17.4188  -26.6654   21.4031 H   0  0  0  0  0  0
  -18.0350  -26.0064   22.9019 H   0  0  0  0  0  0
  -19.7931  -30.7242   24.2299 H   0  0  0  0  0  0
  -17.5012  -31.6263   24.5147 H   0  0  0  0  0  0
  -15.5350  -30.2976   23.7646 H   0  0  0  0  0  0
  -15.8671  -28.0806   22.7073 H   0  0  0  0  0  0
  -24.5894  -30.7082   25.7810 H   0  0  0  0  0  0
  -24.8909  -32.2887   26.4923 H   0  0  0  0  0  0
  -25.8060  -30.8901   27.0237 H   0  0  0  0  0  0
  -26.2860  -29.6818   24.1174 H   0  0  0  0  0  0
  -27.4031  -29.7281   25.4626 H   0  0  0  0  0  0
  -27.8720  -30.4364   23.9339 H   0  0  0  0  0  0
  -27.2677  -33.3633   26.2093 H   0  0  0  0  0  0
  -28.3842  -32.6909   25.0304 H   0  0  0  0  0  0
  -28.0741  -31.8449   26.5385 H   0  0  0  0  0  0
  -28.2594  -38.0096   24.7505 H   0  0  0  0  0  0
  -28.1068  -36.2626   24.6291 H   0  0  0  0  0  0
  -27.2295  -37.1455   25.8867 H   0  0  0  0  0  0
  -20.9335  -29.8747   21.6907 H   0  0  0  0  0  0
  -26.0170  -38.2856   24.1434 H   0  0  0  0  0  0
  -29.2096  -17.0185   23.4576 H   0  0  0  0  0  0
  -27.6294  -23.2397   17.6778 H   0  0  0  0  0  0
  -26.8264  -22.2573   18.8992 H   0  0  0  0  0  0
  -27.9747  -21.5307   17.7823 H   0  0  0  0  0  0
  -27.8384  -25.2971   18.5572 H   0  0  0  0  0  0
  -29.5277  -25.4825   18.8370 H   0  0  0  0  0  0
  -29.8196  -22.8836   18.7899 H   0  0  0  0  0  0
  -29.2200  -15.0005   21.8584 H   0  0  0  0  0  0
  -28.7987  -21.4973   21.1433 H   0  0  0  0  0  0
  1 25  1  0  0  0
  1 30  2  0  0  0
  1 80  1  0  0  0
  2  3  1  0  0  0
  2 25  1  0  0  0
  2 85  1  0  0  0
  2 86  1  0  0  0
  3  4  1  0  0  0
  3 87  1  0  0  0
  3 88  1  0  0  0
  4  5  1  0  0  0
  4 89  1  0  0  0
  4 90  1  0  0  0
  5  6  1  0  0  0
  5 26  1  0  0  0
  5 91  1  0  0  0
  6 25  1  0  0  0
  6 92  1  0  0  0
  6 93  1  0  0  0
  7  8  2  0  0  0
  7 26  1  0  0  0
  7 29  1  0  0  0
  8  9  1  0  0  0
  8 22  1  0  0  0
  9 10  1  0  0  0
  9 27  2  0  0  0
 10 11  2  0  0  0
 10 15  1  0  0  0
 11 12  1  0  0  0
 11 94  1  0  0  0
 12 13  2  0  0  0
 12 95  1  0  0  0
 13 14  1  0  0  0
 13 31  1  0  0  0
 14 15  2  0  0  0
 14 96  1  0  0  0
 15 97  1  0  0  0
 16 17  2  0  0  0
 16 21  1  0  0  0
 16 31  1  0  0  0
 17 18  1  0  0  0
 17 98  1  0  0  0
 18 19  2  0  0  0
 18 99  1  0  0  0
 19 20  1  0  0  0
 19 24  1  0  0  0
 20 21  2  0  0  0
 20100  1  0  0  0
 21 23  1  0  0  0
 22 28  1  0  0  0
 22 32  2  0  0  0
 26 27  1  0  0  0
 28101  1  0  0  0
 28102  1  0  0  0
 29103  1  0  0  0
 29104  1  0  0  0
 33 34  1  0  0  0
 33 66  1  0  0  0
 33 70  2  0  0  0
 34 36  1  0  0  0
 34 59  1  0  0  0
 34105  1  0  0  0
 35 44  2  0  0  0
 35 45  1  0  0  0
 35 68  1  0  0  0
 36 56  1  0  0  0
 36106  1  0  0  0
 37 39  1  0  0  0
 37 47  1  0  0  0
 37 66  1  0  0  0
 37107  1  0  0  0
 38 43  2  0  0  0
 38 46  1  0  0  0
 38 47  1  0  0  0
 39 64  1  0  0  0
 39 67  2  0  0  0
 40 52  1  0  0  0
 40 53  2  0  0  0
 40 58  1  0  0  0
 41108  1  0  0  0
 41109  1  0  0  0
 41110  1  0  0  0
 41 48  1  0  0  0
 42 43  1  0  0  0
 42 66  1  0  0  0
 42111  1  0  0  0
 42112  1  0  0  0
 43 44  1  0  0  0
 44113  1  0  0  0
 45 46  2  0  0  0
 45114  1  0  0  0
 46115  1  0  0  0
 47116  1  0  0  0
 47117  1  0  0  0
 48 56  1  0  0  0
 48 65  1  0  0  0
 48118  1  0  0  0
 49 50  1  0  0  0
 49 53  1  0  0  0
 49 64  1  0  0  0
 49119  1  0  0  0
 50 51  1  0  0  0
 50120  1  0  0  0
 50121  1  0  0  0
 51 52  1  0  0  0
 51122  1  0  0  0
 51123  1  0  0  0
 52124  1  0  0  0
 52125  1  0  0  0
 53 54  1  0  0  0
 54 55  2  0  0  0
 54126  1  0  0  0
 55 57  1  0  0  0
 55127  1  0  0  0
 56 69  2  0  0  0
 57 58  2  0  0  0
 57128  1  0  0  0
 58129  1  0  0  0
 59 60  1  0  0  0
 59 61  1  0  0  0
 59 62  1  0  0  0
 60130  1  0  0  0
 60131  1  0  0  0
 60132  1  0  0  0
 61133  1  0  0  0
 61134  1  0  0  0
 61135  1  0  0  0
 62136  1  0  0  0
 62137  1  0  0  0
 62138  1  0  0  0
 63 65  1  0  0  0
 63139  1  0  0  0
 63140  1  0  0  0
 63141  1  0  0  0
 64142  1  0  0  0
 65143  1  0  0  0
 68 77  1  0  0  0
 71 72  2  0  0  0
 71 84  1  0  0  0
 71144  1  0  0  0
 72 79  1  0  0  0
 72 80  1  0  0  0
 73 74  1  0  0  0
 73 79  2  0  0  0
 73 84  1  0  0  0
 74 81  1  0  0  0
 74 82  2  0  0  0
 75 77  1  0  0  0
 75 78  1  0  0  0
 75 83  2  0  0  0
 76145  1  0  0  0
 76146  1  0  0  0
 76147  1  0  0  0
 76 78  1  0  0  0
 77148  1  0  0  0
 77149  1  0  0  0
 78 81  1  0  0  0
 78150  1  0  0  0
 80151  1  0  0  0
 81152  1  0  0  0
M  ISO  4   1 100  68 101  77 101  80 100
M  END
> <chiral flag>
0

> <version>
0

> <s_m_source_file>
/data/baiqing/PycharmProjects/Reinvent-master-3.2/result/LINK_invent/BTK/process_docking_weight1_custom_product_contain_oxygen_bond_distance_aromatic_linkinvent_7_9_3/rearranged_h_0176.sdf

> <i_m_source_file_index>
55

> <r_mmod_Potential_Energy-OPLS-2005>
-33.1805839538574

> <r_mmod_Stretch_Energy-OPLS-2005>
59.7948989868164

> <r_mmod_Bend_Energy-OPLS-2005>
136.228973388672

> <r_mmod_Torsional_Energy-OPLS-2005>
228.939697265625

> <r_mmod_Improper_Torsional_Energy-OPLS-2005>
3.37527298927307

> <r_mmod_Van_der_Waal_Energy-OPLS-2005>
124.620361328125

> <r_mmod_Electrostatic_Energy-OPLS-2005>
-333.6162109375

> <r_mmod_Solvation_Energy-OPLS-2005>
-277.760528564453

> <b_mmod_Minimization_Converged-OPLS-2005>
0

> <r_mmod_RMS_Derivative-OPLS-2005>
1.40289211273193

$$$$
55
                    3D
 Structure written by MMmdl.
161169  0  0  1  0            999 V2000
  -30.7726  -14.3946   20.6357 C   0  0  0  0  0  0
  -30.4060  -12.2868   19.4107 C   0  0  0  0  0  0
  -29.4868  -12.5160   18.1980 C   0  0  0  0  0  0
  -28.0093  -12.3779   18.6119 C   0  0  0  0  0  0
  -27.6625  -13.2127   19.8741 C   0  0  2  0  0  0
  -28.7011  -12.9875   20.9956 C   0  0  0  0  0  0
  -25.2581  -13.8194   20.5681 C   0  0  0  0  0  0
  -24.1833  -13.0461   20.9174 C   0  0  0  0  0  0
  -24.6393  -11.6927   20.8726 C   0  0  0  0  0  0
  -23.9070  -10.4310   21.0399 C   0  0  0  0  0  0
  -24.3625   -9.4227   21.9181 C   0  0  0  0  0  0
  -23.6297   -8.2261   22.0751 C   0  0  0  0  0  0
  -22.4278   -8.0302   21.3539 C   0  0  0  0  0  0
  -21.9917   -9.0272   20.4639 C   0  0  0  0  0  0
  -22.7247  -10.2144   20.3044 C   0  0  0  0  0  0
  -21.6852   -6.0751   22.5282 C   0  0  0  0  0  0
  -21.4001   -6.5655   23.8215 C   0  0  0  0  0  0
  -21.3649   -5.6800   24.9173 C   0  0  0  0  0  0
  -21.6043   -4.3065   24.7220 C   0  0  0  0  0  0
  -21.8821   -3.8162   23.4347 C   0  0  0  0  0  0
  -21.9197   -4.6978   22.3407 C   0  0  0  0  0  0
  -22.7852  -13.5243   21.1848 C   0  0  0  0  0  0
  -22.1661   -4.2173   21.0975 F   0  0  0  0  0  0
  -21.5633   -3.4533   25.7727 F   0  0  0  0  0  0
  -30.0387  -13.2668   20.4446 N   0  0  0  0  0  0
  -26.3026  -12.9374   20.3362 N   0  0  0  0  0  0
  -25.9324  -11.6523   20.5740 N   0  0  0  0  0  0
  -22.0494  -12.8220   22.0404 N   0  0  0  0  0  0
  -25.4320  -15.1907   20.4090 N   0  0  0  0  0  0
  -31.8426  -14.6000   20.0554 O   0  0  0  0  0  0
  -21.6637   -6.8901   21.4240 O   0  0  0  0  0  0
  -22.3531  -14.5556   20.6715 O   0  0  0  0  0  0
  -24.6136  -31.8686   23.2113 C   0  0  0  0  0  0
  -25.9034  -32.4823   23.8412 C   0  0  1  0  0  0
  -27.2322  -27.4373   20.0939 C   0  0  0  0  0  0
  -25.5891  -33.8624   24.2340 N   0  0  0  0  0  0
  -23.4010  -30.4944   21.5518 C   0  0  2  0  0  0
  -24.8465  -28.9634   20.1144 C   0  0  0  0  0  0
  -22.7405  -29.4663   22.4999 C   0  0  0  0  0  0
  -18.0263  -28.1373   22.8505 C   0  0  0  0  0  0
  -24.1467  -36.7285   23.2650 C   0  0  0  0  0  0
  -25.9307  -30.8357   21.3655 C   0  0  0  0  0  0
  -26.0075  -29.4731   20.7074 C   0  0  0  0  0  0
  -27.2033  -28.7188   20.6918 C   0  0  0  0  0  0
  -26.0492  -26.9460   19.4905 C   0  0  0  0  0  0
  -24.8623  -27.6998   19.5031 C   0  0  0  0  0  0
  -23.6078  -29.8272   20.1663 C   0  0  0  0  0  0
  -25.4098  -36.3107   24.0350 C   0  0  1  0  0  0
  -20.5858  -28.3648   23.1332 C   0  0  2  0  0  0
  -20.6752  -26.9383   22.5431 C   0  0  0  0  0  0
  -19.5730  -26.6378   21.5224 C   0  0  0  0  0  0
  -18.1904  -26.7925   22.1624 C   0  0  0  0  0  0
  -19.1514  -28.8827   23.2912 C   0  0  0  0  0  0
  -18.9445  -30.1436   23.8910 C   0  0  0  0  0  0
  -17.6447  -30.6583   24.0565 C   0  0  0  0  0  0
  -25.9035  -34.9476   23.5138 C   0  0  0  0  0  0
  -16.5334  -29.9079   23.6345 C   0  0  0  0  0  0
  -16.7251  -28.6496   23.0361 C   0  0  0  0  0  0
  -26.4470  -31.6607   25.0734 C   0  0  0  0  0  0
  -25.3738  -31.3675   26.1476 C   0  0  0  0  0  0
  -27.0324  -30.3060   24.6119 C   0  0  0  0  0  0
  -27.6045  -32.4329   25.7497 C   0  0  0  0  0  0
  -27.5561  -37.1795   24.8475 C   0  0  0  0  0  0
  -21.4139  -29.3007   22.3727 N   0  0  0  0  0  0
  -26.4275  -37.3804   23.9425 N   0  0  0  0  0  0
  -24.6663  -31.0803   22.1007 N   0  0  0  0  0  0
  -23.4192  -28.8217   23.3039 O   0  0  0  0  0  0
  -28.4022  -26.7027   20.1215 O   0  0  0  0  0  0
  -26.5601  -34.8918   22.4699 O   0  0  0  0  0  0
  -23.5332  -32.1438   23.7516 O   0  0  0  0  0  0
  -32.1012  -16.1554   22.8147 C   0  0  0  0  0  0
  -30.6372  -17.7469   21.6962 C   0  0  0  0  0  0
  -32.8949  -17.2031   23.3306 C   0  0  0  0  0  0
  -32.5526  -18.5497   23.0104 C   0  0  0  0  0  0
  -30.9901  -16.4128   21.9898 C   0  0  0  0  0  0
  -31.4249  -18.8229   22.1828 C   0  0  0  0  0  0
  -34.0751  -16.8560   24.1736 C   0  0  0  0  0  0
  -29.3764  -23.0609   20.7175 C   0  0  0  0  0  0
  -30.3632  -22.2511   21.1793 C   0  0  0  0  0  0
  -29.4990  -24.5273   20.5210 C   0  0  0  0  0  0
  -30.0995  -20.8149   21.3317 C   0  0  0  0  0  0
  -33.4072  -19.7003   23.5572 C   0  0  0  0  0  0
  -28.2547  -25.2763   20.0169 C   0  0  0  0  0  0
  -34.4035  -15.6879   24.5369 N   0  0  0  0  0  0
  -31.1775  -20.1839   21.8247 N   0  0  0  0  0  0
  -30.2499  -15.3219   21.4561 N   0  0  0  0  0  0
  -30.5466  -25.1494   20.7409 O   0  0  0  0  0  0
  -29.0357  -20.2538   21.0604 O   0  0  0  0  0  0
  -31.5823  -22.7284   21.5065 O   0  0  0  0  0  0
  -31.4530  -12.3570   19.1118 H   0  0  0  0  0  0
  -30.2791  -11.2754   19.7976 H   0  0  0  0  0  0
  -29.7248  -11.8051   17.4057 H   0  0  0  0  0  0
  -29.6625  -13.5111   17.7836 H   0  0  0  0  0  0
  -27.8131  -11.3219   18.7992 H   0  0  0  0  0  0
  -27.3600  -12.6610   17.7823 H   0  0  0  0  0  0
  -27.7123  -14.2633   19.5854 H   0  0  0  0  0  0
  -28.6579  -11.9545   21.3439 H   0  0  0  0  0  0
  -28.4626  -13.5966   21.8677 H   0  0  0  0  0  0
  -25.2769   -9.5712   22.4747 H   0  0  0  0  0  0
  -24.0009   -7.4658   22.7475 H   0  0  0  0  0  0
  -21.0855   -8.8797   19.8948 H   0  0  0  0  0  0
  -22.3724  -10.9679   19.6147 H   0  0  0  0  0  0
  -21.1965   -7.6157   23.9728 H   0  0  0  0  0  0
  -21.1464   -6.0520   25.9079 H   0  0  0  0  0  0
  -22.0605   -2.7629   23.2829 H   0  0  0  0  0  0
  -22.4075  -11.9845   22.4752 H   0  0  0  0  0  0
  -21.1113  -13.1238   22.2617 H   0  0  0  0  0  0
  -24.6700  -15.8511   20.5177 H   0  0  0  0  0  0
  -26.2931  -15.6269   20.1027 H   0  0  0  0  0  0
  -26.7105  -32.5529   23.1171 H   0  0  0  0  0  0
  -25.0054  -33.9796   25.0493 H   0  0  0  0  0  0
  -22.6886  -31.3098   21.4139 H   0  0  0  0  0  0
  -23.3751  -35.9591   23.3326 H   0  0  0  0  0  0
  -24.3560  -36.8886   22.2060 H   0  0  0  0  0  0
  -23.7178  -37.6473   23.6662 H   0  0  0  0  0  0
  -26.0484  -31.6065   20.6027 H   0  0  0  0  0  0
  -26.8159  -30.8806   21.9875 H   0  0  0  0  0  0
  -28.0996  -29.1095   21.1535 H   0  0  0  0  0  0
  -26.0213  -25.9837   19.0003 H   0  0  0  0  0  0
  -23.9683  -27.3041   19.0399 H   0  0  0  0  0  0
  -23.7119  -30.6003   19.4048 H   0  0  0  0  0  0
  -22.7338  -29.2432   19.8747 H   0  0  0  0  0  0
  -25.1277  -36.1968   25.0845 H   0  0  0  0  0  0
  -20.9952  -28.3187   24.1453 H   0  0  0  0  0  0
  -20.5655  -26.2242   23.3612 H   0  0  0  0  0  0
  -21.6611  -26.7430   22.1204 H   0  0  0  0  0  0
  -19.6883  -25.6294   21.1227 H   0  0  0  0  0  0
  -19.6683  -27.3207   20.6776 H   0  0  0  0  0  0
  -17.4193  -26.6718   21.3999 H   0  0  0  0  0  0
  -18.0268  -26.0048   22.8993 H   0  0  0  0  0  0
  -19.7925  -30.7249   24.2279 H   0  0  0  0  0  0
  -17.5009  -31.6268   24.5150 H   0  0  0  0  0  0
  -15.5339  -30.2980   23.7685 H   0  0  0  0  0  0
  -15.8647  -28.0822   22.7076 H   0  0  0  0  0  0
  -24.5929  -30.7015   25.7782 H   0  0  0  0  0  0
  -24.8899  -32.2809   26.4958 H   0  0  0  0  0  0
  -25.8092  -30.8817   27.0220 H   0  0  0  0  0  0
  -26.2873  -29.6785   24.1219 H   0  0  0  0  0  0
  -27.4149  -29.7333   25.4577 H   0  0  0  0  0  0
  -27.8680  -30.4384   23.9237 H   0  0  0  0  0  0
  -27.2673  -33.3628   26.2095 H   0  0  0  0  0  0
  -28.3853  -32.6905   25.0320 H   0  0  0  0  0  0
  -28.0733  -31.8447   26.5396 H   0  0  0  0  0  0
  -28.2605  -38.0071   24.7527 H   0  0  0  0  0  0
  -28.1035  -36.2609   24.6314 H   0  0  0  0  0  0
  -27.2286  -37.1439   25.8880 H   0  0  0  0  0  0
  -20.9300  -29.8700   21.6929 H   0  0  0  0  0  0
  -26.0162  -38.2873   24.1454 H   0  0  0  0  0  0
  -32.3546  -15.1282   23.0349 H   0  0  0  0  0  0
  -29.7880  -17.9248   21.0539 H   0  0  0  0  0  0
  -34.7093  -17.6827   24.4997 H   0  0  0  0  0  0
  -28.4144  -22.6353   20.4666 H   0  0  0  0  0  0
  -33.5392  -19.6003   24.6349 H   0  0  0  0  0  0
  -32.9866  -20.6929   23.4087 H   0  0  0  0  0  0
  -34.3936  -19.6918   23.0914 H   0  0  0  0  0  0
  -27.4019  -24.9412   20.6089 H   0  0  0  0  0  0
  -28.0737  -24.9962   18.9790 H   0  0  0  0  0  0
  -33.7577  -14.9917   24.1841 H   0  0  0  0  0  0
  -31.9261  -20.8395   22.0092 H   0  0  0  0  0  0
  -29.3041  -15.1856   21.7780 H   0  0  0  0  0  0
  -31.5674  -23.6668   21.3350 H   0  0  0  0  0  0
  1 25  1  0  0  0
  1 30  2  0  0  0
  1 86  1  0  0  0
  2  3  1  0  0  0
  2 25  1  0  0  0
  2 90  1  0  0  0
  2 91  1  0  0  0
  3  4  1  0  0  0
  3 92  1  0  0  0
  3 93  1  0  0  0
  4  5  1  0  0  0
  4 94  1  0  0  0
  4 95  1  0  0  0
  5  6  1  0  0  0
  5 26  1  0  0  0
  5 96  1  0  0  0
  6 25  1  0  0  0
  6 97  1  0  0  0
  6 98  1  0  0  0
  7  8  2  0  0  0
  7 26  1  0  0  0
  7 29  1  0  0  0
  8  9  1  0  0  0
  8 22  1  0  0  0
  9 10  1  0  0  0
  9 27  2  0  0  0
 10 11  2  0  0  0
 10 15  1  0  0  0
 11 12  1  0  0  0
 11 99  1  0  0  0
 12 13  2  0  0  0
 12100  1  0  0  0
 13 14  1  0  0  0
 13 31  1  0  0  0
 14 15  2  0  0  0
 14101  1  0  0  0
 15102  1  0  0  0
 16 17  2  0  0  0
 16 21  1  0  0  0
 16 31  1  0  0  0
 17 18  1  0  0  0
 17103  1  0  0  0
 18 19  2  0  0  0
 18104  1  0  0  0
 19 20  1  0  0  0
 19 24  1  0  0  0
 20 21  2  0  0  0
 20105  1  0  0  0
 21 23  1  0  0  0
 22 28  1  0  0  0
 22 32  2  0  0  0
 26 27  1  0  0  0
 28106  1  0  0  0
 28107  1  0  0  0
 29108  1  0  0  0
 29109  1  0  0  0
 33 34  1  0  0  0
 33 66  1  0  0  0
 33 70  2  0  0  0
 34 36  1  0  0  0
 34 59  1  0  0  0
 34110  1  0  0  0
 35 44  2  0  0  0
 35 45  1  0  0  0
 35 68  1  0  0  0
 36 56  1  0  0  0
 36111  1  0  0  0
 37 39  1  0  0  0
 37 47  1  0  0  0
 37 66  1  0  0  0
 37112  1  0  0  0
 38 43  2  0  0  0
 38 46  1  0  0  0
 38 47  1  0  0  0
 39 64  1  0  0  0
 39 67  2  0  0  0
 40 52  1  0  0  0
 40 53  2  0  0  0
 40 58  1  0  0  0
 41113  1  0  0  0
 41114  1  0  0  0
 41115  1  0  0  0
 41 48  1  0  0  0
 42 43  1  0  0  0
 42 66  1  0  0  0
 42116  1  0  0  0
 42117  1  0  0  0
 43 44  1  0  0  0
 44118  1  0  0  0
 45 46  2  0  0  0
 45119  1  0  0  0
 46120  1  0  0  0
 47121  1  0  0  0
 47122  1  0  0  0
 48 56  1  0  0  0
 48 65  1  0  0  0
 48123  1  0  0  0
 49 50  1  0  0  0
 49 53  1  0  0  0
 49 64  1  0  0  0
 49124  1  0  0  0
 50 51  1  0  0  0
 50125  1  0  0  0
 50126  1  0  0  0
 51 52  1  0  0  0
 51127  1  0  0  0
 51128  1  0  0  0
 52129  1  0  0  0
 52130  1  0  0  0
 53 54  1  0  0  0
 54 55  2  0  0  0
 54131  1  0  0  0
 55 57  1  0  0  0
 55132  1  0  0  0
 56 69  2  0  0  0
 57 58  2  0  0  0
 57133  1  0  0  0
 58134  1  0  0  0
 59 60  1  0  0  0
 59 61  1  0  0  0
 59 62  1  0  0  0
 60135  1  0  0  0
 60136  1  0  0  0
 60137  1  0  0  0
 61138  1  0  0  0
 61139  1  0  0  0
 61140  1  0  0  0
 62141  1  0  0  0
 62142  1  0  0  0
 62143  1  0  0  0
 63 65  1  0  0  0
 63144  1  0  0  0
 63145  1  0  0  0
 63146  1  0  0  0
 64147  1  0  0  0
 65148  1  0  0  0
 68 83  1  0  0  0
 71 73  2  0  0  0
 71 75  1  0  0  0
 71149  1  0  0  0
 72 75  2  0  0  0
 72 76  1  0  0  0
 72150  1  0  0  0
 73 74  1  0  0  0
 73 77  1  0  0  0
 74 76  2  0  0  0
 74 82  1  0  0  0
 75 86  1  0  0  0
 76 85  1  0  0  0
 77 84  2  0  0  0
 77151  1  0  0  0
 78 79  2  0  0  0
 78 80  1  0  0  0
 78152  1  0  0  0
 79 81  1  0  0  0
 79 89  1  0  0  0
 80 83  1  0  0  0
 80 87  2  0  0  0
 81 85  1  0  0  0
 81 88  2  0  0  0
 82153  1  0  0  0
 82154  1  0  0  0
 82155  1  0  0  0
 83156  1  0  0  0
 83157  1  0  0  0
 84158  1  0  0  0
 85159  1  0  0  0
 86160  1  0  0  0
 89161  1  0  0  0
M  ISO  4   1 100  68 101  83 101  86 100
M  END
> <chiral flag>
0

> <version>
0

> <s_m_source_file>
/data/baiqing/PycharmProjects/Reinvent-master-3.2/result/LINK_invent/BTK/process_docking_weight1_custom_product_contain_oxygen_bond_distance_aromatic_linkinvent_7_9_3/rearranged_h_0176.sdf

> <i_m_source_file_index>
56

> <r_mmod_Potential_Energy-OPLS-2005>
-114.141693115234

> <r_mmod_Stretch_Energy-OPLS-2005>
41.4552993774414

> <r_mmod_Bend_Energy-OPLS-2005>
105.352165222168

> <r_mmod_Torsional_Energy-OPLS-2005>
227.702209472656

> <r_mmod_Improper_Torsional_Energy-OPLS-2005>
2.04427433013916

> <r_mmod_Van_der_Waal_Energy-OPLS-2005>
193.946334838867

> <r_mmod_Electrostatic_Energy-OPLS-2005>
-440.231658935547

> <r_mmod_Solvation_Energy-OPLS-2005>
-254.56787109375

> <b_mmod_Minimization_Converged-OPLS-2005>
0

> <r_mmod_RMS_Derivative-OPLS-2005>
1.9497789144516

$$$$
56
                    3D
 Structure written by MMmdl.
152160  0  0  1  0            999 V2000
  -30.6191  -14.6287   20.5121 C   0  0  0  0  0  0
  -30.4400  -12.3849   19.4526 C   0  0  0  0  0  0
  -29.5063  -12.4975   18.2248 C   0  0  0  0  0  0
  -28.0296  -12.3384   18.6369 C   0  0  0  0  0  0
  -27.6552  -13.2110   19.8634 C   0  0  2  0  0  0
  -28.6974  -13.0548   20.9949 C   0  0  0  0  0  0
  -25.2564  -13.8147   20.5592 C   0  0  0  0  0  0
  -24.1853  -13.0449   20.9242 C   0  0  0  0  0  0
  -24.6409  -11.6910   20.8808 C   0  0  0  0  0  0
  -23.9073  -10.4298   21.0454 C   0  0  0  0  0  0
  -24.3619   -9.4197   21.9211 C   0  0  0  0  0  0
  -23.6293   -8.2228   22.0761 C   0  0  0  0  0  0
  -22.4280   -8.0278   21.3546 C   0  0  0  0  0  0
  -21.9920   -9.0264   20.4656 C   0  0  0  0  0  0
  -22.7253  -10.2144   20.3082 C   0  0  0  0  0  0
  -21.6844   -6.0739   22.5277 C   0  0  0  0  0  0
  -21.4010   -6.5647   23.8213 C   0  0  0  0  0  0
  -21.3656   -5.6796   24.9174 C   0  0  0  0  0  0
  -21.6043   -4.3059   24.7227 C   0  0  0  0  0  0
  -21.8818   -3.8152   23.4348 C   0  0  0  0  0  0
  -21.9197   -4.6966   22.3403 C   0  0  0  0  0  0
  -22.7878  -13.5247   21.1886 C   0  0  0  0  0  0
  -22.1662   -4.2155   21.0979 F   0  0  0  0  0  0
  -21.5632   -3.4539   25.7740 F   0  0  0  0  0  0
  -30.0175  -13.3985   20.4394 N   0  0  0  0  0  0
  -26.2990  -12.9317   20.3286 N   0  0  0  0  0  0
  -25.9328  -11.6492   20.5790 N   0  0  0  0  0  0
  -22.0507  -12.8235   22.0430 N   0  0  0  0  0  0
  -25.4266  -15.1814   20.3651 N   0  0  0  0  0  0
  -31.7674  -14.8092   20.0964 O   0  0  0  0  0  0
  -21.6638   -6.8883   21.4238 O   0  0  0  0  0  0
  -22.3590  -14.5556   20.6720 O   0  0  0  0  0  0
  -24.6246  -31.8603   23.2021 C   0  0  0  0  0  0
  -25.9092  -32.4779   23.8354 C   0  0  1  0  0  0
  -27.2302  -27.3309   20.1192 C   0  0  0  0  0  0
  -25.5911  -33.8579   24.2277 N   0  0  0  0  0  0
  -23.4202  -30.4823   21.5440 C   0  0  2  0  0  0
  -24.8696  -28.9372   20.1108 C   0  0  0  0  0  0
  -22.7478  -29.4637   22.4941 C   0  0  0  0  0  0
  -18.0297  -28.1419   22.8515 C   0  0  0  0  0  0
  -24.1480  -36.7287   23.2634 C   0  0  0  0  0  0
  -25.9605  -30.7960   21.3716 C   0  0  0  0  0  0
  -26.0367  -29.4234   20.7137 C   0  0  0  0  0  0
  -27.2233  -28.6329   20.7041 C   0  0  0  0  0  0
  -26.0430  -26.8935   19.4916 C   0  0  0  0  0  0
  -24.8735  -27.6781   19.4896 C   0  0  0  0  0  0
  -23.6356  -29.8147   20.1595 C   0  0  0  0  0  0
  -25.4107  -36.3076   24.0326 C   0  0  1  0  0  0
  -20.5904  -28.3709   23.1297 C   0  0  2  0  0  0
  -20.6789  -26.9437   22.5413 C   0  0  0  0  0  0
  -19.5753  -26.6418   21.5228 C   0  0  0  0  0  0
  -18.1933  -26.7969   22.1640 C   0  0  0  0  0  0
  -19.1555  -28.8883   23.2905 C   0  0  0  0  0  0
  -18.9472  -30.1489   23.8912 C   0  0  0  0  0  0
  -17.6470  -30.6616   24.0587 C   0  0  0  0  0  0
  -25.9050  -34.9450   23.5107 C   0  0  0  0  0  0
  -16.5365  -29.9126   23.6341 C   0  0  0  0  0  0
  -16.7283  -28.6547   23.0360 C   0  0  0  0  0  0
  -26.4466  -31.6600   25.0737 C   0  0  0  0  0  0
  -25.3701  -31.3817   26.1487 C   0  0  0  0  0  0
  -27.0261  -30.3000   24.6211 C   0  0  0  0  0  0
  -27.6039  -32.4328   25.7496 C   0  0  0  0  0  0
  -27.5582  -37.1793   24.8464 C   0  0  0  0  0  0
  -21.4192  -29.3055   22.3683 N   0  0  0  0  0  0
  -26.4280  -37.3776   23.9425 N   0  0  0  0  0  0
  -24.6873  -31.0631   22.0963 N   0  0  0  0  0  0
  -23.4209  -28.8173   23.3009 O   0  0  0  0  0  0
  -28.3437  -26.4823   20.1372 O   0  0  0  0  0  0
  -26.5617  -34.8915   22.4671 O   0  0  0  0  0  0
  -23.5405  -32.1382   23.7353 O   0  0  0  0  0  0
  -30.8516  -17.8699   20.1369 C   0  0  0  0  0  0
  -29.8218  -17.0984   20.7382 C   0  0  0  0  0  0
  -28.6763  -17.8205   21.1689 C   0  0  0  0  0  0
  -29.5819  -20.0117   20.3972 C   0  0  0  0  0  0
  -30.7273  -19.2831   19.9689 C   0  0  0  0  0  0
  -28.5490  -19.2345   20.9969 C   0  0  0  0  0  0
  -29.0171  -23.9462   20.1070 C   0  0  0  0  0  0
  -28.8404  -22.4760   20.7407 C   0  0  0  0  0  0
  -28.1080  -25.1136   20.6601 C   0  0  0  0  0  0
  -27.6239  -17.1264   21.7742 N   0  0  0  0  0  0
  -29.5193  -21.4563   20.1262 N   0  0  0  0  0  0
  -29.8224  -15.6497   20.9476 N   0  0  0  0  0  0
  -29.8438  -24.1605   19.2113 O   0  0  0  0  0  0
  -28.1565  -22.3176   21.7556 O   0  0  0  0  0  0
  -31.7385  -19.9597   19.3693 F   0  0  0  0  0  0
  -27.3818  -19.8101   21.3766 F   0  0  0  0  0  0
  -31.4804  -12.5128   19.1463 H   0  0  0  0  0  0
  -30.3799  -11.3865   19.8892 H   0  0  0  0  0  0
  -29.7663  -11.7411   17.4831 H   0  0  0  0  0  0
  -29.6495  -13.4645   17.7399 H   0  0  0  0  0  0
  -27.8647  -11.2863   18.8721 H   0  0  0  0  0  0
  -27.3734  -12.5653   17.7962 H   0  0  0  0  0  0
  -27.6812  -14.2479   19.5270 H   0  0  0  0  0  0
  -28.7045  -12.0299   21.3679 H   0  0  0  0  0  0
  -28.4365  -13.6772   21.8521 H   0  0  0  0  0  0
  -25.2763   -9.5662   22.4793 H   0  0  0  0  0  0
  -24.0009   -7.4607   22.7460 H   0  0  0  0  0  0
  -21.0863   -8.8788   19.8949 H   0  0  0  0  0  0
  -22.3723  -10.9692   19.6199 H   0  0  0  0  0  0
  -21.1994   -7.6155   23.9720 H   0  0  0  0  0  0
  -21.1478   -6.0527   25.9081 H   0  0  0  0  0  0
  -22.0603   -2.7615   23.2845 H   0  0  0  0  0  0
  -22.4108  -11.9870   22.4781 H   0  0  0  0  0  0
  -21.1132  -13.1270   22.2655 H   0  0  0  0  0  0
  -24.5769  -15.7352   20.3431 H   0  0  0  0  0  0
  -26.0644  -15.4578   19.6297 H   0  0  0  0  0  0
  -26.7175  -32.5441   23.1115 H   0  0  0  0  0  0
  -25.0043  -33.9731   25.0416 H   0  0  0  0  0  0
  -22.7143  -31.3033   21.3996 H   0  0  0  0  0  0
  -23.3745  -35.9616   23.3272 H   0  0  0  0  0  0
  -24.3586  -36.8924   22.2060 H   0  0  0  0  0  0
  -23.7224  -37.6477   23.6673 H   0  0  0  0  0  0
  -26.0940  -31.5602   20.6049 H   0  0  0  0  0  0
  -26.8390  -30.8419   22.0036 H   0  0  0  0  0  0
  -28.1224  -29.0079   21.1739 H   0  0  0  0  0  0
  -26.0099  -25.9326   18.9998 H   0  0  0  0  0  0
  -23.9794  -27.3060   19.0074 H   0  0  0  0  0  0
  -23.7488  -30.5888   19.3994 H   0  0  0  0  0  0
  -22.7568  -29.2387   19.8636 H   0  0  0  0  0  0
  -25.1285  -36.1912   25.0815 H   0  0  0  0  0  0
  -21.0014  -28.3271   24.1413 H   0  0  0  0  0  0
  -20.5727  -26.2306   23.3606 H   0  0  0  0  0  0
  -21.6647  -26.7498   22.1172 H   0  0  0  0  0  0
  -19.6906  -25.6332   21.1242 H   0  0  0  0  0  0
  -19.6688  -27.3240   20.6772 H   0  0  0  0  0  0
  -17.4212  -26.6740   21.4038 H   0  0  0  0  0  0
  -18.0327  -26.0124   22.9047 H   0  0  0  0  0  0
  -19.7939  -30.7326   24.2265 H   0  0  0  0  0  0
  -17.5022  -31.6298   24.5197 H   0  0  0  0  0  0
  -15.5360  -30.3038   23.7671 H   0  0  0  0  0  0
  -15.8682  -28.0880   22.7055 H   0  0  0  0  0  0
  -24.5802  -30.7242   25.7842 H   0  0  0  0  0  0
  -24.8988  -32.3027   26.4925 H   0  0  0  0  0  0
  -25.7997  -30.8971   27.0258 H   0  0  0  0  0  0
  -26.2830  -29.6810   24.1172 H   0  0  0  0  0  0
  -27.3844  -29.7216   25.4731 H   0  0  0  0  0  0
  -27.8753  -30.4247   23.9497 H   0  0  0  0  0  0
  -27.2671  -33.3659   26.2025 H   0  0  0  0  0  0
  -28.3867  -32.6828   25.0328 H   0  0  0  0  0  0
  -28.0669  -31.8477   26.5449 H   0  0  0  0  0  0
  -28.2580  -38.0108   24.7523 H   0  0  0  0  0  0
  -28.1084  -36.2635   24.6251 H   0  0  0  0  0  0
  -27.2313  -37.1404   25.8869 H   0  0  0  0  0  0
  -20.9372  -29.8760   21.6875 H   0  0  0  0  0  0
  -26.0145  -38.2832   24.1456 H   0  0  0  0  0  0
  -31.7545  -17.3904   19.7910 H   0  0  0  0  0  0
  -28.2549  -25.1535   21.7394 H   0  0  0  0  0  0
  -27.0745  -24.8028   20.5158 H   0  0  0  0  0  0
  -27.2180  -16.3699   21.2323 H   0  0  0  0  0  0
  -26.8697  -17.7491   22.0446 H   0  0  0  0  0  0
  -30.1368  -21.7742   19.3900 H   0  0  0  0  0  0
  -28.9617  -15.3338   21.3712 H   0  0  0  0  0  0
  1 25  1  0  0  0
  1 30  2  0  0  0
  1 82  1  0  0  0
  2  3  1  0  0  0
  2 25  1  0  0  0
  2 87  1  0  0  0
  2 88  1  0  0  0
  3  4  1  0  0  0
  3 89  1  0  0  0
  3 90  1  0  0  0
  4  5  1  0  0  0
  4 91  1  0  0  0
  4 92  1  0  0  0
  5  6  1  0  0  0
  5 26  1  0  0  0
  5 93  1  0  0  0
  6 25  1  0  0  0
  6 94  1  0  0  0
  6 95  1  0  0  0
  7  8  2  0  0  0
  7 26  1  0  0  0
  7 29  1  0  0  0
  8  9  1  0  0  0
  8 22  1  0  0  0
  9 10  1  0  0  0
  9 27  2  0  0  0
 10 11  2  0  0  0
 10 15  1  0  0  0
 11 12  1  0  0  0
 11 96  1  0  0  0
 12 13  2  0  0  0
 12 97  1  0  0  0
 13 14  1  0  0  0
 13 31  1  0  0  0
 14 15  2  0  0  0
 14 98  1  0  0  0
 15 99  1  0  0  0
 16 17  2  0  0  0
 16 21  1  0  0  0
 16 31  1  0  0  0
 17 18  1  0  0  0
 17100  1  0  0  0
 18 19  2  0  0  0
 18101  1  0  0  0
 19 20  1  0  0  0
 19 24  1  0  0  0
 20 21  2  0  0  0
 20102  1  0  0  0
 21 23  1  0  0  0
 22 28  1  0  0  0
 22 32  2  0  0  0
 26 27  1  0  0  0
 28103  1  0  0  0
 28104  1  0  0  0
 29105  1  0  0  0
 29106  1  0  0  0
 33 34  1  0  0  0
 33 66  1  0  0  0
 33 70  2  0  0  0
 34 36  1  0  0  0
 34 59  1  0  0  0
 34107  1  0  0  0
 35 44  2  0  0  0
 35 45  1  0  0  0
 35 68  1  0  0  0
 36 56  1  0  0  0
 36108  1  0  0  0
 37 39  1  0  0  0
 37 47  1  0  0  0
 37 66  1  0  0  0
 37109  1  0  0  0
 38 43  2  0  0  0
 38 46  1  0  0  0
 38 47  1  0  0  0
 39 64  1  0  0  0
 39 67  2  0  0  0
 40 52  1  0  0  0
 40 53  2  0  0  0
 40 58  1  0  0  0
 41110  1  0  0  0
 41111  1  0  0  0
 41112  1  0  0  0
 41 48  1  0  0  0
 42 43  1  0  0  0
 42 66  1  0  0  0
 42113  1  0  0  0
 42114  1  0  0  0
 43 44  1  0  0  0
 44115  1  0  0  0
 45 46  2  0  0  0
 45116  1  0  0  0
 46117  1  0  0  0
 47118  1  0  0  0
 47119  1  0  0  0
 48 56  1  0  0  0
 48 65  1  0  0  0
 48120  1  0  0  0
 49 50  1  0  0  0
 49 53  1  0  0  0
 49 64  1  0  0  0
 49121  1  0  0  0
 50 51  1  0  0  0
 50122  1  0  0  0
 50123  1  0  0  0
 51 52  1  0  0  0
 51124  1  0  0  0
 51125  1  0  0  0
 52126  1  0  0  0
 52127  1  0  0  0
 53 54  1  0  0  0
 54 55  2  0  0  0
 54128  1  0  0  0
 55 57  1  0  0  0
 55129  1  0  0  0
 56 69  2  0  0  0
 57 58  2  0  0  0
 57130  1  0  0  0
 58131  1  0  0  0
 59 60  1  0  0  0
 59 61  1  0  0  0
 59 62  1  0  0  0
 60132  1  0  0  0
 60133  1  0  0  0
 60134  1  0  0  0
 61135  1  0  0  0
 61136  1  0  0  0
 61137  1  0  0  0
 62138  1  0  0  0
 62139  1  0  0  0
 62140  1  0  0  0
 63 65  1  0  0  0
 63141  1  0  0  0
 63142  1  0  0  0
 63143  1  0  0  0
 64144  1  0  0  0
 65145  1  0  0  0
 68 79  1  0  0  0
 71 72  2  0  0  0
 71 75  1  0  0  0
 71146  1  0  0  0
 72 73  1  0  0  0
 72 82  1  0  0  0
 73 76  2  0  0  0
 73 80  1  0  0  0
 74 75  2  0  0  0
 74 76  1  0  0  0
 74 81  1  0  0  0
 75 85  1  0  0  0
 76 86  1  0  0  0
 77 78  1  0  0  0
 77 79  1  0  0  0
 77 83  2  0  0  0
 78 81  1  0  0  0
 78 84  2  0  0  0
 79147  1  0  0  0
 79148  1  0  0  0
 80149  1  0  0  0
 80150  1  0  0  0
 81151  1  0  0  0
 82152  1  0  0  0
M  ISO  4   1 100  68 101  79 101  82 100
M  END
> <chiral flag>
0

> <version>
0

> <s_m_source_file>
/data/baiqing/PycharmProjects/Reinvent-master-3.2/result/LINK_invent/BTK/process_docking_weight1_custom_product_contain_oxygen_bond_distance_aromatic_linkinvent_7_9_3/rearranged_h_0176.sdf

> <i_m_source_file_index>
57

> <r_mmod_Potential_Energy-OPLS-2005>
-7.28447198867798

> <r_mmod_Stretch_Energy-OPLS-2005>
80.732795715332

> <r_mmod_Bend_Energy-OPLS-2005>
134.212921142578

> <r_mmod_Torsional_Energy-OPLS-2005>
258.919586181641

> <r_mmod_Improper_Torsional_Energy-OPLS-2005>
14.0587320327759

> <r_mmod_Van_der_Waal_Energy-OPLS-2005>
147.039535522461

> <r_mmod_Electrostatic_Energy-OPLS-2005>
-455.321655273438

> <r_mmod_Solvation_Energy-OPLS-2005>
-231.395095825195

> <b_mmod_Minimization_Converged-OPLS-2005>
0

> <r_mmod_RMS_Derivative-OPLS-2005>
2.12281346321106

$$$$
57
                    3D
 Structure written by MMmdl.
156164  0  0  1  0            999 V2000
  -30.6567  -14.5523   20.4563 C   0  0  0  0  0  0
  -30.4303  -12.3359   19.4303 C   0  0  0  0  0  0
  -29.4956  -12.4959   18.2115 C   0  0  0  0  0  0
  -28.0179  -12.3480   18.6251 C   0  0  0  0  0  0
  -27.6522  -13.2104   19.8616 C   0  0  2  0  0  0
  -28.7013  -13.0466   20.9876 C   0  0  0  0  0  0
  -25.2566  -13.8166   20.5664 C   0  0  0  0  0  0
  -24.1813  -13.0446   20.9177 C   0  0  0  0  0  0
  -24.6375  -11.6914   20.8732 C   0  0  0  0  0  0
  -23.9028  -10.4313   21.0430 C   0  0  0  0  0  0
  -24.3600   -9.4229   21.9202 C   0  0  0  0  0  0
  -23.6295   -8.2251   22.0739 C   0  0  0  0  0  0
  -22.4279   -8.0282   21.3539 C   0  0  0  0  0  0
  -21.9888   -9.0252   20.4653 C   0  0  0  0  0  0
  -22.7200  -10.2148   20.3087 C   0  0  0  0  0  0
  -21.6838   -6.0731   22.5289 C   0  0  0  0  0  0
  -21.3996   -6.5636   23.8216 C   0  0  0  0  0  0
  -21.3668   -5.6791   24.9183 C   0  0  0  0  0  0
  -21.6049   -4.3048   24.7213 C   0  0  0  0  0  0
  -21.8822   -3.8140   23.4331 C   0  0  0  0  0  0
  -21.9186   -4.6964   22.3392 C   0  0  0  0  0  0
  -22.7852  -13.5251   21.1845 C   0  0  0  0  0  0
  -22.1672   -4.2163   21.0961 F   0  0  0  0  0  0
  -21.5632   -3.4521   25.7715 F   0  0  0  0  0  0
  -30.0258  -13.3446   20.4224 N   0  0  0  0  0  0
  -26.2982  -12.9340   20.3319 N   0  0  0  0  0  0
  -25.9304  -11.6503   20.5757 N   0  0  0  0  0  0
  -22.0484  -12.8288   22.0429 N   0  0  0  0  0  0
  -25.4310  -15.1888   20.4095 N   0  0  0  0  0  0
  -31.8401  -14.6899   20.1423 O   0  0  0  0  0  0
  -21.6648   -6.8881   21.4245 O   0  0  0  0  0  0
  -22.3550  -14.5564   20.6690 O   0  0  0  0  0  0
  -24.6185  -31.8637   23.2070 C   0  0  0  0  0  0
  -25.9048  -32.4806   23.8385 C   0  0  1  0  0  0
  -27.2256  -27.3743   20.1136 C   0  0  0  0  0  0
  -25.5885  -33.8609   24.2322 N   0  0  0  0  0  0
  -23.4086  -30.4868   21.5484 C   0  0  2  0  0  0
  -24.8538  -28.9465   20.1179 C   0  0  0  0  0  0
  -22.7443  -29.4616   22.4977 C   0  0  0  0  0  0
  -18.0276  -28.1357   22.8482 C   0  0  0  0  0  0
  -24.1485  -36.7323   23.2640 C   0  0  0  0  0  0
  -25.9419  -30.8179   21.3628 C   0  0  0  0  0  0
  -26.0177  -29.4449   20.7145 C   0  0  0  0  0  0
  -27.2046  -28.6671   20.7045 C   0  0  0  0  0  0
  -26.0353  -26.9049   19.5113 C   0  0  0  0  0  0
  -24.8611  -27.6797   19.5139 C   0  0  0  0  0  0
  -23.6199  -29.8201   20.1633 C   0  0  0  0  0  0
  -25.4096  -36.3107   24.0341 C   0  0  1  0  0  0
  -20.5869  -28.3641   23.1325 C   0  0  2  0  0  0
  -20.6759  -26.9367   22.5437 C   0  0  0  0  0  0
  -19.5742  -26.6355   21.5224 C   0  0  0  0  0  0
  -18.1916  -26.7901   22.1619 C   0  0  0  0  0  0
  -19.1530  -28.8817   23.2890 C   0  0  0  0  0  0
  -18.9459  -30.1427   23.8901 C   0  0  0  0  0  0
  -17.6458  -30.6562   24.0556 C   0  0  0  0  0  0
  -25.9026  -34.9470   23.5133 C   0  0  0  0  0  0
  -16.5354  -29.9062   23.6314 C   0  0  0  0  0  0
  -16.7269  -28.6482   23.0341 C   0  0  0  0  0  0
  -26.4470  -31.6574   25.0706 C   0  0  0  0  0  0
  -25.3776  -31.3703   26.1502 C   0  0  0  0  0  0
  -27.0236  -30.3000   24.6044 C   0  0  0  0  0  0
  -27.6083  -32.4254   25.7440 C   0  0  0  0  0  0
  -27.5580  -37.1805   24.8452 C   0  0  0  0  0  0
  -21.4165  -29.3005   22.3734 N   0  0  0  0  0  0
  -26.4278  -37.3797   23.9416 N   0  0  0  0  0  0
  -24.6757  -31.0708   22.0985 N   0  0  0  0  0  0
  -23.4208  -28.8160   23.3026 O   0  0  0  0  0  0
  -28.4010  -26.6312   20.1357 O   0  0  0  0  0  0
  -26.5601  -34.8925   22.4704 O   0  0  0  0  0  0
  -23.5371  -32.1408   23.7442 O   0  0  0  0  0  0
  -29.7579  -19.3930   18.6194 C   0  0  0  0  0  0
  -29.3538  -18.0689   20.6257 C   0  0  0  0  0  0
  -30.2568  -18.2511   17.9668 C   0  0  0  0  0  0
  -29.3088  -19.3311   19.9573 C   0  0  0  0  0  0
  -29.8785  -16.8996   19.9911 C   0  0  0  0  0  0
  -30.3141  -17.0127   18.6417 C   0  0  0  0  0  0
  -27.9253  -22.7968   20.9320 C   0  0  0  0  0  0
  -29.0009  -21.8112   20.3434 C   0  0  0  0  0  0
  -30.6967  -18.3522   16.5154 C   0  0  0  0  0  0
  -28.2585  -24.3041   21.1384 C   0  0  0  0  0  0
  -28.4142  -25.1967   19.8681 C   0  0  0  0  0  0
  -28.7293  -20.4965   20.5775 N   0  0  0  0  0  0
  -29.8519  -15.6222   20.6755 N   0  0  0  0  0  0
  -26.8145  -22.3750   21.2777 O   0  0  0  0  0  0
  -30.0024  -22.2225   19.7487 O   0  0  0  0  0  0
  -30.7333  -15.9278   17.9475 F   0  0  0  0  0  0
  -31.4671  -12.4583   19.1127 H   0  0  0  0  0  0
  -30.3611  -11.3327   19.8555 H   0  0  0  0  0  0
  -29.7464  -11.7640   17.4431 H   0  0  0  0  0  0
  -29.6488  -13.4766   17.7559 H   0  0  0  0  0  0
  -27.8442  -11.2922   18.8445 H   0  0  0  0  0  0
  -27.3669  -12.5979   17.7862 H   0  0  0  0  0  0
  -27.6770  -14.2487   19.5309 H   0  0  0  0  0  0
  -28.6834  -12.0271   21.3752 H   0  0  0  0  0  0
  -28.4735  -13.6919   21.8375 H   0  0  0  0  0  0
  -25.2745   -9.5699   22.4782 H   0  0  0  0  0  0
  -24.0012   -7.4613   22.7421 H   0  0  0  0  0  0
  -21.0809   -8.8742   19.8954 H   0  0  0  0  0  0
  -22.3631  -10.9678   19.6192 H   0  0  0  0  0  0
  -21.1992   -7.6146   23.9714 H   0  0  0  0  0  0
  -21.1498   -6.0532   25.9086 H   0  0  0  0  0  0
  -22.0603   -2.7601   23.2831 H   0  0  0  0  0  0
  -22.4050  -11.9934   22.4848 H   0  0  0  0  0  0
  -21.1116  -13.1362   22.2607 H   0  0  0  0  0  0
  -24.6660  -15.8486   20.5076 H   0  0  0  0  0  0
  -26.2827  -15.6190   20.0756 H   0  0  0  0  0  0
  -26.7120  -32.5501   23.1149 H   0  0  0  0  0  0
  -25.0012  -33.9761   25.0454 H   0  0  0  0  0  0
  -22.6970  -31.3023   21.4075 H   0  0  0  0  0  0
  -23.3741  -35.9654   23.3264 H   0  0  0  0  0  0
  -24.3608  -36.8981   22.2066 H   0  0  0  0  0  0
  -23.7225  -37.6511   23.6687 H   0  0  0  0  0  0
  -26.0473  -31.5784   20.5877 H   0  0  0  0  0  0
  -26.8332  -30.8845   21.9749 H   0  0  0  0  0  0
  -28.1028  -29.0509   21.1683 H   0  0  0  0  0  0
  -25.9742  -25.9421   19.0292 H   0  0  0  0  0  0
  -23.9641  -27.2899   19.0518 H   0  0  0  0  0  0
  -23.7396  -30.5954   19.4053 H   0  0  0  0  0  0
  -22.7416  -29.2469   19.8598 H   0  0  0  0  0  0
  -25.1259  -36.1980   25.0827 H   0  0  0  0  0  0
  -20.9938  -28.3205   24.1456 H   0  0  0  0  0  0
  -20.5629  -26.2252   23.3627 H   0  0  0  0  0  0
  -21.6638  -26.7372   22.1264 H   0  0  0  0  0  0
  -19.6897  -25.6268   21.1245 H   0  0  0  0  0  0
  -19.6682  -27.3177   20.6765 H   0  0  0  0  0  0
  -17.4186  -26.6656   21.4012 H   0  0  0  0  0  0
  -18.0278  -26.0033   22.9003 H   0  0  0  0  0  0
  -19.7939  -30.7231   24.2264 H   0  0  0  0  0  0
  -17.5015  -31.6245   24.5147 H   0  0  0  0  0  0
  -15.5345  -30.2963   23.7627 H   0  0  0  0  0  0
  -15.8669  -28.0791   22.7057 H   0  0  0  0  0  0
  -24.5851  -30.7154   25.7863 H   0  0  0  0  0  0
  -24.9116  -32.2889   26.5077 H   0  0  0  0  0  0
  -25.8167  -30.8756   27.0175 H   0  0  0  0  0  0
  -26.2724  -29.6790   24.1147 H   0  0  0  0  0  0
  -27.4053  -29.7199   25.4451 H   0  0  0  0  0  0
  -27.8559  -30.4292   23.9124 H   0  0  0  0  0  0
  -27.2747  -33.3565   26.2030 H   0  0  0  0  0  0
  -28.3885  -32.6773   25.0245 H   0  0  0  0  0  0
  -28.0737  -31.8346   26.5338 H   0  0  0  0  0  0
  -28.2590  -38.0117   24.7514 H   0  0  0  0  0  0
  -28.1088  -36.2649   24.6233 H   0  0  0  0  0  0
  -27.2322  -37.1411   25.8865 H   0  0  0  0  0  0
  -20.9331  -29.8771   21.6991 H   0  0  0  0  0  0
  -26.0165  -38.2867   24.1441 H   0  0  0  0  0  0
  -29.6881  -20.3162   18.0617 H   0  0  0  0  0  0
  -28.9797  -17.9969   21.6369 H   0  0  0  0  0  0
  -30.6716  -19.3840   16.1598 H   0  0  0  0  0  0
  -30.0404  -17.7641   15.8730 H   0  0  0  0  0  0
  -31.7148  -17.9836   16.3868 H   0  0  0  0  0  0
  -29.1550  -24.3806   21.7530 H   0  0  0  0  0  0
  -27.4483  -24.7138   21.7415 H   0  0  0  0  0  0
  -27.7327  -24.8949   19.0750 H   0  0  0  0  0  0
  -29.4010  -24.9907   19.4516 H   0  0  0  0  0  0
  -27.9592  -20.3417   21.2170 H   0  0  0  0  0  0
  -28.9870  -15.4012   21.1373 H   0  0  0  0  0  0
  1 25  1  0  0  0
  1 30  2  0  0  0
  1 83  1  0  0  0
  2  3  1  0  0  0
  2 25  1  0  0  0
  2 87  1  0  0  0
  2 88  1  0  0  0
  3  4  1  0  0  0
  3 89  1  0  0  0
  3 90  1  0  0  0
  4  5  1  0  0  0
  4 91  1  0  0  0
  4 92  1  0  0  0
  5  6  1  0  0  0
  5 26  1  0  0  0
  5 93  1  0  0  0
  6 25  1  0  0  0
  6 94  1  0  0  0
  6 95  1  0  0  0
  7  8  2  0  0  0
  7 26  1  0  0  0
  7 29  1  0  0  0
  8  9  1  0  0  0
  8 22  1  0  0  0
  9 10  1  0  0  0
  9 27  2  0  0  0
 10 11  2  0  0  0
 10 15  1  0  0  0
 11 12  1  0  0  0
 11 96  1  0  0  0
 12 13  2  0  0  0
 12 97  1  0  0  0
 13 14  1  0  0  0
 13 31  1  0  0  0
 14 15  2  0  0  0
 14 98  1  0  0  0
 15 99  1  0  0  0
 16 17  2  0  0  0
 16 21  1  0  0  0
 16 31  1  0  0  0
 17 18  1  0  0  0
 17100  1  0  0  0
 18 19  2  0  0  0
 18101  1  0  0  0
 19 20  1  0  0  0
 19 24  1  0  0  0
 20 21  2  0  0  0
 20102  1  0  0  0
 21 23  1  0  0  0
 22 28  1  0  0  0
 22 32  2  0  0  0
 26 27  1  0  0  0
 28103  1  0  0  0
 28104  1  0  0  0
 29105  1  0  0  0
 29106  1  0  0  0
 33 34  1  0  0  0
 33 66  1  0  0  0
 33 70  2  0  0  0
 34 36  1  0  0  0
 34 59  1  0  0  0
 34107  1  0  0  0
 35 44  2  0  0  0
 35 45  1  0  0  0
 35 68  1  0  0  0
 36 56  1  0  0  0
 36108  1  0  0  0
 37 39  1  0  0  0
 37 47  1  0  0  0
 37 66  1  0  0  0
 37109  1  0  0  0
 38 43  2  0  0  0
 38 46  1  0  0  0
 38 47  1  0  0  0
 39 64  1  0  0  0
 39 67  2  0  0  0
 40 52  1  0  0  0
 40 53  2  0  0  0
 40 58  1  0  0  0
 41110  1  0  0  0
 41111  1  0  0  0
 41112  1  0  0  0
 41 48  1  0  0  0
 42 43  1  0  0  0
 42 66  1  0  0  0
 42113  1  0  0  0
 42114  1  0  0  0
 43 44  1  0  0  0
 44115  1  0  0  0
 45 46  2  0  0  0
 45116  1  0  0  0
 46117  1  0  0  0
 47118  1  0  0  0
 47119  1  0  0  0
 48 56  1  0  0  0
 48 65  1  0  0  0
 48120  1  0  0  0
 49 50  1  0  0  0
 49 53  1  0  0  0
 49 64  1  0  0  0
 49121  1  0  0  0
 50 51  1  0  0  0
 50122  1  0  0  0
 50123  1  0  0  0
 51 52  1  0  0  0
 51124  1  0  0  0
 51125  1  0  0  0
 52126  1  0  0  0
 52127  1  0  0  0
 53 54  1  0  0  0
 54 55  2  0  0  0
 54128  1  0  0  0
 55 57  1  0  0  0
 55129  1  0  0  0
 56 69  2  0  0  0
 57 58  2  0  0  0
 57130  1  0  0  0
 58131  1  0  0  0
 59 60  1  0  0  0
 59 61  1  0  0  0
 59 62  1  0  0  0
 60132  1  0  0  0
 60133  1  0  0  0
 60134  1  0  0  0
 61135  1  0  0  0
 61136  1  0  0  0
 61137  1  0  0  0
 62138  1  0  0  0
 62139  1  0  0  0
 62140  1  0  0  0
 63 65  1  0  0  0
 63141  1  0  0  0
 63142  1  0  0  0
 63143  1  0  0  0
 64144  1  0  0  0
 65145  1  0  0  0
 68 81  1  0  0  0
 71 73  2  0  0  0
 71 74  1  0  0  0
 71146  1  0  0  0
 72 74  2  0  0  0
 72 75  1  0  0  0
 72147  1  0  0  0
 73 76  1  0  0  0
 73 79  1  0  0  0
 74 82  1  0  0  0
 75 76  2  0  0  0
 75 83  1  0  0  0
 76 86  1  0  0  0
 77 78  1  0  0  0
 77 80  1  0  0  0
 77 84  2  0  0  0
 78 82  1  0  0  0
 78 85  2  0  0  0
 79148  1  0  0  0
 79149  1  0  0  0
 79150  1  0  0  0
 80 81  1  0  0  0
 80151  1  0  0  0
 80152  1  0  0  0
 81153  1  0  0  0
 81154  1  0  0  0
 82155  1  0  0  0
 83156  1  0  0  0
M  ISO  4   1 100  68 101  81 101  83 100
M  END
> <chiral flag>
0

> <version>
0

> <s_m_source_file>
/data/baiqing/PycharmProjects/Reinvent-master-3.2/result/LINK_invent/BTK/process_docking_weight1_custom_product_contain_oxygen_bond_distance_aromatic_linkinvent_7_9_3/rearranged_h_0176.sdf

> <i_m_source_file_index>
58

> <r_mmod_Potential_Energy-OPLS-2005>
-26.9222030639648

> <r_mmod_Stretch_Energy-OPLS-2005>
53.9941787719727

> <r_mmod_Bend_Energy-OPLS-2005>
117.34496307373

> <r_mmod_Torsional_Energy-OPLS-2005>
255.244079589844

> <r_mmod_Improper_Torsional_Energy-OPLS-2005>
6.33380126953125

> <r_mmod_Van_der_Waal_Energy-OPLS-2005>
151.689147949219

> <r_mmod_Electrostatic_Energy-OPLS-2005>
-402.023712158203

> <r_mmod_Solvation_Energy-OPLS-2005>
-237.028518676758

> <b_mmod_Minimization_Converged-OPLS-2005>
0

> <r_mmod_RMS_Derivative-OPLS-2005>
3.44549417495728

$$$$
58
                    3D
 Structure written by MMmdl.
151159  0  0  1  0            999 V2000
  -30.7007  -14.4389   20.5642 C   0  0  0  0  0  0
  -30.4223  -12.2843   19.4181 C   0  0  0  0  0  0
  -29.4939  -12.5064   18.2053 C   0  0  0  0  0  0
  -28.0144  -12.3642   18.6154 C   0  0  0  0  0  0
  -27.6618  -13.1964   19.8770 C   0  0  2  0  0  0
  -28.7031  -12.9627   20.9974 C   0  0  0  0  0  0
  -25.2604  -13.8140   20.5659 C   0  0  0  0  0  0
  -24.1843  -13.0443   20.9149 C   0  0  0  0  0  0
  -24.6365  -11.6907   20.8730 C   0  0  0  0  0  0
  -23.9015  -10.4313   21.0424 C   0  0  0  0  0  0
  -24.3581   -9.4231   21.9192 C   0  0  0  0  0  0
  -23.6275   -8.2255   22.0747 C   0  0  0  0  0  0
  -22.4267   -8.0283   21.3538 C   0  0  0  0  0  0
  -21.9881   -9.0253   20.4648 C   0  0  0  0  0  0
  -22.7186  -10.2151   20.3069 C   0  0  0  0  0  0
  -21.6857   -6.0725   22.5274 C   0  0  0  0  0  0
  -21.4013   -6.5627   23.8205 C   0  0  0  0  0  0
  -21.3666   -5.6784   24.9170 C   0  0  0  0  0  0
  -21.6051   -4.3047   24.7220 C   0  0  0  0  0  0
  -21.8823   -3.8132   23.4342 C   0  0  0  0  0  0
  -21.9195   -4.6952   22.3399 C   0  0  0  0  0  0
  -22.7866  -13.5274   21.1811 C   0  0  0  0  0  0
  -22.1666   -4.2144   21.0976 F   0  0  0  0  0  0
  -21.5625   -3.4525   25.7727 F   0  0  0  0  0  0
  -30.0402  -13.2572   20.4509 N   0  0  0  0  0  0
  -26.3018  -12.9273   20.3352 N   0  0  0  0  0  0
  -25.9298  -11.6452   20.5760 N   0  0  0  0  0  0
  -22.0477  -12.8317   22.0381 N   0  0  0  0  0  0
  -25.4367  -15.1853   20.4081 N   0  0  0  0  0  0
  -31.8326  -14.6328   20.1087 O   0  0  0  0  0  0
  -21.6650   -6.8875   21.4237 O   0  0  0  0  0  0
  -22.3576  -14.5574   20.6645 O   0  0  0  0  0  0
  -24.6122  -31.8680   23.2102 C   0  0  0  0  0  0
  -25.9028  -32.4820   23.8390 C   0  0  1  0  0  0
  -27.2464  -27.4545   20.0814 C   0  0  0  0  0  0
  -25.5891  -33.8615   24.2320 N   0  0  0  0  0  0
  -23.3995  -30.4885   21.5502 C   0  0  2  0  0  0
  -24.8473  -28.9566   20.1109 C   0  0  0  0  0  0
  -22.7406  -29.4637   22.4994 C   0  0  0  0  0  0
  -18.0276  -28.1379   22.8492 C   0  0  0  0  0  0
  -24.1490  -36.7312   23.2639 C   0  0  0  0  0  0
  -25.9266  -30.8351   21.3638 C   0  0  0  0  0  0
  -26.0038  -29.4731   20.7063 C   0  0  0  0  0  0
  -27.2023  -28.7271   20.6905 C   0  0  0  0  0  0
  -26.0645  -26.9363   19.4996 C   0  0  0  0  0  0
  -24.8723  -27.6862   19.5068 C   0  0  0  0  0  0
  -23.6049  -29.8165   20.1655 C   0  0  0  0  0  0
  -25.4099  -36.3098   24.0341 C   0  0  1  0  0  0
  -20.5872  -28.3657   23.1321 C   0  0  2  0  0  0
  -20.6757  -26.9385   22.5422 C   0  0  0  0  0  0
  -19.5728  -26.6371   21.5220 C   0  0  0  0  0  0
  -18.1912  -26.7926   22.1626 C   0  0  0  0  0  0
  -19.1527  -28.8834   23.2911 C   0  0  0  0  0  0
  -18.9456  -30.1445   23.8912 C   0  0  0  0  0  0
  -17.6455  -30.6573   24.0575 C   0  0  0  0  0  0
  -25.9024  -34.9467   23.5122 C   0  0  0  0  0  0
  -16.5346  -29.9079   23.6332 C   0  0  0  0  0  0
  -16.7268  -28.6501   23.0343 C   0  0  0  0  0  0
  -26.4463  -31.6611   25.0724 C   0  0  0  0  0  0
  -25.3733  -31.3792   26.1496 C   0  0  0  0  0  0
  -27.0258  -30.3026   24.6132 C   0  0  0  0  0  0
  -27.6048  -32.4345   25.7455 C   0  0  0  0  0  0
  -27.5594  -37.1791   24.8441 C   0  0  0  0  0  0
  -21.4141  -29.3019   22.3731 N   0  0  0  0  0  0
  -26.4285  -37.3782   23.9414 N   0  0  0  0  0  0
  -24.6635  -31.0780   22.0998 N   0  0  0  0  0  0
  -23.4181  -28.8173   23.3025 O   0  0  0  0  0  0
  -28.4354  -26.7576   20.1238 O   0  0  0  0  0  0
  -26.5578  -34.8924   22.4684 O   0  0  0  0  0  0
  -23.5322  -32.1432   23.7513 O   0  0  0  0  0  0
  -30.7373  -17.7466   20.6366 C   0  0  0  0  0  0
  -30.4324  -18.8636   19.7836 C   0  0  0  0  0  0
  -29.9137  -16.6548   20.4665 C   0  0  0  0  0  0
  -29.3495  -18.5622   18.9941 C   0  0  0  0  0  0
  -28.6239  -25.6245   19.3755 C   0  0  0  0  0  0
  -30.5891  -21.3487   19.1156 C   0  0  0  0  0  0
  -29.3046  -24.5698   19.8699 C   0  0  0  0  0  0
  -29.5334  -23.3802   19.0436 C   0  0  0  0  0  0
  -31.2416  -20.1442   19.7809 C   0  0  0  0  0  0
  -30.1680  -22.3670   19.7611 N   0  0  0  0  0  0
  -29.9718  -15.4429   21.0762 N   0  0  0  0  0  0
  -29.1955  -23.3276   17.8561 O   0  0  0  0  0  0
  -29.7771  -24.6303   21.1263 O   0  0  0  0  0  0
  -28.8175  -19.3776   18.0504 F   0  0  0  0  0  0
  -28.6796  -16.9897   19.2746 S   0  0  0  0  0  0
  -31.4673  -12.3775   19.1182 H   0  0  0  0  0  0
  -30.3109  -11.2701   19.8041 H   0  0  0  0  0  0
  -29.7321  -11.7952   17.4128 H   0  0  0  0  0  0
  -29.6635  -13.4999   17.7857 H   0  0  0  0  0  0
  -27.8220  -11.3049   18.7989 H   0  0  0  0  0  0
  -27.3685  -12.6488   17.7850 H   0  0  0  0  0  0
  -27.7063  -14.2440   19.5842 H   0  0  0  0  0  0
  -28.6708  -11.9235   21.3287 H   0  0  0  0  0  0
  -28.4692  -13.5584   21.8809 H   0  0  0  0  0  0
  -25.2728   -9.5722   22.4758 H   0  0  0  0  0  0
  -23.9997   -7.4650   22.7455 H   0  0  0  0  0  0
  -21.0792   -8.8768   19.8964 H   0  0  0  0  0  0
  -22.3624  -10.9691   19.6185 H   0  0  0  0  0  0
  -21.2012   -7.6140   23.9709 H   0  0  0  0  0  0
  -21.1483   -6.0515   25.9074 H   0  0  0  0  0  0
  -22.0597   -2.7588   23.2849 H   0  0  0  0  0  0
  -22.4045  -11.9999   22.4846 H   0  0  0  0  0  0
  -21.1101  -13.1403   22.2553 H   0  0  0  0  0  0
  -24.6749  -15.8471   20.5112 H   0  0  0  0  0  0
  -26.2957  -15.6174   20.0938 H   0  0  0  0  0  0
  -26.7089  -32.5520   23.1142 H   0  0  0  0  0  0
  -25.0059  -33.9781   25.0474 H   0  0  0  0  0  0
  -22.6860  -31.3041   21.4119 H   0  0  0  0  0  0
  -23.3753  -35.9646   23.3270 H   0  0  0  0  0  0
  -24.3596  -36.8950   22.2058 H   0  0  0  0  0  0
  -23.7239  -37.6503   23.6675 H   0  0  0  0  0  0
  -26.0440  -31.6058   20.6011 H   0  0  0  0  0  0
  -26.8125  -30.8816   21.9862 H   0  0  0  0  0  0
  -28.0977  -29.1202   21.1528 H   0  0  0  0  0  0
  -26.0453  -25.9538   19.0504 H   0  0  0  0  0  0
  -23.9824  -27.2749   19.0517 H   0  0  0  0  0  0
  -23.6962  -30.5878   19.3999 H   0  0  0  0  0  0
  -22.7320  -29.2264   19.8814 H   0  0  0  0  0  0
  -25.1269  -36.1959   25.0832 H   0  0  0  0  0  0
  -20.9968  -28.3236   24.1441 H   0  0  0  0  0  0
  -20.5642  -26.2269   23.3619 H   0  0  0  0  0  0
  -21.6626  -26.7412   22.1235 H   0  0  0  0  0  0
  -19.6883  -25.6285   21.1231 H   0  0  0  0  0  0
  -19.6665  -27.3190   20.6755 H   0  0  0  0  0  0
  -17.4187  -26.6712   21.4028 H   0  0  0  0  0  0
  -18.0286  -26.0060   22.9009 H   0  0  0  0  0  0
  -19.7924  -30.7269   24.2286 H   0  0  0  0  0  0
  -17.4994  -31.6242   24.5182 H   0  0  0  0  0  0
  -15.5348  -30.2974   23.7630 H   0  0  0  0  0  0
  -15.8682  -28.0811   22.7042 H   0  0  0  0  0  0
  -24.5837  -30.7213   25.7858 H   0  0  0  0  0  0
  -24.9022  -32.2995   26.4969 H   0  0  0  0  0  0
  -25.8071  -30.8927   27.0238 H   0  0  0  0  0  0
  -26.2797  -29.6812   24.1172 H   0  0  0  0  0  0
  -27.3954  -29.7265   25.4623 H   0  0  0  0  0  0
  -27.8674  -30.4294   23.9320 H   0  0  0  0  0  0
  -27.2650  -33.3607   26.2112 H   0  0  0  0  0  0
  -28.3798  -32.6990   25.0244 H   0  0  0  0  0  0
  -28.0793  -31.8438   26.5301 H   0  0  0  0  0  0
  -28.2588  -38.0116   24.7522 H   0  0  0  0  0  0
  -28.1116  -36.2652   24.6198 H   0  0  0  0  0  0
  -27.2329  -37.1343   25.8849 H   0  0  0  0  0  0
  -20.9309  -29.8745   21.6952 H   0  0  0  0  0  0
  -26.0173  -38.2856   24.1443 H   0  0  0  0  0  0
  -31.5637  -17.7793   21.3326 H   0  0  0  0  0  0
  -28.2000  -25.6856   18.3807 H   0  0  0  0  0  0
  -30.5286  -21.2543   18.0269 H   0  0  0  0  0  0
  -32.1913  -19.9664   19.2763 H   0  0  0  0  0  0
  -31.5052  -20.4164   20.8040 H   0  0  0  0  0  0
  -29.0933  -15.1128   21.4468 H   0  0  0  0  0  0
  -29.5193  -25.4744   21.4729 H   0  0  0  0  0  0
  1 25  1  0  0  0
  1 30  2  0  0  0
  1 81  1  0  0  0
  2  3  1  0  0  0
  2 25  1  0  0  0
  2 86  1  0  0  0
  2 87  1  0  0  0
  3  4  1  0  0  0
  3 88  1  0  0  0
  3 89  1  0  0  0
  4  5  1  0  0  0
  4 90  1  0  0  0
  4 91  1  0  0  0
  5  6  1  0  0  0
  5 26  1  0  0  0
  5 92  1  0  0  0
  6 25  1  0  0  0
  6 93  1  0  0  0
  6 94  1  0  0  0
  7  8  2  0  0  0
  7 26  1  0  0  0
  7 29  1  0  0  0
  8  9  1  0  0  0
  8 22  1  0  0  0
  9 10  1  0  0  0
  9 27  2  0  0  0
 10 11  2  0  0  0
 10 15  1  0  0  0
 11 12  1  0  0  0
 11 95  1  0  0  0
 12 13  2  0  0  0
 12 96  1  0  0  0
 13 14  1  0  0  0
 13 31  1  0  0  0
 14 15  2  0  0  0
 14 97  1  0  0  0
 15 98  1  0  0  0
 16 17  2  0  0  0
 16 21  1  0  0  0
 16 31  1  0  0  0
 17 18  1  0  0  0
 17 99  1  0  0  0
 18 19  2  0  0  0
 18100  1  0  0  0
 19 20  1  0  0  0
 19 24  1  0  0  0
 20 21  2  0  0  0
 20101  1  0  0  0
 21 23  1  0  0  0
 22 28  1  0  0  0
 22 32  2  0  0  0
 26 27  1  0  0  0
 28102  1  0  0  0
 28103  1  0  0  0
 29104  1  0  0  0
 29105  1  0  0  0
 33 34  1  0  0  0
 33 66  1  0  0  0
 33 70  2  0  0  0
 34 36  1  0  0  0
 34 59  1  0  0  0
 34106  1  0  0  0
 35 44  2  0  0  0
 35 45  1  0  0  0
 35 68  1  0  0  0
 36 56  1  0  0  0
 36107  1  0  0  0
 37 39  1  0  0  0
 37 47  1  0  0  0
 37 66  1  0  0  0
 37108  1  0  0  0
 38 43  2  0  0  0
 38 46  1  0  0  0
 38 47  1  0  0  0
 39 64  1  0  0  0
 39 67  2  0  0  0
 40 52  1  0  0  0
 40 53  2  0  0  0
 40 58  1  0  0  0
 41109  1  0  0  0
 41110  1  0  0  0
 41111  1  0  0  0
 41 48  1  0  0  0
 42 43  1  0  0  0
 42 66  1  0  0  0
 42112  1  0  0  0
 42113  1  0  0  0
 43 44  1  0  0  0
 44114  1  0  0  0
 45 46  2  0  0  0
 45115  1  0  0  0
 46116  1  0  0  0
 47117  1  0  0  0
 47118  1  0  0  0
 48 56  1  0  0  0
 48 65  1  0  0  0
 48119  1  0  0  0
 49 50  1  0  0  0
 49 53  1  0  0  0
 49 64  1  0  0  0
 49120  1  0  0  0
 50 51  1  0  0  0
 50121  1  0  0  0
 50122  1  0  0  0
 51 52  1  0  0  0
 51123  1  0  0  0
 51124  1  0  0  0
 52125  1  0  0  0
 52126  1  0  0  0
 53 54  1  0  0  0
 54 55  2  0  0  0
 54127  1  0  0  0
 55 57  1  0  0  0
 55128  1  0  0  0
 56 69  2  0  0  0
 57 58  2  0  0  0
 57129  1  0  0  0
 58130  1  0  0  0
 59 60  1  0  0  0
 59 61  1  0  0  0
 59 62  1  0  0  0
 60131  1  0  0  0
 60132  1  0  0  0
 60133  1  0  0  0
 61134  1  0  0  0
 61135  1  0  0  0
 61136  1  0  0  0
 62137  1  0  0  0
 62138  1  0  0  0
 62139  1  0  0  0
 63 65  1  0  0  0
 63140  1  0  0  0
 63141  1  0  0  0
 63142  1  0  0  0
 64143  1  0  0  0
 65144  1  0  0  0
 68 75  1  0  0  0
 71 72  1  0  0  0
 71 73  2  0  0  0
 71145  1  0  0  0
 72 74  2  0  0  0
 72 79  1  0  0  0
 73 81  1  0  0  0
 73 85  1  0  0  0
 74 84  1  0  0  0
 74 85  1  0  0  0
 75 77  2  0  0  0
 75146  1  0  0  0
 76 79  1  0  0  0
 76 80  2  0  0  0
 76147  1  0  0  0
 77 78  1  0  0  0
 77 83  1  0  0  0
 78 80  1  0  0  0
 78 82  2  0  0  0
 79148  1  0  0  0
 79149  1  0  0  0
 81150  1  0  0  0
 83151  1  0  0  0
M  ISO  4   1 100  68 101  75 101  81 100
M  END
> <chiral flag>
0

> <version>
0

> <s_m_source_file>
/data/baiqing/PycharmProjects/Reinvent-master-3.2/result/LINK_invent/BTK/process_docking_weight1_custom_product_contain_oxygen_bond_distance_aromatic_linkinvent_7_9_3/rearranged_h_0176.sdf

> <i_m_source_file_index>
59

> <r_mmod_Potential_Energy-OPLS-2005>
-79.3630676269531

> <r_mmod_Stretch_Energy-OPLS-2005>
34.261604309082

> <r_mmod_Bend_Energy-OPLS-2005>
110.63020324707

> <r_mmod_Torsional_Energy-OPLS-2005>
223.178970336914

> <r_mmod_Improper_Torsional_Energy-OPLS-2005>
7.03874588012695

> <r_mmod_Van_der_Waal_Energy-OPLS-2005>
150.392379760742

> <r_mmod_Electrostatic_Energy-OPLS-2005>
-400.041656494141

> <r_mmod_Solvation_Energy-OPLS-2005>
-216.48371887207

> <b_mmod_Minimization_Converged-OPLS-2005>
0

> <r_mmod_RMS_Derivative-OPLS-2005>
2.6488561630249

$$$$
59
                    3D
 Structure written by MMmdl.
156164  0  0  1  0            999 V2000
  -30.7540  -14.3710   20.6482 C   0  0  0  0  0  0
  -30.4139  -12.2783   19.3901 C   0  0  0  0  0  0
  -29.4799  -12.5256   18.1901 C   0  0  0  0  0  0
  -28.0025  -12.3915   18.6063 C   0  0  0  0  0  0
  -27.6664  -13.2035   19.8849 C   0  0  2  0  0  0
  -28.7083  -12.9347   20.9950 C   0  0  0  0  0  0
  -25.2587  -13.8176   20.5663 C   0  0  0  0  0  0
  -24.1829  -13.0459   20.9172 C   0  0  0  0  0  0
  -24.6385  -11.6929   20.8750 C   0  0  0  0  0  0
  -23.9069  -10.4305   21.0414 C   0  0  0  0  0  0
  -24.3614   -9.4224   21.9201 C   0  0  0  0  0  0
  -23.6287   -8.2258   22.0760 C   0  0  0  0  0  0
  -22.4277   -8.0282   21.3543 C   0  0  0  0  0  0
  -21.9912   -9.0256   20.4653 C   0  0  0  0  0  0
  -22.7240  -10.2137   20.3071 C   0  0  0  0  0  0
  -21.6846   -6.0737   22.5287 C   0  0  0  0  0  0
  -21.4004   -6.5630   23.8227 C   0  0  0  0  0  0
  -21.3669   -5.6778   24.9185 C   0  0  0  0  0  0
  -21.6049   -4.3050   24.7228 C   0  0  0  0  0  0
  -21.8819   -3.8147   23.4351 C   0  0  0  0  0  0
  -21.9185   -4.6966   22.3407 C   0  0  0  0  0  0
  -22.7850  -13.5271   21.1794 C   0  0  0  0  0  0
  -22.1647   -4.2161   21.0987 F   0  0  0  0  0  0
  -21.5649   -3.4531   25.7738 F   0  0  0  0  0  0
  -30.0495  -13.2263   20.4518 N   0  0  0  0  0  0
  -26.3041  -12.9343   20.3438 N   0  0  0  0  0  0
  -25.9316  -11.6507   20.5810 N   0  0  0  0  0  0
  -22.0432  -12.8308   22.0353 N   0  0  0  0  0  0
  -25.4308  -15.1888   20.4031 N   0  0  0  0  0  0
  -31.7868  -14.6492   20.0310 O   0  0  0  0  0  0
  -21.6641   -6.8876   21.4253 O   0  0  0  0  0  0
  -22.3563  -14.5581   20.6629 O   0  0  0  0  0  0
  -24.6157  -31.8698   23.2130 C   0  0  0  0  0  0
  -25.9058  -32.4824   23.8423 C   0  0  1  0  0  0
  -27.2198  -27.4291   20.0828 C   0  0  0  0  0  0
  -25.5918  -33.8630   24.2344 N   0  0  0  0  0  0
  -23.4011  -30.4961   21.5568 C   0  0  2  0  0  0
  -24.8412  -28.9669   20.1163 C   0  0  0  0  0  0
  -22.7406  -29.4677   22.5030 C   0  0  0  0  0  0
  -18.0263  -28.1380   22.8508 C   0  0  0  0  0  0
  -24.1481  -36.7312   23.2639 C   0  0  0  0  0  0
  -25.9347  -30.8291   21.3727 C   0  0  0  0  0  0
  -26.0053  -29.4668   20.7135 C   0  0  0  0  0  0
  -27.1975  -28.7061   20.6929 C   0  0  0  0  0  0
  -26.0333  -26.9563   19.4714 C   0  0  0  0  0  0
  -24.8498  -27.7102   19.4960 C   0  0  0  0  0  0
  -23.6055  -29.8343   20.1698 C   0  0  0  0  0  0
  -25.4103  -36.3117   24.0339 C   0  0  1  0  0  0
  -20.5852  -28.3675   23.1320 C   0  0  2  0  0  0
  -20.6762  -26.9415   22.5416 C   0  0  0  0  0  0
  -19.5719  -26.6385   21.5234 C   0  0  0  0  0  0
  -18.1901  -26.7936   22.1634 C   0  0  0  0  0  0
  -19.1512  -28.8845   23.2907 C   0  0  0  0  0  0
  -18.9434  -30.1464   23.8900 C   0  0  0  0  0  0
  -17.6435  -30.6597   24.0563 C   0  0  0  0  0  0
  -25.9043  -34.9482   23.5141 C   0  0  0  0  0  0
  -16.5333  -29.9081   23.6342 C   0  0  0  0  0  0
  -16.7253  -28.6494   23.0373 C   0  0  0  0  0  0
  -26.4469  -31.6603   25.0763 C   0  0  0  0  0  0
  -25.3742  -31.3706   26.1516 C   0  0  0  0  0  0
  -27.0298  -30.3032   24.6189 C   0  0  0  0  0  0
  -27.6055  -32.4316   25.7508 C   0  0  0  0  0  0
  -27.5592  -37.1795   24.8445 C   0  0  0  0  0  0
  -21.4140  -29.3046   22.3757 N   0  0  0  0  0  0
  -26.4286  -37.3809   23.9424 N   0  0  0  0  0  0
  -24.6689  -31.0790   22.1043 N   0  0  0  0  0  0
  -23.4178  -28.8221   23.3071 O   0  0  0  0  0  0
  -28.3832  -26.6816   20.1049 O   0  0  0  0  0  0
  -26.5607  -34.8930   22.4712 O   0  0  0  0  0  0
  -23.5346  -32.1474   23.7515 O   0  0  0  0  0  0
  -30.7503  -17.5888   21.2990 C   0  0  0  0  0  0
  -31.3736  -18.7641   21.7854 C   0  0  0  0  0  0
  -30.8695  -16.3794   22.0217 C   0  0  0  0  0  0
  -32.1386  -18.7084   22.9710 C   0  0  0  0  0  0
  -31.5915  -16.3451   23.2315 C   0  0  0  0  0  0
  -32.2353  -17.5067   23.7006 C   0  0  0  0  0  0
  -29.3557  -24.4353   20.4374 C   0  0  0  0  0  0
  -30.1848  -20.6081   20.6479 C   0  0  0  0  0  0
  -29.1029  -22.9258   20.5228 C   0  0  0  0  0  0
  -28.2383  -25.2784   19.8141 C   0  0  0  0  0  0
  -30.3392  -22.0664   20.1926 C   0  0  2  0  0  0
  -31.2926  -20.0104   21.1130 N   0  0  0  0  0  0
  -30.2421  -15.1977   21.5658 N   0  0  0  0  0  0
  -30.3898  -24.9439   20.8847 O   0  0  0  0  0  0
  -29.0906  -20.0407   20.5676 O   0  0  0  0  0  0
  -32.7623  -19.8248   23.4245 F   0  0  0  0  0  0
  -31.6758  -15.1914   23.9393 F   0  0  0  0  0  0
  -32.9431  -17.4704   24.8553 F   0  0  0  0  0  0
  -30.5817  -22.0911   18.8794 F   0  0  0  0  0  0
  -31.4566  -12.3698   19.0852 H   0  0  0  0  0  0
  -30.3063  -11.2559   19.7527 H   0  0  0  0  0  0
  -29.7091  -11.8243   17.3856 H   0  0  0  0  0  0
  -29.6575  -13.5234   17.7860 H   0  0  0  0  0  0
  -27.7954  -11.3336   18.7705 H   0  0  0  0  0  0
  -27.3553  -12.7035   17.7863 H   0  0  0  0  0  0
  -27.7283  -14.2603   19.6254 H   0  0  0  0  0  0
  -28.6672  -11.8880   21.3007 H   0  0  0  0  0  0
  -28.4634  -13.5013   21.8930 H   0  0  0  0  0  0
  -25.2742   -9.5716   22.4796 H   0  0  0  0  0  0
  -24.0000   -7.4653   22.7481 H   0  0  0  0  0  0
  -21.0854   -8.8773   19.8948 H   0  0  0  0  0  0
  -22.3696  -10.9679   19.6186 H   0  0  0  0  0  0
  -21.1980   -7.6128   23.9744 H   0  0  0  0  0  0
  -21.1497   -6.0495   25.9088 H   0  0  0  0  0  0
  -22.0591   -2.7610   23.2847 H   0  0  0  0  0  0
  -22.3957  -11.9989   22.4840 H   0  0  0  0  0  0
  -21.1037  -13.1382   22.2450 H   0  0  0  0  0  0
  -24.6687  -15.8491   20.5133 H   0  0  0  0  0  0
  -26.2914  -15.6260   20.0948 H   0  0  0  0  0  0
  -26.7143  -32.5512   23.1193 H   0  0  0  0  0  0
  -25.0076  -33.9788   25.0492 H   0  0  0  0  0  0
  -22.6906  -31.3147   21.4223 H   0  0  0  0  0  0
  -23.3764  -35.9618   23.3248 H   0  0  0  0  0  0
  -24.3587  -36.8981   22.2061 H   0  0  0  0  0  0
  -23.7184  -37.6485   23.6684 H   0  0  0  0  0  0
  -26.0637  -31.5973   20.6097 H   0  0  0  0  0  0
  -26.8175  -30.8651   21.9997 H   0  0  0  0  0  0
  -28.0945  -29.0882   21.1593 H   0  0  0  0  0  0
  -25.9885  -26.0060   18.9624 H   0  0  0  0  0  0
  -23.9564  -27.3222   19.0266 H   0  0  0  0  0  0
  -23.7134  -30.6118   19.4129 H   0  0  0  0  0  0
  -22.7282  -29.2563   19.8737 H   0  0  0  0  0  0
  -25.1269  -36.1986   25.0828 H   0  0  0  0  0  0
  -20.9944  -28.3249   24.1442 H   0  0  0  0  0  0
  -20.5707  -26.2294   23.3607 H   0  0  0  0  0  0
  -21.6627  -26.7480   22.1180 H   0  0  0  0  0  0
  -19.6877  -25.6292   21.1253 H   0  0  0  0  0  0
  -19.6655  -27.3216   20.6773 H   0  0  0  0  0  0
  -17.4189  -26.6736   21.4013 H   0  0  0  0  0  0
  -18.0266  -26.0058   22.8995 H   0  0  0  0  0  0
  -19.7907  -30.7303   24.2260 H   0  0  0  0  0  0
  -17.4972  -31.6283   24.5143 H   0  0  0  0  0  0
  -15.5329  -30.2977   23.7649 H   0  0  0  0  0  0
  -15.8656  -28.0804   22.7095 H   0  0  0  0  0  0
  -24.5872  -30.7110   25.7835 H   0  0  0  0  0  0
  -24.8990  -32.2860   26.5054 H   0  0  0  0  0  0
  -25.8089  -30.8785   27.0229 H   0  0  0  0  0  0
  -26.2867  -29.6796   24.1218 H   0  0  0  0  0  0
  -27.3995  -29.7266   25.4680 H   0  0  0  0  0  0
  -27.8727  -30.4305   23.9398 H   0  0  0  0  0  0
  -27.2704  -33.3624   26.2100 H   0  0  0  0  0  0
  -28.3859  -32.6878   25.0325 H   0  0  0  0  0  0
  -28.0747  -31.8445   26.5414 H   0  0  0  0  0  0
  -28.2556  -38.0150   24.7603 H   0  0  0  0  0  0
  -28.1153  -36.2694   24.6135 H   0  0  0  0  0  0
  -27.2333  -37.1275   25.8850 H   0  0  0  0  0  0
  -20.9322  -29.8781   21.6975 H   0  0  0  0  0  0
  -26.0170  -38.2879   24.1480 H   0  0  0  0  0  0
  -30.1877  -17.6122   20.3760 H   0  0  0  0  0  0
  -28.2804  -22.6558   19.8591 H   0  0  0  0  0  0
  -28.7629  -22.7072   21.5352 H   0  0  0  0  0  0
  -27.3009  -24.8866   20.2138 H   0  0  0  0  0  0
  -28.2324  -25.1230   18.7337 H   0  0  0  0  0  0
  -31.2220  -22.4889   20.6736 H   0  0  0  0  0  0
  -32.1112  -20.6012   21.1803 H   0  0  0  0  0  0
  -29.4556  -14.8503   22.0931 H   0  0  0  0  0  0
  1 25  1  0  0  0
  1 30  2  0  0  0
  1 83  1  0  0  0
  2  3  1  0  0  0
  2 25  1  0  0  0
  2 90  1  0  0  0
  2 91  1  0  0  0
  3  4  1  0  0  0
  3 92  1  0  0  0
  3 93  1  0  0  0
  4  5  1  0  0  0
  4 94  1  0  0  0
  4 95  1  0  0  0
  5  6  1  0  0  0
  5 26  1  0  0  0
  5 96  1  0  0  0
  6 25  1  0  0  0
  6 97  1  0  0  0
  6 98  1  0  0  0
  7  8  2  0  0  0
  7 26  1  0  0  0
  7 29  1  0  0  0
  8  9  1  0  0  0
  8 22  1  0  0  0
  9 10  1  0  0  0
  9 27  2  0  0  0
 10 11  2  0  0  0
 10 15  1  0  0  0
 11 12  1  0  0  0
 11 99  1  0  0  0
 12 13  2  0  0  0
 12100  1  0  0  0
 13 14  1  0  0  0
 13 31  1  0  0  0
 14 15  2  0  0  0
 14101  1  0  0  0
 15102  1  0  0  0
 16 17  2  0  0  0
 16 21  1  0  0  0
 16 31  1  0  0  0
 17 18  1  0  0  0
 17103  1  0  0  0
 18 19  2  0  0  0
 18104  1  0  0  0
 19 20  1  0  0  0
 19 24  1  0  0  0
 20 21  2  0  0  0
 20105  1  0  0  0
 21 23  1  0  0  0
 22 28  1  0  0  0
 22 32  2  0  0  0
 26 27  1  0  0  0
 28106  1  0  0  0
 28107  1  0  0  0
 29108  1  0  0  0
 29109  1  0  0  0
 33 34  1  0  0  0
 33 66  1  0  0  0
 33 70  2  0  0  0
 34 36  1  0  0  0
 34 59  1  0  0  0
 34110  1  0  0  0
 35 44  2  0  0  0
 35 45  1  0  0  0
 35 68  1  0  0  0
 36 56  1  0  0  0
 36111  1  0  0  0
 37 39  1  0  0  0
 37 47  1  0  0  0
 37 66  1  0  0  0
 37112  1  0  0  0
 38 43  2  0  0  0
 38 46  1  0  0  0
 38 47  1  0  0  0
 39 64  1  0  0  0
 39 67  2  0  0  0
 40 52  1  0  0  0
 40 53  2  0  0  0
 40 58  1  0  0  0
 41113  1  0  0  0
 41114  1  0  0  0
 41115  1  0  0  0
 41 48  1  0  0  0
 42 43  1  0  0  0
 42 66  1  0  0  0
 42116  1  0  0  0
 42117  1  0  0  0
 43 44  1  0  0  0
 44118  1  0  0  0
 45 46  2  0  0  0
 45119  1  0  0  0
 46120  1  0  0  0
 47121  1  0  0  0
 47122  1  0  0  0
 48 56  1  0  0  0
 48 65  1  0  0  0
 48123  1  0  0  0
 49 50  1  0  0  0
 49 53  1  0  0  0
 49 64  1  0  0  0
 49124  1  0  0  0
 50 51  1  0  0  0
 50125  1  0  0  0
 50126  1  0  0  0
 51 52  1  0  0  0
 51127  1  0  0  0
 51128  1  0  0  0
 52129  1  0  0  0
 52130  1  0  0  0
 53 54  1  0  0  0
 54 55  2  0  0  0
 54131  1  0  0  0
 55 57  1  0  0  0
 55132  1  0  0  0
 56 69  2  0  0  0
 57 58  2  0  0  0
 57133  1  0  0  0
 58134  1  0  0  0
 59 60  1  0  0  0
 59 61  1  0  0  0
 59 62  1  0  0  0
 60135  1  0  0  0
 60136  1  0  0  0
 60137  1  0  0  0
 61138  1  0  0  0
 61139  1  0  0  0
 61140  1  0  0  0
 62141  1  0  0  0
 62142  1  0  0  0
 62143  1  0  0  0
 63 65  1  0  0  0
 63144  1  0  0  0
 63145  1  0  0  0
 63146  1  0  0  0
 64147  1  0  0  0
 65148  1  0  0  0
 68 80  1  0  0  0
 71 72  2  0  0  0
 71 73  1  0  0  0
 71149  1  0  0  0
 72 74  1  0  0  0
 72 82  1  0  0  0
 73 75  2  0  0  0
 73 83  1  0  0  0
 74 76  2  0  0  0
 74 86  1  0  0  0
 75 76  1  0  0  0
 75 87  1  0  0  0
 76 88  1  0  0  0
 77 79  1  0  0  0
 77 80  1  0  0  0
 77 84  2  0  0  0
 78 81  1  0  0  0
 78 82  1  0  0  0
 78 85  2  0  0  0
 79 81  1  0  0  0
 79150  1  0  0  0
 79151  1  0  0  0
 80152  1  0  0  0
 80153  1  0  0  0
 81 89  1  0  0  0
 81154  1  0  0  0
 82155  1  0  0  0
 83156  1  0  0  0
M  ISO  4   1 100  68 101  80 101  83 100
M  END
> <chiral flag>
0

> <version>
0

> <s_m_source_file>
/data/baiqing/PycharmProjects/Reinvent-master-3.2/result/LINK_invent/BTK/process_docking_weight1_custom_product_contain_oxygen_bond_distance_aromatic_linkinvent_7_9_3/rearranged_h_0176.sdf

> <i_m_source_file_index>
60

> <r_mmod_Potential_Energy-OPLS-2005>
-125.51114654541

> <r_mmod_Stretch_Energy-OPLS-2005>
34.0140380859375

> <r_mmod_Bend_Energy-OPLS-2005>
89.7264633178711

> <r_mmod_Torsional_Energy-OPLS-2005>
243.32958984375

> <r_mmod_Improper_Torsional_Energy-OPLS-2005>
2.9714469909668

> <r_mmod_Van_der_Waal_Energy-OPLS-2005>
162.570770263672

> <r_mmod_Electrostatic_Energy-OPLS-2005>
-433.68701171875

> <r_mmod_Solvation_Energy-OPLS-2005>
-234.01057434082

> <b_mmod_Minimization_Converged-OPLS-2005>
0

> <r_mmod_RMS_Derivative-OPLS-2005>
2.88530087471008

$$$$
60
                    3D
 Structure written by MMmdl.
154162  0  0  1  0            999 V2000
  -30.6563  -14.5339   20.5730 C   0  0  0  0  0  0
  -30.4416  -12.3448   19.4279 C   0  0  0  0  0  0
  -29.5058  -12.5206   18.2115 C   0  0  0  0  0  0
  -28.0248  -12.3743   18.6184 C   0  0  0  0  0  0
  -27.6636  -13.2073   19.8786 C   0  0  2  0  0  0
  -28.7075  -12.9810   20.9966 C   0  0  0  0  0  0
  -25.2599  -13.8157   20.5691 C   0  0  0  0  0  0
  -24.1849  -13.0424   20.9173 C   0  0  0  0  0  0
  -24.6400  -11.6895   20.8719 C   0  0  0  0  0  0
  -23.9058  -10.4291   21.0394 C   0  0  0  0  0  0
  -24.3610   -9.4211   21.9178 C   0  0  0  0  0  0
  -23.6296   -8.2241   22.0755 C   0  0  0  0  0  0
  -22.4275   -8.0280   21.3554 C   0  0  0  0  0  0
  -21.9899   -9.0242   20.4646 C   0  0  0  0  0  0
  -22.7221  -10.2134   20.3054 C   0  0  0  0  0  0
  -21.6855   -6.0739   22.5279 C   0  0  0  0  0  0
  -21.4012   -6.5635   23.8209 C   0  0  0  0  0  0
  -21.3663   -5.6788   24.9169 C   0  0  0  0  0  0
  -21.6045   -4.3054   24.7218 C   0  0  0  0  0  0
  -21.8812   -3.8148   23.4335 C   0  0  0  0  0  0
  -21.9191   -4.6967   22.3396 C   0  0  0  0  0  0
  -22.7876  -13.5236   21.1826 C   0  0  0  0  0  0
  -22.1655   -4.2154   21.0972 F   0  0  0  0  0  0
  -21.5633   -3.4532   25.7727 F   0  0  0  0  0  0
  -30.0348  -13.3234   20.4512 N   0  0  0  0  0  0
  -26.3042  -12.9320   20.3385 N   0  0  0  0  0  0
  -25.9334  -11.6479   20.5766 N   0  0  0  0  0  0
  -22.0504  -12.8262   22.0402 N   0  0  0  0  0  0
  -25.4303  -15.1875   20.4106 N   0  0  0  0  0  0
  -31.7771  -14.7541   20.1010 O   0  0  0  0  0  0
  -21.6643   -6.8886   21.4248 O   0  0  0  0  0  0
  -22.3579  -14.5548   20.6676 O   0  0  0  0  0  0
  -24.6226  -31.8643   23.2065 C   0  0  0  0  0  0
  -25.9100  -32.4809   23.8371 C   0  0  1  0  0  0
  -27.2316  -27.3671   20.1057 C   0  0  0  0  0  0
  -25.5954  -33.8603   24.2305 N   0  0  0  0  0  0
  -23.4144  -30.4901   21.5470 C   0  0  2  0  0  0
  -24.8632  -28.9578   20.1088 C   0  0  0  0  0  0
  -22.7455  -29.4646   22.4935 C   0  0  0  0  0  0
  -18.0275  -28.1416   22.8486 C   0  0  0  0  0  0
  -24.1492  -36.7277   23.2636 C   0  0  0  0  0  0
  -25.9528  -30.8122   21.3715 C   0  0  0  0  0  0
  -26.0294  -29.4437   20.7127 C   0  0  0  0  0  0
  -27.2166  -28.6595   20.7033 C   0  0  0  0  0  0
  -26.0393  -26.9259   19.4789 C   0  0  0  0  0  0
  -24.8685  -27.7022   19.4865 C   0  0  0  0  0  0
  -23.6273  -29.8303   20.1599 C   0  0  0  0  0  0
  -25.4117  -36.3092   24.0325 C   0  0  1  0  0  0
  -20.5882  -28.3690   23.1296 C   0  0  2  0  0  0
  -20.6777  -26.9421   22.5417 C   0  0  0  0  0  0
  -19.5751  -26.6406   21.5230 C   0  0  0  0  0  0
  -18.1929  -26.7961   22.1635 C   0  0  0  0  0  0
  -19.1536  -28.8864   23.2895 C   0  0  0  0  0  0
  -18.9461  -30.1473   23.8902 C   0  0  0  0  0  0
  -17.6463  -30.6609   24.0573 C   0  0  0  0  0  0
  -25.9053  -34.9461   23.5107 C   0  0  0  0  0  0
  -16.5350  -29.9111   23.6352 C   0  0  0  0  0  0
  -16.7267  -28.6543   23.0344 C   0  0  0  0  0  0
  -26.4493  -31.6609   25.0729 C   0  0  0  0  0  0
  -25.3736  -31.3737   26.1469 C   0  0  0  0  0  0
  -27.0330  -30.3036   24.6176 C   0  0  0  0  0  0
  -27.6073  -32.4323   25.7497 C   0  0  0  0  0  0
  -27.5574  -37.1791   24.8462 C   0  0  0  0  0  0
  -21.4170  -29.3047   22.3686 N   0  0  0  0  0  0
  -26.4283  -37.3787   23.9419 N   0  0  0  0  0  0
  -24.6815  -31.0701   22.0993 N   0  0  0  0  0  0
  -23.4203  -28.8174   23.2978 O   0  0  0  0  0  0
  -28.3647  -26.5497   20.1580 O   0  0  0  0  0  0
  -26.5597  -34.8914   22.4660 O   0  0  0  0  0  0
  -23.5405  -32.1420   23.7433 O   0  0  0  0  0  0
  -30.1295  -19.1638   20.8592 C   0  0  0  0  0  0
  -30.0697  -19.2022   22.2414 C   0  0  0  0  0  0
  -30.1255  -16.8907   21.3545 C   0  0  0  0  0  0
  -29.2585  -24.1349   20.3229 C   0  0  0  0  0  0
  -29.2006  -22.6704   19.7120 C   0  0  0  0  0  0
  -31.5650  -20.3541   19.1647 C   0  0  0  0  0  0
  -28.1608  -25.1323   19.8379 C   0  0  0  0  0  0
  -30.1886  -20.3319   19.8533 C   0  0  2  0  0  0
  -30.1395  -17.8235   20.3791 N   0  0  0  0  0  0
  -29.9837  -20.2943   23.0989 N   0  0  0  0  0  0
  -29.9006  -15.4903   21.1572 N   0  0  0  0  0  0
  -29.9039  -21.7068   20.3631 N   0  0  0  0  0  0
  -30.1186  -24.4674   21.1496 O   0  0  0  0  0  0
  -28.5733  -22.4383   18.6738 O   0  0  0  0  0  0
  -30.0691  -17.6036   22.9558 S   0  0  0  0  0  0
  -31.4825  -12.4728   19.1236 H   0  0  0  0  0  0
  -30.3707  -11.3310   19.8256 H   0  0  0  0  0  0
  -29.7544  -11.7905   17.4397 H   0  0  0  0  0  0
  -29.6677  -13.5042   17.7665 H   0  0  0  0  0  0
  -27.8365  -11.3170   18.8064 H   0  0  0  0  0  0
  -27.3792  -12.6553   17.7856 H   0  0  0  0  0  0
  -27.7049  -14.2577   19.5915 H   0  0  0  0  0  0
  -28.6996  -11.9362   21.3112 H   0  0  0  0  0  0
  -28.4573  -13.5497   21.8937 H   0  0  0  0  0  0
  -25.2742   -9.5703   22.4760 H   0  0  0  0  0  0
  -23.9989   -7.4649   22.7477 H   0  0  0  0  0  0
  -21.0818   -8.8760   19.8968 H   0  0  0  0  0  0
  -22.3648  -10.9674   19.6173 H   0  0  0  0  0  0
  -21.2008   -7.6145   23.9711 H   0  0  0  0  0  0
  -21.1499   -6.0522   25.9072 H   0  0  0  0  0  0
  -22.0597   -2.7610   23.2823 H   0  0  0  0  0  0
  -22.4080  -11.9909   22.4806 H   0  0  0  0  0  0
  -21.1135  -13.1348   22.2601 H   0  0  0  0  0  0
  -24.6611  -15.8397   20.5231 H   0  0  0  0  0  0
  -26.2804  -15.6305   20.0847 H   0  0  0  0  0  0
  -26.7172  -32.5497   23.1124 H   0  0  0  0  0  0
  -25.0136  -33.9764   25.0476 H   0  0  0  0  0  0
  -22.7061  -31.3090   21.4060 H   0  0  0  0  0  0
  -23.3764  -35.9601   23.3319 H   0  0  0  0  0  0
  -24.3587  -36.8885   22.2048 H   0  0  0  0  0  0
  -23.7225  -37.6473   23.6644 H   0  0  0  0  0  0
  -26.0814  -31.5828   20.6104 H   0  0  0  0  0  0
  -26.8330  -30.8554   22.0006 H   0  0  0  0  0  0
  -28.1127  -29.0305   21.1816 H   0  0  0  0  0  0
  -25.9768  -25.9721   18.9772 H   0  0  0  0  0  0
  -23.9740  -27.3272   19.0084 H   0  0  0  0  0  0
  -23.7396  -30.6104   19.4057 H   0  0  0  0  0  0
  -22.7510  -29.2567   19.8537 H   0  0  0  0  0  0
  -25.1298  -36.1936   25.0809 H   0  0  0  0  0  0
  -20.9978  -28.3274   24.1412 H   0  0  0  0  0  0
  -20.5716  -26.2294   23.3600 H   0  0  0  0  0  0
  -21.6638  -26.7481   22.1186 H   0  0  0  0  0  0
  -19.6915  -25.6323   21.1247 H   0  0  0  0  0  0
  -19.6706  -27.3228   20.6770 H   0  0  0  0  0  0
  -17.4198  -26.6707   21.4034 H   0  0  0  0  0  0
  -18.0318  -26.0113   22.9036 H   0  0  0  0  0  0
  -19.7933  -30.7295   24.2283 H   0  0  0  0  0  0
  -17.5017  -31.6296   24.5170 H   0  0  0  0  0  0
  -15.5358  -30.3012   23.7696 H   0  0  0  0  0  0
  -15.8667  -28.0885   22.7033 H   0  0  0  0  0  0
  -24.5939  -30.7052   25.7808 H   0  0  0  0  0  0
  -24.8881  -32.2886   26.4867 H   0  0  0  0  0  0
  -25.8069  -30.8951   27.0262 H   0  0  0  0  0  0
  -26.2891  -29.6799   24.1208 H   0  0  0  0  0  0
  -27.4040  -29.7287   25.4675 H   0  0  0  0  0  0
  -27.8760  -30.4336   23.9385 H   0  0  0  0  0  0
  -27.2716  -33.3636   26.2066 H   0  0  0  0  0  0
  -28.3885  -32.6864   25.0320 H   0  0  0  0  0  0
  -28.0737  -31.8444   26.5418 H   0  0  0  0  0  0
  -28.2589  -38.0097   24.7541 H   0  0  0  0  0  0
  -28.1070  -36.2625   24.6252 H   0  0  0  0  0  0
  -27.2286  -37.1390   25.8864 H   0  0  0  0  0  0
  -20.9338  -29.8761   21.6894 H   0  0  0  0  0  0
  -26.0167  -38.2850   24.1476 H   0  0  0  0  0  0
  -32.3674  -20.4869   19.8905 H   0  0  0  0  0  0
  -31.6403  -21.1599   18.4348 H   0  0  0  0  0  0
  -31.7586  -19.4188   18.6366 H   0  0  0  0  0  0
  -27.2368  -24.7825   20.2985 H   0  0  0  0  0  0
  -28.0455  -25.0226   18.7596 H   0  0  0  0  0  0
  -29.4526  -20.1095   19.0783 H   0  0  0  0  0  0
  -29.3441  -21.0297   22.8157 H   0  0  0  0  0  0
  -29.8278  -20.0724   24.0779 H   0  0  0  0  0  0
  -29.0729  -15.1281   21.6020 H   0  0  0  0  0  0
  -30.3788  -21.9881   21.2127 H   0  0  0  0  0  0
  1 25  1  0  0  0
  1 30  2  0  0  0
  1 81  1  0  0  0
  2  3  1  0  0  0
  2 25  1  0  0  0
  2 86  1  0  0  0
  2 87  1  0  0  0
  3  4  1  0  0  0
  3 88  1  0  0  0
  3 89  1  0  0  0
  4  5  1  0  0  0
  4 90  1  0  0  0
  4 91  1  0  0  0
  5  6  1  0  0  0
  5 26  1  0  0  0
  5 92  1  0  0  0
  6 25  1  0  0  0
  6 93  1  0  0  0
  6 94  1  0  0  0
  7  8  2  0  0  0
  7 26  1  0  0  0
  7 29  1  0  0  0
  8  9  1  0  0  0
  8 22  1  0  0  0
  9 10  1  0  0  0
  9 27  2  0  0  0
 10 11  2  0  0  0
 10 15  1  0  0  0
 11 12  1  0  0  0
 11 95  1  0  0  0
 12 13  2  0  0  0
 12 96  1  0  0  0
 13 14  1  0  0  0
 13 31  1  0  0  0
 14 15  2  0  0  0
 14 97  1  0  0  0
 15 98  1  0  0  0
 16 17  2  0  0  0
 16 21  1  0  0  0
 16 31  1  0  0  0
 17 18  1  0  0  0
 17 99  1  0  0  0
 18 19  2  0  0  0
 18100  1  0  0  0
 19 20  1  0  0  0
 19 24  1  0  0  0
 20 21  2  0  0  0
 20101  1  0  0  0
 21 23  1  0  0  0
 22 28  1  0  0  0
 22 32  2  0  0  0
 26 27  1  0  0  0
 28102  1  0  0  0
 28103  1  0  0  0
 29104  1  0  0  0
 29105  1  0  0  0
 33 34  1  0  0  0
 33 66  1  0  0  0
 33 70  2  0  0  0
 34 36  1  0  0  0
 34 59  1  0  0  0
 34106  1  0  0  0
 35 44  2  0  0  0
 35 45  1  0  0  0
 35 68  1  0  0  0
 36 56  1  0  0  0
 36107  1  0  0  0
 37 39  1  0  0  0
 37 47  1  0  0  0
 37 66  1  0  0  0
 37108  1  0  0  0
 38 43  2  0  0  0
 38 46  1  0  0  0
 38 47  1  0  0  0
 39 64  1  0  0  0
 39 67  2  0  0  0
 40 52  1  0  0  0
 40 53  2  0  0  0
 40 58  1  0  0  0
 41109  1  0  0  0
 41110  1  0  0  0
 41111  1  0  0  0
 41 48  1  0  0  0
 42 43  1  0  0  0
 42 66  1  0  0  0
 42112  1  0  0  0
 42113  1  0  0  0
 43 44  1  0  0  0
 44114  1  0  0  0
 45 46  2  0  0  0
 45115  1  0  0  0
 46116  1  0  0  0
 47117  1  0  0  0
 47118  1  0  0  0
 48 56  1  0  0  0
 48 65  1  0  0  0
 48119  1  0  0  0
 49 50  1  0  0  0
 49 53  1  0  0  0
 49 64  1  0  0  0
 49120  1  0  0  0
 50 51  1  0  0  0
 50121  1  0  0  0
 50122  1  0  0  0
 51 52  1  0  0  0
 51123  1  0  0  0
 51124  1  0  0  0
 52125  1  0  0  0
 52126  1  0  0  0
 53 54  1  0  0  0
 54 55  2  0  0  0
 54127  1  0  0  0
 55 57  1  0  0  0
 55128  1  0  0  0
 56 69  2  0  0  0
 57 58  2  0  0  0
 57129  1  0  0  0
 58130  1  0  0  0
 59 60  1  0  0  0
 59 61  1  0  0  0
 59 62  1  0  0  0
 60131  1  0  0  0
 60132  1  0  0  0
 60133  1  0  0  0
 61134  1  0  0  0
 61135  1  0  0  0
 61136  1  0  0  0
 62137  1  0  0  0
 62138  1  0  0  0
 62139  1  0  0  0
 63 65  1  0  0  0
 63140  1  0  0  0
 63141  1  0  0  0
 63142  1  0  0  0
 64143  1  0  0  0
 65144  1  0  0  0
 68 77  1  0  0  0
 71 72  2  0  0  0
 71 78  1  0  0  0
 71 79  1  0  0  0
 72 80  1  0  0  0
 72 85  1  0  0  0
 73 79  2  0  0  0
 73 81  1  0  0  0
 73 85  1  0  0  0
 74 75  1  0  0  0
 74 77  1  0  0  0
 74 83  2  0  0  0
 75 82  1  0  0  0
 75 84  2  0  0  0
 76145  1  0  0  0
 76146  1  0  0  0
 76147  1  0  0  0
 76 78  1  0  0  0
 77148  1  0  0  0
 77149  1  0  0  0
 78 82  1  0  0  0
 78150  1  0  0  0
 80151  1  0  0  0
 80152  1  0  0  0
 81153  1  0  0  0
 82154  1  0  0  0
M  ISO  4   1 100  68 101  77 101  81 100
M  END
> <chiral flag>
0

> <version>
0

> <s_m_source_file>
/data/baiqing/PycharmProjects/Reinvent-master-3.2/result/LINK_invent/BTK/process_docking_weight1_custom_product_contain_oxygen_bond_distance_aromatic_linkinvent_7_9_3/rearranged_h_0176.sdf

> <i_m_source_file_index>
61

> <r_mmod_Potential_Energy-OPLS-2005>
-27.9691982269287

> <r_mmod_Stretch_Energy-OPLS-2005>
57.1374549865723

> <r_mmod_Bend_Energy-OPLS-2005>
119.121925354004

> <r_mmod_Torsional_Energy-OPLS-2005>
214.557479858398

> <r_mmod_Improper_Torsional_Energy-OPLS-2005>
9.50502777099609

> <r_mmod_Van_der_Waal_Energy-OPLS-2005>
129.859436035156

> <r_mmod_Electrostatic_Energy-OPLS-2005>
-328.438110351562

> <r_mmod_Solvation_Energy-OPLS-2005>
-255.223114013672

> <b_mmod_Minimization_Converged-OPLS-2005>
0

> <r_mmod_RMS_Derivative-OPLS-2005>
2.52134442329407

$$$$
61
                    3D
 Structure written by MMmdl.
158166  0  0  1  0            999 V2000
  -30.7297  -14.4002   20.6295 C   0  0  0  0  0  0
  -30.4212  -12.2839   19.4011 C   0  0  0  0  0  0
  -29.4883  -12.5140   18.1947 C   0  0  0  0  0  0
  -28.0103  -12.3760   18.6106 C   0  0  0  0  0  0
  -27.6660  -13.2006   19.8802 C   0  0  2  0  0  0
  -28.7053  -12.9369   20.9928 C   0  0  0  0  0  0
  -25.2617  -13.8159   20.5694 C   0  0  0  0  0  0
  -24.1839  -13.0449   20.9143 C   0  0  0  0  0  0
  -24.6378  -11.6908   20.8712 C   0  0  0  0  0  0
  -23.9047  -10.4298   21.0394 C   0  0  0  0  0  0
  -24.3601   -9.4214   21.9174 C   0  0  0  0  0  0
  -23.6281   -8.2249   22.0745 C   0  0  0  0  0  0
  -22.4266   -8.0282   21.3536 C   0  0  0  0  0  0
  -21.9900   -9.0254   20.4640 C   0  0  0  0  0  0
  -22.7221  -10.2138   20.3049 C   0  0  0  0  0  0
  -21.6853   -6.0735   22.5280 C   0  0  0  0  0  0
  -21.4008   -6.5637   23.8214 C   0  0  0  0  0  0
  -21.3661   -5.6789   24.9175 C   0  0  0  0  0  0
  -21.6049   -4.3054   24.7225 C   0  0  0  0  0  0
  -21.8814   -3.8147   23.4345 C   0  0  0  0  0  0
  -21.9184   -4.6964   22.3401 C   0  0  0  0  0  0
  -22.7869  -13.5268   21.1824 C   0  0  0  0  0  0
  -22.1656   -4.2147   21.0979 F   0  0  0  0  0  0
  -21.5635   -3.4538   25.7738 F   0  0  0  0  0  0
  -30.0448  -13.2395   20.4528 N   0  0  0  0  0  0
  -26.3049  -12.9317   20.3399 N   0  0  0  0  0  0
  -25.9304  -11.6482   20.5754 N   0  0  0  0  0  0
  -22.0499  -12.8283   22.0392 N   0  0  0  0  0  0
  -25.4392  -15.1883   20.4195 N   0  0  0  0  0  0
  -31.8184  -14.6246   20.0873 O   0  0  0  0  0  0
  -21.6634   -6.8877   21.4239 O   0  0  0  0  0  0
  -22.3560  -14.5574   20.6674 O   0  0  0  0  0  0
  -24.6115  -31.8707   23.2121 C   0  0  0  0  0  0
  -25.9020  -32.4839   23.8404 C   0  0  1  0  0  0
  -27.2360  -27.4681   20.0901 C   0  0  0  0  0  0
  -25.5890  -33.8632   24.2340 N   0  0  0  0  0  0
  -23.3979  -30.4941   21.5527 C   0  0  2  0  0  0
  -24.8439  -28.9600   20.1199 C   0  0  0  0  0  0
  -22.7396  -29.4666   22.5006 C   0  0  0  0  0  0
  -18.0286  -28.1353   22.8497 C   0  0  0  0  0  0
  -24.1489  -36.7316   23.2637 C   0  0  0  0  0  0
  -25.9228  -30.8460   21.3603 C   0  0  0  0  0  0
  -26.0017  -29.4816   20.7102 C   0  0  0  0  0  0
  -27.2037  -28.7438   20.6897 C   0  0  0  0  0  0
  -26.0624  -26.9481   19.5043 C   0  0  0  0  0  0
  -24.8667  -27.6908   19.5157 C   0  0  0  0  0  0
  -23.6038  -29.8228   20.1683 C   0  0  0  0  0  0
  -25.4106  -36.3118   24.0342 C   0  0  1  0  0  0
  -20.5871  -28.3637   23.1343 C   0  0  2  0  0  0
  -20.6760  -26.9373   22.5422 C   0  0  0  0  0  0
  -19.5757  -26.6399   21.5178 C   0  0  0  0  0  0
  -18.1933  -26.7924   22.1579 C   0  0  0  0  0  0
  -19.1531  -28.8805   23.2932 C   0  0  0  0  0  0
  -18.9458  -30.1415   23.8933 C   0  0  0  0  0  0
  -17.6462  -30.6568   24.0548 C   0  0  0  0  0  0
  -25.9030  -34.9484   23.5139 C   0  0  0  0  0  0
  -16.5356  -29.9063   23.6309 C   0  0  0  0  0  0
  -16.7275  -28.6476   23.0345 C   0  0  0  0  0  0
  -26.4464  -31.6601   25.0714 C   0  0  0  0  0  0
  -25.3745  -31.3693   26.1475 C   0  0  0  0  0  0
  -27.0294  -30.3055   24.6050 C   0  0  0  0  0  0
  -27.6059  -32.4297   25.7469 C   0  0  0  0  0  0
  -27.5583  -37.1809   24.8470 C   0  0  0  0  0  0
  -21.4125  -29.3026   22.3759 N   0  0  0  0  0  0
  -26.4297  -37.3794   23.9409 N   0  0  0  0  0  0
  -24.6619  -31.0842   22.1008 N   0  0  0  0  0  0
  -23.4193  -28.8207   23.3029 O   0  0  0  0  0  0
  -28.4135  -26.7637   20.0534 O   0  0  0  0  0  0
  -26.5587  -34.8927   22.4701 O   0  0  0  0  0  0
  -23.5319  -32.1441   23.7538 O   0  0  0  0  0  0
  -31.5249  -18.6162   21.6536 C   0  0  0  0  0  0
  -29.1892  -17.4787   20.9947 C   0  0  0  0  0  0
  -30.3012  -16.6973   21.3603 C   0  0  0  0  0  0
  -29.3723  -18.8677   20.9705 C   0  0  0  0  0  0
  -27.7157  -22.0856   20.5284 C   0  0  0  0  0  0
  -28.2260  -24.3155   20.0590 C   0  0  0  0  0  0
  -26.7308  -21.8806   19.3706 C   0  0  0  0  0  0
  -28.4478  -25.5966   20.8781 C   0  0  0  0  0  0
  -28.0015  -20.8336   21.3631 C   0  0  1  0  0  0
  -26.8676  -20.4732   22.3547 C   0  0  0  0  0  0
  -31.4670  -17.2875   21.7074 N   0  0  0  0  0  0
  -30.5410  -19.4389   21.2988 N   0  0  0  0  0  0
  -28.3120  -23.1765   20.8461 N   0  0  0  0  0  0
  -30.0954  -15.3033   21.3869 N   0  0  0  0  0  0
  -28.3415  -19.6873   20.5204 N   0  0  0  0  0  0
  -28.0180  -24.3866   18.8453 O   0  0  0  0  0  0
  -28.0020  -16.9150   20.6548 F   0  0  0  0  0  0
  -26.5557  -21.5101   23.1324 F   0  0  0  0  0  0
  -27.2723  -19.4735   23.1395 F   0  0  0  0  0  0
  -25.7737  -20.0686   21.7080 F   0  0  0  0  0  0
  -31.4661  -12.3795   19.1001 H   0  0  0  0  0  0
  -30.3161  -11.2639   19.7725 H   0  0  0  0  0  0
  -29.7211  -11.8031   17.4003 H   0  0  0  0  0  0
  -29.6611  -13.5063   17.7752 H   0  0  0  0  0  0
  -27.8140  -11.3181   18.7930 H   0  0  0  0  0  0
  -27.3594  -12.6654   17.7854 H   0  0  0  0  0  0
  -27.7232  -14.2546   19.6063 H   0  0  0  0  0  0
  -28.6719  -11.8880   21.2908 H   0  0  0  0  0  0
  -28.4599  -13.4917   21.8990 H   0  0  0  0  0  0
  -25.2744   -9.5699   22.4753 H   0  0  0  0  0  0
  -23.9991   -7.4647   22.7477 H   0  0  0  0  0  0
  -21.0827   -8.8775   19.8955 H   0  0  0  0  0  0
  -22.3673  -10.9676   19.6166 H   0  0  0  0  0  0
  -21.1996   -7.6143   23.9720 H   0  0  0  0  0  0
  -21.1495   -6.0514   25.9078 H   0  0  0  0  0  0
  -22.0591   -2.7607   23.2844 H   0  0  0  0  0  0
  -22.4071  -11.9933   22.4797 H   0  0  0  0  0  0
  -21.1131  -13.1356   22.2587 H   0  0  0  0  0  0
  -24.6788  -15.8460   20.5452 H   0  0  0  0  0  0
  -26.3241  -15.6448   20.2264 H   0  0  0  0  0  0
  -26.7094  -32.5568   23.1173 H   0  0  0  0  0  0
  -25.0063  -33.9799   25.0501 H   0  0  0  0  0  0
  -22.6859  -31.3096   21.4131 H   0  0  0  0  0  0
  -23.3745  -35.9656   23.3320 H   0  0  0  0  0  0
  -24.3588  -36.8906   22.2048 H   0  0  0  0  0  0
  -23.7245  -37.6532   23.6632 H   0  0  0  0  0  0
  -26.0302  -31.6124   20.5915 H   0  0  0  0  0  0
  -26.8126  -30.9014   21.9757 H   0  0  0  0  0  0
  -28.1034  -29.1472   21.1326 H   0  0  0  0  0  0
  -26.0655  -25.9810   19.0247 H   0  0  0  0  0  0
  -23.9768  -27.2831   19.0563 H   0  0  0  0  0  0
  -23.7068  -30.5943   19.4050 H   0  0  0  0  0  0
  -22.7297  -29.2374   19.8777 H   0  0  0  0  0  0
  -25.1279  -36.1993   25.0836 H   0  0  0  0  0  0
  -20.9980  -28.3198   24.1461 H   0  0  0  0  0  0
  -20.5620  -26.2224   23.3585 H   0  0  0  0  0  0
  -21.6639  -26.7395   22.1239 H   0  0  0  0  0  0
  -19.6704  -27.3254   20.6741 H   0  0  0  0  0  0
  -19.6923  -25.6330   21.1153 H   0  0  0  0  0  0
  -17.4218  -26.6704   21.3960 H   0  0  0  0  0  0
  -18.0314  -26.0028   22.8934 H   0  0  0  0  0  0
  -19.7940  -30.7206   24.2326 H   0  0  0  0  0  0
  -17.5018  -31.6265   24.5109 H   0  0  0  0  0  0
  -15.5348  -30.2976   23.7594 H   0  0  0  0  0  0
  -15.8675  -28.0801   22.7057 H   0  0  0  0  0  0
  -24.5899  -30.7058   25.7817 H   0  0  0  0  0  0
  -24.8952  -32.2846   26.4959 H   0  0  0  0  0  0
  -25.8111  -30.8835   27.0211 H   0  0  0  0  0  0
  -26.2827  -29.6808   24.1129 H   0  0  0  0  0  0
  -27.4131  -29.7288   25.4478 H   0  0  0  0  0  0
  -27.8631  -30.4403   23.9148 H   0  0  0  0  0  0
  -27.2695  -33.3571   26.2109 H   0  0  0  0  0  0
  -28.3835  -32.6890   25.0270 H   0  0  0  0  0  0
  -28.0761  -31.8373   26.5325 H   0  0  0  0  0  0
  -28.2614  -38.0094   24.7499 H   0  0  0  0  0  0
  -28.1064  -36.2626   24.6313 H   0  0  0  0  0  0
  -27.2304  -37.1483   25.8874 H   0  0  0  0  0  0
  -20.9271  -29.8794   21.7032 H   0  0  0  0  0  0
  -26.0198  -38.2883   24.1393 H   0  0  0  0  0  0
  -32.4669  -19.0731   21.9169 H   0  0  0  0  0  0
  -26.2191  -20.9231   19.4396 H   0  0  0  0  0  0
  -27.2569  -21.9031   18.4168 H   0  0  0  0  0  0
  -25.9638  -22.6553   19.3713 H   0  0  0  0  0  0
  -29.4309  -25.5435   21.3477 H   0  0  0  0  0  0
  -27.7156  -25.6487   21.6868 H   0  0  0  0  0  0
  -28.8596  -21.0842   21.9887 H   0  0  0  0  0  0
  -29.1764  -15.0186   21.6824 H   0  0  0  0  0  0
  -27.5247  -19.1317   20.2987 H   0  0  0  0  0  0
  1 25  1  0  0  0
  1 30  2  0  0  0
  1 84  1  0  0  0
  2  3  1  0  0  0
  2 25  1  0  0  0
  2 91  1  0  0  0
  2 92  1  0  0  0
  3  4  1  0  0  0
  3 93  1  0  0  0
  3 94  1  0  0  0
  4  5  1  0  0  0
  4 95  1  0  0  0
  4 96  1  0  0  0
  5  6  1  0  0  0
  5 26  1  0  0  0
  5 97  1  0  0  0
  6 25  1  0  0  0
  6 98  1  0  0  0
  6 99  1  0  0  0
  7  8  2  0  0  0
  7 26  1  0  0  0
  7 29  1  0  0  0
  8  9  1  0  0  0
  8 22  1  0  0  0
  9 10  1  0  0  0
  9 27  2  0  0  0
 10 11  2  0  0  0
 10 15  1  0  0  0
 11 12  1  0  0  0
 11100  1  0  0  0
 12 13  2  0  0  0
 12101  1  0  0  0
 13 14  1  0  0  0
 13 31  1  0  0  0
 14 15  2  0  0  0
 14102  1  0  0  0
 15103  1  0  0  0
 16 17  2  0  0  0
 16 21  1  0  0  0
 16 31  1  0  0  0
 17 18  1  0  0  0
 17104  1  0  0  0
 18 19  2  0  0  0
 18105  1  0  0  0
 19 20  1  0  0  0
 19 24  1  0  0  0
 20 21  2  0  0  0
 20106  1  0  0  0
 21 23  1  0  0  0
 22 28  1  0  0  0
 22 32  2  0  0  0
 26 27  1  0  0  0
 28107  1  0  0  0
 28108  1  0  0  0
 29109  1  0  0  0
 29110  1  0  0  0
 33 34  1  0  0  0
 33 66  1  0  0  0
 33 70  2  0  0  0
 34 36  1  0  0  0
 34 59  1  0  0  0
 34111  1  0  0  0
 35 44  2  0  0  0
 35 45  1  0  0  0
 35 68  1  0  0  0
 36 56  1  0  0  0
 36112  1  0  0  0
 37 39  1  0  0  0
 37 47  1  0  0  0
 37 66  1  0  0  0
 37113  1  0  0  0
 38 43  2  0  0  0
 38 46  1  0  0  0
 38 47  1  0  0  0
 39 64  1  0  0  0
 39 67  2  0  0  0
 40 52  1  0  0  0
 40 53  2  0  0  0
 40 58  1  0  0  0
 41114  1  0  0  0
 41115  1  0  0  0
 41116  1  0  0  0
 41 48  1  0  0  0
 42 43  1  0  0  0
 42 66  1  0  0  0
 42117  1  0  0  0
 42118  1  0  0  0
 43 44  1  0  0  0
 44119  1  0  0  0
 45 46  2  0  0  0
 45120  1  0  0  0
 46121  1  0  0  0
 47122  1  0  0  0
 47123  1  0  0  0
 48 56  1  0  0  0
 48 65  1  0  0  0
 48124  1  0  0  0
 49 50  1  0  0  0
 49 53  1  0  0  0
 49 64  1  0  0  0
 49125  1  0  0  0
 50 51  1  0  0  0
 50126  1  0  0  0
 50127  1  0  0  0
 51 52  1  0  0  0
 51128  1  0  0  0
 51129  1  0  0  0
 52130  1  0  0  0
 52131  1  0  0  0
 53 54  1  0  0  0
 54 55  2  0  0  0
 54132  1  0  0  0
 55 57  1  0  0  0
 55133  1  0  0  0
 56 69  2  0  0  0
 57 58  2  0  0  0
 57134  1  0  0  0
 58135  1  0  0  0
 59 60  1  0  0  0
 59 61  1  0  0  0
 59 62  1  0  0  0
 60136  1  0  0  0
 60137  1  0  0  0
 60138  1  0  0  0
 61139  1  0  0  0
 61140  1  0  0  0
 61141  1  0  0  0
 62142  1  0  0  0
 62143  1  0  0  0
 62144  1  0  0  0
 63 65  1  0  0  0
 63145  1  0  0  0
 63146  1  0  0  0
 63147  1  0  0  0
 64148  1  0  0  0
 65149  1  0  0  0
 68 78  1  0  0  0
 71 81  2  0  0  0
 71 82  1  0  0  0
 71150  1  0  0  0
 72 73  2  0  0  0
 72 74  1  0  0  0
 72 87  1  0  0  0
 73 81  1  0  0  0
 73 84  1  0  0  0
 74 82  2  0  0  0
 74 85  1  0  0  0
 75 77  1  0  0  0
 75 79  1  0  0  0
 75 83  2  0  0  0
 76 78  1  0  0  0
 76 83  1  0  0  0
 76 86  2  0  0  0
 77151  1  0  0  0
 77152  1  0  0  0
 77153  1  0  0  0
 78154  1  0  0  0
 78155  1  0  0  0
 79 80  1  0  0  0
 79 85  1  0  0  0
 79156  1  0  0  0
 80 88  1  0  0  0
 80 89  1  0  0  0
 80 90  1  0  0  0
 84157  1  0  0  0
 85158  1  0  0  0
M  ISO  4   1 100  68 101  78 101  84 100
M  END
> <chiral flag>
0

> <version>
0

> <s_m_source_file>
/data/baiqing/PycharmProjects/Reinvent-master-3.2/result/LINK_invent/BTK/process_docking_weight1_custom_product_contain_oxygen_bond_distance_aromatic_linkinvent_7_9_3/rearranged_h_0176.sdf

> <i_m_source_file_index>
62

> <r_mmod_Potential_Energy-OPLS-2005>
-468.161834716797

> <r_mmod_Stretch_Energy-OPLS-2005>
33.9662780761719

> <r_mmod_Bend_Energy-OPLS-2005>
110.92748260498

> <r_mmod_Torsional_Energy-OPLS-2005>
260.150909423828

> <r_mmod_Improper_Torsional_Energy-OPLS-2005>
9.09182262420654

> <r_mmod_Van_der_Waal_Energy-OPLS-2005>
179.376724243164

> <r_mmod_Electrostatic_Energy-OPLS-2005>
-846.337768554688

> <r_mmod_Solvation_Energy-OPLS-2005>
-222.805694580078

> <b_mmod_Minimization_Converged-OPLS-2005>
0

> <r_mmod_RMS_Derivative-OPLS-2005>
1.47249162197113

$$$$
62
                    3D
 Structure written by MMmdl.
161170  0  0  1  0            999 V2000
  -30.6877  -14.5687   20.4705 C   0  0  0  0  0  0
  -30.4233  -12.3431   19.4671 C   0  0  0  0  0  0
  -29.5165  -12.5095   18.2327 C   0  0  0  0  0  0
  -28.0363  -12.3571   18.6302 C   0  0  0  0  0  0
  -27.6594  -13.2209   19.8627 C   0  0  2  0  0  0
  -28.6964  -13.0897   20.9998 C   0  0  0  0  0  0
  -25.2578  -13.8185   20.5666 C   0  0  0  0  0  0
  -24.1834  -13.0432   20.9127 C   0  0  0  0  0  0
  -24.6394  -11.6917   20.8691 C   0  0  0  0  0  0
  -23.9064  -10.4310   21.0382 C   0  0  0  0  0  0
  -24.3593   -9.4216   21.9192 C   0  0  0  0  0  0
  -23.6268   -8.2256   22.0770 C   0  0  0  0  0  0
  -22.4244   -8.0302   21.3574 C   0  0  0  0  0  0
  -21.9871   -9.0263   20.4671 C   0  0  0  0  0  0
  -22.7212  -10.2125   20.3071 C   0  0  0  0  0  0
  -21.6867   -6.0722   22.5269 C   0  0  0  0  0  0
  -21.4023   -6.5605   23.8208 C   0  0  0  0  0  0
  -21.3661   -5.6765   24.9161 C   0  0  0  0  0  0
  -21.6050   -4.3034   24.7226 C   0  0  0  0  0  0
  -21.8818   -3.8127   23.4343 C   0  0  0  0  0  0
  -21.9176   -4.6951   22.3392 C   0  0  0  0  0  0
  -22.7854  -13.5255   21.1789 C   0  0  0  0  0  0
  -22.1659   -4.2137   21.0972 F   0  0  0  0  0  0
  -21.5613   -3.4514   25.7733 F   0  0  0  0  0  0
  -30.0258  -13.3768   20.4380 N   0  0  0  0  0  0
  -26.3016  -12.9377   20.3266 N   0  0  0  0  0  0
  -25.9320  -11.6519   20.5657 N   0  0  0  0  0  0
  -22.0453  -12.8318   22.0356 N   0  0  0  0  0  0
  -25.4284  -15.1912   20.4145 N   0  0  0  0  0  0
  -31.8673  -14.6581   20.1185 O   0  0  0  0  0  0
  -21.6641   -6.8868   21.4258 O   0  0  0  0  0  0
  -22.3567  -14.5586   20.6626 O   0  0  0  0  0  0
  -24.6198  -31.8624   23.2010 C   0  0  0  0  0  0
  -25.9067  -32.4795   23.8336 C   0  0  1  0  0  0
  -27.2333  -27.3728   20.1088 C   0  0  0  0  0  0
  -25.5871  -33.8588   24.2249 N   0  0  0  0  0  0
  -23.4110  -30.4822   21.5435 C   0  0  2  0  0  0
  -24.8592  -28.9364   20.1151 C   0  0  0  0  0  0
  -22.7437  -29.4642   22.4956 C   0  0  0  0  0  0
  -18.0281  -28.1379   22.8463 C   0  0  0  0  0  0
  -24.1467  -36.7313   23.2626 C   0  0  0  0  0  0
  -25.9446  -30.8105   21.3597 C   0  0  0  0  0  0
  -26.0230  -29.4374   20.7117 C   0  0  0  0  0  0
  -27.2169  -28.6659   20.6992 C   0  0  0  0  0  0
  -26.0481  -26.8971   19.5111 C   0  0  0  0  0  0
  -24.8699  -27.6691   19.5078 C   0  0  0  0  0  0
  -23.6222  -29.8092   20.1601 C   0  0  0  0  0  0
  -25.4079  -36.3082   24.0319 C   0  0  1  0  0  0
  -20.5877  -28.3675   23.1288 C   0  0  2  0  0  0
  -20.6771  -26.9401   22.5411 C   0  0  0  0  0  0
  -19.5760  -26.6383   21.5191 C   0  0  0  0  0  0
  -18.1936  -26.7921   22.1599 C   0  0  0  0  0  0
  -19.1534  -28.8837   23.2882 C   0  0  0  0  0  0
  -18.9469  -30.1430   23.8923 C   0  0  0  0  0  0
  -17.6478  -30.6570   24.0571 C   0  0  0  0  0  0
  -25.9023  -34.9465   23.5081 C   0  0  0  0  0  0
  -16.5362  -29.9086   23.6318 C   0  0  0  0  0  0
  -16.7275  -28.6501   23.0339 C   0  0  0  0  0  0
  -26.4464  -31.6610   25.0713 C   0  0  0  0  0  0
  -25.3700  -31.3823   26.1464 C   0  0  0  0  0  0
  -27.0236  -30.3011   24.6132 C   0  0  0  0  0  0
  -27.6018  -32.4355   25.7475 C   0  0  0  0  0  0
  -27.5582  -37.1767   24.8424 C   0  0  0  0  0  0
  -21.4164  -29.3014   22.3673 N   0  0  0  0  0  0
  -26.4244  -37.3797   23.9443 N   0  0  0  0  0  0
  -24.6773  -31.0668   22.0927 N   0  0  0  0  0  0
  -23.4170  -28.8194   23.3048 O   0  0  0  0  0  0
  -28.3765  -26.5847   20.0771 O   0  0  0  0  0  0
  -26.5624  -34.8942   22.4670 O   0  0  0  0  0  0
  -23.5378  -32.1397   23.7378 O   0  0  0  0  0  0
  -30.5405  -17.0738   18.7349 C   0  0  0  0  0  0
  -30.1830  -16.9731   20.0585 C   0  0  0  0  0  0
  -30.4426  -19.2759   19.8866 C   0  0  0  0  0  0
  -28.7150  -24.0427   19.9538 C   0  0  0  0  0  0
  -30.3353  -23.1851   21.8953 C   0  0  0  0  0  0
  -31.6055  -22.3392   22.1217 C   0  0  0  0  0  0
  -30.7498  -20.7252   20.3058 C   0  0  2  0  0  0
  -29.8637  -23.0565   20.4289 C   0  0  1  0  0  0
  -31.4301  -20.8603   21.7007 C   0  0  1  0  0  0
  -32.7923  -20.1400   21.7463 C   0  0  0  0  0  0
  -28.3061  -25.3088   20.7871 C   0  0  0  0  0  0
  -30.0287  -18.2457   20.6745 N   0  0  0  0  0  0
  -29.9503  -15.6935   20.6894 N   0  0  0  0  0  0
  -29.5529  -21.6096   20.1268 N   0  3  0  0  0  0
  -28.1251  -23.8315   18.8896 O   0  0  0  0  0  0
  -30.8626  -18.7206   18.2634 S   0  0  0  0  0  0
  -31.4737  -12.4191   19.1806 H   0  0  0  0  0  0
  -30.3051  -11.3513   19.9038 H   0  0  0  0  0  0
  -29.7739  -11.7713   17.4720 H   0  0  0  0  0  0
  -29.6752  -13.4883   17.7805 H   0  0  0  0  0  0
  -27.8579  -11.3048   18.8455 H   0  0  0  0  0  0
  -27.3994  -12.6109   17.7833 H   0  0  0  0  0  0
  -27.6834  -14.2544   19.5171 H   0  0  0  0  0  0
  -28.6844  -12.0834   21.4198 H   0  0  0  0  0  0
  -28.4563  -13.7646   21.8239 H   0  0  0  0  0  0
  -25.2709   -9.5663   22.4789 H   0  0  0  0  0  0
  -23.9948   -7.4653   22.7482 H   0  0  0  0  0  0
  -21.0782   -8.8770   19.9006 H   0  0  0  0  0  0
  -22.3645  -10.9656   19.6183 H   0  0  0  0  0  0
  -21.2034   -7.6109   23.9704 H   0  0  0  0  0  0
  -21.1500   -6.0500   25.9064 H   0  0  0  0  0  0
  -22.0596   -2.7589   23.2879 H   0  0  0  0  0  0
  -22.3956  -11.9940   22.4779 H   0  0  0  0  0  0
  -21.1115  -13.1469   22.2527 H   0  0  0  0  0  0
  -24.6596  -15.8429   20.5342 H   0  0  0  0  0  0
  -26.2719  -15.6418   20.0857 H   0  0  0  0  0  0
  -26.7145  -32.5494   23.1097 H   0  0  0  0  0  0
  -24.9933  -33.9714   25.0330 H   0  0  0  0  0  0
  -22.7023  -31.3002   21.3987 H   0  0  0  0  0  0
  -23.3731  -35.9642   23.3224 H   0  0  0  0  0  0
  -24.3578  -36.9007   22.2056 H   0  0  0  0  0  0
  -23.7225  -37.6487   23.6706 H   0  0  0  0  0  0
  -26.0513  -31.5715   20.5849 H   0  0  0  0  0  0
  -26.8331  -30.8754   21.9754 H   0  0  0  0  0  0
  -28.1170  -29.0487   21.1580 H   0  0  0  0  0  0
  -26.0386  -25.9244   19.0388 H   0  0  0  0  0  0
  -23.9774  -27.2784   19.0397 H   0  0  0  0  0  0
  -23.7309  -30.5778   19.3949 H   0  0  0  0  0  0
  -22.7445  -29.2306   19.8653 H   0  0  0  0  0  0
  -25.1253  -36.1894   25.0810 H   0  0  0  0  0  0
  -20.9967  -28.3263   24.1415 H   0  0  0  0  0  0
  -20.5621  -26.2295   23.3609 H   0  0  0  0  0  0
  -21.6653  -26.7408   22.1254 H   0  0  0  0  0  0
  -19.6922  -25.6297   21.1215 H   0  0  0  0  0  0
  -19.6680  -27.3195   20.6720 H   0  0  0  0  0  0
  -17.4187  -26.6631   21.4028 H   0  0  0  0  0  0
  -18.0363  -26.0080   22.9013 H   0  0  0  0  0  0
  -19.7953  -30.7228   24.2322 H   0  0  0  0  0  0
  -17.5038  -31.6252   24.5184 H   0  0  0  0  0  0
  -15.5366  -30.2995   23.7631 H   0  0  0  0  0  0
  -15.8669  -28.0816   22.7073 H   0  0  0  0  0  0
  -24.5766  -30.7280   25.7843 H   0  0  0  0  0  0
  -24.9034  -32.3048   26.4931 H   0  0  0  0  0  0
  -25.8019  -30.8952   27.0206 H   0  0  0  0  0  0
  -26.2765  -29.6839   24.1126 H   0  0  0  0  0  0
  -27.3878  -29.7218   25.4625 H   0  0  0  0  0  0
  -27.8681  -30.4270   23.9347 H   0  0  0  0  0  0
  -27.2594  -33.3634   26.2066 H   0  0  0  0  0  0
  -28.3806  -32.6951   25.0293 H   0  0  0  0  0  0
  -28.0695  -31.8486   26.5379 H   0  0  0  0  0  0
  -28.2498  -38.0164   24.7611 H   0  0  0  0  0  0
  -28.1171  -36.2710   24.6017 H   0  0  0  0  0  0
  -27.2353  -37.1156   25.8833 H   0  0  0  0  0  0
  -20.9341  -29.8691   21.6837 H   0  0  0  0  0  0
  -26.0103  -38.2834   24.1584 H   0  0  0  0  0  0
  -30.6785  -16.2813   18.0072 H   0  0  0  0  0  0
  -30.5848  -24.2187   22.1365 H   0  0  0  0  0  0
  -29.5471  -22.8802   22.5856 H   0  0  0  0  0  0
  -31.8967  -22.3881   23.1749 H   0  0  0  0  0  0
  -32.4360  -22.7808   21.5655 H   0  0  0  0  0  0
  -31.4789  -21.0873   19.5780 H   0  0  0  0  0  0
  -30.7256  -23.3113   19.8121 H   0  0  0  0  0  0
  -30.7792  -20.3884   22.4394 H   0  0  0  0  0  0
  -33.4722  -20.5053   20.9731 H   0  0  0  0  0  0
  -32.6882  -19.0640   21.6006 H   0  0  0  0  0  0
  -33.2917  -20.2867   22.7045 H   0  0  0  0  0  0
  -28.9102  -25.3923   21.6851 H   0  0  0  0  0  0
  -27.2869  -25.1329   21.1376 H   0  0  0  0  0  0
  -29.0692  -15.5745   21.1665 H   0  0  0  0  0  0
  -28.8070  -21.2836   20.7187 H   0  0  0  0  0  0
  -29.2313  -21.5520   19.1740 H   0  0  0  0  0  0
  1 25  1  0  0  0
  1 30  2  0  0  0
  1 83  1  0  0  0
  2  3  1  0  0  0
  2 25  1  0  0  0
  2 87  1  0  0  0
  2 88  1  0  0  0
  3  4  1  0  0  0
  3 89  1  0  0  0
  3 90  1  0  0  0
  4  5  1  0  0  0
  4 91  1  0  0  0
  4 92  1  0  0  0
  5  6  1  0  0  0
  5 26  1  0  0  0
  5 93  1  0  0  0
  6 25  1  0  0  0
  6 94  1  0  0  0
  6 95  1  0  0  0
  7  8  2  0  0  0
  7 26  1  0  0  0
  7 29  1  0  0  0
  8  9  1  0  0  0
  8 22  1  0  0  0
  9 10  1  0  0  0
  9 27  2  0  0  0
 10 11  2  0  0  0
 10 15  1  0  0  0
 11 12  1  0  0  0
 11 96  1  0  0  0
 12 13  2  0  0  0
 12 97  1  0  0  0
 13 14  1  0  0  0
 13 31  1  0  0  0
 14 15  2  0  0  0
 14 98  1  0  0  0
 15 99  1  0  0  0
 16 17  2  0  0  0
 16 21  1  0  0  0
 16 31  1  0  0  0
 17 18  1  0  0  0
 17100  1  0  0  0
 18 19  2  0  0  0
 18101  1  0  0  0
 19 20  1  0  0  0
 19 24  1  0  0  0
 20 21  2  0  0  0
 20102  1  0  0  0
 21 23  1  0  0  0
 22 28  1  0  0  0
 22 32  2  0  0  0
 26 27  1  0  0  0
 28103  1  0  0  0
 28104  1  0  0  0
 29105  1  0  0  0
 29106  1  0  0  0
 33 34  1  0  0  0
 33 66  1  0  0  0
 33 70  2  0  0  0
 34 36  1  0  0  0
 34 59  1  0  0  0
 34107  1  0  0  0
 35 44  2  0  0  0
 35 45  1  0  0  0
 35 68  1  0  0  0
 36 56  1  0  0  0
 36108  1  0  0  0
 37 39  1  0  0  0
 37 47  1  0  0  0
 37 66  1  0  0  0
 37109  1  0  0  0
 38 43  2  0  0  0
 38 46  1  0  0  0
 38 47  1  0  0  0
 39 64  1  0  0  0
 39 67  2  0  0  0
 40 52  1  0  0  0
 40 53  2  0  0  0
 40 58  1  0  0  0
 41110  1  0  0  0
 41111  1  0  0  0
 41112  1  0  0  0
 41 48  1  0  0  0
 42 43  1  0  0  0
 42 66  1  0  0  0
 42113  1  0  0  0
 42114  1  0  0  0
 43 44  1  0  0  0
 44115  1  0  0  0
 45 46  2  0  0  0
 45116  1  0  0  0
 46117  1  0  0  0
 47118  1  0  0  0
 47119  1  0  0  0
 48 56  1  0  0  0
 48 65  1  0  0  0
 48120  1  0  0  0
 49 50  1  0  0  0
 49 53  1  0  0  0
 49 64  1  0  0  0
 49121  1  0  0  0
 50 51  1  0  0  0
 50122  1  0  0  0
 50123  1  0  0  0
 51 52  1  0  0  0
 51124  1  0  0  0
 51125  1  0  0  0
 52126  1  0  0  0
 52127  1  0  0  0
 53 54  1  0  0  0
 54 55  2  0  0  0
 54128  1  0  0  0
 55 57  1  0  0  0
 55129  1  0  0  0
 56 69  2  0  0  0
 57 58  2  0  0  0
 57130  1  0  0  0
 58131  1  0  0  0
 59 60  1  0  0  0
 59 61  1  0  0  0
 59 62  1  0  0  0
 60132  1  0  0  0
 60133  1  0  0  0
 60134  1  0  0  0
 61135  1  0  0  0
 61136  1  0  0  0
 61137  1  0  0  0
 62138  1  0  0  0
 62139  1  0  0  0
 62140  1  0  0  0
 63 65  1  0  0  0
 63141  1  0  0  0
 63142  1  0  0  0
 63143  1  0  0  0
 64144  1  0  0  0
 65145  1  0  0  0
 68 81  1  0  0  0
 71 72  2  0  0  0
 71 86  1  0  0  0
 71146  1  0  0  0
 72 82  1  0  0  0
 72 83  1  0  0  0
 73 82  2  0  0  0
 73 86  1  0  0  0
 73 77  1  0  0  0
 74 81  1  0  0  0
 74 85  2  0  0  0
 74 78  1  0  0  0
 75 76  1  0  0  0
 75 78  1  0  0  0
 75147  1  0  0  0
 75148  1  0  0  0
 76 79  1  0  0  0
 76149  1  0  0  0
 76150  1  0  0  0
 77 79  1  0  0  0
 77 84  1  0  0  0
 77151  1  0  0  0
 78 84  1  0  0  0
 78152  1  0  0  0
 79 80  1  0  0  0
 79153  1  0  0  0
 80154  1  0  0  0
 80155  1  0  0  0
 80156  1  0  0  0
 81157  1  0  0  0
 81158  1  0  0  0
 83159  1  0  0  0
 84160  1  0  0  0
 84161  1  0  0  0
M  CHG  1  84   1
M  ISO  4   1 100  68 101  81 101  83 100
M  END
> <chiral flag>
0

> <version>
0

> <s_m_source_file>
/data/baiqing/PycharmProjects/Reinvent-master-3.2/result/LINK_invent/BTK/process_docking_weight1_custom_product_contain_oxygen_bond_distance_aromatic_linkinvent_7_9_3/rearranged_h_0176.sdf

> <i_m_source_file_index>
63

> <r_mmod_Potential_Energy-OPLS-2005>
-213.018173217773

> <r_mmod_Stretch_Energy-OPLS-2005>
59.8807258605957

> <r_mmod_Bend_Energy-OPLS-2005>
132.657943725586

> <r_mmod_Torsional_Energy-OPLS-2005>
302.296661376953

> <r_mmod_Improper_Torsional_Energy-OPLS-2005>
6.6469783782959

> <r_mmod_Van_der_Waal_Energy-OPLS-2005>
122.254547119141

> <r_mmod_Electrostatic_Energy-OPLS-2005>
-385.374938964844

> <r_mmod_Solvation_Energy-OPLS-2005>
-481.997955322266

> <b_mmod_Minimization_Converged-OPLS-2005>
0

> <r_mmod_RMS_Derivative-OPLS-2005>
5.65240478515625

$$$$
63
                    3D
 Structure written by MMmdl.
155163  0  0  1  0            999 V2000
  -30.8193  -14.2958   20.7442 C   0  0  0  0  0  0
  -30.4109  -12.2875   19.3757 C   0  0  0  0  0  0
  -29.4735  -12.5375   18.1832 C   0  0  0  0  0  0
  -28.0035  -12.3804   18.6083 C   0  0  0  0  0  0
  -27.6664  -13.2035   19.8778 C   0  0  2  0  0  0
  -28.7042  -12.9510   20.9932 C   0  0  0  0  0  0
  -25.2606  -13.8163   20.5675 C   0  0  0  0  0  0
  -24.1847  -13.0443   20.9164 C   0  0  0  0  0  0
  -24.6398  -11.6907   20.8726 C   0  0  0  0  0  0
  -23.9061  -10.4294   21.0400 C   0  0  0  0  0  0
  -24.3615   -9.4210   21.9180 C   0  0  0  0  0  0
  -23.6290   -8.2247   22.0752 C   0  0  0  0  0  0
  -22.4272   -8.0286   21.3546 C   0  0  0  0  0  0
  -21.9907   -9.0258   20.4647 C   0  0  0  0  0  0
  -22.7234  -10.2137   20.3052 C   0  0  0  0  0  0
  -21.6854   -6.0738   22.5280 C   0  0  0  0  0  0
  -21.4013   -6.5641   23.8214 C   0  0  0  0  0  0
  -21.3660   -5.6791   24.9175 C   0  0  0  0  0  0
  -21.6042   -4.3053   24.7224 C   0  0  0  0  0  0
  -21.8820   -3.8146   23.4344 C   0  0  0  0  0  0
  -21.9193   -4.6964   22.3402 C   0  0  0  0  0  0
  -22.7872  -13.5245   21.1838 C   0  0  0  0  0  0
  -22.1661   -4.2150   21.0978 F   0  0  0  0  0  0
  -21.5631   -3.4538   25.7737 F   0  0  0  0  0  0
  -30.0557  -13.2126   20.4600 N   0  0  0  0  0  0
  -26.3048  -12.9331   20.3381 N   0  0  0  0  0  0
  -25.9323  -11.6489   20.5759 N   0  0  0  0  0  0
  -22.0515  -12.8236   22.0398 N   0  0  0  0  0  0
  -25.4344  -15.1880   20.4090 N   0  0  0  0  0  0
  -31.7565  -14.6778   20.0368 O   0  0  0  0  0  0
  -21.6639   -6.8881   21.4243 O   0  0  0  0  0  0
  -22.3554  -14.5558   20.6701 O   0  0  0  0  0  0
  -24.6103  -31.8705   23.2123 C   0  0  0  0  0  0
  -25.9013  -32.4837   23.8404 C   0  0  1  0  0  0
  -27.2378  -27.4785   20.0846 C   0  0  0  0  0  0
  -25.5887  -33.8637   24.2338 N   0  0  0  0  0  0
  -23.3967  -30.4927   21.5522 C   0  0  2  0  0  0
  -24.8448  -28.9615   20.1157 C   0  0  0  0  0  0
  -22.7381  -29.4673   22.5016 C   0  0  0  0  0  0
  -18.0258  -28.1370   22.8493 C   0  0  0  0  0  0
  -24.1485  -36.7322   23.2634 C   0  0  0  0  0  0
  -25.9206  -30.8483   21.3587 C   0  0  0  0  0  0
  -26.0017  -29.4852   20.7080 C   0  0  0  0  0  0
  -27.2046  -28.7490   20.6925 C   0  0  0  0  0  0
  -26.0706  -26.9550   19.4937 C   0  0  0  0  0  0
  -24.8714  -27.6928   19.5074 C   0  0  0  0  0  0
  -23.6027  -29.8212   20.1675 C   0  0  0  0  0  0
  -25.4103  -36.3121   24.0340 C   0  0  1  0  0  0
  -20.5848  -28.3651   23.1329 C   0  0  2  0  0  0
  -20.6755  -26.9393   22.5419 C   0  0  0  0  0  0
  -19.5740  -26.6381   21.5209 C   0  0  0  0  0  0
  -18.1914  -26.7920   22.1614 C   0  0  0  0  0  0
  -19.1509  -28.8825   23.2911 C   0  0  0  0  0  0
  -18.9443  -30.1436   23.8917 C   0  0  0  0  0  0
  -17.6449  -30.6584   24.0564 C   0  0  0  0  0  0
  -25.9030  -34.9487   23.5136 C   0  0  0  0  0  0
  -16.5336  -29.9088   23.6329 C   0  0  0  0  0  0
  -16.7249  -28.6502   23.0349 C   0  0  0  0  0  0
  -26.4459  -31.6605   25.0718 C   0  0  0  0  0  0
  -25.3745  -31.3705   26.1485 C   0  0  0  0  0  0
  -27.0271  -30.3050   24.6056 C   0  0  0  0  0  0
  -27.6048  -32.4315   25.7469 C   0  0  0  0  0  0
  -27.5593  -37.1797   24.8455 C   0  0  0  0  0  0
  -21.4114  -29.3029   22.3746 N   0  0  0  0  0  0
  -26.4289  -37.3808   23.9424 N   0  0  0  0  0  0
  -24.6606  -31.0835   22.1005 N   0  0  0  0  0  0
  -23.4170  -28.8222   23.3050 O   0  0  0  0  0  0
  -28.3891  -26.7387   20.0798 O   0  0  0  0  0  0
  -26.5592  -34.8935   22.4697 O   0  0  0  0  0  0
  -23.5307  -32.1438   23.7544 O   0  0  0  0  0  0
  -31.4268  -19.5754   21.8043 C   0  0  0  0  0  0
  -30.9534  -17.2542   22.4231 C   0  0  0  0  0  0
  -30.1065  -19.9513   22.1488 C   0  0  0  0  0  0
  -31.8478  -18.2394   21.9486 C   0  0  0  0  0  0
  -29.6311  -17.6250   22.7534 C   0  0  0  0  0  0
  -29.2130  -18.9632   22.6124 C   0  0  0  0  0  0
  -28.4335  -25.7423   21.0170 C   0  0  0  0  0  0
  -29.2563  -24.6849   20.9131 C   0  0  0  0  0  0
  -29.2455  -23.6336   21.9691 C   0  0  0  0  0  0
  -30.2428  -22.4456   21.8798 C   0  0  0  0  0  0
  -31.4246  -15.8196   22.6196 C   0  0  0  0  0  0
  -29.6021  -21.2784   22.0611 N   0  0  0  0  0  0
  -30.5936  -14.8198   21.9531 N   0  0  0  0  0  0
  -28.4446  -23.6621   22.9131 O   0  0  0  0  0  0
  -31.4600  -22.5899   21.7158 O   0  0  0  0  0  0
  -30.0761  -24.5704   19.8563 O   0  0  0  0  0  0
  -33.1245  -17.9134   21.6330 F   0  0  0  0  0  0
  -28.7585  -16.7002   23.2243 F   0  0  0  0  0  0
  -27.9433  -19.3075   22.9395 F   0  0  0  0  0  0
  -31.4526  -12.3912   19.0652 H   0  0  0  0  0  0
  -30.3108  -11.2602   19.7293 H   0  0  0  0  0  0
  -29.7040  -11.8458   17.3717 H   0  0  0  0  0  0
  -29.6383  -13.5414   17.7885 H   0  0  0  0  0  0
  -27.8189  -11.3210   18.7913 H   0  0  0  0  0  0
  -27.3430  -12.6659   17.7890 H   0  0  0  0  0  0
  -27.7246  -14.2573   19.6031 H   0  0  0  0  0  0
  -28.6520  -11.9158   21.3334 H   0  0  0  0  0  0
  -28.4516  -13.5600   21.8616 H   0  0  0  0  0  0
  -25.2764   -9.5687   22.4749 H   0  0  0  0  0  0
  -24.0004   -7.4636   22.7465 H   0  0  0  0  0  0
  -21.0841   -8.8775   19.8949 H   0  0  0  0  0  0
  -22.3697  -10.9674   19.6158 H   0  0  0  0  0  0
  -21.2003   -7.6150   23.9720 H   0  0  0  0  0  0
  -21.1482   -6.0520   25.9079 H   0  0  0  0  0  0
  -22.0598   -2.7608   23.2844 H   0  0  0  0  0  0
  -22.4125  -11.9888   22.4771 H   0  0  0  0  0  0
  -21.1139  -13.1266   22.2615 H   0  0  0  0  0  0
  -24.6753  -15.8501   20.5276 H   0  0  0  0  0  0
  -26.3014  -15.6259   20.1227 H   0  0  0  0  0  0
  -26.7089  -32.5565   23.1179 H   0  0  0  0  0  0
  -25.0063  -33.9812   25.0499 H   0  0  0  0  0  0
  -22.6844  -31.3084   21.4131 H   0  0  0  0  0  0
  -23.3753  -35.9648   23.3288 H   0  0  0  0  0  0
  -24.3590  -36.8941   22.2052 H   0  0  0  0  0  0
  -23.7224  -37.6520   23.6649 H   0  0  0  0  0  0
  -26.0245  -31.6144   20.5891 H   0  0  0  0  0  0
  -26.8117  -30.9050   21.9719 H   0  0  0  0  0  0
  -28.1011  -29.1461   21.1474 H   0  0  0  0  0  0
  -26.0945  -25.9801   19.0271 H   0  0  0  0  0  0
  -23.9815  -27.2825   19.0494 H   0  0  0  0  0  0
  -23.7027  -30.5935   19.4041 H   0  0  0  0  0  0
  -22.7293  -29.2336   19.8776 H   0  0  0  0  0  0
  -25.1276  -36.1984   25.0832 H   0  0  0  0  0  0
  -20.9935  -28.3206   24.1449 H   0  0  0  0  0  0
  -20.5642  -26.2262   23.3602 H   0  0  0  0  0  0
  -21.6630  -26.7438   22.1216 H   0  0  0  0  0  0
  -19.6906  -25.6294   21.1232 H   0  0  0  0  0  0
  -19.6685  -27.3200   20.6747 H   0  0  0  0  0  0
  -17.4187  -26.6664   21.4015 H   0  0  0  0  0  0
  -18.0315  -26.0049   22.9000 H   0  0  0  0  0  0
  -19.7924  -30.7242   24.2294 H   0  0  0  0  0  0
  -17.5010  -31.6272   24.5152 H   0  0  0  0  0  0
  -15.5340  -30.3000   23.7653 H   0  0  0  0  0  0
  -15.8642  -28.0834   22.7056 H   0  0  0  0  0  0
  -24.5910  -30.7056   25.7835 H   0  0  0  0  0  0
  -24.8953  -32.2859   26.4961 H   0  0  0  0  0  0
  -25.8117  -30.8859   27.0224 H   0  0  0  0  0  0
  -26.2790  -29.6828   24.1129 H   0  0  0  0  0  0
  -27.4074  -29.7269   25.4486 H   0  0  0  0  0  0
  -27.8615  -30.4377   23.9164 H   0  0  0  0  0  0
  -27.2673  -33.3603   26.2082 H   0  0  0  0  0  0
  -28.3837  -32.6890   25.0280 H   0  0  0  0  0  0
  -28.0738  -31.8417   26.5355 H   0  0  0  0  0  0
  -28.2576  -38.0130   24.7567 H   0  0  0  0  0  0
  -28.1121  -36.2668   24.6187 H   0  0  0  0  0  0
  -27.2328  -37.1333   25.8859 H   0  0  0  0  0  0
  -20.9265  -29.8759   21.6983 H   0  0  0  0  0  0
  -26.0179  -38.2879   24.1465 H   0  0  0  0  0  0
  -32.1430  -20.2904   21.4317 H   0  0  0  0  0  0
  -27.7440  -25.8952   21.8398 H   0  0  0  0  0  0
  -31.4084  -15.6084   23.6893 H   0  0  0  0  0  0
  -32.4673  -15.7085   22.3175 H   0  0  0  0  0  0
  -28.6133  -21.3846   22.2503 H   0  0  0  0  0  0
  -29.8458  -14.4096   22.4917 H   0  0  0  0  0  0
  -29.9257  -25.3349   19.3139 H   0  0  0  0  0  0
  1 25  1  0  0  0
  1 30  2  0  0  0
  1 83  1  0  0  0
  2  3  1  0  0  0
  2 25  1  0  0  0
  2 90  1  0  0  0
  2 91  1  0  0  0
  3  4  1  0  0  0
  3 92  1  0  0  0
  3 93  1  0  0  0
  4  5  1  0  0  0
  4 94  1  0  0  0
  4 95  1  0  0  0
  5  6  1  0  0  0
  5 26  1  0  0  0
  5 96  1  0  0  0
  6 25  1  0  0  0
  6 97  1  0  0  0
  6 98  1  0  0  0
  7  8  2  0  0  0
  7 26  1  0  0  0
  7 29  1  0  0  0
  8  9  1  0  0  0
  8 22  1  0  0  0
  9 10  1  0  0  0
  9 27  2  0  0  0
 10 11  2  0  0  0
 10 15  1  0  0  0
 11 12  1  0  0  0
 11 99  1  0  0  0
 12 13  2  0  0  0
 12100  1  0  0  0
 13 14  1  0  0  0
 13 31  1  0  0  0
 14 15  2  0  0  0
 14101  1  0  0  0
 15102  1  0  0  0
 16 17  2  0  0  0
 16 21  1  0  0  0
 16 31  1  0  0  0
 17 18  1  0  0  0
 17103  1  0  0  0
 18 19  2  0  0  0
 18104  1  0  0  0
 19 20  1  0  0  0
 19 24  1  0  0  0
 20 21  2  0  0  0
 20105  1  0  0  0
 21 23  1  0  0  0
 22 28  1  0  0  0
 22 32  2  0  0  0
 26 27  1  0  0  0
 28106  1  0  0  0
 28107  1  0  0  0
 29108  1  0  0  0
 29109  1  0  0  0
 33 34  1  0  0  0
 33 66  1  0  0  0
 33 70  2  0  0  0
 34 36  1  0  0  0
 34 59  1  0  0  0
 34110  1  0  0  0
 35 44  2  0  0  0
 35 45  1  0  0  0
 35 68  1  0  0  0
 36 56  1  0  0  0
 36111  1  0  0  0
 37 39  1  0  0  0
 37 47  1  0  0  0
 37 66  1  0  0  0
 37112  1  0  0  0
 38 43  2  0  0  0
 38 46  1  0  0  0
 38 47  1  0  0  0
 39 64  1  0  0  0
 39 67  2  0  0  0
 40 52  1  0  0  0
 40 53  2  0  0  0
 40 58  1  0  0  0
 41113  1  0  0  0
 41114  1  0  0  0
 41115  1  0  0  0
 41 48  1  0  0  0
 42 43  1  0  0  0
 42 66  1  0  0  0
 42116  1  0  0  0
 42117  1  0  0  0
 43 44  1  0  0  0
 44118  1  0  0  0
 45 46  2  0  0  0
 45119  1  0  0  0
 46120  1  0  0  0
 47121  1  0  0  0
 47122  1  0  0  0
 48 56  1  0  0  0
 48 65  1  0  0  0
 48123  1  0  0  0
 49 50  1  0  0  0
 49 53  1  0  0  0
 49 64  1  0  0  0
 49124  1  0  0  0
 50 51  1  0  0  0
 50125  1  0  0  0
 50126  1  0  0  0
 51 52  1  0  0  0
 51127  1  0  0  0
 51128  1  0  0  0
 52129  1  0  0  0
 52130  1  0  0  0
 53 54  1  0  0  0
 54 55  2  0  0  0
 54131  1  0  0  0
 55 57  1  0  0  0
 55132  1  0  0  0
 56 69  2  0  0  0
 57 58  2  0  0  0
 57133  1  0  0  0
 58134  1  0  0  0
 59 60  1  0  0  0
 59 61  1  0  0  0
 59 62  1  0  0  0
 60135  1  0  0  0
 60136  1  0  0  0
 60137  1  0  0  0
 61138  1  0  0  0
 61139  1  0  0  0
 61140  1  0  0  0
 62141  1  0  0  0
 62142  1  0  0  0
 62143  1  0  0  0
 63 65  1  0  0  0
 63144  1  0  0  0
 63145  1  0  0  0
 63146  1  0  0  0
 64147  1  0  0  0
 65148  1  0  0  0
 68 77  1  0  0  0
 71 73  2  0  0  0
 71 74  1  0  0  0
 71149  1  0  0  0
 72 74  2  0  0  0
 72 75  1  0  0  0
 72 81  1  0  0  0
 73 76  1  0  0  0
 73 82  1  0  0  0
 74 87  1  0  0  0
 75 76  2  0  0  0
 75 88  1  0  0  0
 76 89  1  0  0  0
 77 78  2  0  0  0
 77150  1  0  0  0
 78 79  1  0  0  0
 78 86  1  0  0  0
 79 80  1  0  0  0
 79 84  2  0  0  0
 80 82  1  0  0  0
 80 85  2  0  0  0
 81 83  1  0  0  0
 81151  1  0  0  0
 81152  1  0  0  0
 82153  1  0  0  0
 83154  1  0  0  0
 86155  1  0  0  0
M  ISO  4   1 100  68 101  77 101  83 100
M  END
> <chiral flag>
0

> <version>
0

> <s_m_source_file>
/data/baiqing/PycharmProjects/Reinvent-master-3.2/result/LINK_invent/BTK/process_docking_weight1_custom_product_contain_oxygen_bond_distance_aromatic_linkinvent_7_9_3/rearranged_h_0176.sdf

> <i_m_source_file_index>
64

> <r_mmod_Potential_Energy-OPLS-2005>
-26.2902431488037

> <r_mmod_Stretch_Energy-OPLS-2005>
33.1058158874512

> <r_mmod_Bend_Energy-OPLS-2005>
96.1673355102539

> <r_mmod_Torsional_Energy-OPLS-2005>
207.246994018555

> <r_mmod_Improper_Torsional_Energy-OPLS-2005>
3.87559199333191

> <r_mmod_Van_der_Waal_Energy-OPLS-2005>
160.555465698242

> <r_mmod_Electrostatic_Energy-OPLS-2005>
-311.065155029297

> <r_mmod_Solvation_Energy-OPLS-2005>
-224.042266845703

> <b_mmod_Minimization_Converged-OPLS-2005>
0

> <r_mmod_RMS_Derivative-OPLS-2005>
0.650916755199432

$$$$
64
                    3D
 Structure written by MMmdl.
155163  0  0  1  0            999 V2000
  -30.6942  -14.5461   20.5539 C   0  0  0  0  0  0
  -30.4251  -12.3487   19.4437 C   0  0  0  0  0  0
  -29.4982  -12.4934   18.2193 C   0  0  0  0  0  0
  -28.0223  -12.3418   18.6332 C   0  0  0  0  0  0
  -27.6529  -13.2127   19.8635 C   0  0  2  0  0  0
  -28.6960  -13.0575   20.9938 C   0  0  0  0  0  0
  -25.2558  -13.8178   20.5699 C   0  0  0  0  0  0
  -24.1822  -13.0439   20.9196 C   0  0  0  0  0  0
  -24.6397  -11.6913   20.8756 C   0  0  0  0  0  0
  -23.9076  -10.4294   21.0430 C   0  0  0  0  0  0
  -24.3631   -9.4200   21.9196 C   0  0  0  0  0  0
  -23.6302   -8.2242   22.0767 C   0  0  0  0  0  0
  -22.4285   -8.0292   21.3555 C   0  0  0  0  0  0
  -21.9926   -9.0266   20.4649 C   0  0  0  0  0  0
  -22.7261  -10.2140   20.3064 C   0  0  0  0  0  0
  -21.6849   -6.0745   22.5287 C   0  0  0  0  0  0
  -21.4007   -6.5649   23.8219 C   0  0  0  0  0  0
  -21.3660   -5.6799   24.9180 C   0  0  0  0  0  0
  -21.6045   -4.3063   24.7225 C   0  0  0  0  0  0
  -21.8822   -3.8156   23.4347 C   0  0  0  0  0  0
  -21.9192   -4.6974   22.3402 C   0  0  0  0  0  0
  -22.7845  -13.5234   21.1854 C   0  0  0  0  0  0
  -22.1665   -4.2164   21.0979 F   0  0  0  0  0  0
  -21.5629   -3.4544   25.7735 F   0  0  0  0  0  0
  -30.0185  -13.3664   20.4283 N   0  0  0  0  0  0
  -26.2983  -12.9353   20.3328 N   0  0  0  0  0  0
  -25.9317  -11.6517   20.5775 N   0  0  0  0  0  0
  -22.0493  -12.8211   22.0401 N   0  0  0  0  0  0
  -25.4258  -15.1900   20.4134 N   0  0  0  0  0  0
  -31.8516  -14.6754   20.1428 O   0  0  0  0  0  0
  -21.6642   -6.8895   21.4255 O   0  0  0  0  0  0
  -22.3531  -14.5545   20.6716 O   0  0  0  0  0  0
  -24.6197  -31.8658   23.2071 C   0  0  0  0  0  0
  -25.9076  -32.4808   23.8372 C   0  0  1  0  0  0
  -27.2280  -27.3802   20.0877 C   0  0  0  0  0  0
  -25.5928  -33.8613   24.2295 N   0  0  0  0  0  0
  -23.4081  -30.4899   21.5514 C   0  0  2  0  0  0
  -24.8500  -28.9521   20.1171 C   0  0  0  0  0  0
  -22.7434  -29.4653   22.4999 C   0  0  0  0  0  0
  -18.0279  -28.1366   22.8487 C   0  0  0  0  0  0
  -24.1502  -36.7302   23.2633 C   0  0  0  0  0  0
  -25.9451  -30.8132   21.3710 C   0  0  0  0  0  0
  -26.0168  -29.4467   20.7101 C   0  0  0  0  0  0
  -27.2045  -28.6693   20.6896 C   0  0  0  0  0  0
  -26.0252  -26.9113   19.5040 C   0  0  0  0  0  0
  -24.8520  -27.6859   19.5147 C   0  0  0  0  0  0
  -23.6159  -29.8246   20.1671 C   0  0  0  0  0  0
  -25.4126  -36.3104   24.0329 C   0  0  1  0  0  0
  -20.5874  -28.3666   23.1326 C   0  0  2  0  0  0
  -20.6771  -26.9397   22.5444 C   0  0  0  0  0  0
  -19.5767  -26.6375   21.5223 C   0  0  0  0  0  0
  -18.1926  -26.7925   22.1589 C   0  0  0  0  0  0
  -19.1524  -28.8832   23.2901 C   0  0  0  0  0  0
  -18.9447  -30.1437   23.8913 C   0  0  0  0  0  0
  -17.6447  -30.6569   24.0571 C   0  0  0  0  0  0
  -25.9063  -34.9473   23.5107 C   0  0  0  0  0  0
  -16.5342  -29.9068   23.6326 C   0  0  0  0  0  0
  -16.7267  -28.6485   23.0348 C   0  0  0  0  0  0
  -26.4469  -31.6599   25.0723 C   0  0  0  0  0  0
  -25.3707  -31.3732   26.1450 C   0  0  0  0  0  0
  -27.0291  -30.3019   24.6151 C   0  0  0  0  0  0
  -27.6036  -32.4324   25.7488 C   0  0  0  0  0  0
  -27.5608  -37.1788   24.8437 C   0  0  0  0  0  0
  -21.4159  -29.3029   22.3731 N   0  0  0  0  0  0
  -26.4295  -37.3801   23.9421 N   0  0  0  0  0  0
  -24.6762  -31.0716   22.0999 N   0  0  0  0  0  0
  -23.4182  -28.8209   23.3071 O   0  0  0  0  0  0
  -28.4079  -26.6382   20.1145 O   0  0  0  0  0  0
  -26.5619  -34.8927   22.4669 O   0  0  0  0  0  0
  -23.5380  -32.1440   23.7439 O   0  0  0  0  0  0
  -31.2964  -19.5166   21.8914 C   0  0  0  0  0  0
  -31.5303  -17.1179   22.0760 C   0  0  0  0  0  0
  -31.9758  -18.4047   22.4009 C   0  0  0  0  0  0
  -30.1618  -19.3363   21.0735 C   0  0  0  0  0  0
  -30.4152  -16.9574   21.2314 C   0  0  0  0  0  0
  -29.0138  -22.8167   20.0388 C   0  0  0  0  0  0
  -28.8774  -24.1379   20.4071 C   0  0  0  0  0  0
  -29.4119  -21.7643   21.0161 C   0  0  0  0  0  0
  -28.7850  -22.3757   18.5932 C   0  0  0  0  0  0
  -28.5283  -25.3296   19.4770 C   0  0  0  0  0  0
  -29.7519  -18.0635   20.7614 N   0  0  0  0  0  0
  -29.5287  -20.5039   20.5056 N   0  0  0  0  0  0
  -29.9633  -15.6161   20.9655 N   0  0  0  0  0  0
  -29.6065  -21.9969   22.2145 O   0  0  0  0  0  0
  -29.0531  -24.5940   21.6603 O   0  0  0  0  0  0
  -33.0604  -18.5715   23.1957 F   0  0  0  0  0  0
  -31.4683  -12.4524   19.1404 H   0  0  0  0  0  0
  -30.3411  -11.3531   19.8841 H   0  0  0  0  0  0
  -29.7524  -11.7485   17.4641 H   0  0  0  0  0  0
  -29.6493  -13.4670   17.7515 H   0  0  0  0  0  0
  -27.8515  -11.2892   18.8621 H   0  0  0  0  0  0
  -27.3700  -12.5772   17.7925 H   0  0  0  0  0  0
  -27.6761  -14.2488   19.5263 H   0  0  0  0  0  0
  -28.6889  -12.0391   21.3855 H   0  0  0  0  0  0
  -28.4502  -13.7011   21.8400 H   0  0  0  0  0  0
  -25.2789   -9.5657   22.4756 H   0  0  0  0  0  0
  -24.0010   -7.4632   22.7485 H   0  0  0  0  0  0
  -21.0864   -8.8795   19.8942 H   0  0  0  0  0  0
  -22.3754  -10.9684   19.6161 H   0  0  0  0  0  0
  -21.2002   -7.6155   23.9726 H   0  0  0  0  0  0
  -21.1477   -6.0528   25.9082 H   0  0  0  0  0  0
  -22.0599   -2.7620   23.2847 H   0  0  0  0  0  0
  -22.4134  -11.9855   22.4735 H   0  0  0  0  0  0
  -21.1115  -13.1228   22.2640 H   0  0  0  0  0  0
  -24.6582  -15.8422   20.5334 H   0  0  0  0  0  0
  -26.2707  -15.6351   20.0783 H   0  0  0  0  0  0
  -26.7151  -32.5477   23.1130 H   0  0  0  0  0  0
  -25.0094  -33.9788   25.0448 H   0  0  0  0  0  0
  -22.6980  -31.3083   21.4131 H   0  0  0  0  0  0
  -23.3798  -35.9596   23.3236 H   0  0  0  0  0  0
  -24.3609  -36.8985   22.2060 H   0  0  0  0  0  0
  -23.7212  -37.6465   23.6697 H   0  0  0  0  0  0
  -26.0773  -31.5837   20.6107 H   0  0  0  0  0  0
  -26.8254  -30.8523   22.0012 H   0  0  0  0  0  0
  -28.1060  -29.0516   21.1484 H   0  0  0  0  0  0
  -25.9282  -25.9422   19.0455 H   0  0  0  0  0  0
  -23.9488  -27.2940   19.0676 H   0  0  0  0  0  0
  -23.7274  -30.5983   19.4073 H   0  0  0  0  0  0
  -22.7371  -29.2487   19.8716 H   0  0  0  0  0  0
  -25.1307  -36.1952   25.0819 H   0  0  0  0  0  0
  -20.9958  -28.3243   24.1450 H   0  0  0  0  0  0
  -20.5665  -26.2282   23.3637 H   0  0  0  0  0  0
  -21.6650  -26.7431   22.1261 H   0  0  0  0  0  0
  -19.6943  -25.6290   21.1247 H   0  0  0  0  0  0
  -19.6731  -27.3190   20.6763 H   0  0  0  0  0  0
  -17.4235  -26.6737   21.3941 H   0  0  0  0  0  0
  -18.0258  -26.0025   22.8927 H   0  0  0  0  0  0
  -19.7920  -30.7251   24.2284 H   0  0  0  0  0  0
  -17.4997  -31.6249   24.5175 H   0  0  0  0  0  0
  -15.5340  -30.2972   23.7639 H   0  0  0  0  0  0
  -15.8666  -28.0812   22.7050 H   0  0  0  0  0  0
  -24.5913  -30.7038   25.7789 H   0  0  0  0  0  0
  -24.8853  -32.2892   26.4823 H   0  0  0  0  0  0
  -25.8037  -30.8962   27.0249 H   0  0  0  0  0  0
  -26.2844  -29.6795   24.1170 H   0  0  0  0  0  0
  -27.3982  -29.7252   25.4644 H   0  0  0  0  0  0
  -27.8726  -30.4304   23.9364 H   0  0  0  0  0  0
  -27.2638  -33.3593   26.2119 H   0  0  0  0  0  0
  -28.3803  -32.6936   25.0289 H   0  0  0  0  0  0
  -28.0752  -31.8421   26.5352 H   0  0  0  0  0  0
  -28.2562  -38.0150   24.7589 H   0  0  0  0  0  0
  -28.1170  -36.2689   24.6122 H   0  0  0  0  0  0
  -27.2350  -37.1268   25.8839 H   0  0  0  0  0  0
  -20.9327  -29.8737   21.6935 H   0  0  0  0  0  0
  -26.0181  -38.2866   24.1471 H   0  0  0  0  0  0
  -31.6713  -20.5005   22.1335 H   0  0  0  0  0  0
  -32.0565  -16.2666   22.4828 H   0  0  0  0  0  0
  -27.9363  -21.6926   18.5320 H   0  0  0  0  0  0
  -29.6673  -21.8694   18.1997 H   0  0  0  0  0  0
  -28.5786  -23.2028   17.9160 H   0  0  0  0  0  0
  -27.6902  -25.0456   18.8523 H   0  0  0  0  0  0
  -29.3580  -25.4226   18.7759 H   0  0  0  0  0  0
  -29.1715  -20.3907   19.5693 H   0  0  0  0  0  0
  -28.9770  -15.4530   21.0778 H   0  0  0  0  0  0
  -29.2871  -23.8454   22.2033 H   0  0  0  0  0  0
  1 25  1  0  0  0
  1 30  2  0  0  0
  1 83  1  0  0  0
  2  3  1  0  0  0
  2 25  1  0  0  0
  2 87  1  0  0  0
  2 88  1  0  0  0
  3  4  1  0  0  0
  3 89  1  0  0  0
  3 90  1  0  0  0
  4  5  1  0  0  0
  4 91  1  0  0  0
  4 92  1  0  0  0
  5  6  1  0  0  0
  5 26  1  0  0  0
  5 93  1  0  0  0
  6 25  1  0  0  0
  6 94  1  0  0  0
  6 95  1  0  0  0
  7  8  2  0  0  0
  7 26  1  0  0  0
  7 29  1  0  0  0
  8  9  1  0  0  0
  8 22  1  0  0  0
  9 10  1  0  0  0
  9 27  2  0  0  0
 10 11  2  0  0  0
 10 15  1  0  0  0
 11 12  1  0  0  0
 11 96  1  0  0  0
 12 13  2  0  0  0
 12 97  1  0  0  0
 13 14  1  0  0  0
 13 31  1  0  0  0
 14 15  2  0  0  0
 14 98  1  0  0  0
 15 99  1  0  0  0
 16 17  2  0  0  0
 16 21  1  0  0  0
 16 31  1  0  0  0
 17 18  1  0  0  0
 17100  1  0  0  0
 18 19  2  0  0  0
 18101  1  0  0  0
 19 20  1  0  0  0
 19 24  1  0  0  0
 20 21  2  0  0  0
 20102  1  0  0  0
 21 23  1  0  0  0
 22 28  1  0  0  0
 22 32  2  0  0  0
 26 27  1  0  0  0
 28103  1  0  0  0
 28104  1  0  0  0
 29105  1  0  0  0
 29106  1  0  0  0
 33 34  1  0  0  0
 33 66  1  0  0  0
 33 70  2  0  0  0
 34 36  1  0  0  0
 34 59  1  0  0  0
 34107  1  0  0  0
 35 44  2  0  0  0
 35 45  1  0  0  0
 35 68  1  0  0  0
 36 56  1  0  0  0
 36108  1  0  0  0
 37 39  1  0  0  0
 37 47  1  0  0  0
 37 66  1  0  0  0
 37109  1  0  0  0
 38 43  2  0  0  0
 38 46  1  0  0  0
 38 47  1  0  0  0
 39 64  1  0  0  0
 39 67  2  0  0  0
 40 52  1  0  0  0
 40 53  2  0  0  0
 40 58  1  0  0  0
 41110  1  0  0  0
 41111  1  0  0  0
 41112  1  0  0  0
 41 48  1  0  0  0
 42 43  1  0  0  0
 42 66  1  0  0  0
 42113  1  0  0  0
 42114  1  0  0  0
 43 44  1  0  0  0
 44115  1  0  0  0
 45 46  2  0  0  0
 45116  1  0  0  0
 46117  1  0  0  0
 47118  1  0  0  0
 47119  1  0  0  0
 48 56  1  0  0  0
 48 65  1  0  0  0
 48120  1  0  0  0
 49 50  1  0  0  0
 49 53  1  0  0  0
 49 64  1  0  0  0
 49121  1  0  0  0
 50 51  1  0  0  0
 50122  1  0  0  0
 50123  1  0  0  0
 51 52  1  0  0  0
 51124  1  0  0  0
 51125  1  0  0  0
 52126  1  0  0  0
 52127  1  0  0  0
 53 54  1  0  0  0
 54 55  2  0  0  0
 54128  1  0  0  0
 55 57  1  0  0  0
 55129  1  0  0  0
 56 69  2  0  0  0
 57 58  2  0  0  0
 57130  1  0  0  0
 58131  1  0  0  0
 59 60  1  0  0  0
 59 61  1  0  0  0
 59 62  1  0  0  0
 60132  1  0  0  0
 60133  1  0  0  0
 60134  1  0  0  0
 61135  1  0  0  0
 61136  1  0  0  0
 61137  1  0  0  0
 62138  1  0  0  0
 62139  1  0  0  0
 62140  1  0  0  0
 63 65  1  0  0  0
 63141  1  0  0  0
 63142  1  0  0  0
 63143  1  0  0  0
 64144  1  0  0  0
 65145  1  0  0  0
 68 80  1  0  0  0
 71 73  2  0  0  0
 71 74  1  0  0  0
 71146  1  0  0  0
 72 73  1  0  0  0
 72 75  2  0  0  0
 72147  1  0  0  0
 73 86  1  0  0  0
 74 81  2  0  0  0
 74 82  1  0  0  0
 75 81  1  0  0  0
 75 83  1  0  0  0
 76 77  2  0  0  0
 76 78  1  0  0  0
 76 79  1  0  0  0
 77 80  1  0  0  0
 77 85  1  0  0  0
 78 82  1  0  0  0
 78 84  2  0  0  0
 79148  1  0  0  0
 79149  1  0  0  0
 79150  1  0  0  0
 80151  1  0  0  0
 80152  1  0  0  0
 82153  1  0  0  0
 83154  1  0  0  0
 85155  1  0  0  0
M  ISO  4   1 100  68 101  80 101  83 100
M  END
> <chiral flag>
0

> <version>
0

> <s_m_source_file>
/data/baiqing/PycharmProjects/Reinvent-master-3.2/result/LINK_invent/BTK/process_docking_weight1_custom_product_contain_oxygen_bond_distance_aromatic_linkinvent_7_9_3/rearranged_h_0176.sdf

> <i_m_source_file_index>
65

> <r_mmod_Potential_Energy-OPLS-2005>
-178.259414672852

> <r_mmod_Stretch_Energy-OPLS-2005>
59.0357208251953

> <r_mmod_Bend_Energy-OPLS-2005>
123.307662963867

> <r_mmod_Torsional_Energy-OPLS-2005>
231.498916625977

> <r_mmod_Improper_Torsional_Energy-OPLS-2005>
4.70646286010742

> <r_mmod_Van_der_Waal_Energy-OPLS-2005>
178.364822387695

> <r_mmod_Electrostatic_Energy-OPLS-2005>
-568.48291015625

> <r_mmod_Solvation_Energy-OPLS-2005>
-231.323257446289

> <b_mmod_Minimization_Converged-OPLS-2005>
0

> <r_mmod_RMS_Derivative-OPLS-2005>
1.42826867103577

$$$$
65
                    3D
 Structure written by MMmdl.
150158  0  0  1  0            999 V2000
  -30.6989  -14.5112   20.4974 C   0  0  0  0  0  0
  -30.4165  -12.3036   19.4437 C   0  0  0  0  0  0
  -29.4990  -12.4942   18.2176 C   0  0  0  0  0  0
  -28.0170  -12.3635   18.6224 C   0  0  0  0  0  0
  -27.6555  -13.2203   19.8664 C   0  0  2  0  0  0
  -28.6999  -13.0444   20.9902 C   0  0  0  0  0  0
  -25.2535  -13.8162   20.5736 C   0  0  0  0  0  0
  -24.1800  -13.0402   20.9152 C   0  0  0  0  0  0
  -24.6394  -11.6891   20.8707 C   0  0  0  0  0  0
  -23.9069  -10.4275   21.0380 C   0  0  0  0  0  0
  -24.3615   -9.4200   21.9170 C   0  0  0  0  0  0
  -23.6288   -8.2239   22.0751 C   0  0  0  0  0  0
  -22.4270   -8.0274   21.3542 C   0  0  0  0  0  0
  -21.9905   -9.0243   20.4641 C   0  0  0  0  0  0
  -22.7236  -10.2118   20.3039 C   0  0  0  0  0  0
  -21.6852   -6.0731   22.5279 C   0  0  0  0  0  0
  -21.4013   -6.5635   23.8212 C   0  0  0  0  0  0
  -21.3660   -5.6790   24.9175 C   0  0  0  0  0  0
  -21.6046   -4.3054   24.7226 C   0  0  0  0  0  0
  -21.8820   -3.8144   23.4348 C   0  0  0  0  0  0
  -21.9194   -4.6959   22.3403 C   0  0  0  0  0  0
  -22.7824  -13.5190   21.1837 C   0  0  0  0  0  0
  -22.1661   -4.2146   21.0980 F   0  0  0  0  0  0
  -21.5631   -3.4537   25.7738 F   0  0  0  0  0  0
  -30.0343  -13.3220   20.4357 N   0  0  0  0  0  0
  -26.3004  -12.9386   20.3369 N   0  0  0  0  0  0
  -25.9329  -11.6518   20.5745 N   0  0  0  0  0  0
  -22.0484  -12.8181   22.0407 N   0  0  0  0  0  0
  -25.4101  -15.1900   20.4348 N   0  0  0  0  0  0
  -31.8772  -14.5782   20.1358 O   0  0  0  0  0  0
  -21.6633   -6.8872   21.4240 O   0  0  0  0  0  0
  -22.3495  -14.5500   20.6705 O   0  0  0  0  0  0
  -24.6157  -31.8678   23.2106 C   0  0  0  0  0  0
  -25.9048  -32.4823   23.8404 C   0  0  1  0  0  0
  -27.2288  -27.4260   20.0999 C   0  0  0  0  0  0
  -25.5904  -33.8623   24.2334 N   0  0  0  0  0  0
  -23.4047  -30.4922   21.5510 C   0  0  2  0  0  0
  -24.8522  -28.9627   20.1106 C   0  0  0  0  0  0
  -22.7420  -29.4656   22.4982 C   0  0  0  0  0  0
  -18.0274  -28.1378   22.8492 C   0  0  0  0  0  0
  -24.1488  -36.7313   23.2637 C   0  0  0  0  0  0
  -25.9355  -30.8310   21.3670 C   0  0  0  0  0  0
  -26.0137  -29.4664   20.7116 C   0  0  0  0  0  0
  -27.2077  -28.7048   20.7051 C   0  0  0  0  0  0
  -26.0539  -26.9490   19.4767 C   0  0  0  0  0  0
  -24.8674  -27.7036   19.4886 C   0  0  0  0  0  0
  -23.6138  -29.8288   20.1641 C   0  0  0  0  0  0
  -25.4109  -36.3114   24.0338 C   0  0  1  0  0  0
  -20.5865  -28.3667   23.1314 C   0  0  2  0  0  0
  -20.6766  -26.9402   22.5416 C   0  0  0  0  0  0
  -19.5744  -26.6385   21.5213 C   0  0  0  0  0  0
  -18.1922  -26.7926   22.1623 C   0  0  0  0  0  0
  -19.1523  -28.8839   23.2900 C   0  0  0  0  0  0
  -18.9452  -30.1446   23.8911 C   0  0  0  0  0  0
  -17.6454  -30.6584   24.0566 C   0  0  0  0  0  0
  -25.9036  -34.9476   23.5131 C   0  0  0  0  0  0
  -16.5346  -29.9086   23.6327 C   0  0  0  0  0  0
  -16.7263  -28.6502   23.0349 C   0  0  0  0  0  0
  -26.4473  -31.6601   25.0731 C   0  0  0  0  0  0
  -25.3740  -31.3701   26.1477 C   0  0  0  0  0  0
  -27.0307  -30.3045   24.6109 C   0  0  0  0  0  0
  -27.6051  -32.4316   25.7492 C   0  0  0  0  0  0
  -27.5582  -37.1813   24.8465 C   0  0  0  0  0  0
  -21.4145  -29.3034   22.3719 N   0  0  0  0  0  0
  -26.4296  -37.3796   23.9407 N   0  0  0  0  0  0
  -24.6701  -31.0776   22.1012 N   0  0  0  0  0  0
  -23.4186  -28.8193   23.3024 O   0  0  0  0  0  0
  -28.3561  -26.6278   20.1312 O   0  0  0  0  0  0
  -26.5595  -34.8924   22.4692 O   0  0  0  0  0  0
  -23.5346  -32.1431   23.7495 O   0  0  0  0  0  0
  -28.4180  -18.4201   20.2589 C   0  0  0  0  0  0
  -28.2037  -19.8363   20.2110 C   0  0  0  0  0  0
  -29.7218  -18.0912   20.5541 C   0  0  0  0  0  0
  -29.3149  -20.6183   20.4343 C   0  0  0  0  0  0
  -30.4104  -16.7926   20.6277 C   0  0  0  0  0  0
  -28.1500  -25.3257   20.5532 C   0  0  0  0  0  0
  -28.9521  -24.2772   20.2602 C   0  0  0  0  0  0
  -28.5768  -22.9277   20.7164 C   0  0  0  0  0  0
  -29.8868  -15.6221   20.7723 N   0  0  0  0  0  0
  -27.3693  -17.5398   19.9393 N   0  0  0  0  0  0
  -29.4591  -21.9763   20.3512 N   0  0  0  0  0  0
  -27.5756  -22.6718   21.3906 O   0  0  0  0  0  0
  -30.0698  -24.4671   19.5407 O   0  0  0  0  0  0
  -27.0271  -20.3226   19.8816 F   0  0  0  0  0  0
  -30.6790  -19.5567   20.7398 S   0  0  0  0  0  0
  -31.4642  -12.3697   19.1451 H   0  0  0  0  0  0
  -30.2919  -11.3043   19.8641 H   0  0  0  0  0  0
  -29.7416  -11.7606   17.4479 H   0  0  0  0  0  0
  -29.6741  -13.4752   17.7727 H   0  0  0  0  0  0
  -27.8244  -11.3104   18.8291 H   0  0  0  0  0  0
  -27.3719  -12.6298   17.7843 H   0  0  0  0  0  0
  -27.6834  -14.2632   19.5497 H   0  0  0  0  0  0
  -28.6696  -12.0277   21.3846 H   0  0  0  0  0  0
  -28.4724  -13.6989   21.8332 H   0  0  0  0  0  0
  -25.2759   -9.5680   22.4743 H   0  0  0  0  0  0
  -23.9997   -7.4634   22.7476 H   0  0  0  0  0  0
  -21.0835   -8.8760   19.8949 H   0  0  0  0  0  0
  -22.3693  -10.9654   19.6144 H   0  0  0  0  0  0
  -21.2001   -7.6143   23.9714 H   0  0  0  0  0  0
  -21.1483   -6.0520   25.9078 H   0  0  0  0  0  0
  -22.0599   -2.7605   23.2851 H   0  0  0  0  0  0
  -22.4106  -11.9836   22.4779 H   0  0  0  0  0  0
  -21.1108  -13.1207   22.2633 H   0  0  0  0  0  0
  -24.6405  -15.8266   20.6054 H   0  0  0  0  0  0
  -26.2923  -15.6836   20.3251 H   0  0  0  0  0  0
  -26.7122  -32.5536   23.1171 H   0  0  0  0  0  0
  -25.0072  -33.9789   25.0490 H   0  0  0  0  0  0
  -22.6936  -31.3093   21.4131 H   0  0  0  0  0  0
  -23.3748  -35.9649   23.3311 H   0  0  0  0  0  0
  -24.3579  -36.8915   22.2049 H   0  0  0  0  0  0
  -23.7241  -37.6522   23.6643 H   0  0  0  0  0  0
  -26.0508  -31.5986   20.6004 H   0  0  0  0  0  0
  -26.8221  -30.8826   21.9871 H   0  0  0  0  0  0
  -28.1019  -29.0823   21.1812 H   0  0  0  0  0  0
  -26.0495  -25.9816   18.9947 H   0  0  0  0  0  0
  -23.9764  -27.3118   19.0176 H   0  0  0  0  0  0
  -23.7208  -30.6060   19.4064 H   0  0  0  0  0  0
  -22.7382  -29.2487   19.8674 H   0  0  0  0  0  0
  -25.1286  -36.1983   25.0831 H   0  0  0  0  0  0
  -20.9957  -28.3232   24.1434 H   0  0  0  0  0  0
  -20.5676  -26.2272   23.3602 H   0  0  0  0  0  0
  -21.6635  -26.7446   22.1207 H   0  0  0  0  0  0
  -19.6908  -25.6299   21.1232 H   0  0  0  0  0  0
  -19.6687  -27.3204   20.6750 H   0  0  0  0  0  0
  -17.4194  -26.6677   21.4022 H   0  0  0  0  0  0
  -18.0320  -26.0064   22.9014 H   0  0  0  0  0  0
  -19.7927  -30.7258   24.2288 H   0  0  0  0  0  0
  -17.5009  -31.6266   24.5163 H   0  0  0  0  0  0
  -15.5348  -30.2994   23.7644 H   0  0  0  0  0  0
  -15.8661  -28.0828   22.7059 H   0  0  0  0  0  0
  -24.5916  -30.7047   25.7808 H   0  0  0  0  0  0
  -24.8929  -32.2855   26.4933 H   0  0  0  0  0  0
  -25.8096  -30.8862   27.0229 H   0  0  0  0  0  0
  -26.2854  -29.6809   24.1158 H   0  0  0  0  0  0
  -27.4073  -29.7277   25.4566 H   0  0  0  0  0  0
  -27.8690  -30.4366   23.9264 H   0  0  0  0  0  0
  -27.2677  -33.3608   26.2095 H   0  0  0  0  0  0
  -28.3849  -32.6887   25.0311 H   0  0  0  0  0  0
  -28.0734  -31.8424   26.5387 H   0  0  0  0  0  0
  -28.2606  -38.0104   24.7513 H   0  0  0  0  0  0
  -28.1072  -36.2636   24.6295 H   0  0  0  0  0  0
  -27.2299  -37.1470   25.8868 H   0  0  0  0  0  0
  -20.9304  -29.8761   21.6946 H   0  0  0  0  0  0
  -26.0188  -38.2876   24.1405 H   0  0  0  0  0  0
  -31.4926  -16.9051   20.5039 H   0  0  0  0  0  0
  -27.2499  -25.2184   21.1476 H   0  0  0  0  0  0
  -26.5741  -18.0027   19.5108 H   0  0  0  0  0  0
  -27.6672  -16.7382   19.3979 H   0  0  0  0  0  0
  -30.3124  -22.3325   19.9413 H   0  0  0  0  0  0
  -30.1144  -25.3957   19.3481 H   0  0  0  0  0  0
  1 25  1  0  0  0
  1 30  2  0  0  0
  1 79  1  0  0  0
  2  3  1  0  0  0
  2 25  1  0  0  0
  2 86  1  0  0  0
  2 87  1  0  0  0
  3  4  1  0  0  0
  3 88  1  0  0  0
  3 89  1  0  0  0
  4  5  1  0  0  0
  4 90  1  0  0  0
  4 91  1  0  0  0
  5  6  1  0  0  0
  5 26  1  0  0  0
  5 92  1  0  0  0
  6 25  1  0  0  0
  6 93  1  0  0  0
  6 94  1  0  0  0
  7  8  2  0  0  0
  7 26  1  0  0  0
  7 29  1  0  0  0
  8  9  1  0  0  0
  8 22  1  0  0  0
  9 10  1  0  0  0
  9 27  2  0  0  0
 10 11  2  0  0  0
 10 15  1  0  0  0
 11 12  1  0  0  0
 11 95  1  0  0  0
 12 13  2  0  0  0
 12 96  1  0  0  0
 13 14  1  0  0  0
 13 31  1  0  0  0
 14 15  2  0  0  0
 14 97  1  0  0  0
 15 98  1  0  0  0
 16 17  2  0  0  0
 16 21  1  0  0  0
 16 31  1  0  0  0
 17 18  1  0  0  0
 17 99  1  0  0  0
 18 19  2  0  0  0
 18100  1  0  0  0
 19 20  1  0  0  0
 19 24  1  0  0  0
 20 21  2  0  0  0
 20101  1  0  0  0
 21 23  1  0  0  0
 22 28  1  0  0  0
 22 32  2  0  0  0
 26 27  1  0  0  0
 28102  1  0  0  0
 28103  1  0  0  0
 29104  1  0  0  0
 29105  1  0  0  0
 33 34  1  0  0  0
 33 66  1  0  0  0
 33 70  2  0  0  0
 34 36  1  0  0  0
 34 59  1  0  0  0
 34106  1  0  0  0
 35 44  2  0  0  0
 35 45  1  0  0  0
 35 68  1  0  0  0
 36 56  1  0  0  0
 36107  1  0  0  0
 37 39  1  0  0  0
 37 47  1  0  0  0
 37 66  1  0  0  0
 37108  1  0  0  0
 38 43  2  0  0  0
 38 46  1  0  0  0
 38 47  1  0  0  0
 39 64  1  0  0  0
 39 67  2  0  0  0
 40 52  1  0  0  0
 40 53  2  0  0  0
 40 58  1  0  0  0
 41109  1  0  0  0
 41110  1  0  0  0
 41111  1  0  0  0
 41 48  1  0  0  0
 42 43  1  0  0  0
 42 66  1  0  0  0
 42112  1  0  0  0
 42113  1  0  0  0
 43 44  1  0  0  0
 44114  1  0  0  0
 45 46  2  0  0  0
 45115  1  0  0  0
 46116  1  0  0  0
 47117  1  0  0  0
 47118  1  0  0  0
 48 56  1  0  0  0
 48 65  1  0  0  0
 48119  1  0  0  0
 49 50  1  0  0  0
 49 53  1  0  0  0
 49 64  1  0  0  0
 49120  1  0  0  0
 50 51  1  0  0  0
 50121  1  0  0  0
 50122  1  0  0  0
 51 52  1  0  0  0
 51123  1  0  0  0
 51124  1  0  0  0
 52125  1  0  0  0
 52126  1  0  0  0
 53 54  1  0  0  0
 54 55  2  0  0  0
 54127  1  0  0  0
 55 57  1  0  0  0
 55128  1  0  0  0
 56 69  2  0  0  0
 57 58  2  0  0  0
 57129  1  0  0  0
 58130  1  0  0  0
 59 60  1  0  0  0
 59 61  1  0  0  0
 59 62  1  0  0  0
 60131  1  0  0  0
 60132  1  0  0  0
 60133  1  0  0  0
 61134  1  0  0  0
 61135  1  0  0  0
 61136  1  0  0  0
 62137  1  0  0  0
 62138  1  0  0  0
 62139  1  0  0  0
 63 65  1  0  0  0
 63140  1  0  0  0
 63141  1  0  0  0
 63142  1  0  0  0
 64143  1  0  0  0
 65144  1  0  0  0
 68 76  1  0  0  0
 71 72  1  0  0  0
 71 73  2  0  0  0
 71 80  1  0  0  0
 72 74  2  0  0  0
 72 84  1  0  0  0
 73 75  1  0  0  0
 73 85  1  0  0  0
 74 81  1  0  0  0
 74 85  1  0  0  0
 75 79  2  0  0  0
 75145  1  0  0  0
 76 77  2  0  0  0
 76146  1  0  0  0
 77 78  1  0  0  0
 77 83  1  0  0  0
 78 81  1  0  0  0
 78 82  2  0  0  0
 80147  1  0  0  0
 80148  1  0  0  0
 81149  1  0  0  0
 83150  1  0  0  0
M  ISO  4   1 100  68 101  76 101  79 100
M  END
> <chiral flag>
0

> <version>
0

> <s_m_source_file>
/data/baiqing/PycharmProjects/Reinvent-master-3.2/result/LINK_invent/BTK/process_docking_weight1_custom_product_contain_oxygen_bond_distance_aromatic_linkinvent_7_9_3/rearranged_h_0176.sdf

> <i_m_source_file_index>
66

> <r_mmod_Potential_Energy-OPLS-2005>
-51.9971694946289

> <r_mmod_Stretch_Energy-OPLS-2005>
40.4076728820801

> <r_mmod_Bend_Energy-OPLS-2005>
99.0564880371094

> <r_mmod_Torsional_Energy-OPLS-2005>
194.742218017578

> <r_mmod_Improper_Torsional_Energy-OPLS-2005>
11.497784614563

> <r_mmod_Van_der_Waal_Energy-OPLS-2005>
153.679534912109

> <r_mmod_Electrostatic_Energy-OPLS-2005>
-367.919647216797

> <r_mmod_Solvation_Energy-OPLS-2005>
-205.001907348633

> <b_mmod_Minimization_Converged-OPLS-2005>
0

> <r_mmod_RMS_Derivative-OPLS-2005>
0.368486106395721

$$$$
66
                    3D
 Structure written by MMmdl.
152160  0  0  1  0            999 V2000
  -30.6945  -14.5298   20.5017 C   0  0  0  0  0  0
  -30.4151  -12.3158   19.4542 C   0  0  0  0  0  0
  -29.5108  -12.5125   18.2207 C   0  0  0  0  0  0
  -28.0251  -12.3860   18.6091 C   0  0  0  0  0  0
  -27.6601  -13.2218   19.8666 C   0  0  2  0  0  0
  -28.6987  -13.0500   20.9999 C   0  0  0  0  0  0
  -25.2570  -13.8158   20.5633 C   0  0  0  0  0  0
  -24.1842  -13.0432   20.9154 C   0  0  0  0  0  0
  -24.6413  -11.6909   20.8693 C   0  0  0  0  0  0
  -23.9064  -10.4297   21.0377 C   0  0  0  0  0  0
  -24.3598   -9.4231   21.9173 C   0  0  0  0  0  0
  -23.6277   -8.2271   22.0780 C   0  0  0  0  0  0
  -22.4263   -8.0272   21.3563 C   0  0  0  0  0  0
  -21.9889   -9.0251   20.4673 C   0  0  0  0  0  0
  -22.7223  -10.2133   20.3057 C   0  0  0  0  0  0
  -21.6880   -6.0712   22.5258 C   0  0  0  0  0  0
  -21.4024   -6.5606   23.8182 C   0  0  0  0  0  0
  -21.3673   -5.6764   24.9144 C   0  0  0  0  0  0
  -21.6048   -4.3024   24.7209 C   0  0  0  0  0  0
  -21.8826   -3.8126   23.4329 C   0  0  0  0  0  0
  -21.9225   -4.6947   22.3390 C   0  0  0  0  0  0
  -22.7873  -13.5260   21.1806 C   0  0  0  0  0  0
  -22.1685   -4.2130   21.0985 F   0  0  0  0  0  0
  -21.5654   -3.4523   25.7725 F   0  0  0  0  0  0
  -30.0329  -13.3351   20.4478 N   0  0  0  0  0  0
  -26.3018  -12.9365   20.3272 N   0  0  0  0  0  0
  -25.9339  -11.6503   20.5647 N   0  0  0  0  0  0
  -22.0456  -12.8326   22.0353 N   0  0  0  0  0  0
  -25.4255  -15.1870   20.4011 N   0  0  0  0  0  0
  -31.8321  -14.6679   20.0431 O   0  0  0  0  0  0
  -21.6653   -6.8860   21.4225 O   0  0  0  0  0  0
  -22.3586  -14.5582   20.6646 O   0  0  0  0  0  0
  -24.6133  -31.8718   23.2132 C   0  0  0  0  0  0
  -25.9035  -32.4864   23.8401 C   0  0  1  0  0  0
  -27.2239  -27.4138   20.0915 C   0  0  0  0  0  0
  -25.5902  -33.8670   24.2361 N   0  0  0  0  0  0
  -23.4034  -30.4951   21.5567 C   0  0  2  0  0  0
  -24.8465  -28.9699   20.1138 C   0  0  0  0  0  0
  -22.7451  -29.4648   22.5038 C   0  0  0  0  0  0
  -18.0296  -28.1386   22.8498 C   0  0  0  0  0  0
  -24.1495  -36.7280   23.2635 C   0  0  0  0  0  0
  -25.9342  -30.8328   21.3704 C   0  0  0  0  0  0
  -26.0113  -29.4677   20.7115 C   0  0  0  0  0  0
  -27.2041  -28.6997   20.6951 C   0  0  0  0  0  0
  -26.0337  -26.9499   19.4821 C   0  0  0  0  0  0
  -24.8556  -27.7141   19.4930 C   0  0  0  0  0  0
  -23.6088  -29.8356   20.1685 C   0  0  0  0  0  0
  -25.4134  -36.3147   24.0342 C   0  0  1  0  0  0
  -20.5889  -28.3652   23.1361 C   0  0  2  0  0  0
  -20.6788  -26.9400   22.5437 C   0  0  0  0  0  0
  -19.5750  -26.6388   21.5246 C   0  0  0  0  0  0
  -18.1926  -26.7939   22.1635 C   0  0  0  0  0  0
  -19.1541  -28.8844   23.2909 C   0  0  0  0  0  0
  -18.9452  -30.1460   23.8894 C   0  0  0  0  0  0
  -17.6454  -30.6583   24.0561 C   0  0  0  0  0  0
  -25.9042  -34.9509   23.5143 C   0  0  0  0  0  0
  -16.5352  -29.9076   23.6331 C   0  0  0  0  0  0
  -16.7277  -28.6501   23.0334 C   0  0  0  0  0  0
  -26.4450  -31.6646   25.0720 C   0  0  0  0  0  0
  -25.3688  -31.3707   26.1445 C   0  0  0  0  0  0
  -27.0254  -30.3103   24.6045 C   0  0  0  0  0  0
  -27.6046  -32.4351   25.7448 C   0  0  0  0  0  0
  -27.5610  -37.1808   24.8473 C   0  0  0  0  0  0
  -21.4185  -29.3007   22.3777 N   0  0  0  0  0  0
  -26.4321  -37.3833   23.9413 N   0  0  0  0  0  0
  -24.6688  -31.0809   22.1053 N   0  0  0  0  0  0
  -23.4237  -28.8189   23.3063 O   0  0  0  0  0  0
  -28.3738  -26.6314   20.1196 O   0  0  0  0  0  0
  -26.5582  -34.8957   22.4692 O   0  0  0  0  0  0
  -23.5326  -32.1469   23.7527 O   0  0  0  0  0  0
  -29.7760  -18.7954   18.7417 C   0  0  0  0  0  0
  -29.6065  -19.1315   20.0722 C   0  0  0  0  0  0
  -29.9696  -16.8715   20.3014 C   0  0  0  0  0  0
  -29.0374  -22.8600   20.8011 C   0  0  0  0  0  0
  -29.7991  -21.6441   20.1660 C   0  0  0  0  0  0
  -29.6369  -19.6450   17.5167 C   0  0  0  0  0  0
  -29.4028  -24.3076   20.3707 C   0  0  0  0  0  0
  -28.1626  -25.1965   20.0650 C   0  0  0  0  0  0
  -29.6455  -18.0141   20.9399 N   0  0  0  0  0  0
  -29.2695  -20.4471   20.5270 N   0  0  0  0  0  0
  -30.0065  -15.5990   20.9574 N   0  0  0  0  0  0
  -28.1649  -22.6740   21.6602 O   0  0  0  0  0  0
  -30.7880  -21.7908   19.4390 O   0  0  0  0  0  0
  -30.1836  -17.1024   18.5651 S   0  0  0  0  0  0
  -31.4675  -12.3794   19.1687 H   0  0  0  0  0  0
  -30.2771  -11.3166   19.8698 H   0  0  0  0  0  0
  -29.7635  -11.7840   17.4480 H   0  0  0  0  0  0
  -29.6942  -13.4952   17.7813 H   0  0  0  0  0  0
  -27.8072  -11.3322   18.7807 H   0  0  0  0  0  0
  -27.4025  -12.6972   17.7706 H   0  0  0  0  0  0
  -27.6919  -14.2662   19.5578 H   0  0  0  0  0  0
  -28.6715  -12.0356   21.4007 H   0  0  0  0  0  0
  -28.4563  -13.7006   21.8393 H   0  0  0  0  0  0
  -25.2740   -9.5733   22.4727 H   0  0  0  0  0  0
  -23.9997   -7.4693   22.7530 H   0  0  0  0  0  0
  -21.0820   -8.8762   19.8988 H   0  0  0  0  0  0
  -22.3654  -10.9646   19.6156 H   0  0  0  0  0  0
  -21.1961   -7.6092   23.9654 H   0  0  0  0  0  0
  -21.1511   -6.0495   25.9042 H   0  0  0  0  0  0
  -22.0609   -2.7592   23.2820 H   0  0  0  0  0  0
  -22.4009  -11.9996   22.4802 H   0  0  0  0  0  0
  -21.1087  -13.1459   22.2463 H   0  0  0  0  0  0
  -24.6549  -15.8371   20.5054 H   0  0  0  0  0  0
  -26.2633  -15.6246   20.0401 H   0  0  0  0  0  0
  -26.7085  -32.5593   23.1144 H   0  0  0  0  0  0
  -25.0152  -33.9831   25.0565 H   0  0  0  0  0  0
  -22.6870  -31.3097   21.4263 H   0  0  0  0  0  0
  -23.3820  -35.9546   23.3314 H   0  0  0  0  0  0
  -24.3578  -36.8878   22.2045 H   0  0  0  0  0  0
  -23.7175  -37.6458   23.6623 H   0  0  0  0  0  0
  -26.0533  -31.6089   20.6139 H   0  0  0  0  0  0
  -26.8186  -30.8805   21.9930 H   0  0  0  0  0  0
  -28.0985  -29.0811   21.1662 H   0  0  0  0  0  0
  -25.9806  -25.9933   18.9860 H   0  0  0  0  0  0
  -23.9629  -27.3322   19.0165 H   0  0  0  0  0  0
  -23.7142  -30.6134   19.4105 H   0  0  0  0  0  0
  -22.7315  -29.2548   19.8746 H   0  0  0  0  0  0
  -25.1321  -36.2018   25.0834 H   0  0  0  0  0  0
  -20.9950  -28.3213   24.1497 H   0  0  0  0  0  0
  -20.5782  -26.2242   23.3609 H   0  0  0  0  0  0
  -21.6651  -26.7499   22.1185 H   0  0  0  0  0  0
  -19.6899  -25.6309   21.1254 H   0  0  0  0  0  0
  -19.6689  -27.3223   20.6794 H   0  0  0  0  0  0
  -17.4221  -26.6739   21.4004 H   0  0  0  0  0  0
  -18.0266  -26.0092   22.9028 H   0  0  0  0  0  0
  -19.7922  -30.7295   24.2258 H   0  0  0  0  0  0
  -17.4988  -31.6265   24.5162 H   0  0  0  0  0  0
  -15.5337  -30.2937   23.7663 H   0  0  0  0  0  0
  -15.8697  -28.0810   22.7020 H   0  0  0  0  0  0
  -24.5877  -30.7063   25.7743 H   0  0  0  0  0  0
  -24.8825  -32.2828   26.4908 H   0  0  0  0  0  0
  -25.8008  -30.8842   27.0192 H   0  0  0  0  0  0
  -26.2756  -29.6914   24.1109 H   0  0  0  0  0  0
  -27.4073  -29.7314   25.4455 H   0  0  0  0  0  0
  -27.8584  -30.4477   23.9149 H   0  0  0  0  0  0
  -27.2721  -33.3686   26.2000 H   0  0  0  0  0  0
  -28.3818  -32.6877   25.0221 H   0  0  0  0  0  0
  -28.0735  -31.8484   26.5351 H   0  0  0  0  0  0
  -28.2644  -38.0100   24.7594 H   0  0  0  0  0  0
  -28.1104  -36.2646   24.6244 H   0  0  0  0  0  0
  -27.2312  -37.1401   25.8871 H   0  0  0  0  0  0
  -20.9370  -29.8684   21.6952 H   0  0  0  0  0  0
  -26.0234  -38.2916   24.1443 H   0  0  0  0  0  0
  -30.5999  -20.0671   17.2247 H   0  0  0  0  0  0
  -28.9325  -20.4620   17.6778 H   0  0  0  0  0  0
  -29.2580  -19.0680   16.6717 H   0  0  0  0  0  0
  -30.0723  -24.2954   19.5125 H   0  0  0  0  0  0
  -29.9662  -24.7486   21.1913 H   0  0  0  0  0  0
  -27.3567  -24.9449   20.7572 H   0  0  0  0  0  0
  -27.8205  -24.9256   19.0671 H   0  0  0  0  0  0
  -28.5539  -20.5162   21.2379 H   0  0  0  0  0  0
  -29.2342  -15.4122   21.5763 H   0  0  0  0  0  0
  1 25  1  0  0  0
  1 30  2  0  0  0
  1 81  1  0  0  0
  2  3  1  0  0  0
  2 25  1  0  0  0
  2 85  1  0  0  0
  2 86  1  0  0  0
  3  4  1  0  0  0
  3 87  1  0  0  0
  3 88  1  0  0  0
  4  5  1  0  0  0
  4 89  1  0  0  0
  4 90  1  0  0  0
  5  6  1  0  0  0
  5 26  1  0  0  0
  5 91  1  0  0  0
  6 25  1  0  0  0
  6 92  1  0  0  0
  6 93  1  0  0  0
  7  8  2  0  0  0
  7 26  1  0  0  0
  7 29  1  0  0  0
  8  9  1  0  0  0
  8 22  1  0  0  0
  9 10  1  0  0  0
  9 27  2  0  0  0
 10 11  2  0  0  0
 10 15  1  0  0  0
 11 12  1  0  0  0
 11 94  1  0  0  0
 12 13  2  0  0  0
 12 95  1  0  0  0
 13 14  1  0  0  0
 13 31  1  0  0  0
 14 15  2  0  0  0
 14 96  1  0  0  0
 15 97  1  0  0  0
 16 17  2  0  0  0
 16 21  1  0  0  0
 16 31  1  0  0  0
 17 18  1  0  0  0
 17 98  1  0  0  0
 18 19  2  0  0  0
 18 99  1  0  0  0
 19 20  1  0  0  0
 19 24  1  0  0  0
 20 21  2  0  0  0
 20100  1  0  0  0
 21 23  1  0  0  0
 22 28  1  0  0  0
 22 32  2  0  0  0
 26 27  1  0  0  0
 28101  1  0  0  0
 28102  1  0  0  0
 29103  1  0  0  0
 29104  1  0  0  0
 33 34  1  0  0  0
 33 66  1  0  0  0
 33 70  2  0  0  0
 34 36  1  0  0  0
 34 59  1  0  0  0
 34105  1  0  0  0
 35 44  2  0  0  0
 35 45  1  0  0  0
 35 68  1  0  0  0
 36 56  1  0  0  0
 36106  1  0  0  0
 37 39  1  0  0  0
 37 47  1  0  0  0
 37 66  1  0  0  0
 37107  1  0  0  0
 38 43  2  0  0  0
 38 46  1  0  0  0
 38 47  1  0  0  0
 39 64  1  0  0  0
 39 67  2  0  0  0
 40 52  1  0  0  0
 40 53  2  0  0  0
 40 58  1  0  0  0
 41108  1  0  0  0
 41109  1  0  0  0
 41110  1  0  0  0
 41 48  1  0  0  0
 42 43  1  0  0  0
 42 66  1  0  0  0
 42111  1  0  0  0
 42112  1  0  0  0
 43 44  1  0  0  0
 44113  1  0  0  0
 45 46  2  0  0  0
 45114  1  0  0  0
 46115  1  0  0  0
 47116  1  0  0  0
 47117  1  0  0  0
 48 56  1  0  0  0
 48 65  1  0  0  0
 48118  1  0  0  0
 49 50  1  0  0  0
 49 53  1  0  0  0
 49 64  1  0  0  0
 49119  1  0  0  0
 50 51  1  0  0  0
 50120  1  0  0  0
 50121  1  0  0  0
 51 52  1  0  0  0
 51122  1  0  0  0
 51123  1  0  0  0
 52124  1  0  0  0
 52125  1  0  0  0
 53 54  1  0  0  0
 54 55  2  0  0  0
 54126  1  0  0  0
 55 57  1  0  0  0
 55127  1  0  0  0
 56 69  2  0  0  0
 57 58  2  0  0  0
 57128  1  0  0  0
 58129  1  0  0  0
 59 60  1  0  0  0
 59 61  1  0  0  0
 59 62  1  0  0  0
 60130  1  0  0  0
 60131  1  0  0  0
 60132  1  0  0  0
 61133  1  0  0  0
 61134  1  0  0  0
 61135  1  0  0  0
 62136  1  0  0  0
 62137  1  0  0  0
 62138  1  0  0  0
 63 65  1  0  0  0
 63139  1  0  0  0
 63140  1  0  0  0
 63141  1  0  0  0
 64142  1  0  0  0
 65143  1  0  0  0
 68 78  1  0  0  0
 71 72  2  0  0  0
 71 76  1  0  0  0
 71 84  1  0  0  0
 72 79  1  0  0  0
 72 80  1  0  0  0
 73 79  2  0  0  0
 73 81  1  0  0  0
 73 84  1  0  0  0
 74 75  1  0  0  0
 74 77  1  0  0  0
 74 82  2  0  0  0
 75 80  1  0  0  0
 75 83  2  0  0  0
 76144  1  0  0  0
 76145  1  0  0  0
 76146  1  0  0  0
 77 78  1  0  0  0
 77147  1  0  0  0
 77148  1  0  0  0
 78149  1  0  0  0
 78150  1  0  0  0
 80151  1  0  0  0
 81152  1  0  0  0
M  ISO  4   1 100  68 101  78 101  81 100
M  END
> <chiral flag>
0

> <version>
0

> <s_m_source_file>
/data/baiqing/PycharmProjects/Reinvent-master-3.2/result/LINK_invent/BTK/process_docking_weight1_custom_product_contain_oxygen_bond_distance_aromatic_linkinvent_7_9_3/rearranged_h_0176.sdf

> <i_m_source_file_index>
67

> <r_mmod_Potential_Energy-OPLS-2005>
-142.773376464844

> <r_mmod_Stretch_Energy-OPLS-2005>
44.548770904541

> <r_mmod_Bend_Energy-OPLS-2005>
104.758651733398

> <r_mmod_Torsional_Energy-OPLS-2005>
253.063522338867

> <r_mmod_Improper_Torsional_Energy-OPLS-2005>
5.67054414749146

> <r_mmod_Van_der_Waal_Energy-OPLS-2005>
135.553161621094

> <r_mmod_Electrostatic_Energy-OPLS-2005>
-472.455871582031

> <r_mmod_Solvation_Energy-OPLS-2005>
-234.730682373047

> <b_mmod_Minimization_Converged-OPLS-2005>
0

> <r_mmod_RMS_Derivative-OPLS-2005>
4.14697265625

$$$$
67
                    3D
 Structure written by MMmdl.
153161  0  0  1  0            999 V2000
  -30.7194  -14.3956   20.6245 C   0  0  0  0  0  0
  -30.4209  -12.2778   19.3978 C   0  0  0  0  0  0
  -29.4905  -12.5335   18.1952 C   0  0  0  0  0  0
  -28.0093  -12.3975   18.6011 C   0  0  0  0  0  0
  -27.6678  -13.2022   19.8829 C   0  0  2  0  0  0
  -28.7052  -12.9233   20.9931 C   0  0  0  0  0  0
  -25.2619  -13.8165   20.5715 C   0  0  0  0  0  0
  -24.1835  -13.0452   20.9150 C   0  0  0  0  0  0
  -24.6365  -11.6910   20.8676 C   0  0  0  0  0  0
  -23.9020  -10.4298   21.0367 C   0  0  0  0  0  0
  -24.3581   -9.4216   21.9145 C   0  0  0  0  0  0
  -23.6281   -8.2237   22.0723 C   0  0  0  0  0  0
  -22.4252   -8.0271   21.3531 C   0  0  0  0  0  0
  -21.9871   -9.0236   20.4625 C   0  0  0  0  0  0
  -22.7185  -10.2129   20.3027 C   0  0  0  0  0  0
  -21.6858   -6.0721   22.5281 C   0  0  0  0  0  0
  -21.4022   -6.5627   23.8215 C   0  0  0  0  0  0
  -21.3663   -5.6779   24.9178 C   0  0  0  0  0  0
  -21.6046   -4.3042   24.7229 C   0  0  0  0  0  0
  -21.8816   -3.8136   23.4350 C   0  0  0  0  0  0
  -21.9194   -4.6950   22.3407 C   0  0  0  0  0  0
  -22.7853  -13.5261   21.1842 C   0  0  0  0  0  0
  -22.1655   -4.2135   21.0982 F   0  0  0  0  0  0
  -21.5622   -3.4522   25.7737 F   0  0  0  0  0  0
  -30.0505  -13.2243   20.4597 N   0  0  0  0  0  0
  -26.3043  -12.9314   20.3378 N   0  0  0  0  0  0
  -25.9290  -11.6479   20.5702 N   0  0  0  0  0  0
  -22.0508  -12.8259   22.0417 N   0  0  0  0  0  0
  -25.4433  -15.1888   20.4250 N   0  0  0  0  0  0
  -31.8013  -14.6406   20.0799 O   0  0  0  0  0  0
  -21.6640   -6.8854   21.4233 O   0  0  0  0  0  0
  -22.3529  -14.5577   20.6728 O   0  0  0  0  0  0
  -24.6125  -31.8729   23.2118 C   0  0  0  0  0  0
  -25.9032  -32.4835   23.8408 C   0  0  1  0  0  0
  -27.2383  -27.4658   20.0670 C   0  0  0  0  0  0
  -25.5922  -33.8639   24.2348 N   0  0  0  0  0  0
  -23.3969  -30.4976   21.5536 C   0  0  2  0  0  0
  -24.8393  -28.9629   20.1195 C   0  0  0  0  0  0
  -22.7381  -29.4715   22.5021 C   0  0  0  0  0  0
  -18.0271  -28.1384   22.8511 C   0  0  0  0  0  0
  -24.1494  -36.7301   23.2630 C   0  0  0  0  0  0
  -25.9245  -30.8424   21.3628 C   0  0  0  0  0  0
  -25.9983  -29.4787   20.7094 C   0  0  0  0  0  0
  -27.1977  -28.7345   20.6847 C   0  0  0  0  0  0
  -26.0520  -26.9519   19.4886 C   0  0  0  0  0  0
  -24.8577  -27.6956   19.5136 C   0  0  0  0  0  0
  -23.6010  -29.8276   20.1700 C   0  0  0  0  0  0
  -25.4112  -36.3119   24.0340 C   0  0  1  0  0  0
  -20.5858  -28.3681   23.1331 C   0  0  2  0  0  0
  -20.6766  -26.9429   22.5413 C   0  0  0  0  0  0
  -19.5734  -26.6415   21.5213 C   0  0  0  0  0  0
  -18.1919  -26.7936   22.1635 C   0  0  0  0  0  0
  -19.1519  -28.8842   23.2925 C   0  0  0  0  0  0
  -18.9445  -30.1449   23.8930 C   0  0  0  0  0  0
  -17.6447  -30.6591   24.0581 C   0  0  0  0  0  0
  -25.9044  -34.9485   23.5138 C   0  0  0  0  0  0
  -16.5341  -29.9095   23.6338 C   0  0  0  0  0  0
  -16.7261  -28.6514   23.0360 C   0  0  0  0  0  0
  -26.4469  -31.6602   25.0725 C   0  0  0  0  0  0
  -25.3746  -31.3703   26.1483 C   0  0  0  0  0  0
  -27.0253  -30.3027   24.6089 C   0  0  0  0  0  0
  -27.6077  -32.4297   25.7468 C   0  0  0  0  0  0
  -27.5590  -37.1804   24.8466 C   0  0  0  0  0  0
  -21.4117  -29.3047   22.3731 N   0  0  0  0  0  0
  -26.4296  -37.3803   23.9425 N   0  0  0  0  0  0
  -24.6623  -31.0849   22.1006 N   0  0  0  0  0  0
  -23.4163  -28.8266   23.3066 O   0  0  0  0  0  0
  -28.4418  -26.7962   20.0431 O   0  0  0  0  0  0
  -26.5590  -34.8929   22.4688 O   0  0  0  0  0  0
  -23.5326  -32.1479   23.7526 O   0  0  0  0  0  0
  -29.1721  -18.8016   21.2120 C   0  0  0  0  0  0
  -28.9550  -17.4207   21.4802 C   0  0  0  0  0  0
  -30.4536  -19.0960   20.8139 C   0  0  0  0  0  0
  -30.0543  -16.6337   21.2520 C   0  0  0  0  0  0
  -29.9025  -24.9560   19.5070 C   0  0  0  0  0  0
  -30.3680  -21.3423   19.9455 C   0  0  0  0  0  0
  -30.1680  -23.8096   20.4831 C   0  0  0  0  0  0
  -28.4759  -25.5046   19.4417 C   0  0  0  0  0  0
  -31.0841  -22.6926   19.9240 C   0  0  0  0  0  0
  -30.9955  -20.3102   20.5341 N   0  0  0  0  0  0
  -30.0760  -15.2841   21.3965 N   0  0  0  0  0  0
  -30.8060  -25.4324   18.8132 O   0  0  0  0  0  0
  -29.2577  -21.2466   19.4140 O   0  0  0  0  0  0
  -31.4139  -17.6353   20.7683 S   0  0  0  0  0  0
  -31.4657  -12.3764   19.0973 H   0  0  0  0  0  0
  -30.3135  -11.2499   19.7490 H   0  0  0  0  0  0
  -29.7184  -11.8436   17.3801 H   0  0  0  0  0  0
  -29.6675  -13.5384   17.8060 H   0  0  0  0  0  0
  -27.7965  -11.3389   18.7537 H   0  0  0  0  0  0
  -27.3692  -12.7208   17.7793 H   0  0  0  0  0  0
  -27.7313  -14.2598   19.6242 H   0  0  0  0  0  0
  -28.6609  -11.8748   21.2914 H   0  0  0  0  0  0
  -28.4583  -13.4787   21.8985 H   0  0  0  0  0  0
  -25.2720   -9.5719   22.4723 H   0  0  0  0  0  0
  -23.9999   -7.4630   22.7445 H   0  0  0  0  0  0
  -21.0796   -8.8740   19.8951 H   0  0  0  0  0  0
  -22.3610  -10.9650   19.6139 H   0  0  0  0  0  0
  -21.2028   -7.6135   23.9718 H   0  0  0  0  0  0
  -21.1487   -6.0509   25.9081 H   0  0  0  0  0  0
  -22.0605   -2.7599   23.2854 H   0  0  0  0  0  0
  -22.4135  -11.9914   22.4777 H   0  0  0  0  0  0
  -21.1133  -13.1276   22.2681 H   0  0  0  0  0  0
  -24.6949  -15.8565   20.5712 H   0  0  0  0  0  0
  -26.3198  -15.6260   20.1681 H   0  0  0  0  0  0
  -26.7107  -32.5558   23.1184 H   0  0  0  0  0  0
  -25.0140  -33.9809   25.0537 H   0  0  0  0  0  0
  -22.6859  -31.3143   21.4148 H   0  0  0  0  0  0
  -23.3772  -35.9618   23.3294 H   0  0  0  0  0  0
  -24.3600  -36.8904   22.2046 H   0  0  0  0  0  0
  -23.7219  -37.6498   23.6629 H   0  0  0  0  0  0
  -26.0396  -31.6119   20.5973 H   0  0  0  0  0  0
  -26.8106  -30.8903   21.9841 H   0  0  0  0  0  0
  -28.0969  -29.1358   21.1305 H   0  0  0  0  0  0
  -26.0235  -25.9871   19.0046 H   0  0  0  0  0  0
  -23.9623  -27.2918   19.0623 H   0  0  0  0  0  0
  -23.7027  -30.5974   19.4047 H   0  0  0  0  0  0
  -22.7251  -29.2439   19.8812 H   0  0  0  0  0  0
  -25.1282  -36.1992   25.0830 H   0  0  0  0  0  0
  -20.9969  -28.3245   24.1442 H   0  0  0  0  0  0
  -20.5704  -26.2282   23.3591 H   0  0  0  0  0  0
  -21.6638  -26.7499   22.1179 H   0  0  0  0  0  0
  -19.6898  -25.6338   21.1211 H   0  0  0  0  0  0
  -19.6647  -27.3251   20.6759 H   0  0  0  0  0  0
  -17.4188  -26.6708   21.4039 H   0  0  0  0  0  0
  -18.0316  -26.0063   22.9018 H   0  0  0  0  0  0
  -19.7918  -30.7266   24.2316 H   0  0  0  0  0  0
  -17.4999  -31.6267   24.5186 H   0  0  0  0  0  0
  -15.5343  -30.3003   23.7632 H   0  0  0  0  0  0
  -15.8667  -28.0827   22.7066 H   0  0  0  0  0  0
  -24.5915  -30.7055   25.7823 H   0  0  0  0  0  0
  -24.8941  -32.2849   26.4968 H   0  0  0  0  0  0
  -25.8113  -30.8849   27.0221 H   0  0  0  0  0  0
  -26.2757  -29.6821   24.1165 H   0  0  0  0  0  0
  -27.4016  -29.7249   25.4546 H   0  0  0  0  0  0
  -27.8619  -30.4314   23.9214 H   0  0  0  0  0  0
  -27.2753  -33.3647   26.2000 H   0  0  0  0  0  0
  -28.3904  -32.6772   25.0279 H   0  0  0  0  0  0
  -28.0710  -31.8428   26.5413 H   0  0  0  0  0  0
  -28.2606  -38.0107   24.7560 H   0  0  0  0  0  0
  -28.1091  -36.2649   24.6241 H   0  0  0  0  0  0
  -27.2318  -37.1393   25.8869 H   0  0  0  0  0  0
  -20.9273  -29.8733   21.6924 H   0  0  0  0  0  0
  -26.0190  -38.2882   24.1438 H   0  0  0  0  0  0
  -28.3792  -19.5272   21.3366 H   0  0  0  0  0  0
  -27.9920  -17.0568   21.8093 H   0  0  0  0  0  0
  -29.2086  -23.4034   20.8052 H   0  0  0  0  0  0
  -30.6177  -24.2385   21.3782 H   0  0  0  0  0  0
  -27.7892  -24.8282   19.9506 H   0  0  0  0  0  0
  -28.1759  -25.5717   18.3947 H   0  0  0  0  0  0
  -31.3972  -22.8920   18.8982 H   0  0  0  0  0  0
  -32.0011  -22.6449   20.5132 H   0  0  0  0  0  0
  -31.9617  -20.4483   20.8041 H   0  0  0  0  0  0
  -29.2676  -14.8883   21.8536 H   0  0  0  0  0  0
  1 25  1  0  0  0
  1 30  2  0  0  0
  1 81  1  0  0  0
  2  3  1  0  0  0
  2 25  1  0  0  0
  2 85  1  0  0  0
  2 86  1  0  0  0
  3  4  1  0  0  0
  3 87  1  0  0  0
  3 88  1  0  0  0
  4  5  1  0  0  0
  4 89  1  0  0  0
  4 90  1  0  0  0
  5  6  1  0  0  0
  5 26  1  0  0  0
  5 91  1  0  0  0
  6 25  1  0  0  0
  6 92  1  0  0  0
  6 93  1  0  0  0
  7  8  2  0  0  0
  7 26  1  0  0  0
  7 29  1  0  0  0
  8  9  1  0  0  0
  8 22  1  0  0  0
  9 10  1  0  0  0
  9 27  2  0  0  0
 10 11  2  0  0  0
 10 15  1  0  0  0
 11 12  1  0  0  0
 11 94  1  0  0  0
 12 13  2  0  0  0
 12 95  1  0  0  0
 13 14  1  0  0  0
 13 31  1  0  0  0
 14 15  2  0  0  0
 14 96  1  0  0  0
 15 97  1  0  0  0
 16 17  2  0  0  0
 16 21  1  0  0  0
 16 31  1  0  0  0
 17 18  1  0  0  0
 17 98  1  0  0  0
 18 19  2  0  0  0
 18 99  1  0  0  0
 19 20  1  0  0  0
 19 24  1  0  0  0
 20 21  2  0  0  0
 20100  1  0  0  0
 21 23  1  0  0  0
 22 28  1  0  0  0
 22 32  2  0  0  0
 26 27  1  0  0  0
 28101  1  0  0  0
 28102  1  0  0  0
 29103  1  0  0  0
 29104  1  0  0  0
 33 34  1  0  0  0
 33 66  1  0  0  0
 33 70  2  0  0  0
 34 36  1  0  0  0
 34 59  1  0  0  0
 34105  1  0  0  0
 35 44  2  0  0  0
 35 45  1  0  0  0
 35 68  1  0  0  0
 36 56  1  0  0  0
 36106  1  0  0  0
 37 39  1  0  0  0
 37 47  1  0  0  0
 37 66  1  0  0  0
 37107  1  0  0  0
 38 43  2  0  0  0
 38 46  1  0  0  0
 38 47  1  0  0  0
 39 64  1  0  0  0
 39 67  2  0  0  0
 40 52  1  0  0  0
 40 53  2  0  0  0
 40 58  1  0  0  0
 41108  1  0  0  0
 41109  1  0  0  0
 41110  1  0  0  0
 41 48  1  0  0  0
 42 43  1  0  0  0
 42 66  1  0  0  0
 42111  1  0  0  0
 42112  1  0  0  0
 43 44  1  0  0  0
 44113  1  0  0  0
 45 46  2  0  0  0
 45114  1  0  0  0
 46115  1  0  0  0
 47116  1  0  0  0
 47117  1  0  0  0
 48 56  1  0  0  0
 48 65  1  0  0  0
 48118  1  0  0  0
 49 50  1  0  0  0
 49 53  1  0  0  0
 49 64  1  0  0  0
 49119  1  0  0  0
 50 51  1  0  0  0
 50120  1  0  0  0
 50121  1  0  0  0
 51 52  1  0  0  0
 51122  1  0  0  0
 51123  1  0  0  0
 52124  1  0  0  0
 52125  1  0  0  0
 53 54  1  0  0  0
 54 55  2  0  0  0
 54126  1  0  0  0
 55 57  1  0  0  0
 55127  1  0  0  0
 56 69  2  0  0  0
 57 58  2  0  0  0
 57128  1  0  0  0
 58129  1  0  0  0
 59 60  1  0  0  0
 59 61  1  0  0  0
 59 62  1  0  0  0
 60130  1  0  0  0
 60131  1  0  0  0
 60132  1  0  0  0
 61133  1  0  0  0
 61134  1  0  0  0
 61135  1  0  0  0
 62136  1  0  0  0
 62137  1  0  0  0
 62138  1  0  0  0
 63 65  1  0  0  0
 63139  1  0  0  0
 63140  1  0  0  0
 63141  1  0  0  0
 64142  1  0  0  0
 65143  1  0  0  0
 68 78  1  0  0  0
 71 72  1  0  0  0
 71 73  2  0  0  0
 71144  1  0  0  0
 72 74  2  0  0  0
 72145  1  0  0  0
 73 80  1  0  0  0
 73 84  1  0  0  0
 74 81  1  0  0  0
 74 84  1  0  0  0
 75 77  1  0  0  0
 75 78  1  0  0  0
 75 82  2  0  0  0
 76 79  1  0  0  0
 76 80  1  0  0  0
 76 83  2  0  0  0
 77 79  1  0  0  0
 77146  1  0  0  0
 77147  1  0  0  0
 78148  1  0  0  0
 78149  1  0  0  0
 79150  1  0  0  0
 79151  1  0  0  0
 80152  1  0  0  0
 81153  1  0  0  0
M  ISO  4   1 100  68 101  78 101  81 100
M  END
> <chiral flag>
0

> <version>
0

> <s_m_source_file>
/data/baiqing/PycharmProjects/Reinvent-master-3.2/result/LINK_invent/BTK/process_docking_weight1_custom_product_contain_oxygen_bond_distance_aromatic_linkinvent_7_9_3/rearranged_h_0176.sdf

> <i_m_source_file_index>
68

> <r_mmod_Potential_Energy-OPLS-2005>
-170.207138061523

> <r_mmod_Stretch_Energy-OPLS-2005>
31.4200859069824

> <r_mmod_Bend_Energy-OPLS-2005>
99.5693588256836

> <r_mmod_Torsional_Energy-OPLS-2005>
230.222427368164

> <r_mmod_Improper_Torsional_Energy-OPLS-2005>
3.8352997303009

> <r_mmod_Van_der_Waal_Energy-OPLS-2005>
142.634994506836

> <r_mmod_Electrostatic_Energy-OPLS-2005>
-436.471649169922

> <r_mmod_Solvation_Energy-OPLS-2005>
-249.825042724609

> <b_mmod_Minimization_Converged-OPLS-2005>
0

> <r_mmod_RMS_Derivative-OPLS-2005>
2.41154837608337

$$$$
68
                    3D
 Structure written by MMmdl.
150158  0  0  1  0            999 V2000
  -30.6962  -14.7145   20.4541 C   0  0  0  0  0  0
  -30.4191  -12.4311   19.4903 C   0  0  0  0  0  0
  -29.5064  -12.4793   18.2494 C   0  0  0  0  0  0
  -28.0332  -12.3251   18.6621 C   0  0  0  0  0  0
  -27.6452  -13.2393   19.8554 C   0  0  2  0  0  0
  -28.6936  -13.2017   20.9915 C   0  0  0  0  0  0
  -25.2531  -13.8217   20.5738 C   0  0  0  0  0  0
  -24.1808  -13.0460   20.9216 C   0  0  0  0  0  0
  -24.6405  -11.6938   20.8781 C   0  0  0  0  0  0
  -23.9091  -10.4298   21.0411 C   0  0  0  0  0  0
  -24.3618   -9.4195   21.9186 C   0  0  0  0  0  0
  -23.6282   -8.2244   22.0758 C   0  0  0  0  0  0
  -22.4281   -8.0290   21.3544 C   0  0  0  0  0  0
  -21.9918   -9.0272   20.4657 C   0  0  0  0  0  0
  -22.7259  -10.2134   20.3067 C   0  0  0  0  0  0
  -21.6847   -6.0731   22.5254 C   0  0  0  0  0  0
  -21.4017   -6.5642   23.8197 C   0  0  0  0  0  0
  -21.3649   -5.6788   24.9166 C   0  0  0  0  0  0
  -21.6043   -4.3054   24.7214 C   0  0  0  0  0  0
  -21.8822   -3.8149   23.4336 C   0  0  0  0  0  0
  -21.9200   -4.6958   22.3384 C   0  0  0  0  0  0
  -22.7816  -13.5226   21.1879 C   0  0  0  0  0  0
  -22.1660   -4.2140   21.0955 F   0  0  0  0  0  0
  -21.5624   -3.4534   25.7737 F   0  0  0  0  0  0
  -29.9989  -13.5262   20.4026 N   0  0  0  0  0  0
  -26.2966  -12.9456   20.3346 N   0  0  0  0  0  0
  -25.9358  -11.6597   20.5824 N   0  0  0  0  0  0
  -22.0473  -12.8218   22.0416 N   0  0  0  0  0  0
  -25.4263  -15.1932   20.4136 N   0  0  0  0  0  0
  -31.8921  -14.6856   20.1502 O   0  0  0  0  0  0
  -21.6643   -6.8884   21.4232 O   0  0  0  0  0  0
  -22.3511  -14.5527   20.6708 O   0  0  0  0  0  0
  -24.6304  -31.8527   23.1949 C   0  0  0  0  0  0
  -25.9099  -32.4756   23.8315 C   0  0  1  0  0  0
  -27.2315  -27.2475   20.1361 C   0  0  0  0  0  0
  -25.5898  -33.8552   24.2211 N   0  0  0  0  0  0
  -23.4329  -30.4719   21.5406 C   0  0  2  0  0  0
  -24.8854  -28.9232   20.1100 C   0  0  0  0  0  0
  -22.7511  -29.4553   22.4902 C   0  0  0  0  0  0
  -18.0284  -28.1373   22.8469 C   0  0  0  0  0  0
  -24.1479  -36.7276   23.2633 C   0  0  0  0  0  0
  -25.9801  -30.7610   21.3833 C   0  0  0  0  0  0
  -26.0578  -29.3850   20.7213 C   0  0  0  0  0  0
  -27.2328  -28.5602   20.7240 C   0  0  0  0  0  0
  -26.0366  -26.8765   19.4700 C   0  0  0  0  0  0
  -24.8808  -27.6763   19.4738 C   0  0  0  0  0  0
  -23.6521  -29.8015   20.1598 C   0  0  0  0  0  0
  -25.4105  -36.3049   24.0310 C   0  0  1  0  0  0
  -20.5897  -28.3662   23.1266 C   0  0  2  0  0  0
  -20.6794  -26.9382   22.5409 C   0  0  0  0  0  0
  -19.5749  -26.6354   21.5227 C   0  0  0  0  0  0
  -18.1908  -26.7903   22.1621 C   0  0  0  0  0  0
  -19.1543  -28.8835   23.2852 C   0  0  0  0  0  0
  -18.9463  -30.1443   23.8855 C   0  0  0  0  0  0
  -17.6473  -30.6579   24.0550 C   0  0  0  0  0  0
  -25.9062  -34.9435   23.5067 C   0  0  0  0  0  0
  -16.5360  -29.9059   23.6376 C   0  0  0  0  0  0
  -16.7284  -28.6488   23.0375 C   0  0  0  0  0  0
  -26.4483  -31.6602   25.0722 C   0  0  0  0  0  0
  -25.3719  -31.3779   26.1462 C   0  0  0  0  0  0
  -27.0362  -30.3012   24.6246 C   0  0  0  0  0  0
  -27.6018  -32.4373   25.7492 C   0  0  0  0  0  0
  -27.5573  -37.1747   24.8445 C   0  0  0  0  0  0
  -21.4231  -29.2996   22.3644 N   0  0  0  0  0  0
  -26.4263  -37.3762   23.9420 N   0  0  0  0  0  0
  -24.7013  -31.0456   22.0961 N   0  0  0  0  0  0
  -23.4197  -28.8107   23.3030 O   0  0  0  0  0  0
  -28.2917  -26.3045   20.2603 O   0  0  0  0  0  0
  -26.5668  -34.8912   22.4649 O   0  0  0  0  0  0
  -23.5453  -32.1358   23.7214 O   0  0  0  0  0  0
  -28.7947  -18.9088   21.6202 C   0  0  0  0  0  0
  -29.7698  -18.5248   20.7108 C   0  0  0  0  0  0
  -29.1141  -21.0409   20.7013 C   0  0  0  0  0  0
  -30.5249  -17.2082   20.4082 C   0  0  0  0  0  0
  -29.0516  -23.6822   20.4461 C   0  0  0  0  0  0
  -26.8328  -24.5346   21.3448 C   0  0  0  0  0  0
  -27.9324  -24.8255   20.2735 C   0  0  1  0  0  0
  -28.4212  -20.2839   21.5745 N   0  0  0  0  0  0
  -28.6055  -22.3745   20.3401 N   0  0  0  0  0  0
  -30.0325  -15.9242   20.6531 N   0  0  0  0  0  0
  -31.6256  -17.3730   19.8637 O   0  0  0  0  0  0
  -30.2348  -23.9753   20.6548 O   0  0  0  0  0  0
  -25.7241  -23.8518   20.7718 O   0  0  0  0  0  0
  -30.3167  -20.0168   19.8554 S   0  0  0  0  0  0
  -31.4619  -12.5109   19.1825 H   0  0  0  0  0  0
  -30.3415  -11.4662   19.9939 H   0  0  0  0  0  0
  -29.7778  -11.6851   17.5548 H   0  0  0  0  0  0
  -29.6504  -13.4201   17.7165 H   0  0  0  0  0  0
  -27.8826  -11.2788   18.9359 H   0  0  0  0  0  0
  -27.3778  -12.5138   17.8105 H   0  0  0  0  0  0
  -27.6357  -14.2559   19.4613 H   0  0  0  0  0  0
  -28.7222  -12.2164   21.4606 H   0  0  0  0  0  0
  -28.4396  -13.9126   21.7799 H   0  0  0  0  0  0
  -25.2755   -9.5663   22.4776 H   0  0  0  0  0  0
  -23.9973   -7.4643   22.7486 H   0  0  0  0  0  0
  -21.0849   -8.8829   19.8960 H   0  0  0  0  0  0
  -22.3737  -10.9701   19.6187 H   0  0  0  0  0  0
  -21.2012   -7.6154   23.9697 H   0  0  0  0  0  0
  -21.1459   -6.0522   25.9058 H   0  0  0  0  0  0
  -22.0611   -2.7613   23.2842 H   0  0  0  0  0  0
  -22.4098  -11.9863   22.4790 H   0  0  0  0  0  0
  -21.1095  -13.1243   22.2651 H   0  0  0  0  0  0
  -24.6749  -15.8605   20.5532 H   0  0  0  0  0  0
  -26.2798  -15.6242   20.0833 H   0  0  0  0  0  0
  -26.7157  -32.5428   23.1062 H   0  0  0  0  0  0
  -25.0012  -33.9684   25.0336 H   0  0  0  0  0  0
  -22.7288  -31.2930   21.3892 H   0  0  0  0  0  0
  -23.3757  -35.9590   23.3256 H   0  0  0  0  0  0
  -24.3570  -36.8965   22.2058 H   0  0  0  0  0  0
  -23.7220  -37.6438   23.6738 H   0  0  0  0  0  0
  -26.1167  -31.5193   20.6124 H   0  0  0  0  0  0
  -26.8557  -30.8120   22.0208 H   0  0  0  0  0  0
  -28.1235  -28.8943   21.2369 H   0  0  0  0  0  0
  -25.9466  -25.9242   18.9714 H   0  0  0  0  0  0
  -23.9878  -27.3099   18.9887 H   0  0  0  0  0  0
  -23.7570  -30.5735   19.3951 H   0  0  0  0  0  0
  -22.7761  -29.2180   19.8740 H   0  0  0  0  0  0
  -25.1268  -36.1868   25.0804 H   0  0  0  0  0  0
  -20.9980  -28.3266   24.1402 H   0  0  0  0  0  0
  -20.5716  -26.2281   23.3615 H   0  0  0  0  0  0
  -21.6648  -26.7429   22.1172 H   0  0  0  0  0  0
  -19.6923  -25.6260   21.1249 H   0  0  0  0  0  0
  -19.6700  -27.3197   20.6768 H   0  0  0  0  0  0
  -17.4200  -26.6673   21.4002 H   0  0  0  0  0  0
  -18.0258  -26.0068   22.9033 H   0  0  0  0  0  0
  -19.7965  -30.7243   24.2211 H   0  0  0  0  0  0
  -17.5048  -31.6272   24.5109 H   0  0  0  0  0  0
  -15.5351  -30.2929   23.7740 H   0  0  0  0  0  0
  -15.8698  -28.0798   22.7105 H   0  0  0  0  0  0
  -24.5845  -30.7187   25.7794 H   0  0  0  0  0  0
  -24.8970  -32.2970   26.4907 H   0  0  0  0  0  0
  -25.7997  -30.8934   27.0244 H   0  0  0  0  0  0
  -26.2986  -29.6708   24.1277 H   0  0  0  0  0  0
  -27.4046  -29.7308   25.4770 H   0  0  0  0  0  0
  -27.8849  -30.4252   23.9517 H   0  0  0  0  0  0
  -27.2644  -33.3746   26.1931 H   0  0  0  0  0  0
  -28.3907  -32.6806   25.0368 H   0  0  0  0  0  0
  -28.0609  -31.8598   26.5526 H   0  0  0  0  0  0
  -28.2508  -38.0126   24.7608 H   0  0  0  0  0  0
  -28.1144  -36.2650   24.6129 H   0  0  0  0  0  0
  -27.2314  -37.1241   25.8851 H   0  0  0  0  0  0
  -20.9423  -29.8709   21.6857 H   0  0  0  0  0  0
  -26.0130  -38.2801   24.1525 H   0  0  0  0  0  0
  -28.2874  -18.2830   22.3468 H   0  0  0  0  0  0
  -26.4807  -25.4387   21.8351 H   0  0  0  0  0  0
  -27.2224  -23.9184   22.1580 H   0  0  0  0  0  0
  -27.5510  -24.6088   19.2765 H   0  0  0  0  0  0
  -27.6145  -22.3468   20.1391 H   0  0  0  0  0  0
  -29.0772  -15.8662   20.9614 H   0  0  0  0  0  0
  -24.9974  -23.9189   21.3858 H   0  0  0  0  0  0
  1 25  1  0  0  0
  1 30  2  0  0  0
  1 80  1  0  0  0
  2  3  1  0  0  0
  2 25  1  0  0  0
  2 85  1  0  0  0
  2 86  1  0  0  0
  3  4  1  0  0  0
  3 87  1  0  0  0
  3 88  1  0  0  0
  4  5  1  0  0  0
  4 89  1  0  0  0
  4 90  1  0  0  0
  5  6  1  0  0  0
  5 26  1  0  0  0
  5 91  1  0  0  0
  6 25  1  0  0  0
  6 92  1  0  0  0
  6 93  1  0  0  0
  7  8  2  0  0  0
  7 26  1  0  0  0
  7 29  1  0  0  0
  8  9  1  0  0  0
  8 22  1  0  0  0
  9 10  1  0  0  0
  9 27  2  0  0  0
 10 11  2  0  0  0
 10 15  1  0  0  0
 11 12  1  0  0  0
 11 94  1  0  0  0
 12 13  2  0  0  0
 12 95  1  0  0  0
 13 14  1  0  0  0
 13 31  1  0  0  0
 14 15  2  0  0  0
 14 96  1  0  0  0
 15 97  1  0  0  0
 16 17  2  0  0  0
 16 21  1  0  0  0
 16 31  1  0  0  0
 17 18  1  0  0  0
 17 98  1  0  0  0
 18 19  2  0  0  0
 18 99  1  0  0  0
 19 20  1  0  0  0
 19 24  1  0  0  0
 20 21  2  0  0  0
 20100  1  0  0  0
 21 23  1  0  0  0
 22 28  1  0  0  0
 22 32  2  0  0  0
 26 27  1  0  0  0
 28101  1  0  0  0
 28102  1  0  0  0
 29103  1  0  0  0
 29104  1  0  0  0
 33 34  1  0  0  0
 33 66  1  0  0  0
 33 70  2  0  0  0
 34 36  1  0  0  0
 34 59  1  0  0  0
 34105  1  0  0  0
 35 44  2  0  0  0
 35 45  1  0  0  0
 35 68  1  0  0  0
 36 56  1  0  0  0
 36106  1  0  0  0
 37 39  1  0  0  0
 37 47  1  0  0  0
 37 66  1  0  0  0
 37107  1  0  0  0
 38 43  2  0  0  0
 38 46  1  0  0  0
 38 47  1  0  0  0
 39 64  1  0  0  0
 39 67  2  0  0  0
 40 52  1  0  0  0
 40 53  2  0  0  0
 40 58  1  0  0  0
 41108  1  0  0  0
 41109  1  0  0  0
 41110  1  0  0  0
 41 48  1  0  0  0
 42 43  1  0  0  0
 42 66  1  0  0  0
 42111  1  0  0  0
 42112  1  0  0  0
 43 44  1  0  0  0
 44113  1  0  0  0
 45 46  2  0  0  0
 45114  1  0  0  0
 46115  1  0  0  0
 47116  1  0  0  0
 47117  1  0  0  0
 48 56  1  0  0  0
 48 65  1  0  0  0
 48118  1  0  0  0
 49 50  1  0  0  0
 49 53  1  0  0  0
 49 64  1  0  0  0
 49119  1  0  0  0
 50 51  1  0  0  0
 50120  1  0  0  0
 50121  1  0  0  0
 51 52  1  0  0  0
 51122  1  0  0  0
 51123  1  0  0  0
 52124  1  0  0  0
 52125  1  0  0  0
 53 54  1  0  0  0
 54 55  2  0  0  0
 54126  1  0  0  0
 55 57  1  0  0  0
 55127  1  0  0  0
 56 69  2  0  0  0
 57 58  2  0  0  0
 57128  1  0  0  0
 58129  1  0  0  0
 59 60  1  0  0  0
 59 61  1  0  0  0
 59 62  1  0  0  0
 60130  1  0  0  0
 60131  1  0  0  0
 60132  1  0  0  0
 61133  1  0  0  0
 61134  1  0  0  0
 61135  1  0  0  0
 62136  1  0  0  0
 62137  1  0  0  0
 62138  1  0  0  0
 63 65  1  0  0  0
 63139  1  0  0  0
 63140  1  0  0  0
 63141  1  0  0  0
 64142  1  0  0  0
 65143  1  0  0  0
 68 77  1  0  0  0
 71 72  2  0  0  0
 71 78  1  0  0  0
 71144  1  0  0  0
 72 74  1  0  0  0
 72 84  1  0  0  0
 73 78  2  0  0  0
 73 79  1  0  0  0
 73 84  1  0  0  0
 74 80  1  0  0  0
 74 81  2  0  0  0
 75 77  1  0  0  0
 75 79  1  0  0  0
 75 82  2  0  0  0
 76 83  1  0  0  0
 76145  1  0  0  0
 76146  1  0  0  0
 76 77  1  0  0  0
 77147  1  0  0  0
 79148  1  0  0  0
 80149  1  0  0  0
 83150  1  0  0  0
M  ISO  4   1 100  68 101  77 101  80 100
M  END
> <chiral flag>
0

> <version>
0

> <s_m_source_file>
/data/baiqing/PycharmProjects/Reinvent-master-3.2/result/LINK_invent/BTK/process_docking_weight1_custom_product_contain_oxygen_bond_distance_aromatic_linkinvent_7_9_3/rearranged_h_0176.sdf

> <i_m_source_file_index>
69

> <r_mmod_Potential_Energy-OPLS-2005>
86.8580093383789

> <r_mmod_Stretch_Energy-OPLS-2005>
118.989616394043

> <r_mmod_Bend_Energy-OPLS-2005>
185.684829711914

> <r_mmod_Torsional_Energy-OPLS-2005>
254.851791381836

> <r_mmod_Improper_Torsional_Energy-OPLS-2005>
7.91094160079956

> <r_mmod_Van_der_Waal_Energy-OPLS-2005>
138.607818603516

> <r_mmod_Electrostatic_Energy-OPLS-2005>
-438.786773681641

> <r_mmod_Solvation_Energy-OPLS-2005>
-272.894226074219

> <b_mmod_Minimization_Converged-OPLS-2005>
0

> <r_mmod_RMS_Derivative-OPLS-2005>
5.18460607528687

$$$$
69
                    3D
 Structure written by MMmdl.
153161  0  0  1  0            999 V2000
  -30.6577  -14.5166   20.5801 C   0  0  0  0  0  0
  -30.4460  -12.3348   19.4188 C   0  0  0  0  0  0
  -29.5044  -12.5099   18.2064 C   0  0  0  0  0  0
  -28.0245  -12.3636   18.6169 C   0  0  0  0  0  0
  -27.6667  -13.1983   19.8753 C   0  0  2  0  0  0
  -28.7106  -12.9618   20.9908 C   0  0  0  0  0  0
  -25.2644  -13.8138   20.5703 C   0  0  0  0  0  0
  -24.1871  -13.0437   20.9167 C   0  0  0  0  0  0
  -24.6413  -11.6895   20.8719 C   0  0  0  0  0  0
  -23.9058  -10.4304   21.0409 C   0  0  0  0  0  0
  -24.3612   -9.4213   21.9189 C   0  0  0  0  0  0
  -23.6283   -8.2252   22.0755 C   0  0  0  0  0  0
  -22.4264   -8.0293   21.3551 C   0  0  0  0  0  0
  -21.9896   -9.0273   20.4651 C   0  0  0  0  0  0
  -22.7228  -10.2149   20.3067 C   0  0  0  0  0  0
  -21.6867   -6.0736   22.5279 C   0  0  0  0  0  0
  -21.4009   -6.5637   23.8211 C   0  0  0  0  0  0
  -21.3654   -5.6786   24.9171 C   0  0  0  0  0  0
  -21.6043   -4.3053   24.7220 C   0  0  0  0  0  0
  -21.8827   -3.8147   23.4338 C   0  0  0  0  0  0
  -21.9201   -4.6966   22.3396 C   0  0  0  0  0  0
  -22.7902  -13.5257   21.1829 C   0  0  0  0  0  0
  -22.1692   -4.2144   21.0983 F   0  0  0  0  0  0
  -21.5609   -3.4537   25.7736 F   0  0  0  0  0  0
  -30.0401  -13.3062   20.4498 N   0  0  0  0  0  0
  -26.3056  -12.9277   20.3346 N   0  0  0  0  0  0
  -25.9335  -11.6444   20.5735 N   0  0  0  0  0  0
  -22.0550  -12.8267   22.0403 N   0  0  0  0  0  0
  -25.4424  -15.1855   20.4146 N   0  0  0  0  0  0
  -31.7695  -14.7560   20.0976 O   0  0  0  0  0  0
  -21.6643   -6.8884   21.4242 O   0  0  0  0  0  0
  -22.3587  -14.5558   20.6671 O   0  0  0  0  0  0
  -24.6188  -31.8651   23.2068 C   0  0  0  0  0  0
  -25.9071  -32.4794   23.8384 C   0  0  1  0  0  0
  -27.2403  -27.3911   20.1015 C   0  0  0  0  0  0
  -25.5902  -33.8594   24.2304 N   0  0  0  0  0  0
  -23.4092  -30.4882   21.5473 C   0  0  2  0  0  0
  -24.8567  -28.9498   20.1122 C   0  0  0  0  0  0
  -22.7434  -29.4651   22.4970 C   0  0  0  0  0  0
  -18.0274  -28.1387   22.8490 C   0  0  0  0  0  0
  -24.1474  -36.7297   23.2643 C   0  0  0  0  0  0
  -25.9439  -30.8146   21.3705 C   0  0  0  0  0  0
  -26.0194  -29.4475   20.7135 C   0  0  0  0  0  0
  -27.2094  -28.6762   20.7047 C   0  0  0  0  0  0
  -26.0558  -26.9273   19.4788 C   0  0  0  0  0  0
  -24.8723  -27.6902   19.4917 C   0  0  0  0  0  0
  -23.6206  -29.8212   20.1621 C   0  0  0  0  0  0
  -25.4097  -36.3089   24.0337 C   0  0  1  0  0  0
  -20.5866  -28.3678   23.1302 C   0  0  2  0  0  0
  -20.6761  -26.9411   22.5412 C   0  0  0  0  0  0
  -19.5735  -26.6388   21.5214 C   0  0  0  0  0  0
  -18.1917  -26.7927   22.1632 C   0  0  0  0  0  0
  -19.1527  -28.8851   23.2883 C   0  0  0  0  0  0
  -18.9462  -30.1459   23.8897 C   0  0  0  0  0  0
  -17.6461  -30.6589   24.0569 C   0  0  0  0  0  0
  -25.9041  -34.9459   23.5124 C   0  0  0  0  0  0
  -16.5349  -29.9096   23.6327 C   0  0  0  0  0  0
  -16.7262  -28.6513   23.0346 C   0  0  0  0  0  0
  -26.4490  -31.6594   25.0734 C   0  0  0  0  0  0
  -25.3761  -31.3730   26.1494 C   0  0  0  0  0  0
  -27.0341  -30.3023   24.6172 C   0  0  0  0  0  0
  -27.6041  -32.4352   25.7488 C   0  0  0  0  0  0
  -27.5567  -37.1798   24.8472 C   0  0  0  0  0  0
  -21.4157  -29.3036   22.3704 N   0  0  0  0  0  0
  -26.4277  -37.3779   23.9418 N   0  0  0  0  0  0
  -24.6749  -31.0725   22.0981 N   0  0  0  0  0  0
  -23.4190  -28.8203   23.3032 O   0  0  0  0  0  0
  -28.4046  -26.6292   20.1525 O   0  0  0  0  0  0
  -26.5613  -34.8921   22.4690 O   0  0  0  0  0  0
  -23.5369  -32.1433   23.7436 O   0  0  0  0  0  0
  -28.9296  -18.9886   21.3405 C   0  0  0  0  0  0
  -28.8295  -17.5849   21.5850 C   0  0  0  0  0  0
  -30.0558  -19.3575   20.6568 C   0  0  0  0  0  0
  -29.8585  -16.8164   21.0948 C   0  0  0  0  0  0
  -30.5730  -20.6861   20.1960 C   0  0  0  0  0  0
  -29.4198  -24.3403   20.4458 C   0  0  0  0  0  0
  -29.8799  -23.1207   18.1633 C   0  0  0  0  0  0
  -28.3488  -25.2318   19.7465 C   0  0  0  0  0  0
  -30.0621  -23.1163   19.6946 C   0  0  2  0  0  0
  -29.9075  -15.4495   21.2069 N   0  0  0  0  0  0
  -29.7603  -21.7723   20.2616 N   0  0  0  0  0  0
  -31.7101  -20.7703   19.7258 O   0  0  0  0  0  0
  -29.7477  -24.6077   21.6065 O   0  0  0  0  0  0
  -28.0054  -19.8384   21.7358 F   0  0  0  0  0  0
  -27.8049  -17.0647   22.2227 F   0  0  0  0  0  0
  -31.0199  -17.9032   20.3212 S   0  0  0  0  0  0
  -31.4860  -12.4674   19.1116 H   0  0  0  0  0  0
  -30.3810  -11.3177   19.8107 H   0  0  0  0  0  0
  -29.7450  -11.7804   17.4309 H   0  0  0  0  0  0
  -29.6636  -13.4905   17.7573 H   0  0  0  0  0  0
  -27.8350  -11.3057   18.8072 H   0  0  0  0  0  0
  -27.3784  -12.6398   17.7836 H   0  0  0  0  0  0
  -27.7125  -14.2480   19.5850 H   0  0  0  0  0  0
  -28.7055  -11.9150   21.2978 H   0  0  0  0  0  0
  -28.4554  -13.5224   21.8911 H   0  0  0  0  0  0
  -25.2779   -9.5678   22.4733 H   0  0  0  0  0  0
  -24.0005   -7.4636   22.7463 H   0  0  0  0  0  0
  -21.0833   -8.8800   19.8964 H   0  0  0  0  0  0
  -22.3701  -10.9692   19.6169 H   0  0  0  0  0  0
  -21.2014   -7.6148   23.9705 H   0  0  0  0  0  0
  -21.1465   -6.0526   25.9066 H   0  0  0  0  0  0
  -22.0611   -2.7601   23.2852 H   0  0  0  0  0  0
  -22.4174  -11.9932   22.4786 H   0  0  0  0  0  0
  -21.1184  -13.1314   22.2627 H   0  0  0  0  0  0
  -24.6976  -15.8552   20.5773 H   0  0  0  0  0  0
  -26.3097  -15.6198   20.1296 H   0  0  0  0  0  0
  -26.7143  -32.5492   23.1142 H   0  0  0  0  0  0
  -25.0016  -33.9741   25.0424 H   0  0  0  0  0  0
  -22.6992  -31.3054   21.4056 H   0  0  0  0  0  0
  -23.3728  -35.9642   23.3329 H   0  0  0  0  0  0
  -24.3555  -36.8893   22.2054 H   0  0  0  0  0  0
  -23.7244  -37.6511   23.6651 H   0  0  0  0  0  0
  -26.0763  -31.5823   20.6069 H   0  0  0  0  0  0
  -26.8239  -30.8570   22.0003 H   0  0  0  0  0  0
  -28.1028  -29.0566   21.1799 H   0  0  0  0  0  0
  -26.0156  -25.9730   18.9753 H   0  0  0  0  0  0
  -23.9810  -27.3009   19.0181 H   0  0  0  0  0  0
  -23.7345  -30.5975   19.4045 H   0  0  0  0  0  0
  -22.7422  -29.2465   19.8622 H   0  0  0  0  0  0
  -25.1273  -36.1941   25.0831 H   0  0  0  0  0  0
  -20.9951  -28.3251   24.1424 H   0  0  0  0  0  0
  -20.5655  -26.2298   23.3607 H   0  0  0  0  0  0
  -21.6633  -26.7441   22.1212 H   0  0  0  0  0  0
  -19.6895  -25.6305   21.1231 H   0  0  0  0  0  0
  -19.6659  -27.3208   20.6751 H   0  0  0  0  0  0
  -17.4176  -26.6661   21.4046 H   0  0  0  0  0  0
  -18.0326  -26.0077   22.9039 H   0  0  0  0  0  0
  -19.7941  -30.7274   24.2260 H   0  0  0  0  0  0
  -17.5023  -31.6265   24.5181 H   0  0  0  0  0  0
  -15.5355  -30.3007   23.7651 H   0  0  0  0  0  0
  -15.8658  -28.0840   22.7058 H   0  0  0  0  0  0
  -24.5861  -30.7163   25.7837 H   0  0  0  0  0  0
  -24.9054  -32.2913   26.5018 H   0  0  0  0  0  0
  -25.8113  -30.8821   27.0207 H   0  0  0  0  0  0
  -26.2919  -29.6758   24.1211 H   0  0  0  0  0  0
  -27.4067  -29.7287   25.4670 H   0  0  0  0  0  0
  -27.8771  -30.4316   23.9379 H   0  0  0  0  0  0
  -27.2615  -33.3621   26.2102 H   0  0  0  0  0  0
  -28.3813  -32.6982   25.0299 H   0  0  0  0  0  0
  -28.0763  -31.8484   26.5376 H   0  0  0  0  0  0
  -28.2599  -38.0080   24.7492 H   0  0  0  0  0  0
  -28.1043  -36.2609   24.6317 H   0  0  0  0  0  0
  -27.2289  -37.1477   25.8877 H   0  0  0  0  0  0
  -20.9334  -29.8766   21.6921 H   0  0  0  0  0  0
  -26.0158  -38.2854   24.1418 H   0  0  0  0  0  0
  -30.1994  -24.0675   17.7269 H   0  0  0  0  0  0
  -28.8417  -22.9477   17.8795 H   0  0  0  0  0  0
  -30.4836  -22.3451   17.6913 H   0  0  0  0  0  0
  -27.3896  -24.7935   20.0178 H   0  0  0  0  0  0
  -28.4395  -25.1806   18.6631 H   0  0  0  0  0  0
  -31.1331  -23.2600   19.8450 H   0  0  0  0  0  0
  -29.0909  -15.0540   21.6509 H   0  0  0  0  0  0
  -28.8545  -21.6488   20.6984 H   0  0  0  0  0  0
  1 25  1  0  0  0
  1 30  2  0  0  0
  1 80  1  0  0  0
  2  3  1  0  0  0
  2 25  1  0  0  0
  2 87  1  0  0  0
  2 88  1  0  0  0
  3  4  1  0  0  0
  3 89  1  0  0  0
  3 90  1  0  0  0
  4  5  1  0  0  0
  4 91  1  0  0  0
  4 92  1  0  0  0
  5  6  1  0  0  0
  5 26  1  0  0  0
  5 93  1  0  0  0
  6 25  1  0  0  0
  6 94  1  0  0  0
  6 95  1  0  0  0
  7  8  2  0  0  0
  7 26  1  0  0  0
  7 29  1  0  0  0
  8  9  1  0  0  0
  8 22  1  0  0  0
  9 10  1  0  0  0
  9 27  2  0  0  0
 10 11  2  0  0  0
 10 15  1  0  0  0
 11 12  1  0  0  0
 11 96  1  0  0  0
 12 13  2  0  0  0
 12 97  1  0  0  0
 13 14  1  0  0  0
 13 31  1  0  0  0
 14 15  2  0  0  0
 14 98  1  0  0  0
 15 99  1  0  0  0
 16 17  2  0  0  0
 16 21  1  0  0  0
 16 31  1  0  0  0
 17 18  1  0  0  0
 17100  1  0  0  0
 18 19  2  0  0  0
 18101  1  0  0  0
 19 20  1  0  0  0
 19 24  1  0  0  0
 20 21  2  0  0  0
 20102  1  0  0  0
 21 23  1  0  0  0
 22 28  1  0  0  0
 22 32  2  0  0  0
 26 27  1  0  0  0
 28103  1  0  0  0
 28104  1  0  0  0
 29105  1  0  0  0
 29106  1  0  0  0
 33 34  1  0  0  0
 33 66  1  0  0  0
 33 70  2  0  0  0
 34 36  1  0  0  0
 34 59  1  0  0  0
 34107  1  0  0  0
 35 44  2  0  0  0
 35 45  1  0  0  0
 35 68  1  0  0  0
 36 56  1  0  0  0
 36108  1  0  0  0
 37 39  1  0  0  0
 37 47  1  0  0  0
 37 66  1  0  0  0
 37109  1  0  0  0
 38 43  2  0  0  0
 38 46  1  0  0  0
 38 47  1  0  0  0
 39 64  1  0  0  0
 39 67  2  0  0  0
 40 52  1  0  0  0
 40 53  2  0  0  0
 40 58  1  0  0  0
 41110  1  0  0  0
 41111  1  0  0  0
 41112  1  0  0  0
 41 48  1  0  0  0
 42 43  1  0  0  0
 42 66  1  0  0  0
 42113  1  0  0  0
 42114  1  0  0  0
 43 44  1  0  0  0
 44115  1  0  0  0
 45 46  2  0  0  0
 45116  1  0  0  0
 46117  1  0  0  0
 47118  1  0  0  0
 47119  1  0  0  0
 48 56  1  0  0  0
 48 65  1  0  0  0
 48120  1  0  0  0
 49 50  1  0  0  0
 49 53  1  0  0  0
 49 64  1  0  0  0
 49121  1  0  0  0
 50 51  1  0  0  0
 50122  1  0  0  0
 50123  1  0  0  0
 51 52  1  0  0  0
 51124  1  0  0  0
 51125  1  0  0  0
 52126  1  0  0  0
 52127  1  0  0  0
 53 54  1  0  0  0
 54 55  2  0  0  0
 54128  1  0  0  0
 55 57  1  0  0  0
 55129  1  0  0  0
 56 69  2  0  0  0
 57 58  2  0  0  0
 57130  1  0  0  0
 58131  1  0  0  0
 59 60  1  0  0  0
 59 61  1  0  0  0
 59 62  1  0  0  0
 60132  1  0  0  0
 60133  1  0  0  0
 60134  1  0  0  0
 61135  1  0  0  0
 61136  1  0  0  0
 61137  1  0  0  0
 62138  1  0  0  0
 62139  1  0  0  0
 62140  1  0  0  0
 63 65  1  0  0  0
 63141  1  0  0  0
 63142  1  0  0  0
 63143  1  0  0  0
 64144  1  0  0  0
 65145  1  0  0  0
 68 78  1  0  0  0
 71 72  1  0  0  0
 71 73  2  0  0  0
 71 84  1  0  0  0
 72 74  2  0  0  0
 72 85  1  0  0  0
 73 75  1  0  0  0
 73 86  1  0  0  0
 74 80  1  0  0  0
 74 86  1  0  0  0
 75 81  1  0  0  0
 75 82  2  0  0  0
 76 78  1  0  0  0
 76 79  1  0  0  0
 76 83  2  0  0  0
 77146  1  0  0  0
 77147  1  0  0  0
 77148  1  0  0  0
 77 79  1  0  0  0
 78149  1  0  0  0
 78150  1  0  0  0
 79 81  1  0  0  0
 79151  1  0  0  0
 80152  1  0  0  0
 81153  1  0  0  0
M  ISO  4   1 100  68 101  78 101  80 100
M  END
> <chiral flag>
0

> <version>
0

> <s_m_source_file>
/data/baiqing/PycharmProjects/Reinvent-master-3.2/result/LINK_invent/BTK/process_docking_weight1_custom_product_contain_oxygen_bond_distance_aromatic_linkinvent_7_9_3/rearranged_h_0176.sdf

> <i_m_source_file_index>
70

> <r_mmod_Potential_Energy-OPLS-2005>
-110.13013458252

> <r_mmod_Stretch_Energy-OPLS-2005>
49.6292419433594

> <r_mmod_Bend_Energy-OPLS-2005>
125.517906188965

> <r_mmod_Torsional_Energy-OPLS-2005>
215.661804199219

> <r_mmod_Improper_Torsional_Energy-OPLS-2005>
3.37476420402527

> <r_mmod_Van_der_Waal_Energy-OPLS-2005>
131.550521850586

> <r_mmod_Electrostatic_Energy-OPLS-2005>
-403.268188476562

> <r_mmod_Solvation_Energy-OPLS-2005>
-252.654769897461

> <b_mmod_Minimization_Converged-OPLS-2005>
0

> <r_mmod_RMS_Derivative-OPLS-2005>
2.42521357536316

$$$$
70
                    3D
 Structure written by MMmdl.
149157  0  0  1  0            999 V2000
  -30.7484  -14.4962   20.5392 C   0  0  0  0  0  0
  -30.4024  -12.3168   19.4349 C   0  0  0  0  0  0
  -29.4863  -12.4915   18.2093 C   0  0  0  0  0  0
  -28.0100  -12.3567   18.6255 C   0  0  0  0  0  0
  -27.6509  -13.2228   19.8640 C   0  0  2  0  0  0
  -28.6983  -13.0733   20.9907 C   0  0  0  0  0  0
  -25.2538  -13.8198   20.5711 C   0  0  0  0  0  0
  -24.1808  -13.0444   20.9181 C   0  0  0  0  0  0
  -24.6392  -11.6921   20.8740 C   0  0  0  0  0  0
  -23.9068  -10.4296   21.0401 C   0  0  0  0  0  0
  -24.3619   -9.4212   21.9181 C   0  0  0  0  0  0
  -23.6294   -8.2247   22.0752 C   0  0  0  0  0  0
  -22.4276   -8.0283   21.3542 C   0  0  0  0  0  0
  -21.9911   -9.0256   20.4645 C   0  0  0  0  0  0
  -22.7241  -10.2135   20.3052 C   0  0  0  0  0  0
  -21.6855   -6.0736   22.5279 C   0  0  0  0  0  0
  -21.4015   -6.5640   23.8212 C   0  0  0  0  0  0
  -21.3661   -5.6793   24.9175 C   0  0  0  0  0  0
  -21.6044   -4.3055   24.7226 C   0  0  0  0  0  0
  -21.8819   -3.8146   23.4347 C   0  0  0  0  0  0
  -21.9194   -4.6963   22.3403 C   0  0  0  0  0  0
  -22.7831  -13.5228   21.1850 C   0  0  0  0  0  0
  -22.1663   -4.2149   21.0982 F   0  0  0  0  0  0
  -21.5628   -3.4539   25.7737 F   0  0  0  0  0  0
  -30.0205  -13.3500   20.4138 N   0  0  0  0  0  0
  -26.2982  -12.9401   20.3367 N   0  0  0  0  0  0
  -25.9327  -11.6543   20.5784 N   0  0  0  0  0  0
  -22.0483  -12.8214   22.0410 N   0  0  0  0  0  0
  -25.4222  -15.1924   20.4186 N   0  0  0  0  0  0
  -31.9137  -14.5409   20.1368 O   0  0  0  0  0  0
  -21.6642   -6.8878   21.4240 O   0  0  0  0  0  0
  -22.3508  -14.5538   20.6712 O   0  0  0  0  0  0
  -24.6170  -31.8673   23.2103 C   0  0  0  0  0  0
  -25.9057  -32.4818   23.8401 C   0  0  1  0  0  0
  -27.2215  -27.4137   20.1008 C   0  0  0  0  0  0
  -25.5910  -33.8617   24.2332 N   0  0  0  0  0  0
  -23.4061  -30.4932   21.5506 C   0  0  2  0  0  0
  -24.8522  -28.9640   20.1084 C   0  0  0  0  0  0
  -22.7427  -29.4660   22.4970 C   0  0  0  0  0  0
  -18.0275  -28.1382   22.8491 C   0  0  0  0  0  0
  -24.1486  -36.7313   23.2637 C   0  0  0  0  0  0
  -25.9385  -30.8266   21.3685 C   0  0  0  0  0  0
  -26.0150  -29.4617   20.7119 C   0  0  0  0  0  0
  -27.2061  -28.6933   20.7076 C   0  0  0  0  0  0
  -26.0466  -26.9493   19.4684 C   0  0  0  0  0  0
  -24.8638  -27.7081   19.4808 C   0  0  0  0  0  0
  -23.6155  -29.8323   20.1628 C   0  0  0  0  0  0
  -25.4106  -36.3110   24.0341 C   0  0  1  0  0  0
  -20.5870  -28.3675   23.1308 C   0  0  2  0  0  0
  -20.6769  -26.9409   22.5414 C   0  0  0  0  0  0
  -19.5747  -26.6388   21.5213 C   0  0  0  0  0  0
  -18.1924  -26.7928   22.1624 C   0  0  0  0  0  0
  -19.1526  -28.8844   23.2898 C   0  0  0  0  0  0
  -18.9453  -30.1448   23.8911 C   0  0  0  0  0  0
  -17.6456  -30.6588   24.0566 C   0  0  0  0  0  0
  -25.9036  -34.9475   23.5131 C   0  0  0  0  0  0
  -16.5345  -29.9091   23.6328 C   0  0  0  0  0  0
  -16.7264  -28.6507   23.0348 C   0  0  0  0  0  0
  -26.4478  -31.6594   25.0730 C   0  0  0  0  0  0
  -25.3741  -31.3707   26.1476 C   0  0  0  0  0  0
  -27.0302  -30.3029   24.6116 C   0  0  0  0  0  0
  -27.6060  -32.4307   25.7490 C   0  0  0  0  0  0
  -27.5584  -37.1809   24.8464 C   0  0  0  0  0  0
  -21.4151  -29.3041   22.3710 N   0  0  0  0  0  0
  -26.4293  -37.3794   23.9412 N   0  0  0  0  0  0
  -24.6721  -31.0764   22.1012 N   0  0  0  0  0  0
  -23.4189  -28.8195   23.3014 O   0  0  0  0  0  0
  -28.3336  -26.5926   20.1438 O   0  0  0  0  0  0
  -26.5595  -34.8928   22.4691 O   0  0  0  0  0  0
  -23.5357  -32.1435   23.7484 O   0  0  0  0  0  0
  -28.1337  -19.7302   20.8381 C   0  0  0  0  0  0
  -28.4740  -18.3456   20.9952 C   0  0  0  0  0  0
  -29.8148  -18.0733   20.9569 C   0  0  0  0  0  0
  -29.2298  -20.5533   20.6653 C   0  0  0  0  0  0
  -28.0874  -25.2933   20.5647 C   0  0  0  0  0  0
  -30.6487  -16.8426   21.1034 C   0  0  0  0  0  0
  -28.8514  -24.2130   20.2790 C   0  0  0  0  0  0
  -28.4268  -22.8767   20.7396 C   0  0  0  0  0  0
  -29.3130  -21.9026   20.4432 N   0  0  0  0  0  0
  -30.0827  -15.6217   20.9076 N   0  0  0  0  0  0
  -31.8474  -16.9924   21.3773 O   0  0  0  0  0  0
  -27.3727  -22.6468   21.3390 O   0  0  0  0  0  0
  -29.9797  -24.3587   19.5662 O   0  0  0  0  0  0
  -27.5572  -17.4177   21.1553 F   0  0  0  0  0  0
  -30.6890  -19.5806   20.7168 S   0  0  0  0  0  0
  -31.4492  -12.3740   19.1316 H   0  0  0  0  0  0
  -30.2770  -11.3235   19.8690 H   0  0  0  0  0  0
  -29.7282  -11.7490   17.4476 H   0  0  0  0  0  0
  -29.6561  -13.4677   17.7521 H   0  0  0  0  0  0
  -27.8270  -11.3041   18.8442 H   0  0  0  0  0  0
  -27.3577  -12.6086   17.7887 H   0  0  0  0  0  0
  -27.6728  -14.2604   19.5305 H   0  0  0  0  0  0
  -28.6780  -12.0630   21.4024 H   0  0  0  0  0  0
  -28.4715  -13.7413   21.8232 H   0  0  0  0  0  0
  -25.2764   -9.5691   22.4756 H   0  0  0  0  0  0
  -24.0004   -7.4640   22.7472 H   0  0  0  0  0  0
  -21.0841   -8.8777   19.8952 H   0  0  0  0  0  0
  -22.3700  -10.9673   19.6160 H   0  0  0  0  0  0
  -21.2004   -7.6148   23.9715 H   0  0  0  0  0  0
  -21.1484   -6.0523   25.9078 H   0  0  0  0  0  0
  -22.0596   -2.7607   23.2848 H   0  0  0  0  0  0
  -22.4102  -11.9869   22.4786 H   0  0  0  0  0  0
  -21.1104  -13.1238   22.2629 H   0  0  0  0  0  0
  -24.6611  -15.8452   20.5660 H   0  0  0  0  0  0
  -26.2939  -15.6554   20.1947 H   0  0  0  0  0  0
  -26.7129  -32.5525   23.1163 H   0  0  0  0  0  0
  -25.0075  -33.9776   25.0486 H   0  0  0  0  0  0
  -22.6958  -31.3112   21.4138 H   0  0  0  0  0  0
  -23.3749  -35.9645   23.3298 H   0  0  0  0  0  0
  -24.3586  -36.8926   22.2052 H   0  0  0  0  0  0
  -23.7234  -37.6519   23.6646 H   0  0  0  0  0  0
  -26.0562  -31.5936   20.6018 H   0  0  0  0  0  0
  -26.8246  -30.8766   21.9895 H   0  0  0  0  0  0
  -28.0996  -29.0634   21.1907 H   0  0  0  0  0  0
  -26.0376  -25.9846   18.9809 H   0  0  0  0  0  0
  -23.9728  -27.3223   19.0046 H   0  0  0  0  0  0
  -23.7256  -30.6107   19.4069 H   0  0  0  0  0  0
  -22.7386  -29.2552   19.8642 H   0  0  0  0  0  0
  -25.1278  -36.1979   25.0833 H   0  0  0  0  0  0
  -20.9963  -28.3243   24.1427 H   0  0  0  0  0  0
  -20.5677  -26.2283   23.3602 H   0  0  0  0  0  0
  -21.6639  -26.7455   22.1201 H   0  0  0  0  0  0
  -19.6908  -25.6301   21.1237 H   0  0  0  0  0  0
  -19.6687  -27.3204   20.6747 H   0  0  0  0  0  0
  -17.4196  -26.6678   21.4024 H   0  0  0  0  0  0
  -18.0324  -26.0067   22.9016 H   0  0  0  0  0  0
  -19.7930  -30.7260   24.2286 H   0  0  0  0  0  0
  -17.5013  -31.6271   24.5165 H   0  0  0  0  0  0
  -15.5347  -30.2999   23.7647 H   0  0  0  0  0  0
  -15.8662  -28.0834   22.7054 H   0  0  0  0  0  0
  -24.5911  -30.7058   25.7815 H   0  0  0  0  0  0
  -24.8936  -32.2865   26.4932 H   0  0  0  0  0  0
  -25.8090  -30.8870   27.0231 H   0  0  0  0  0  0
  -26.2847  -29.6795   24.1165 H   0  0  0  0  0  0
  -27.4057  -29.7261   25.4579 H   0  0  0  0  0  0
  -27.8693  -30.4336   23.9278 H   0  0  0  0  0  0
  -27.2692  -33.3606   26.2085 H   0  0  0  0  0  0
  -28.3864  -32.6864   25.0309 H   0  0  0  0  0  0
  -28.0734  -31.8414   26.5390 H   0  0  0  0  0  0
  -28.2600  -38.0108   24.7518 H   0  0  0  0  0  0
  -28.1081  -36.2641   24.6278 H   0  0  0  0  0  0
  -27.2307  -37.1444   25.8869 H   0  0  0  0  0  0
  -20.9308  -29.8772   21.6942 H   0  0  0  0  0  0
  -26.0185  -38.2875   24.1412 H   0  0  0  0  0  0
  -27.1047  -20.0585   20.8437 H   0  0  0  0  0  0
  -27.1822  -25.2155   21.1563 H   0  0  0  0  0  0
  -30.1680  -22.2513   20.0272 H   0  0  0  0  0  0
  -29.0785  -15.5748   20.9356 H   0  0  0  0  0  0
  -30.0577  -25.2836   19.3668 H   0  0  0  0  0  0
  1 25  1  0  0  0
  1 30  2  0  0  0
  1 80  1  0  0  0
  2  3  1  0  0  0
  2 25  1  0  0  0
  2 86  1  0  0  0
  2 87  1  0  0  0
  3  4  1  0  0  0
  3 88  1  0  0  0
  3 89  1  0  0  0
  4  5  1  0  0  0
  4 90  1  0  0  0
  4 91  1  0  0  0
  5  6  1  0  0  0
  5 26  1  0  0  0
  5 92  1  0  0  0
  6 25  1  0  0  0
  6 93  1  0  0  0
  6 94  1  0  0  0
  7  8  2  0  0  0
  7 26  1  0  0  0
  7 29  1  0  0  0
  8  9  1  0  0  0
  8 22  1  0  0  0
  9 10  1  0  0  0
  9 27  2  0  0  0
 10 11  2  0  0  0
 10 15  1  0  0  0
 11 12  1  0  0  0
 11 95  1  0  0  0
 12 13  2  0  0  0
 12 96  1  0  0  0
 13 14  1  0  0  0
 13 31  1  0  0  0
 14 15  2  0  0  0
 14 97  1  0  0  0
 15 98  1  0  0  0
 16 17  2  0  0  0
 16 21  1  0  0  0
 16 31  1  0  0  0
 17 18  1  0  0  0
 17 99  1  0  0  0
 18 19  2  0  0  0
 18100  1  0  0  0
 19 20  1  0  0  0
 19 24  1  0  0  0
 20 21  2  0  0  0
 20101  1  0  0  0
 21 23  1  0  0  0
 22 28  1  0  0  0
 22 32  2  0  0  0
 26 27  1  0  0  0
 28102  1  0  0  0
 28103  1  0  0  0
 29104  1  0  0  0
 29105  1  0  0  0
 33 34  1  0  0  0
 33 66  1  0  0  0
 33 70  2  0  0  0
 34 36  1  0  0  0
 34 59  1  0  0  0
 34106  1  0  0  0
 35 44  2  0  0  0
 35 45  1  0  0  0
 35 68  1  0  0  0
 36 56  1  0  0  0
 36107  1  0  0  0
 37 39  1  0  0  0
 37 47  1  0  0  0
 37 66  1  0  0  0
 37108  1  0  0  0
 38 43  2  0  0  0
 38 46  1  0  0  0
 38 47  1  0  0  0
 39 64  1  0  0  0
 39 67  2  0  0  0
 40 52  1  0  0  0
 40 53  2  0  0  0
 40 58  1  0  0  0
 41109  1  0  0  0
 41110  1  0  0  0
 41111  1  0  0  0
 41 48  1  0  0  0
 42 43  1  0  0  0
 42 66  1  0  0  0
 42112  1  0  0  0
 42113  1  0  0  0
 43 44  1  0  0  0
 44114  1  0  0  0
 45 46  2  0  0  0
 45115  1  0  0  0
 46116  1  0  0  0
 47117  1  0  0  0
 47118  1  0  0  0
 48 56  1  0  0  0
 48 65  1  0  0  0
 48119  1  0  0  0
 49 50  1  0  0  0
 49 53  1  0  0  0
 49 64  1  0  0  0
 49120  1  0  0  0
 50 51  1  0  0  0
 50121  1  0  0  0
 50122  1  0  0  0
 51 52  1  0  0  0
 51123  1  0  0  0
 51124  1  0  0  0
 52125  1  0  0  0
 52126  1  0  0  0
 53 54  1  0  0  0
 54 55  2  0  0  0
 54127  1  0  0  0
 55 57  1  0  0  0
 55128  1  0  0  0
 56 69  2  0  0  0
 57 58  2  0  0  0
 57129  1  0  0  0
 58130  1  0  0  0
 59 60  1  0  0  0
 59 61  1  0  0  0
 59 62  1  0  0  0
 60131  1  0  0  0
 60132  1  0  0  0
 60133  1  0  0  0
 61134  1  0  0  0
 61135  1  0  0  0
 61136  1  0  0  0
 62137  1  0  0  0
 62138  1  0  0  0
 62139  1  0  0  0
 63 65  1  0  0  0
 63140  1  0  0  0
 63141  1  0  0  0
 63142  1  0  0  0
 64143  1  0  0  0
 65144  1  0  0  0
 68 75  1  0  0  0
 71 72  1  0  0  0
 71 74  2  0  0  0
 71145  1  0  0  0
 72 73  2  0  0  0
 72 84  1  0  0  0
 73 76  1  0  0  0
 73 85  1  0  0  0
 74 79  1  0  0  0
 74 85  1  0  0  0
 75 77  2  0  0  0
 75146  1  0  0  0
 76 80  1  0  0  0
 76 81  2  0  0  0
 77 78  1  0  0  0
 77 83  1  0  0  0
 78 79  1  0  0  0
 78 82  2  0  0  0
 79147  1  0  0  0
 80148  1  0  0  0
 83149  1  0  0  0
M  ISO  4   1 100  68 101  75 101  80 100
M  END
> <chiral flag>
0

> <version>
0

> <s_m_source_file>
/data/baiqing/PycharmProjects/Reinvent-master-3.2/result/LINK_invent/BTK/process_docking_weight1_custom_product_contain_oxygen_bond_distance_aromatic_linkinvent_7_9_3/rearranged_h_0176.sdf

> <i_m_source_file_index>
71

> <r_mmod_Potential_Energy-OPLS-2005>
-174.827178955078

> <r_mmod_Stretch_Energy-OPLS-2005>
40.2373809814453

> <r_mmod_Bend_Energy-OPLS-2005>
105.238388061523

> <r_mmod_Torsional_Energy-OPLS-2005>
224.687271118164

> <r_mmod_Improper_Torsional_Energy-OPLS-2005>
4.88778877258301

> <r_mmod_Van_der_Waal_Energy-OPLS-2005>
150.744033813477

> <r_mmod_Electrostatic_Energy-OPLS-2005>
-500.718444824219

> <r_mmod_Solvation_Energy-OPLS-2005>
-224.871765136719

> <b_mmod_Minimization_Converged-OPLS-2005>
0

> <r_mmod_RMS_Derivative-OPLS-2005>
0.336391746997833

$$$$
71
                    3D
 Structure written by MMmdl.
164172  0  0  1  0            999 V2000
  -30.6121  -14.6460   20.4801 C   0  0  0  0  0  0
  -30.4345  -12.3935   19.4488 C   0  0  0  0  0  0
  -29.5038  -12.5211   18.2224 C   0  0  0  0  0  0
  -28.0295  -12.3453   18.6365 C   0  0  0  0  0  0
  -27.6524  -13.2120   19.8680 C   0  0  2  0  0  0
  -28.6988  -13.0694   20.9978 C   0  0  0  0  0  0
  -25.2537  -13.8142   20.5679 C   0  0  0  0  0  0
  -24.1802  -13.0415   20.9166 C   0  0  0  0  0  0
  -24.6357  -11.6891   20.8709 C   0  0  0  0  0  0
  -23.9022  -10.4290   21.0388 C   0  0  0  0  0  0
  -24.3591   -9.4204   21.9168 C   0  0  0  0  0  0
  -23.6268   -8.2252   22.0748 C   0  0  0  0  0  0
  -22.4258   -8.0287   21.3541 C   0  0  0  0  0  0
  -21.9861   -9.0249   20.4648 C   0  0  0  0  0  0
  -22.7179  -10.2131   20.3040 C   0  0  0  0  0  0
  -21.6847   -6.0710   22.5263 C   0  0  0  0  0  0
  -21.4019   -6.5615   23.8198 C   0  0  0  0  0  0
  -21.3659   -5.6770   24.9164 C   0  0  0  0  0  0
  -21.6057   -4.3033   24.7217 C   0  0  0  0  0  0
  -21.8821   -3.8113   23.4336 C   0  0  0  0  0  0
  -21.9192   -4.6933   22.3379 C   0  0  0  0  0  0
  -22.7834  -13.5244   21.1825 C   0  0  0  0  0  0
  -22.1669   -4.2115   21.0959 F   0  0  0  0  0  0
  -21.5617   -3.4512   25.7725 F   0  0  0  0  0  0
  -30.0153  -13.4124   20.4313 N   0  0  0  0  0  0
  -26.2971  -12.9322   20.3338 N   0  0  0  0  0  0
  -25.9292  -11.6476   20.5741 N   0  0  0  0  0  0
  -22.0479  -12.8278   22.0415 N   0  0  0  0  0  0
  -25.4258  -15.1857   20.4128 N   0  0  0  0  0  0
  -31.7569  -14.8253   20.0521 O   0  0  0  0  0  0
  -21.6645   -6.8860   21.4233 O   0  0  0  0  0  0
  -22.3528  -14.5559   20.6670 O   0  0  0  0  0  0
  -24.6268  -31.8582   23.2031 C   0  0  0  0  0  0
  -25.9096  -32.4781   23.8366 C   0  0  1  0  0  0
  -27.2295  -27.3300   20.0954 C   0  0  0  0  0  0
  -25.5925  -33.8578   24.2306 N   0  0  0  0  0  0
  -23.4244  -30.4787   21.5464 C   0  0  2  0  0  0
  -24.8728  -28.9356   20.1091 C   0  0  0  0  0  0
  -22.7486  -29.4576   22.4948 C   0  0  0  0  0  0
  -18.0288  -28.1386   22.8482 C   0  0  0  0  0  0
  -24.1488  -36.7295   23.2631 C   0  0  0  0  0  0
  -25.9650  -30.7891   21.3750 C   0  0  0  0  0  0
  -26.0421  -29.4180   20.7134 C   0  0  0  0  0  0
  -27.2302  -28.6249   20.6982 C   0  0  0  0  0  0
  -26.0412  -26.8977   19.4754 C   0  0  0  0  0  0
  -24.8723  -27.6806   19.4808 C   0  0  0  0  0  0
  -23.6392  -29.8130   20.1623 C   0  0  0  0  0  0
  -25.4110  -36.3093   24.0331 C   0  0  1  0  0  0
  -20.5881  -28.3674   23.1303 C   0  0  2  0  0  0
  -20.6766  -26.9398   22.5410 C   0  0  0  0  0  0
  -19.5734  -26.6370   21.5212 C   0  0  0  0  0  0
  -18.1918  -26.7927   22.1625 C   0  0  0  0  0  0
  -19.1543  -28.8849   23.2885 C   0  0  0  0  0  0
  -18.9457  -30.1453   23.8896 C   0  0  0  0  0  0
  -17.6458  -30.6583   24.0561 C   0  0  0  0  0  0
  -25.9043  -34.9452   23.5124 C   0  0  0  0  0  0
  -16.5351  -29.9074   23.6334 C   0  0  0  0  0  0
  -16.7275  -28.6494   23.0352 C   0  0  0  0  0  0
  -26.4487  -31.6595   25.0734 C   0  0  0  0  0  0
  -25.3728  -31.3780   26.1490 C   0  0  0  0  0  0
  -27.0299  -30.3007   24.6183 C   0  0  0  0  0  0
  -27.6078  -32.4318   25.7474 C   0  0  0  0  0  0
  -27.5597  -37.1789   24.8457 C   0  0  0  0  0  0
  -21.4190  -29.3024   22.3698 N   0  0  0  0  0  0
  -26.4292  -37.3790   23.9423 N   0  0  0  0  0  0
  -24.6919  -31.0575   22.0995 N   0  0  0  0  0  0
  -23.4199  -28.8084   23.3012 O   0  0  0  0  0  0
  -28.2935  -26.4202   20.1254 O   0  0  0  0  0  0
  -26.5590  -34.8918   22.4679 O   0  0  0  0  0  0
  -23.5423  -32.1366   23.7349 O   0  0  0  0  0  0
  -30.2312  -18.1612   20.5008 C   0  0  0  0  0  0
  -29.5994  -19.3019   19.8208 C   0  0  0  0  0  0
  -29.6019  -16.9231   20.3632 C   0  0  0  0  0  0
  -28.4410  -18.8795   19.2107 C   0  0  0  0  0  0
  -28.0942  -25.3270   20.9828 C   0  0  0  0  0  0
  -28.4121  -23.9819   20.9523 C   0  0  0  0  0  0
  -29.1158  -23.1798   19.9104 C   0  0  0  0  0  0
  -32.6054  -21.5833   17.7046 C   0  0  0  0  0  0
  -34.0097  -21.7514   19.7869 C   0  0  0  0  0  0
  -31.6766  -20.8074   19.9760 C   0  0  0  0  0  0
  -30.1528  -20.7642   19.6514 C   0  0  2  0  0  0
  -32.5810  -21.8182   19.2266 C   0  0  0  0  0  0
  -27.5437  -19.6167   18.4468 N   0  0  0  0  0  0
  -29.8371  -15.6766   20.9316 N   0  0  0  0  0  0
  -29.3929  -21.8889   20.3120 N   0  0  0  0  0  0
  -29.4161  -23.5957   18.7900 O   0  0  0  0  0  0
  -28.0181  -23.2852   22.0368 O   0  0  0  0  0  0
  -32.1725  -23.0631   19.4581 F   0  0  0  0  0  0
  -28.1529  -17.1647   19.4192 S   0  0  0  0  0  0
  -31.4778  -12.5126   19.1483 H   0  0  0  0  0  0
  -30.3613  -11.3964   19.8855 H   0  0  0  0  0  0
  -29.7667  -11.7800   17.4662 H   0  0  0  0  0  0
  -29.6374  -13.4992   17.7542 H   0  0  0  0  0  0
  -27.8755  -11.2898   18.8671 H   0  0  0  0  0  0
  -27.3740  -12.5755   17.7951 H   0  0  0  0  0  0
  -27.6662  -14.2463   19.5265 H   0  0  0  0  0  0
  -28.7081  -12.0491   21.3842 H   0  0  0  0  0  0
  -28.4416  -13.7017   21.8496 H   0  0  0  0  0  0
  -25.2738   -9.5669   22.4759 H   0  0  0  0  0  0
  -23.9959   -7.4632   22.7465 H   0  0  0  0  0  0
  -21.0775   -8.8742   19.8979 H   0  0  0  0  0  0
  -22.3599  -10.9669   19.6160 H   0  0  0  0  0  0
  -21.2037   -7.6133   23.9671 H   0  0  0  0  0  0
  -21.1484   -6.0527   25.9061 H   0  0  0  0  0  0
  -22.0606   -2.7572   23.2855 H   0  0  0  0  0  0
  -22.4080  -11.9954   22.4854 H   0  0  0  0  0  0
  -21.1104  -13.1349   22.2611 H   0  0  0  0  0  0
  -24.6581  -15.8409   20.5140 H   0  0  0  0  0  0
  -26.2793  -15.6228   20.0916 H   0  0  0  0  0  0
  -26.7151  -32.5441   23.1106 H   0  0  0  0  0  0
  -25.0136  -33.9725   25.0499 H   0  0  0  0  0  0
  -22.7162  -31.2973   21.4020 H   0  0  0  0  0  0
  -23.3751  -35.9627   23.3291 H   0  0  0  0  0  0
  -24.3594  -36.8911   22.2048 H   0  0  0  0  0  0
  -23.7240  -37.6492   23.6655 H   0  0  0  0  0  0
  -26.0937  -31.5531   20.6074 H   0  0  0  0  0  0
  -26.8468  -30.8392   22.0032 H   0  0  0  0  0  0
  -28.1322  -28.9787   21.1796 H   0  0  0  0  0  0
  -26.0122  -25.9253   19.0049 H   0  0  0  0  0  0
  -23.9769  -27.3062   19.0046 H   0  0  0  0  0  0
  -23.7485  -30.5874   19.4029 H   0  0  0  0  0  0
  -22.7605  -29.2388   19.8658 H   0  0  0  0  0  0
  -25.1285  -36.1955   25.0819 H   0  0  0  0  0  0
  -20.9980  -28.3236   24.1420 H   0  0  0  0  0  0
  -20.5629  -26.2283   23.3600 H   0  0  0  0  0  0
  -21.6645  -26.7362   22.1247 H   0  0  0  0  0  0
  -19.6884  -25.6273   21.1254 H   0  0  0  0  0  0
  -19.6699  -27.3164   20.6733 H   0  0  0  0  0  0
  -17.4191  -26.6681   21.4028 H   0  0  0  0  0  0
  -18.0294  -26.0060   22.9005 H   0  0  0  0  0  0
  -19.7924  -30.7276   24.2257 H   0  0  0  0  0  0
  -17.5002  -31.6259   24.5168 H   0  0  0  0  0  0
  -15.5352  -30.2974   23.7650 H   0  0  0  0  0  0
  -15.8672  -28.0814   22.7072 H   0  0  0  0  0  0
  -24.5880  -30.7129   25.7881 H   0  0  0  0  0  0
  -24.8929  -32.2957   26.4891 H   0  0  0  0  0  0
  -25.8049  -30.9003   27.0287 H   0  0  0  0  0  0
  -26.2858  -29.6780   24.1199 H   0  0  0  0  0  0
  -27.3987  -29.7262   25.4690 H   0  0  0  0  0  0
  -27.8741  -30.4302   23.9407 H   0  0  0  0  0  0
  -27.2722  -33.3624   26.2071 H   0  0  0  0  0  0
  -28.3850  -32.6868   25.0253 H   0  0  0  0  0  0
  -28.0774  -31.8420   26.5361 H   0  0  0  0  0  0
  -28.2608  -38.0093   24.7525 H   0  0  0  0  0  0
  -28.1102  -36.2634   24.6245 H   0  0  0  0  0  0
  -27.2333  -37.1386   25.8861 H   0  0  0  0  0  0
  -20.9358  -29.8788   21.6949 H   0  0  0  0  0  0
  -26.0178  -38.2861   24.1454 H   0  0  0  0  0  0
  -31.1426  -18.2924   21.0683 H   0  0  0  0  0  0
  -27.5687  -25.6852   21.8584 H   0  0  0  0  0  0
  -32.9221  -20.5666   17.4706 H   0  0  0  0  0  0
  -33.3030  -22.2584   17.2077 H   0  0  0  0  0  0
  -31.6305  -21.7407   17.2429 H   0  0  0  0  0  0
  -34.4288  -20.7492   19.6896 H   0  0  0  0  0  0
  -34.0271  -22.0160   20.8446 H   0  0  0  0  0  0
  -34.6728  -22.4446   19.2676 H   0  0  0  0  0  0
  -32.1031  -19.8392   19.7146 H   0  0  0  0  0  0
  -31.8178  -20.8917   21.0528 H   0  0  0  0  0  0
  -30.0616  -20.9696   18.5870 H   0  0  0  0  0  0
  -27.6389  -20.6132   18.2698 H   0  0  0  0  0  0
  -26.7429  -19.2117   17.9687 H   0  0  0  0  0  0
  -29.0091  -15.2921   21.3617 H   0  0  0  0  0  0
  -29.0471  -21.6937   21.2429 H   0  0  0  0  0  0
  -27.5716  -23.8852   22.6193 H   0  0  0  0  0  0
  1 25  1  0  0  0
  1 30  2  0  0  0
  1 84  1  0  0  0
  2  3  1  0  0  0
  2 25  1  0  0  0
  2 90  1  0  0  0
  2 91  1  0  0  0
  3  4  1  0  0  0
  3 92  1  0  0  0
  3 93  1  0  0  0
  4  5  1  0  0  0
  4 94  1  0  0  0
  4 95  1  0  0  0
  5  6  1  0  0  0
  5 26  1  0  0  0
  5 96  1  0  0  0
  6 25  1  0  0  0
  6 97  1  0  0  0
  6 98  1  0  0  0
  7  8  2  0  0  0
  7 26  1  0  0  0
  7 29  1  0  0  0
  8  9  1  0  0  0
  8 22  1  0  0  0
  9 10  1  0  0  0
  9 27  2  0  0  0
 10 11  2  0  0  0
 10 15  1  0  0  0
 11 12  1  0  0  0
 11 99  1  0  0  0
 12 13  2  0  0  0
 12100  1  0  0  0
 13 14  1  0  0  0
 13 31  1  0  0  0
 14 15  2  0  0  0
 14101  1  0  0  0
 15102  1  0  0  0
 16 17  2  0  0  0
 16 21  1  0  0  0
 16 31  1  0  0  0
 17 18  1  0  0  0
 17103  1  0  0  0
 18 19  2  0  0  0
 18104  1  0  0  0
 19 20  1  0  0  0
 19 24  1  0  0  0
 20 21  2  0  0  0
 20105  1  0  0  0
 21 23  1  0  0  0
 22 28  1  0  0  0
 22 32  2  0  0  0
 26 27  1  0  0  0
 28106  1  0  0  0
 28107  1  0  0  0
 29108  1  0  0  0
 29109  1  0  0  0
 33 34  1  0  0  0
 33 66  1  0  0  0
 33 70  2  0  0  0
 34 36  1  0  0  0
 34 59  1  0  0  0
 34110  1  0  0  0
 35 44  2  0  0  0
 35 45  1  0  0  0
 35 68  1  0  0  0
 36 56  1  0  0  0
 36111  1  0  0  0
 37 39  1  0  0  0
 37 47  1  0  0  0
 37 66  1  0  0  0
 37112  1  0  0  0
 38 43  2  0  0  0
 38 46  1  0  0  0
 38 47  1  0  0  0
 39 64  1  0  0  0
 39 67  2  0  0  0
 40 52  1  0  0  0
 40 53  2  0  0  0
 40 58  1  0  0  0
 41113  1  0  0  0
 41114  1  0  0  0
 41115  1  0  0  0
 41 48  1  0  0  0
 42 43  1  0  0  0
 42 66  1  0  0  0
 42116  1  0  0  0
 42117  1  0  0  0
 43 44  1  0  0  0
 44118  1  0  0  0
 45 46  2  0  0  0
 45119  1  0  0  0
 46120  1  0  0  0
 47121  1  0  0  0
 47122  1  0  0  0
 48 56  1  0  0  0
 48 65  1  0  0  0
 48123  1  0  0  0
 49 50  1  0  0  0
 49 53  1  0  0  0
 49 64  1  0  0  0
 49124  1  0  0  0
 50 51  1  0  0  0
 50125  1  0  0  0
 50126  1  0  0  0
 51 52  1  0  0  0
 51127  1  0  0  0
 51128  1  0  0  0
 52129  1  0  0  0
 52130  1  0  0  0
 53 54  1  0  0  0
 54 55  2  0  0  0
 54131  1  0  0  0
 55 57  1  0  0  0
 55132  1  0  0  0
 56 69  2  0  0  0
 57 58  2  0  0  0
 57133  1  0  0  0
 58134  1  0  0  0
 59 60  1  0  0  0
 59 61  1  0  0  0
 59 62  1  0  0  0
 60135  1  0  0  0
 60136  1  0  0  0
 60137  1  0  0  0
 61138  1  0  0  0
 61139  1  0  0  0
 61140  1  0  0  0
 62141  1  0  0  0
 62142  1  0  0  0
 62143  1  0  0  0
 63 65  1  0  0  0
 63144  1  0  0  0
 63145  1  0  0  0
 63146  1  0  0  0
 64147  1  0  0  0
 65148  1  0  0  0
 68 75  1  0  0  0
 71 72  1  0  0  0
 71 73  2  0  0  0
 71149  1  0  0  0
 72 74  2  0  0  0
 72 81  1  0  0  0
 73 84  1  0  0  0
 73 89  1  0  0  0
 74 83  1  0  0  0
 74 89  1  0  0  0
 75 76  2  0  0  0
 75150  1  0  0  0
 76 77  1  0  0  0
 76 87  1  0  0  0
 77 85  1  0  0  0
 77 86  2  0  0  0
 78151  1  0  0  0
 78152  1  0  0  0
 78153  1  0  0  0
 78 82  1  0  0  0
 79 82  1  0  0  0
 79154  1  0  0  0
 79155  1  0  0  0
 79156  1  0  0  0
 80 82  1  0  0  0
 80157  1  0  0  0
 80158  1  0  0  0
 80 81  1  0  0  0
 81 85  1  0  0  0
 81159  1  0  0  0
 82 88  1  0  0  0
 83160  1  0  0  0
 83161  1  0  0  0
 84162  1  0  0  0
 85163  1  0  0  0
 87164  1  0  0  0
M  ISO  4   1 100  68 101  75 101  84 100
M  END
> <chiral flag>
0

> <version>
0

> <s_m_source_file>
/data/baiqing/PycharmProjects/Reinvent-master-3.2/result/LINK_invent/BTK/process_docking_weight1_custom_product_contain_oxygen_bond_distance_aromatic_linkinvent_7_9_3/rearranged_h_0176.sdf

> <i_m_source_file_index>
72

> <r_mmod_Potential_Energy-OPLS-2005>
58.6248092651367

> <r_mmod_Stretch_Energy-OPLS-2005>
78.6987152099609

> <r_mmod_Bend_Energy-OPLS-2005>
186.263092041016

> <r_mmod_Torsional_Energy-OPLS-2005>
256.284057617188

> <r_mmod_Improper_Torsional_Energy-OPLS-2005>
6.90641975402832

> <r_mmod_Van_der_Waal_Energy-OPLS-2005>
117.867057800293

> <r_mmod_Electrostatic_Energy-OPLS-2005>
-401.209289550781

> <r_mmod_Solvation_Energy-OPLS-2005>
-238.920074462891

> <b_mmod_Minimization_Converged-OPLS-2005>
0

> <r_mmod_RMS_Derivative-OPLS-2005>
3.53291273117065

$$$$
72
                    3D
 Structure written by MMmdl.
165173  0  0  1  0            999 V2000
  -30.6912  -14.4795   20.5625 C   0  0  0  0  0  0
  -30.4231  -12.3123   19.4132 C   0  0  0  0  0  0
  -29.4920  -12.5304   18.2019 C   0  0  0  0  0  0
  -28.0138  -12.3835   18.6114 C   0  0  0  0  0  0
  -27.6643  -13.2090   19.8781 C   0  0  2  0  0  0
  -28.7070  -12.9779   20.9959 C   0  0  0  0  0  0
  -25.2597  -13.8170   20.5663 C   0  0  0  0  0  0
  -24.1851  -13.0446   20.9184 C   0  0  0  0  0  0
  -24.6407  -11.6910   20.8748 C   0  0  0  0  0  0
  -23.9070  -10.4292   21.0403 C   0  0  0  0  0  0
  -24.3628   -9.4209   21.9175 C   0  0  0  0  0  0
  -23.6303   -8.2240   22.0754 C   0  0  0  0  0  0
  -22.4281   -8.0273   21.3543 C   0  0  0  0  0  0
  -21.9917   -9.0246   20.4638 C   0  0  0  0  0  0
  -22.7247  -10.2124   20.3048 C   0  0  0  0  0  0
  -21.6845   -6.0745   22.5278 C   0  0  0  0  0  0
  -21.4006   -6.5649   23.8201 C   0  0  0  0  0  0
  -21.3657   -5.6801   24.9169 C   0  0  0  0  0  0
  -21.6043   -4.3066   24.7218 C   0  0  0  0  0  0
  -21.8816   -3.8158   23.4335 C   0  0  0  0  0  0
  -21.9200   -4.6980   22.3398 C   0  0  0  0  0  0
  -22.7867  -13.5240   21.1845 C   0  0  0  0  0  0
  -22.1659   -4.2168   21.0977 F   0  0  0  0  0  0
  -21.5641   -3.4543   25.7728 F   0  0  0  0  0  0
  -30.0417  -13.2856   20.4505 N   0  0  0  0  0  0
  -26.3039  -12.9339   20.3371 N   0  0  0  0  0  0
  -25.9337  -11.6496   20.5774 N   0  0  0  0  0  0
  -22.0519  -12.8218   22.0400 N   0  0  0  0  0  0
  -25.4362  -15.1875   20.4031 N   0  0  0  0  0  0
  -31.8025  -14.6908   20.0661 O   0  0  0  0  0  0
  -21.6644   -6.8881   21.4231 O   0  0  0  0  0  0
  -22.3542  -14.5531   20.6688 O   0  0  0  0  0  0
  -24.6171  -31.8638   23.2067 C   0  0  0  0  0  0
  -25.9051  -32.4795   23.8377 C   0  0  1  0  0  0
  -27.2500  -27.4277   20.0934 C   0  0  0  0  0  0
  -25.5908  -33.8593   24.2320 N   0  0  0  0  0  0
  -23.4074  -30.4848   21.5455 C   0  0  2  0  0  0
  -24.8582  -28.9444   20.1182 C   0  0  0  0  0  0
  -22.7428  -29.4641   22.4975 C   0  0  0  0  0  0
  -18.0267  -28.1382   22.8478 C   0  0  0  0  0  0
  -24.1482  -36.7288   23.2645 C   0  0  0  0  0  0
  -25.9367  -30.8291   21.3583 C   0  0  0  0  0  0
  -26.0196  -29.4609   20.7084 C   0  0  0  0  0  0
  -27.2207  -28.7109   20.6910 C   0  0  0  0  0  0
  -26.0719  -26.9220   19.5056 C   0  0  0  0  0  0
  -24.8798  -27.6747   19.5128 C   0  0  0  0  0  0
  -23.6182  -29.8101   20.1627 C   0  0  0  0  0  0
  -25.4107  -36.3086   24.0342 C   0  0  1  0  0  0
  -20.5863  -28.3650   23.1312 C   0  0  2  0  0  0
  -20.6756  -26.9381   22.5418 C   0  0  0  0  0  0
  -19.5748  -26.6370   21.5204 C   0  0  0  0  0  0
  -18.1915  -26.7930   22.1592 C   0  0  0  0  0  0
  -19.1519  -28.8832   23.2894 C   0  0  0  0  0  0
  -18.9443  -30.1444   23.8897 C   0  0  0  0  0  0
  -17.6447  -30.6589   24.0565 C   0  0  0  0  0  0
  -25.9034  -34.9459   23.5126 C   0  0  0  0  0  0
  -16.5338  -29.9078   23.6347 C   0  0  0  0  0  0
  -16.7252  -28.6501   23.0344 C   0  0  0  0  0  0
  -26.4483  -31.6585   25.0711 C   0  0  0  0  0  0
  -25.3753  -31.3678   26.1460 C   0  0  0  0  0  0
  -27.0299  -30.3029   24.6076 C   0  0  0  0  0  0
  -27.6070  -32.4300   25.7463 C   0  0  0  0  0  0
  -27.5576  -37.1790   24.8467 C   0  0  0  0  0  0
  -21.4149  -29.3011   22.3715 N   0  0  0  0  0  0
  -26.4279  -37.3787   23.9423 N   0  0  0  0  0  0
  -24.6717  -31.0731   22.0962 N   0  0  0  0  0  0
  -23.4189  -28.8198   23.3040 O   0  0  0  0  0  0
  -28.4092  -26.6793   20.0503 O   0  0  0  0  0  0
  -26.5580  -34.8925   22.4678 O   0  0  0  0  0  0
  -23.5357  -32.1384   23.7460 O   0  0  0  0  0  0
  -29.3782  -18.7002   19.5551 C   0  0  0  0  0  0
  -29.3926  -17.2729   19.6393 C   0  0  0  0  0  0
  -29.9374  -19.3282   20.6382 C   0  0  0  0  0  0
  -29.9711  -16.7623   20.7770 C   0  0  0  0  0  0
  -30.0966  -20.7600   21.0316 C   0  0  0  0  0  0
  -28.8006  -24.1981   20.2313 C   0  0  0  0  0  0
  -28.2651  -21.6114   23.9722 C   0  0  0  0  0  0
  -27.6373  -24.0457   23.9026 C   0  0  0  0  0  0
  -25.8797  -22.2827   23.7198 C   0  0  0  0  0  0
  -28.4172  -25.5343   20.9268 C   0  0  0  0  0  0
  -27.4204  -22.6285   21.7783 C   0  0  0  0  0  0
  -28.8094  -22.9205   21.1326 C   0  0  1  0  0  0
  -27.3238  -22.6492   23.3305 C   0  0  0  0  0  0
  -30.0059  -15.4580   21.1829 N   0  0  0  0  0  0
  -29.2858  -21.6790   20.4650 N   0  0  0  0  0  0
  -30.8895  -21.0696   21.9235 O   0  0  0  0  0  0
  -29.0735  -24.1692   19.0256 O   0  0  0  0  0  0
  -28.8311  -19.3391   18.5439 F   0  0  0  0  0  0
  -28.8404  -16.5132   18.7193 F   0  0  0  0  0  0
  -30.5624  -18.1046   21.7506 S   0  0  0  0  0  0
  -31.4673  -12.4114   19.1120 H   0  0  0  0  0  0
  -30.3212  -11.2942   19.7933 H   0  0  0  0  0  0
  -29.7334  -11.8249   17.4056 H   0  0  0  0  0  0
  -29.6568  -13.5274   17.7887 H   0  0  0  0  0  0
  -27.8192  -11.3257   18.7904 H   0  0  0  0  0  0
  -27.3621  -12.6736   17.7867 H   0  0  0  0  0  0
  -27.7089  -14.2596   19.5924 H   0  0  0  0  0  0
  -28.6812  -11.9376   21.3239 H   0  0  0  0  0  0
  -28.4651  -13.5637   21.8824 H   0  0  0  0  0  0
  -25.2773   -9.5689   22.4743 H   0  0  0  0  0  0
  -24.0022   -7.4633   22.7465 H   0  0  0  0  0  0
  -21.0856   -8.8742   19.8931 H   0  0  0  0  0  0
  -22.3702  -10.9656   19.6153 H   0  0  0  0  0  0
  -21.1967   -7.6151   23.9715 H   0  0  0  0  0  0
  -21.1487   -6.0527   25.9072 H   0  0  0  0  0  0
  -22.0603   -2.7620   23.2821 H   0  0  0  0  0  0
  -22.4121  -11.9864   22.4762 H   0  0  0  0  0  0
  -21.1128  -13.1209   22.2603 H   0  0  0  0  0  0
  -24.6696  -15.8460   20.4844 H   0  0  0  0  0  0
  -26.2841  -15.6071   20.0428 H   0  0  0  0  0  0
  -26.7139  -32.5514   23.1156 H   0  0  0  0  0  0
  -25.0112  -33.9762   25.0499 H   0  0  0  0  0  0
  -22.6984  -31.3025   21.4014 H   0  0  0  0  0  0
  -23.3759  -35.9602   23.3282 H   0  0  0  0  0  0
  -24.3597  -36.8921   22.2069 H   0  0  0  0  0  0
  -23.7215  -37.6476   23.6678 H   0  0  0  0  0  0
  -26.0486  -31.5956   20.5901 H   0  0  0  0  0  0
  -26.8251  -30.8860   21.9750 H   0  0  0  0  0  0
  -28.1216  -29.1099   21.1361 H   0  0  0  0  0  0
  -26.0788  -25.9485   19.0350 H   0  0  0  0  0  0
  -23.9894  -27.2707   19.0517 H   0  0  0  0  0  0
  -23.7276  -30.5821   19.3999 H   0  0  0  0  0  0
  -22.7438  -29.2262   19.8675 H   0  0  0  0  0  0
  -25.1299  -36.1925   25.0832 H   0  0  0  0  0  0
  -20.9952  -28.3195   24.1435 H   0  0  0  0  0  0
  -20.5638  -26.2248   23.3598 H   0  0  0  0  0  0
  -21.6633  -26.7413   22.1208 H   0  0  0  0  0  0
  -19.6899  -25.6277   21.1226 H   0  0  0  0  0  0
  -19.6719  -27.3193   20.6749 H   0  0  0  0  0  0
  -17.4202  -26.6699   21.3981 H   0  0  0  0  0  0
  -18.0290  -26.0074   22.8975 H   0  0  0  0  0  0
  -19.7927  -30.7261   24.2257 H   0  0  0  0  0  0
  -17.5004  -31.6272   24.5153 H   0  0  0  0  0  0
  -15.5336  -30.2974   23.7702 H   0  0  0  0  0  0
  -15.8643  -28.0835   22.7050 H   0  0  0  0  0  0
  -24.5951  -30.6993   25.7811 H   0  0  0  0  0  0
  -24.8910  -32.2809   26.4929 H   0  0  0  0  0  0
  -25.8106  -30.8852   27.0214 H   0  0  0  0  0  0
  -26.2814  -29.6770   24.1203 H   0  0  0  0  0  0
  -27.4154  -29.7300   25.4516 H   0  0  0  0  0  0
  -27.8621  -30.4361   23.9163 H   0  0  0  0  0  0
  -27.2726  -33.3631   26.2019 H   0  0  0  0  0  0
  -28.3893  -32.6790   25.0279 H   0  0  0  0  0  0
  -28.0717  -31.8421   26.5388 H   0  0  0  0  0  0
  -28.2579  -38.0101   24.7524 H   0  0  0  0  0  0
  -28.1078  -36.2629   24.6262 H   0  0  0  0  0  0
  -27.2296  -37.1394   25.8869 H   0  0  0  0  0  0
  -20.9307  -29.8718   21.6928 H   0  0  0  0  0  0
  -26.0149  -38.2846   24.1463 H   0  0  0  0  0  0
  -28.0803  -21.5153   25.0432 H   0  0  0  0  0  0
  -29.3136  -21.8864   23.8616 H   0  0  0  0  0  0
  -28.1333  -20.6237   23.5308 H   0  0  0  0  0  0
  -27.4924  -24.0684   24.9837 H   0  0  0  0  0  0
  -26.9859  -24.8120   23.4822 H   0  0  0  0  0  0
  -28.6690  -24.3469   23.7220 H   0  0  0  0  0  0
  -25.7446  -22.2822   24.8024 H   0  0  0  0  0  0
  -25.6062  -21.2902   23.3578 H   0  0  0  0  0  0
  -25.1600  -22.9904   23.3057 H   0  0  0  0  0  0
  -29.1316  -25.7245   21.7286 H   0  0  0  0  0  0
  -27.4414  -25.4161   21.3959 H   0  0  0  0  0  0
  -27.0638  -21.6579   21.4274 H   0  0  0  0  0  0
  -26.6745  -23.3196   21.3802 H   0  0  0  0  0  0
  -29.5144  -23.1540   21.9304 H   0  0  0  0  0  0
  -29.1750  -15.1353   21.6543 H   0  0  0  0  0  0
  -28.7573  -21.3910   19.6514 H   0  0  0  0  0  0
  1 25  1  0  0  0
  1 30  2  0  0  0
  1 84  1  0  0  0
  2  3  1  0  0  0
  2 25  1  0  0  0
  2 91  1  0  0  0
  2 92  1  0  0  0
  3  4  1  0  0  0
  3 93  1  0  0  0
  3 94  1  0  0  0
  4  5  1  0  0  0
  4 95  1  0  0  0
  4 96  1  0  0  0
  5  6  1  0  0  0
  5 26  1  0  0  0
  5 97  1  0  0  0
  6 25  1  0  0  0
  6 98  1  0  0  0
  6 99  1  0  0  0
  7  8  2  0  0  0
  7 26  1  0  0  0
  7 29  1  0  0  0
  8  9  1  0  0  0
  8 22  1  0  0  0
  9 10  1  0  0  0
  9 27  2  0  0  0
 10 11  2  0  0  0
 10 15  1  0  0  0
 11 12  1  0  0  0
 11100  1  0  0  0
 12 13  2  0  0  0
 12101  1  0  0  0
 13 14  1  0  0  0
 13 31  1  0  0  0
 14 15  2  0  0  0
 14102  1  0  0  0
 15103  1  0  0  0
 16 17  2  0  0  0
 16 21  1  0  0  0
 16 31  1  0  0  0
 17 18  1  0  0  0
 17104  1  0  0  0
 18 19  2  0  0  0
 18105  1  0  0  0
 19 20  1  0  0  0
 19 24  1  0  0  0
 20 21  2  0  0  0
 20106  1  0  0  0
 21 23  1  0  0  0
 22 28  1  0  0  0
 22 32  2  0  0  0
 26 27  1  0  0  0
 28107  1  0  0  0
 28108  1  0  0  0
 29109  1  0  0  0
 29110  1  0  0  0
 33 34  1  0  0  0
 33 66  1  0  0  0
 33 70  2  0  0  0
 34 36  1  0  0  0
 34 59  1  0  0  0
 34111  1  0  0  0
 35 44  2  0  0  0
 35 45  1  0  0  0
 35 68  1  0  0  0
 36 56  1  0  0  0
 36112  1  0  0  0
 37 39  1  0  0  0
 37 47  1  0  0  0
 37 66  1  0  0  0
 37113  1  0  0  0
 38 43  2  0  0  0
 38 46  1  0  0  0
 38 47  1  0  0  0
 39 64  1  0  0  0
 39 67  2  0  0  0
 40 52  1  0  0  0
 40 53  2  0  0  0
 40 58  1  0  0  0
 41114  1  0  0  0
 41115  1  0  0  0
 41116  1  0  0  0
 41 48  1  0  0  0
 42 43  1  0  0  0
 42 66  1  0  0  0
 42117  1  0  0  0
 42118  1  0  0  0
 43 44  1  0  0  0
 44119  1  0  0  0
 45 46  2  0  0  0
 45120  1  0  0  0
 46121  1  0  0  0
 47122  1  0  0  0
 47123  1  0  0  0
 48 56  1  0  0  0
 48 65  1  0  0  0
 48124  1  0  0  0
 49 50  1  0  0  0
 49 53  1  0  0  0
 49 64  1  0  0  0
 49125  1  0  0  0
 50 51  1  0  0  0
 50126  1  0  0  0
 50127  1  0  0  0
 51 52  1  0  0  0
 51128  1  0  0  0
 51129  1  0  0  0
 52130  1  0  0  0
 52131  1  0  0  0
 53 54  1  0  0  0
 54 55  2  0  0  0
 54132  1  0  0  0
 55 57  1  0  0  0
 55133  1  0  0  0
 56 69  2  0  0  0
 57 58  2  0  0  0
 57134  1  0  0  0
 58135  1  0  0  0
 59 60  1  0  0  0
 59 61  1  0  0  0
 59 62  1  0  0  0
 60136  1  0  0  0
 60137  1  0  0  0
 60138  1  0  0  0
 61139  1  0  0  0
 61140  1  0  0  0
 61141  1  0  0  0
 62142  1  0  0  0
 62143  1  0  0  0
 62144  1  0  0  0
 63 65  1  0  0  0
 63145  1  0  0  0
 63146  1  0  0  0
 63147  1  0  0  0
 64148  1  0  0  0
 65149  1  0  0  0
 68 80  1  0  0  0
 71 72  1  0  0  0
 71 73  2  0  0  0
 71 88  1  0  0  0
 72 74  2  0  0  0
 72 89  1  0  0  0
 73 75  1  0  0  0
 73 90  1  0  0  0
 74 84  1  0  0  0
 74 90  1  0  0  0
 75 85  1  0  0  0
 75 86  2  0  0  0
 76 80  1  0  0  0
 76 82  1  0  0  0
 76 87  2  0  0  0
 77150  1  0  0  0
 77151  1  0  0  0
 77152  1  0  0  0
 77 83  1  0  0  0
 78 83  1  0  0  0
 78153  1  0  0  0
 78154  1  0  0  0
 78155  1  0  0  0
 79 83  1  0  0  0
 79156  1  0  0  0
 79157  1  0  0  0
 79158  1  0  0  0
 80159  1  0  0  0
 80160  1  0  0  0
 81 83  1  0  0  0
 81161  1  0  0  0
 81162  1  0  0  0
 81 82  1  0  0  0
 82 85  1  0  0  0
 82163  1  0  0  0
 84164  1  0  0  0
 85165  1  0  0  0
M  ISO  4   1 100  68 101  80 101  84 100
M  END
> <chiral flag>
0

> <version>
0

> <s_m_source_file>
/data/baiqing/PycharmProjects/Reinvent-master-3.2/result/LINK_invent/BTK/process_docking_weight1_custom_product_contain_oxygen_bond_distance_aromatic_linkinvent_7_9_3/rearranged_h_0176.sdf

> <i_m_source_file_index>
73

> <r_mmod_Potential_Energy-OPLS-2005>
-68.055046081543

> <r_mmod_Stretch_Energy-OPLS-2005>
43.8878479003906

> <r_mmod_Bend_Energy-OPLS-2005>
108.648948669434

> <r_mmod_Torsional_Energy-OPLS-2005>
302.525939941406

> <r_mmod_Improper_Torsional_Energy-OPLS-2005>
6.74498081207275

> <r_mmod_Van_der_Waal_Energy-OPLS-2005>
118.780937194824

> <r_mmod_Electrostatic_Energy-OPLS-2005>
-423.198791503906

> <r_mmod_Solvation_Energy-OPLS-2005>
-237.638198852539

> <b_mmod_Minimization_Converged-OPLS-2005>
0

> <r_mmod_RMS_Derivative-OPLS-2005>
2.47656679153442

$$$$
73
                    3D
 Structure written by MMmdl.
155163  0  0  1  0            999 V2000
  -30.6905  -14.4824   20.5616 C   0  0  0  0  0  0
  -30.4170  -12.3112   19.4227 C   0  0  0  0  0  0
  -29.4930  -12.5221   18.2063 C   0  0  0  0  0  0
  -28.0117  -12.3844   18.6107 C   0  0  0  0  0  0
  -27.6590  -13.2125   19.8743 C   0  0  2  0  0  0
  -28.6972  -12.9928   20.9975 C   0  0  0  0  0  0
  -25.2540  -13.8188   20.5656 C   0  0  0  0  0  0
  -24.1791  -13.0460   20.9174 C   0  0  0  0  0  0
  -24.6350  -11.6927   20.8702 C   0  0  0  0  0  0
  -23.9013  -10.4306   21.0379 C   0  0  0  0  0  0
  -24.3574   -9.4234   21.9171 C   0  0  0  0  0  0
  -23.6274   -8.2247   22.0736 C   0  0  0  0  0  0
  -22.4259   -8.0265   21.3530 C   0  0  0  0  0  0
  -21.9874   -9.0230   20.4628 C   0  0  0  0  0  0
  -22.7179  -10.2124   20.3039 C   0  0  0  0  0  0
  -21.6847   -6.0718   22.5281 C   0  0  0  0  0  0
  -21.4006   -6.5626   23.8209 C   0  0  0  0  0  0
  -21.3666   -5.6788   24.9178 C   0  0  0  0  0  0
  -21.6041   -4.3047   24.7228 C   0  0  0  0  0  0
  -21.8822   -3.8128   23.4352 C   0  0  0  0  0  0
  -21.9188   -4.6944   22.3410 C   0  0  0  0  0  0
  -22.7816  -13.5247   21.1857 C   0  0  0  0  0  0
  -22.1659   -4.2126   21.0997 F   0  0  0  0  0  0
  -21.5635   -3.4537   25.7746 F   0  0  0  0  0  0
  -30.0325  -13.2941   20.4499 N   0  0  0  0  0  0
  -26.2986  -12.9357   20.3343 N   0  0  0  0  0  0
  -25.9281  -11.6520   20.5738 N   0  0  0  0  0  0
  -22.0432  -12.8253   22.0414 N   0  0  0  0  0  0
  -25.4303  -15.1904   20.4036 N   0  0  0  0  0  0
  -31.7927  -14.6756   20.0406 O   0  0  0  0  0  0
  -21.6630   -6.8854   21.4246 O   0  0  0  0  0  0
  -22.3512  -14.5568   20.6722 O   0  0  0  0  0  0
  -24.6152  -31.8668   23.2116 C   0  0  0  0  0  0
  -25.9055  -32.4812   23.8403 C   0  0  1  0  0  0
  -27.2269  -27.4276   20.1098 C   0  0  0  0  0  0
  -25.5919  -33.8599   24.2354 N   0  0  0  0  0  0
  -23.4030  -30.4931   21.5498 C   0  0  2  0  0  0
  -24.8495  -28.9613   20.1117 C   0  0  0  0  0  0
  -22.7420  -29.4630   22.4951 C   0  0  0  0  0  0
  -18.0277  -28.1389   22.8489 C   0  0  0  0  0  0
  -24.1486  -36.7314   23.2627 C   0  0  0  0  0  0
  -25.9321  -30.8370   21.3619 C   0  0  0  0  0  0
  -26.0099  -29.4686   20.7124 C   0  0  0  0  0  0
  -27.2035  -28.7099   20.7082 C   0  0  0  0  0  0
  -26.0530  -26.9426   19.4923 C   0  0  0  0  0  0
  -24.8656  -27.6975   19.4979 C   0  0  0  0  0  0
  -23.6135  -29.8314   20.1616 C   0  0  0  0  0  0
  -25.4104  -36.3100   24.0344 C   0  0  1  0  0  0
  -20.5874  -28.3663   23.1328 C   0  0  2  0  0  0
  -20.6766  -26.9392   22.5430 C   0  0  0  0  0  0
  -19.5751  -26.6379   21.5221 C   0  0  0  0  0  0
  -18.1925  -26.7939   22.1615 C   0  0  0  0  0  0
  -19.1530  -28.8842   23.2906 C   0  0  0  0  0  0
  -18.9443  -30.1452   23.8905 C   0  0  0  0  0  0
  -17.6437  -30.6583   24.0559 C   0  0  0  0  0  0
  -25.9045  -34.9464   23.5148 C   0  0  0  0  0  0
  -16.5329  -29.9084   23.6313 C   0  0  0  0  0  0
  -16.7260  -28.6510   23.0326 C   0  0  0  0  0  0
  -26.4503  -31.6559   25.0711 C   0  0  0  0  0  0
  -25.3787  -31.3638   26.1469 C   0  0  0  0  0  0
  -27.0283  -30.2988   24.6052 C   0  0  0  0  0  0
  -27.6124  -32.4222   25.7468 C   0  0  0  0  0  0
  -27.5589  -37.1780   24.8440 C   0  0  0  0  0  0
  -21.4139  -29.3011   22.3720 N   0  0  0  0  0  0
  -26.4270  -37.3798   23.9439 N   0  0  0  0  0  0
  -24.6689  -31.0805   22.0994 N   0  0  0  0  0  0
  -23.4209  -28.8164   23.2974 O   0  0  0  0  0  0
  -28.3773  -26.6664   20.1265 O   0  0  0  0  0  0
  -26.5566  -34.8910   22.4687 O   0  0  0  0  0  0
  -23.5349  -32.1374   23.7535 O   0  0  0  0  0  0
  -30.9595  -19.0423   20.8643 C   0  0  0  0  0  0
  -31.2698  -17.6645   21.1281 C   0  0  0  0  0  0
  -29.6323  -19.3032   20.6319 C   0  0  0  0  0  0
  -30.1628  -16.8278   21.0319 C   0  0  0  0  0  0
  -32.6150  -17.2580   21.5498 C   0  0  0  0  0  0
  -28.4328  -22.8103   19.9875 C   0  0  0  0  0  0
  -29.5201  -21.6864   20.0423 C   0  0  0  0  0  0
  -33.7778  -18.0760   20.9879 C   0  0  0  0  0  0
  -28.8855  -24.2591   19.7008 C   0  0  0  0  0  0
  -28.2260  -25.3175   20.6185 C   0  0  0  0  0  0
  -29.0009  -20.4976   20.4207 N   0  0  0  0  0  0
  -30.0084  -15.4711   21.1799 N   0  0  0  0  0  0
  -32.8713  -16.3271   22.3184 O   0  0  0  0  0  0
  -27.2323  -22.5478   20.1437 O   0  0  0  0  0  0
  -30.7061  -21.8847   19.7560 O   0  0  0  0  0  0
  -28.7356  -17.8015   20.7173 S   0  0  0  0  0  0
  -31.4634  -12.4024   19.1255 H   0  0  0  0  0  0
  -30.3100  -11.2966   19.8132 H   0  0  0  0  0  0
  -29.7340  -11.8068   17.4189 H   0  0  0  0  0  0
  -29.6680  -13.5154   17.7836 H   0  0  0  0  0  0
  -27.8096  -11.3278   18.7917 H   0  0  0  0  0  0
  -27.3681  -12.6813   17.7816 H   0  0  0  0  0  0
  -27.7049  -14.2646   19.5863 H   0  0  0  0  0  0
  -28.6658  -11.9590   21.3451 H   0  0  0  0  0  0
  -28.4523  -13.5972   21.8721 H   0  0  0  0  0  0
  -25.2716   -9.5735   22.4763 H   0  0  0  0  0  0
  -23.9989   -7.4635   22.7463 H   0  0  0  0  0  0
  -21.0792   -8.8730   19.8944 H   0  0  0  0  0  0
  -22.3607  -10.9654   19.6149 H   0  0  0  0  0  0
  -21.1994   -7.6131   23.9716 H   0  0  0  0  0  0
  -21.1495   -6.0512   25.9092 H   0  0  0  0  0  0
  -22.0593   -2.7587   23.2860 H   0  0  0  0  0  0
  -22.3993  -11.9900   22.4810 H   0  0  0  0  0  0
  -21.1061  -13.1314   22.2615 H   0  0  0  0  0  0
  -24.6685  -15.8520   20.5034 H   0  0  0  0  0  0
  -26.2849  -15.6220   20.0759 H   0  0  0  0  0  0
  -26.7124  -32.5556   23.1161 H   0  0  0  0  0  0
  -25.0112  -33.9740   25.0536 H   0  0  0  0  0  0
  -22.6901  -31.3103   21.4159 H   0  0  0  0  0  0
  -23.3751  -35.9637   23.3221 H   0  0  0  0  0  0
  -24.3589  -36.8982   22.2050 H   0  0  0  0  0  0
  -23.7205  -37.6494   23.6671 H   0  0  0  0  0  0
  -26.0357  -31.6008   20.5912 H   0  0  0  0  0  0
  -26.8227  -30.8980   21.9756 H   0  0  0  0  0  0
  -28.0965  -29.0887   21.1871 H   0  0  0  0  0  0
  -26.0526  -25.9766   19.0074 H   0  0  0  0  0  0
  -23.9750  -27.3053   19.0247 H   0  0  0  0  0  0
  -23.7284  -30.6090   19.4061 H   0  0  0  0  0  0
  -22.7378  -29.2549   19.8608 H   0  0  0  0  0  0
  -25.1258  -36.1949   25.0830 H   0  0  0  0  0  0
  -20.9983  -28.3225   24.1442 H   0  0  0  0  0  0
  -20.5683  -26.2241   23.3605 H   0  0  0  0  0  0
  -21.6640  -26.7422   22.1225 H   0  0  0  0  0  0
  -19.6900  -25.6296   21.1226 H   0  0  0  0  0  0
  -19.6732  -27.3216   20.6786 H   0  0  0  0  0  0
  -17.4212  -26.6699   21.3993 H   0  0  0  0  0  0
  -18.0296  -26.0093   22.9017 H   0  0  0  0  0  0
  -19.7919  -30.7273   24.2269 H   0  0  0  0  0  0
  -17.4991  -31.6268   24.5170 H   0  0  0  0  0  0
  -15.5336  -30.2981   23.7647 H   0  0  0  0  0  0
  -15.8666  -28.0851   22.6995 H   0  0  0  0  0  0
  -24.6053  -30.6855   25.7827 H   0  0  0  0  0  0
  -24.8868  -32.2761   26.4845 H   0  0  0  0  0  0
  -25.8180  -30.8905   27.0257 H   0  0  0  0  0  0
  -26.2779  -29.6770   24.1145 H   0  0  0  0  0  0
  -27.4067  -29.7197   25.4482 H   0  0  0  0  0  0
  -27.8627  -30.4258   23.9153 H   0  0  0  0  0  0
  -27.2809  -33.3534   26.2063 H   0  0  0  0  0  0
  -28.3948  -32.6700   25.0286 H   0  0  0  0  0  0
  -28.0774  -31.8296   26.5357 H   0  0  0  0  0  0
  -28.2528  -38.0151   24.7591 H   0  0  0  0  0  0
  -28.1149  -36.2675   24.6123 H   0  0  0  0  0  0
  -27.2321  -37.1285   25.8838 H   0  0  0  0  0  0
  -20.9281  -29.8745   21.6964 H   0  0  0  0  0  0
  -26.0146  -38.2849   24.1520 H   0  0  0  0  0  0
  -31.7200  -19.8065   20.9080 H   0  0  0  0  0  0
  -33.6204  -18.2910   19.9307 H   0  0  0  0  0  0
  -34.7104  -17.5194   21.0822 H   0  0  0  0  0  0
  -33.8880  -19.0196   21.5236 H   0  0  0  0  0  0
  -28.6198  -24.4693   18.6670 H   0  0  0  0  0  0
  -29.9713  -24.3337   19.7627 H   0  0  0  0  0  0
  -28.7016  -25.2707   21.5975 H   0  0  0  0  0  0
  -27.1845  -25.0578   20.8101 H   0  0  0  0  0  0
  -27.9960  -20.5239   20.5439 H   0  0  0  0  0  0
  -29.1085  -15.1693   21.5225 H   0  0  0  0  0  0
  1 25  1  0  0  0
  1 30  2  0  0  0
  1 82  1  0  0  0
  2  3  1  0  0  0
  2 25  1  0  0  0
  2 87  1  0  0  0
  2 88  1  0  0  0
  3  4  1  0  0  0
  3 89  1  0  0  0
  3 90  1  0  0  0
  4  5  1  0  0  0
  4 91  1  0  0  0
  4 92  1  0  0  0
  5  6  1  0  0  0
  5 26  1  0  0  0
  5 93  1  0  0  0
  6 25  1  0  0  0
  6 94  1  0  0  0
  6 95  1  0  0  0
  7  8  2  0  0  0
  7 26  1  0  0  0
  7 29  1  0  0  0
  8  9  1  0  0  0
  8 22  1  0  0  0
  9 10  1  0  0  0
  9 27  2  0  0  0
 10 11  2  0  0  0
 10 15  1  0  0  0
 11 12  1  0  0  0
 11 96  1  0  0  0
 12 13  2  0  0  0
 12 97  1  0  0  0
 13 14  1  0  0  0
 13 31  1  0  0  0
 14 15  2  0  0  0
 14 98  1  0  0  0
 15 99  1  0  0  0
 16 17  2  0  0  0
 16 21  1  0  0  0
 16 31  1  0  0  0
 17 18  1  0  0  0
 17100  1  0  0  0
 18 19  2  0  0  0
 18101  1  0  0  0
 19 20  1  0  0  0
 19 24  1  0  0  0
 20 21  2  0  0  0
 20102  1  0  0  0
 21 23  1  0  0  0
 22 28  1  0  0  0
 22 32  2  0  0  0
 26 27  1  0  0  0
 28103  1  0  0  0
 28104  1  0  0  0
 29105  1  0  0  0
 29106  1  0  0  0
 33 34  1  0  0  0
 33 66  1  0  0  0
 33 70  2  0  0  0
 34 36  1  0  0  0
 34 59  1  0  0  0
 34107  1  0  0  0
 35 44  2  0  0  0
 35 45  1  0  0  0
 35 68  1  0  0  0
 36 56  1  0  0  0
 36108  1  0  0  0
 37 39  1  0  0  0
 37 47  1  0  0  0
 37 66  1  0  0  0
 37109  1  0  0  0
 38 43  2  0  0  0
 38 46  1  0  0  0
 38 47  1  0  0  0
 39 64  1  0  0  0
 39 67  2  0  0  0
 40 52  1  0  0  0
 40 53  2  0  0  0
 40 58  1  0  0  0
 41110  1  0  0  0
 41111  1  0  0  0
 41112  1  0  0  0
 41 48  1  0  0  0
 42 43  1  0  0  0
 42 66  1  0  0  0
 42113  1  0  0  0
 42114  1  0  0  0
 43 44  1  0  0  0
 44115  1  0  0  0
 45 46  2  0  0  0
 45116  1  0  0  0
 46117  1  0  0  0
 47118  1  0  0  0
 47119  1  0  0  0
 48 56  1  0  0  0
 48 65  1  0  0  0
 48120  1  0  0  0
 49 50  1  0  0  0
 49 53  1  0  0  0
 49 64  1  0  0  0
 49121  1  0  0  0
 50 51  1  0  0  0
 50122  1  0  0  0
 50123  1  0  0  0
 51 52  1  0  0  0
 51124  1  0  0  0
 51125  1  0  0  0
 52126  1  0  0  0
 52127  1  0  0  0
 53 54  1  0  0  0
 54 55  2  0  0  0
 54128  1  0  0  0
 55 57  1  0  0  0
 55129  1  0  0  0
 56 69  2  0  0  0
 57 58  2  0  0  0
 57130  1  0  0  0
 58131  1  0  0  0
 59 60  1  0  0  0
 59 61  1  0  0  0
 59 62  1  0  0  0
 60132  1  0  0  0
 60133  1  0  0  0
 60134  1  0  0  0
 61135  1  0  0  0
 61136  1  0  0  0
 61137  1  0  0  0
 62138  1  0  0  0
 62139  1  0  0  0
 62140  1  0  0  0
 63 65  1  0  0  0
 63141  1  0  0  0
 63142  1  0  0  0
 63143  1  0  0  0
 64144  1  0  0  0
 65145  1  0  0  0
 68 80  1  0  0  0
 71 72  1  0  0  0
 71 73  2  0  0  0
 71146  1  0  0  0
 72 74  2  0  0  0
 72 75  1  0  0  0
 73 81  1  0  0  0
 73 86  1  0  0  0
 74 82  1  0  0  0
 74 86  1  0  0  0
 75 78  1  0  0  0
 75 83  2  0  0  0
 76 77  1  0  0  0
 76 79  1  0  0  0
 76 84  2  0  0  0
 77 81  1  0  0  0
 77 85  2  0  0  0
 78147  1  0  0  0
 78148  1  0  0  0
 78149  1  0  0  0
 79 80  1  0  0  0
 79150  1  0  0  0
 79151  1  0  0  0
 80152  1  0  0  0
 80153  1  0  0  0
 81154  1  0  0  0
 82155  1  0  0  0
M  ISO  4   1 100  68 101  80 101  82 100
M  END
> <chiral flag>
0

> <version>
0

> <s_m_source_file>
/data/baiqing/PycharmProjects/Reinvent-master-3.2/result/LINK_invent/BTK/process_docking_weight1_custom_product_contain_oxygen_bond_distance_aromatic_linkinvent_7_9_3/rearranged_h_0176.sdf

> <i_m_source_file_index>
74

> <r_mmod_Potential_Energy-OPLS-2005>
-32.7204475402832

> <r_mmod_Stretch_Energy-OPLS-2005>
40.9666023254395

> <r_mmod_Bend_Energy-OPLS-2005>
110.508850097656

> <r_mmod_Torsional_Energy-OPLS-2005>
276.665802001953

> <r_mmod_Improper_Torsional_Energy-OPLS-2005>
4.55130910873413

> <r_mmod_Van_der_Waal_Energy-OPLS-2005>
136.031723022461

> <r_mmod_Electrostatic_Energy-OPLS-2005>
-374.156829833984

> <r_mmod_Solvation_Energy-OPLS-2005>
-241.109390258789

> <b_mmod_Minimization_Converged-OPLS-2005>
0

> <r_mmod_RMS_Derivative-OPLS-2005>
3.66112470626831

$$$$
74
                    3D
 Structure written by MMmdl.
154162  0  0  1  0            999 V2000
  -30.6521  -14.5909   20.5044 C   0  0  0  0  0  0
  -30.4314  -12.3651   19.4386 C   0  0  0  0  0  0
  -29.5035  -12.5016   18.2127 C   0  0  0  0  0  0
  -28.0222  -12.3573   18.6191 C   0  0  0  0  0  0
  -27.6511  -13.2175   19.8583 C   0  0  2  0  0  0
  -28.6985  -13.0632   20.9844 C   0  0  0  0  0  0
  -25.2553  -13.8166   20.5686 C   0  0  0  0  0  0
  -24.1833  -13.0431   20.9199 C   0  0  0  0  0  0
  -24.6410  -11.6908   20.8732 C   0  0  0  0  0  0
  -23.9093  -10.4285   21.0409 C   0  0  0  0  0  0
  -24.3639   -9.4203   21.9186 C   0  0  0  0  0  0
  -23.6310   -8.2247   22.0750 C   0  0  0  0  0  0
  -22.4298   -8.0287   21.3540 C   0  0  0  0  0  0
  -21.9935   -9.0262   20.4643 C   0  0  0  0  0  0
  -22.7270  -10.2134   20.3055 C   0  0  0  0  0  0
  -21.6851   -6.0743   22.5282 C   0  0  0  0  0  0
  -21.4016   -6.5652   23.8221 C   0  0  0  0  0  0
  -21.3653   -5.6800   24.9179 C   0  0  0  0  0  0
  -21.6041   -4.3063   24.7226 C   0  0  0  0  0  0
  -21.8817   -3.8159   23.4352 C   0  0  0  0  0  0
  -21.9199   -4.6973   22.3409 C   0  0  0  0  0  0
  -22.7857  -13.5217   21.1872 C   0  0  0  0  0  0
  -22.1659   -4.2173   21.0978 F   0  0  0  0  0  0
  -21.5630   -3.4543   25.7726 F   0  0  0  0  0  0
  -30.0131  -13.3866   20.4115 N   0  0  0  0  0  0
  -26.2984  -12.9353   20.3300 N   0  0  0  0  0  0
  -25.9339  -11.6510   20.5753 N   0  0  0  0  0  0
  -22.0496  -12.8186   22.0409 N   0  0  0  0  0  0
  -25.4239  -15.1896   20.4103 N   0  0  0  0  0  0
  -31.8364  -14.7183   20.1733 O   0  0  0  0  0  0
  -21.6639   -6.8892   21.4253 O   0  0  0  0  0  0
  -22.3539  -14.5526   20.6726 O   0  0  0  0  0  0
  -24.6189  -31.8654   23.2082 C   0  0  0  0  0  0
  -25.9071  -32.4814   23.8380 C   0  0  1  0  0  0
  -27.2357  -27.3905   20.1192 C   0  0  0  0  0  0
  -25.5942  -33.8609   24.2318 N   0  0  0  0  0  0
  -23.4096  -30.4851   21.5508 C   0  0  2  0  0  0
  -24.8579  -28.9386   20.1254 C   0  0  0  0  0  0
  -22.7427  -29.4656   22.5026 C   0  0  0  0  0  0
  -18.0261  -28.1384   22.8496 C   0  0  0  0  0  0
  -24.1486  -36.7283   23.2643 C   0  0  0  0  0  0
  -25.9380  -30.8212   21.3631 C   0  0  0  0  0  0
  -26.0192  -29.4436   20.7254 C   0  0  0  0  0  0
  -27.2120  -28.6754   20.7226 C   0  0  0  0  0  0
  -26.0601  -26.9114   19.5103 C   0  0  0  0  0  0
  -24.8742  -27.6726   19.5154 C   0  0  0  0  0  0
  -23.6198  -29.8082   20.1688 C   0  0  0  0  0  0
  -25.4106  -36.3083   24.0338 C   0  0  1  0  0  0
  -20.5861  -28.3671   23.1313 C   0  0  2  0  0  0
  -20.6768  -26.9414   22.5408 C   0  0  0  0  0  0
  -19.5744  -26.6378   21.5215 C   0  0  0  0  0  0
  -18.1910  -26.7921   22.1620 C   0  0  0  0  0  0
  -19.1515  -28.8839   23.2905 C   0  0  0  0  0  0
  -18.9445  -30.1438   23.8925 C   0  0  0  0  0  0
  -17.6451  -30.6595   24.0556 C   0  0  0  0  0  0
  -25.9040  -34.9458   23.5106 C   0  0  0  0  0  0
  -16.5343  -29.9094   23.6334 C   0  0  0  0  0  0
  -16.7257  -28.6501   23.0376 C   0  0  0  0  0  0
  -26.4491  -31.6595   25.0718 C   0  0  0  0  0  0
  -25.3741  -31.3714   26.1459 C   0  0  0  0  0  0
  -27.0330  -30.3043   24.6081 C   0  0  0  0  0  0
  -27.6064  -32.4306   25.7478 C   0  0  0  0  0  0
  -27.5560  -37.1797   24.8457 C   0  0  0  0  0  0
  -21.4157  -29.3043   22.3734 N   0  0  0  0  0  0
  -26.4274  -37.3773   23.9410 N   0  0  0  0  0  0
  -24.6743  -31.0722   22.1003 N   0  0  0  0  0  0
  -23.4161  -28.8196   23.3091 O   0  0  0  0  0  0
  -28.3873  -26.6289   20.0240 O   0  0  0  0  0  0
  -26.5559  -34.8896   22.4648 O   0  0  0  0  0  0
  -23.5376  -32.1440   23.7456 O   0  0  0  0  0  0
  -30.4459  -19.5818   20.8477 C   0  0  0  0  0  0
  -31.4052  -18.8723   21.5578 C   0  0  0  0  0  0
  -30.1933  -17.0664   20.8375 C   0  0  0  0  0  0
  -30.4223  -21.0451   20.4499 C   0  0  0  0  0  0
  -28.2542  -24.1822   20.7279 C   0  0  0  0  0  0
  -28.6497  -25.6576   21.0666 C   0  0  0  0  0  0
  -29.2805  -23.2491   19.9994 C   0  0  2  0  0  0
  -29.1281  -23.3142   18.4609 C   0  0  0  0  0  0
  -31.2435  -17.4797   21.5539 N   0  0  0  0  0  0
  -32.5052  -19.3899   22.2487 N   0  0  0  0  0  0
  -29.8467  -15.6689   20.7157 N   0  0  0  0  0  0
  -29.3058  -21.8169   20.4660 N   0  0  0  0  0  0
  -31.4992  -21.5573   20.1396 O   0  0  0  0  0  0
  -27.1469  -23.7670   21.0885 O   0  0  0  0  0  0
  -30.1375  -22.6993   17.8429 F   0  0  0  0  0  0
  -29.1051  -24.5792   18.0381 F   0  0  0  0  0  0
  -27.9867  -22.7329   18.0862 F   0  0  0  0  0  0
  -29.2670  -18.4459   20.1758 S   0  0  0  0  0  0
  -31.4761  -12.4743   19.1414 H   0  0  0  0  0  0
  -30.3493  -11.3694   19.8763 H   0  0  0  0  0  0
  -29.7626  -11.7551   17.4602 H   0  0  0  0  0  0
  -29.6600  -13.4728   17.7428 H   0  0  0  0  0  0
  -27.8378  -11.3024   18.8296 H   0  0  0  0  0  0
  -27.3767  -12.6149   17.7789 H   0  0  0  0  0  0
  -27.6676  -14.2541   19.5229 H   0  0  0  0  0  0
  -28.7006  -12.0431   21.3684 H   0  0  0  0  0  0
  -28.4611  -13.7051   21.8346 H   0  0  0  0  0  0
  -25.2783   -9.5670   22.4761 H   0  0  0  0  0  0
  -24.0018   -7.4631   22.7465 H   0  0  0  0  0  0
  -21.0867   -8.8779   19.8941 H   0  0  0  0  0  0
  -22.3739  -10.9671   19.6156 H   0  0  0  0  0  0
  -21.2000   -7.6164   23.9734 H   0  0  0  0  0  0
  -21.1475   -6.0524   25.9077 H   0  0  0  0  0  0
  -22.0603   -2.7634   23.2838 H   0  0  0  0  0  0
  -22.4115  -11.9831   22.4755 H   0  0  0  0  0  0
  -21.1108  -13.1190   22.2614 H   0  0  0  0  0  0
  -24.6515  -15.8368   20.5262 H   0  0  0  0  0  0
  -26.2579  -15.6349   20.0521 H   0  0  0  0  0  0
  -26.7154  -32.5513   23.1152 H   0  0  0  0  0  0
  -25.0146  -33.9782   25.0505 H   0  0  0  0  0  0
  -22.7007  -31.3023   21.4029 H   0  0  0  0  0  0
  -23.3756  -35.9612   23.3284 H   0  0  0  0  0  0
  -24.3575  -36.8927   22.2063 H   0  0  0  0  0  0
  -23.7217  -37.6476   23.6661 H   0  0  0  0  0  0
  -26.0341  -31.5762   20.5826 H   0  0  0  0  0  0
  -26.8328  -30.8950   21.9704 H   0  0  0  0  0  0
  -28.1115  -29.0669   21.1757 H   0  0  0  0  0  0
  -26.0645  -25.9461   19.0229 H   0  0  0  0  0  0
  -23.9814  -27.2817   19.0453 H   0  0  0  0  0  0
  -23.7214  -30.5762   19.4013 H   0  0  0  0  0  0
  -22.7484  -29.2204   19.8780 H   0  0  0  0  0  0
  -25.1291  -36.1929   25.0831 H   0  0  0  0  0  0
  -20.9932  -28.3219   24.1442 H   0  0  0  0  0  0
  -20.5670  -26.2291   23.3612 H   0  0  0  0  0  0
  -21.6633  -26.7462   22.1188 H   0  0  0  0  0  0
  -19.6910  -25.6278   21.1260 H   0  0  0  0  0  0
  -19.6682  -27.3189   20.6740 H   0  0  0  0  0  0
  -17.4189  -26.6694   21.4004 H   0  0  0  0  0  0
  -18.0302  -26.0055   22.8999 H   0  0  0  0  0  0
  -19.7924  -30.7239   24.2326 H   0  0  0  0  0  0
  -17.5009  -31.6289   24.5129 H   0  0  0  0  0  0
  -15.5344  -30.3013   23.7635 H   0  0  0  0  0  0
  -15.8650  -28.0811   22.7130 H   0  0  0  0  0  0
  -24.5877  -30.7123   25.7750 H   0  0  0  0  0  0
  -24.8991  -32.2902   26.4912 H   0  0  0  0  0  0
  -25.8068  -30.8825   27.0199 H   0  0  0  0  0  0
  -26.2881  -29.6804   24.1121 H   0  0  0  0  0  0
  -27.4128  -29.7260   25.4509 H   0  0  0  0  0  0
  -27.8688  -30.4386   23.9205 H   0  0  0  0  0  0
  -27.2710  -33.3633   26.2010 H   0  0  0  0  0  0
  -28.3897  -32.6823   25.0313 H   0  0  0  0  0  0
  -28.0699  -31.8454   26.5434 H   0  0  0  0  0  0
  -28.2560  -38.0104   24.7509 H   0  0  0  0  0  0
  -28.1076  -36.2635   24.6281 H   0  0  0  0  0  0
  -27.2278  -37.1435   25.8859 H   0  0  0  0  0  0
  -20.9329  -29.8766   21.6945 H   0  0  0  0  0  0
  -26.0157  -38.2847   24.1436 H   0  0  0  0  0  0
  -29.7156  -25.6895   21.2924 H   0  0  0  0  0  0
  -28.1427  -25.9621   21.9827 H   0  0  0  0  0  0
  -30.2549  -23.6846   20.2203 H   0  0  0  0  0  0
  -32.8070  -20.3401   22.0535 H   0  0  0  0  0  0
  -33.2496  -18.7639   22.5392 H   0  0  0  0  0  0
  -28.8605  -15.4672   20.7141 H   0  0  0  0  0  0
  -28.4227  -21.4095   20.7404 H   0  0  0  0  0  0
  1 25  1  0  0  0
  1 30  2  0  0  0
  1 81  1  0  0  0
  2  3  1  0  0  0
  2 25  1  0  0  0
  2 89  1  0  0  0
  2 90  1  0  0  0
  3  4  1  0  0  0
  3 91  1  0  0  0
  3 92  1  0  0  0
  4  5  1  0  0  0
  4 93  1  0  0  0
  4 94  1  0  0  0
  5  6  1  0  0  0
  5 26  1  0  0  0
  5 95  1  0  0  0
  6 25  1  0  0  0
  6 96  1  0  0  0
  6 97  1  0  0  0
  7  8  2  0  0  0
  7 26  1  0  0  0
  7 29  1  0  0  0
  8  9  1  0  0  0
  8 22  1  0  0  0
  9 10  1  0  0  0
  9 27  2  0  0  0
 10 11  2  0  0  0
 10 15  1  0  0  0
 11 12  1  0  0  0
 11 98  1  0  0  0
 12 13  2  0  0  0
 12 99  1  0  0  0
 13 14  1  0  0  0
 13 31  1  0  0  0
 14 15  2  0  0  0
 14100  1  0  0  0
 15101  1  0  0  0
 16 17  2  0  0  0
 16 21  1  0  0  0
 16 31  1  0  0  0
 17 18  1  0  0  0
 17102  1  0  0  0
 18 19  2  0  0  0
 18103  1  0  0  0
 19 20  1  0  0  0
 19 24  1  0  0  0
 20 21  2  0  0  0
 20104  1  0  0  0
 21 23  1  0  0  0
 22 28  1  0  0  0
 22 32  2  0  0  0
 26 27  1  0  0  0
 28105  1  0  0  0
 28106  1  0  0  0
 29107  1  0  0  0
 29108  1  0  0  0
 33 34  1  0  0  0
 33 66  1  0  0  0
 33 70  2  0  0  0
 34 36  1  0  0  0
 34 59  1  0  0  0
 34109  1  0  0  0
 35 44  2  0  0  0
 35 45  1  0  0  0
 35 68  1  0  0  0
 36 56  1  0  0  0
 36110  1  0  0  0
 37 39  1  0  0  0
 37 47  1  0  0  0
 37 66  1  0  0  0
 37111  1  0  0  0
 38 43  2  0  0  0
 38 46  1  0  0  0
 38 47  1  0  0  0
 39 64  1  0  0  0
 39 67  2  0  0  0
 40 52  1  0  0  0
 40 53  2  0  0  0
 40 58  1  0  0  0
 41112  1  0  0  0
 41113  1  0  0  0
 41114  1  0  0  0
 41 48  1  0  0  0
 42 43  1  0  0  0
 42 66  1  0  0  0
 42115  1  0  0  0
 42116  1  0  0  0
 43 44  1  0  0  0
 44117  1  0  0  0
 45 46  2  0  0  0
 45118  1  0  0  0
 46119  1  0  0  0
 47120  1  0  0  0
 47121  1  0  0  0
 48 56  1  0  0  0
 48 65  1  0  0  0
 48122  1  0  0  0
 49 50  1  0  0  0
 49 53  1  0  0  0
 49 64  1  0  0  0
 49123  1  0  0  0
 50 51  1  0  0  0
 50124  1  0  0  0
 50125  1  0  0  0
 51 52  1  0  0  0
 51126  1  0  0  0
 51127  1  0  0  0
 52128  1  0  0  0
 52129  1  0  0  0
 53 54  1  0  0  0
 54 55  2  0  0  0
 54130  1  0  0  0
 55 57  1  0  0  0
 55131  1  0  0  0
 56 69  2  0  0  0
 57 58  2  0  0  0
 57132  1  0  0  0
 58133  1  0  0  0
 59 60  1  0  0  0
 59 61  1  0  0  0
 59 62  1  0  0  0
 60134  1  0  0  0
 60135  1  0  0  0
 60136  1  0  0  0
 61137  1  0  0  0
 61138  1  0  0  0
 61139  1  0  0  0
 62140  1  0  0  0
 62141  1  0  0  0
 62142  1  0  0  0
 63 65  1  0  0  0
 63143  1  0  0  0
 63144  1  0  0  0
 63145  1  0  0  0
 64146  1  0  0  0
 65147  1  0  0  0
 68 76  1  0  0  0
 71 72  2  0  0  0
 71 74  1  0  0  0
 71 88  1  0  0  0
 72 79  1  0  0  0
 72 80  1  0  0  0
 73 79  2  0  0  0
 73 81  1  0  0  0
 73 88  1  0  0  0
 74 82  1  0  0  0
 74 83  2  0  0  0
 75 76  1  0  0  0
 75 77  1  0  0  0
 75 84  2  0  0  0
 76148  1  0  0  0
 76149  1  0  0  0
 77 78  1  0  0  0
 77 82  1  0  0  0
 77150  1  0  0  0
 78 85  1  0  0  0
 78 86  1  0  0  0
 78 87  1  0  0  0
 80151  1  0  0  0
 80152  1  0  0  0
 81153  1  0  0  0
 82154  1  0  0  0
M  ISO  4   1 100  68 101  76 101  81 100
M  END
> <chiral flag>
0

> <version>
0

> <s_m_source_file>
/data/baiqing/PycharmProjects/Reinvent-master-3.2/result/LINK_invent/BTK/process_docking_weight1_custom_product_contain_oxygen_bond_distance_aromatic_linkinvent_7_9_3/rearranged_h_0176.sdf

> <i_m_source_file_index>
75

> <r_mmod_Potential_Energy-OPLS-2005>
-176.446136474609

> <r_mmod_Stretch_Energy-OPLS-2005>
53.8226127624512

> <r_mmod_Bend_Energy-OPLS-2005>
127.393798828125

> <r_mmod_Torsional_Energy-OPLS-2005>
277.12109375

> <r_mmod_Improper_Torsional_Energy-OPLS-2005>
10.0776195526123

> <r_mmod_Van_der_Waal_Energy-OPLS-2005>
119.554473876953

> <r_mmod_Electrostatic_Energy-OPLS-2005>
-536.341125488281

> <r_mmod_Solvation_Energy-OPLS-2005>
-256.054595947266

> <b_mmod_Minimization_Converged-OPLS-2005>
0

> <r_mmod_RMS_Derivative-OPLS-2005>
2.93704843521118

$$$$
75
                    3D
 Structure written by MMmdl.
151159  0  0  1  0            999 V2000
  -30.7027  -14.4918   20.5503 C   0  0  0  0  0  0
  -30.4140  -12.3124   19.4276 C   0  0  0  0  0  0
  -29.4944  -12.5132   18.2049 C   0  0  0  0  0  0
  -28.0150  -12.3726   18.6180 C   0  0  0  0  0  0
  -27.6588  -13.2134   19.8745 C   0  0  2  0  0  0
  -28.7022  -13.0154   20.9982 C   0  0  0  0  0  0
  -25.2565  -13.8157   20.5692 C   0  0  0  0  0  0
  -24.1822  -13.0429   20.9164 C   0  0  0  0  0  0
  -24.6396  -11.6894   20.8716 C   0  0  0  0  0  0
  -23.9063  -10.4284   21.0390 C   0  0  0  0  0  0
  -24.3627   -9.4209   21.9170 C   0  0  0  0  0  0
  -23.6300   -8.2249   22.0743 C   0  0  0  0  0  0
  -22.4280   -8.0282   21.3543 C   0  0  0  0  0  0
  -21.9914   -9.0245   20.4641 C   0  0  0  0  0  0
  -22.7234  -10.2127   20.3032 C   0  0  0  0  0  0
  -21.6855   -6.0741   22.5273 C   0  0  0  0  0  0
  -21.4002   -6.5638   23.8214 C   0  0  0  0  0  0
  -21.3667   -5.6792   24.9173 C   0  0  0  0  0  0
  -21.6053   -4.3052   24.7224 C   0  0  0  0  0  0
  -21.8814   -3.8150   23.4345 C   0  0  0  0  0  0
  -21.9192   -4.6972   22.3395 C   0  0  0  0  0  0
  -22.7842  -13.5229   21.1859 C   0  0  0  0  0  0
  -22.1656   -4.2161   21.0970 F   0  0  0  0  0  0
  -21.5661   -3.4532   25.7739 F   0  0  0  0  0  0
  -30.0258  -13.3152   20.4343 N   0  0  0  0  0  0
  -26.3023  -12.9351   20.3401 N   0  0  0  0  0  0
  -25.9339  -11.6492   20.5774 N   0  0  0  0  0  0
  -22.0503  -12.8207   22.0414 N   0  0  0  0  0  0
  -25.4287  -15.1878   20.4177 N   0  0  0  0  0  0
  -31.8471  -14.6392   20.1153 O   0  0  0  0  0  0
  -21.6647   -6.8881   21.4232 O   0  0  0  0  0  0
  -22.3512  -14.5549   20.6736 O   0  0  0  0  0  0
  -24.6195  -31.8693   23.2121 C   0  0  0  0  0  0
  -25.9083  -32.4824   23.8410 C   0  0  1  0  0  0
  -27.2109  -27.3896   20.0909 C   0  0  0  0  0  0
  -25.5937  -33.8628   24.2336 N   0  0  0  0  0  0
  -23.4075  -30.4986   21.5545 C   0  0  2  0  0  0
  -24.8488  -28.9727   20.1111 C   0  0  0  0  0  0
  -22.7435  -29.4687   22.4980 C   0  0  0  0  0  0
  -18.0285  -28.1383   22.8501 C   0  0  0  0  0  0
  -24.1470  -36.7287   23.2598 C   0  0  0  0  0  0
  -25.9461  -30.8170   21.3798 C   0  0  0  0  0  0
  -26.0168  -29.4536   20.7170 C   0  0  0  0  0  0
  -27.2016  -28.6695   20.7081 C   0  0  0  0  0  0
  -26.0196  -26.9577   19.4542 C   0  0  0  0  0  0
  -24.8474  -27.7254   19.4769 C   0  0  0  0  0  0
  -23.6149  -29.8419   20.1664 C   0  0  0  0  0  0
  -25.4070  -36.3103   24.0337 C   0  0  1  0  0  0
  -20.5883  -28.3701   23.1297 C   0  0  2  0  0  0
  -20.6787  -26.9430   22.5418 C   0  0  0  0  0  0
  -19.5747  -26.6393   21.5236 C   0  0  0  0  0  0
  -18.1925  -26.7929   22.1638 C   0  0  0  0  0  0
  -19.1536  -28.8855   23.2893 C   0  0  0  0  0  0
  -18.9457  -30.1467   23.8900 C   0  0  0  0  0  0
  -17.6457  -30.6593   24.0575 C   0  0  0  0  0  0
  -25.9061  -34.9485   23.5138 C   0  0  0  0  0  0
  -16.5345  -29.9091   23.6335 C   0  0  0  0  0  0
  -16.7270  -28.6509   23.0358 C   0  0  0  0  0  0
  -26.4488  -31.6602   25.0757 C   0  0  0  0  0  0
  -25.3730  -31.3732   26.1492 C   0  0  0  0  0  0
  -27.0319  -30.3014   24.6198 C   0  0  0  0  0  0
  -27.6073  -32.4322   25.7517 C   0  0  0  0  0  0
  -27.5649  -37.1657   24.8342 C   0  0  0  0  0  0
  -21.4167  -29.3067   22.3701 N   0  0  0  0  0  0
  -26.4179  -37.3871   23.9575 N   0  0  0  0  0  0
  -24.6762  -31.0755   22.1057 N   0  0  0  0  0  0
  -23.4195  -28.8222   23.3024 O   0  0  0  0  0  0
  -28.3310  -26.5626   20.1365 O   0  0  0  0  0  0
  -26.5627  -34.8948   22.4704 O   0  0  0  0  0  0
  -23.5377  -32.1495   23.7475 O   0  0  0  0  0  0
  -29.5873  -18.0821   21.2473 C   0  0  0  0  0  0
  -28.3675  -18.0974   21.8957 C   0  0  0  0  0  0
  -29.0533  -20.3237   21.0334 C   0  0  0  0  0  0
  -29.1079  -24.1410   20.4144 C   0  0  0  0  0  0
  -28.5830  -22.7842   21.0136 C   0  0  0  0  0  0
  -30.5649  -16.9243   21.0734 C   0  0  0  0  0  0
  -28.0137  -25.1477   19.9866 C   0  0  0  0  0  0
  -29.9433  -19.3573   20.7485 N   0  0  0  0  0  0
  -27.7028  -17.0562   22.5405 N   0  0  0  0  0  0
  -29.2870  -21.6865   20.6471 N   0  0  0  0  0  0
  -30.0137  -15.5518   21.0204 N   0  0  0  0  0  0
  -30.3129  -24.3765   20.2549 O   0  0  0  0  0  0
  -27.6011  -22.7634   21.7647 O   0  0  0  0  0  0
  -27.6538  -19.6971   21.9113 S   0  0  0  0  0  0
  -31.4625  -12.3880   19.1365 H   0  0  0  0  0  0
  -30.2892  -11.3054   19.8273 H   0  0  0  0  0  0
  -29.7350  -11.7880   17.4256 H   0  0  0  0  0  0
  -29.6653  -13.4985   17.7654 H   0  0  0  0  0  0
  -27.8329  -11.3160   18.8188 H   0  0  0  0  0  0
  -27.3607  -12.6413   17.7863 H   0  0  0  0  0  0
  -27.6958  -14.2609   19.5743 H   0  0  0  0  0  0
  -28.6820  -11.9880   21.3644 H   0  0  0  0  0  0
  -28.4735  -13.6402   21.8631 H   0  0  0  0  0  0
  -25.2784   -9.5702   22.4748 H   0  0  0  0  0  0
  -24.0030   -7.4635   22.7454 H   0  0  0  0  0  0
  -21.0848   -8.8732   19.8947 H   0  0  0  0  0  0
  -22.3680  -10.9650   19.6138 H   0  0  0  0  0  0
  -21.1958   -7.6138   23.9710 H   0  0  0  0  0  0
  -21.1511   -6.0528   25.9082 H   0  0  0  0  0  0
  -22.0592   -2.7615   23.2837 H   0  0  0  0  0  0
  -22.4119  -11.9863   22.4779 H   0  0  0  0  0  0
  -21.1117  -13.1209   22.2605 H   0  0  0  0  0  0
  -24.6765  -15.8461   20.5873 H   0  0  0  0  0  0
  -26.3267  -15.6405   20.2917 H   0  0  0  0  0  0
  -26.7151  -32.5513   23.1164 H   0  0  0  0  0  0
  -25.0057  -33.9795   25.0459 H   0  0  0  0  0  0
  -22.6988  -31.3188   21.4185 H   0  0  0  0  0  0
  -23.3871  -35.9457   23.2919 H   0  0  0  0  0  0
  -24.3685  -36.9263   22.2099 H   0  0  0  0  0  0
  -23.6979  -37.6276   23.6832 H   0  0  0  0  0  0
  -26.0755  -31.5848   20.6162 H   0  0  0  0  0  0
  -26.8266  -30.8564   22.0091 H   0  0  0  0  0  0
  -28.0943  -29.0286   21.2021 H   0  0  0  0  0  0
  -25.9504  -26.0175   18.9291 H   0  0  0  0  0  0
  -23.9517  -27.3554   18.9977 H   0  0  0  0  0  0
  -23.7228  -30.6195   19.4093 H   0  0  0  0  0  0
  -22.7380  -29.2636   19.8690 H   0  0  0  0  0  0
  -25.1174  -36.1893   25.0798 H   0  0  0  0  0  0
  -20.9971  -28.3273   24.1420 H   0  0  0  0  0  0
  -20.5737  -26.2313   23.3623 H   0  0  0  0  0  0
  -21.6649  -26.7507   22.1172 H   0  0  0  0  0  0
  -19.6919  -25.6313   21.1250 H   0  0  0  0  0  0
  -19.6658  -27.3226   20.6784 H   0  0  0  0  0  0
  -17.4211  -26.6718   21.4021 H   0  0  0  0  0  0
  -18.0289  -26.0059   22.9011 H   0  0  0  0  0  0
  -19.7938  -30.7294   24.2243 H   0  0  0  0  0  0
  -17.5015  -31.6269   24.5177 H   0  0  0  0  0  0
  -15.5352  -30.2995   23.7658 H   0  0  0  0  0  0
  -15.8674  -28.0833   22.7063 H   0  0  0  0  0  0
  -24.5891  -30.7106   25.7807 H   0  0  0  0  0  0
  -24.8948  -32.2900   26.4939 H   0  0  0  0  0  0
  -25.8049  -30.8877   27.0248 H   0  0  0  0  0  0
  -26.2892  -29.6778   24.1204 H   0  0  0  0  0  0
  -27.3986  -29.7253   25.4705 H   0  0  0  0  0  0
  -27.8780  -30.4281   23.9442 H   0  0  0  0  0  0
  -27.2692  -33.3607   26.2122 H   0  0  0  0  0  0
  -28.3857  -32.6900   25.0327 H   0  0  0  0  0  0
  -28.0762  -31.8431   26.5405 H   0  0  0  0  0  0
  -28.2174  -38.0399   24.8213 H   0  0  0  0  0  0
  -28.1618  -36.3102   24.5138 H   0  0  0  0  0  0
  -27.2553  -36.9998   25.8677 H   0  0  0  0  0  0
  -20.9346  -29.8771   21.6899 H   0  0  0  0  0  0
  -26.0031  -38.2809   24.2069 H   0  0  0  0  0  0
  -31.2802  -16.9459   21.8970 H   0  0  0  0  0  0
  -31.1514  -17.1023   20.1704 H   0  0  0  0  0  0
  -27.1215  -24.9228   20.5728 H   0  0  0  0  0  0
  -27.7800  -24.9379   18.9429 H   0  0  0  0  0  0
  -28.2217  -16.3153   22.9987 H   0  0  0  0  0  0
  -26.8327  -17.2444   23.0301 H   0  0  0  0  0  0
  -30.0829  -21.8620   20.0503 H   0  0  0  0  0  0
  -29.0585  -15.4230   21.3171 H   0  0  0  0  0  0
  1 25  1  0  0  0
  1 30  2  0  0  0
  1 81  1  0  0  0
  2  3  1  0  0  0
  2 25  1  0  0  0
  2 85  1  0  0  0
  2 86  1  0  0  0
  3  4  1  0  0  0
  3 87  1  0  0  0
  3 88  1  0  0  0
  4  5  1  0  0  0
  4 89  1  0  0  0
  4 90  1  0  0  0
  5  6  1  0  0  0
  5 26  1  0  0  0
  5 91  1  0  0  0
  6 25  1  0  0  0
  6 92  1  0  0  0
  6 93  1  0  0  0
  7  8  2  0  0  0
  7 26  1  0  0  0
  7 29  1  0  0  0
  8  9  1  0  0  0
  8 22  1  0  0  0
  9 10  1  0  0  0
  9 27  2  0  0  0
 10 11  2  0  0  0
 10 15  1  0  0  0
 11 12  1  0  0  0
 11 94  1  0  0  0
 12 13  2  0  0  0
 12 95  1  0  0  0
 13 14  1  0  0  0
 13 31  1  0  0  0
 14 15  2  0  0  0
 14 96  1  0  0  0
 15 97  1  0  0  0
 16 17  2  0  0  0
 16 21  1  0  0  0
 16 31  1  0  0  0
 17 18  1  0  0  0
 17 98  1  0  0  0
 18 19  2  0  0  0
 18 99  1  0  0  0
 19 20  1  0  0  0
 19 24  1  0  0  0
 20 21  2  0  0  0
 20100  1  0  0  0
 21 23  1  0  0  0
 22 28  1  0  0  0
 22 32  2  0  0  0
 26 27  1  0  0  0
 28101  1  0  0  0
 28102  1  0  0  0
 29103  1  0  0  0
 29104  1  0  0  0
 33 34  1  0  0  0
 33 66  1  0  0  0
 33 70  2  0  0  0
 34 36  1  0  0  0
 34 59  1  0  0  0
 34105  1  0  0  0
 35 44  2  0  0  0
 35 45  1  0  0  0
 35 68  1  0  0  0
 36 56  1  0  0  0
 36106  1  0  0  0
 37 39  1  0  0  0
 37 47  1  0  0  0
 37 66  1  0  0  0
 37107  1  0  0  0
 38 43  2  0  0  0
 38 46  1  0  0  0
 38 47  1  0  0  0
 39 64  1  0  0  0
 39 67  2  0  0  0
 40 52  1  0  0  0
 40 53  2  0  0  0
 40 58  1  0  0  0
 41108  1  0  0  0
 41109  1  0  0  0
 41110  1  0  0  0
 41 48  1  0  0  0
 42 43  1  0  0  0
 42 66  1  0  0  0
 42111  1  0  0  0
 42112  1  0  0  0
 43 44  1  0  0  0
 44113  1  0  0  0
 45 46  2  0  0  0
 45114  1  0  0  0
 46115  1  0  0  0
 47116  1  0  0  0
 47117  1  0  0  0
 48 56  1  0  0  0
 48 65  1  0  0  0
 48118  1  0  0  0
 49 50  1  0  0  0
 49 53  1  0  0  0
 49 64  1  0  0  0
 49119  1  0  0  0
 50 51  1  0  0  0
 50120  1  0  0  0
 50121  1  0  0  0
 51 52  1  0  0  0
 51122  1  0  0  0
 51123  1  0  0  0
 52124  1  0  0  0
 52125  1  0  0  0
 53 54  1  0  0  0
 54 55  2  0  0  0
 54126  1  0  0  0
 55 57  1  0  0  0
 55127  1  0  0  0
 56 69  2  0  0  0
 57 58  2  0  0  0
 57128  1  0  0  0
 58129  1  0  0  0
 59 60  1  0  0  0
 59 61  1  0  0  0
 59 62  1  0  0  0
 60130  1  0  0  0
 60131  1  0  0  0
 60132  1  0  0  0
 61133  1  0  0  0
 61134  1  0  0  0
 61135  1  0  0  0
 62136  1  0  0  0
 62137  1  0  0  0
 62138  1  0  0  0
 63 65  1  0  0  0
 63139  1  0  0  0
 63140  1  0  0  0
 63141  1  0  0  0
 64142  1  0  0  0
 65143  1  0  0  0
 68 77  1  0  0  0
 71 72  2  0  0  0
 71 76  1  0  0  0
 71 78  1  0  0  0
 72 79  1  0  0  0
 72 84  1  0  0  0
 73 78  2  0  0  0
 73 80  1  0  0  0
 73 84  1  0  0  0
 74 75  1  0  0  0
 74 77  1  0  0  0
 74 82  2  0  0  0
 75 80  1  0  0  0
 75 83  2  0  0  0
 76 81  1  0  0  0
 76144  1  0  0  0
 76145  1  0  0  0
 77146  1  0  0  0
 77147  1  0  0  0
 79148  1  0  0  0
 79149  1  0  0  0
 80150  1  0  0  0
 81151  1  0  0  0
M  ISO  4   1 100  68 101  77 101  81 100
M  END
> <chiral flag>
0

> <version>
0

> <s_m_source_file>
/data/baiqing/PycharmProjects/Reinvent-master-3.2/result/LINK_invent/BTK/process_docking_weight1_custom_product_contain_oxygen_bond_distance_aromatic_linkinvent_7_9_3/rearranged_h_0176.sdf

> <i_m_source_file_index>
76

> <r_mmod_Potential_Energy-OPLS-2005>
-124.345359802246

> <r_mmod_Stretch_Energy-OPLS-2005>
45.7907867431641

> <r_mmod_Bend_Energy-OPLS-2005>
107.658111572266

> <r_mmod_Torsional_Energy-OPLS-2005>
203.146011352539

> <r_mmod_Improper_Torsional_Energy-OPLS-2005>
6.6712760925293

> <r_mmod_Van_der_Waal_Energy-OPLS-2005>
137.916809082031

> <r_mmod_Electrostatic_Energy-OPLS-2005>
-402.436889648438

> <r_mmod_Solvation_Energy-OPLS-2005>
-245.871658325195

> <b_mmod_Minimization_Converged-OPLS-2005>
0

> <r_mmod_RMS_Derivative-OPLS-2005>
2.90633630752563

$$$$
76
                    3D
 Structure written by MMmdl.
155163  0  0  1  0            999 V2000
  -30.6412  -14.5282   20.5188 C   0  0  0  0  0  0
  -30.4327  -12.3248   19.4124 C   0  0  0  0  0  0
  -29.4940  -12.5028   18.1993 C   0  0  0  0  0  0
  -28.0134  -12.3587   18.6109 C   0  0  0  0  0  0
  -27.6557  -13.1982   19.8653 C   0  0  2  0  0  0
  -28.7062  -12.9926   20.9820 C   0  0  0  0  0  0
  -25.2576  -13.8131   20.5662 C   0  0  0  0  0  0
  -24.1837  -13.0415   20.9205 C   0  0  0  0  0  0
  -24.6379  -11.6877   20.8748 C   0  0  0  0  0  0
  -23.9042  -10.4281   21.0409 C   0  0  0  0  0  0
  -24.3581   -9.4203   21.9203 C   0  0  0  0  0  0
  -23.6273   -8.2229   22.0766 C   0  0  0  0  0  0
  -22.4263   -8.0259   21.3547 C   0  0  0  0  0  0
  -21.9873   -9.0233   20.4654 C   0  0  0  0  0  0
  -22.7195  -10.2129   20.3071 C   0  0  0  0  0  0
  -21.6844   -6.0729   22.5274 C   0  0  0  0  0  0
  -21.4010   -6.5639   23.8208 C   0  0  0  0  0  0
  -21.3679   -5.6799   24.9183 C   0  0  0  0  0  0
  -21.6039   -4.3050   24.7231 C   0  0  0  0  0  0
  -21.8824   -3.8140   23.4352 C   0  0  0  0  0  0
  -21.9185   -4.6958   22.3404 C   0  0  0  0  0  0
  -22.7856  -13.5219   21.1868 C   0  0  0  0  0  0
  -22.1657   -4.2128   21.0993 F   0  0  0  0  0  0
  -21.5624   -3.4551   25.7762 F   0  0  0  0  0  0
  -30.0232  -13.3173   20.4147 N   0  0  0  0  0  0
  -26.2998  -12.9260   20.3334 N   0  0  0  0  0  0
  -25.9294  -11.6435   20.5755 N   0  0  0  0  0  0
  -22.0462  -12.8225   22.0411 N   0  0  0  0  0  0
  -25.4259  -15.1854   20.4029 N   0  0  0  0  0  0
  -31.8193  -14.7067   20.1936 O   0  0  0  0  0  0
  -21.6630   -6.8857   21.4235 O   0  0  0  0  0  0
  -22.3536  -14.5516   20.6697 O   0  0  0  0  0  0
  -24.6164  -31.8652   23.2075 C   0  0  0  0  0  0
  -25.9056  -32.4789   23.8358 C   0  0  1  0  0  0
  -27.2297  -27.3914   20.0713 C   0  0  0  0  0  0
  -25.5910  -33.8588   24.2281 N   0  0  0  0  0  0
  -23.4048  -30.4866   21.5550 C   0  0  2  0  0  0
  -24.8477  -28.9473   20.1178 C   0  0  0  0  0  0
  -22.7376  -29.4610   22.5008 C   0  0  0  0  0  0
  -18.0249  -28.1420   22.8554 C   0  0  0  0  0  0
  -24.1491  -36.7284   23.2641 C   0  0  0  0  0  0
  -25.9397  -30.8041   21.3749 C   0  0  0  0  0  0
  -26.0142  -29.4342   20.7234 C   0  0  0  0  0  0
  -27.2071  -28.6633   20.7047 C   0  0  0  0  0  0
  -26.0344  -26.9273   19.4732 C   0  0  0  0  0  0
  -24.8566  -27.6954   19.4842 C   0  0  0  0  0  0
  -23.6120  -29.8191   20.1697 C   0  0  0  0  0  0
  -25.4104  -36.3091   24.0353 C   0  0  1  0  0  0
  -20.5826  -28.3653   23.1362 C   0  0  2  0  0  0
  -20.6653  -26.9257   22.5809 C   0  0  0  0  0  0
  -19.5754  -26.6169   21.5505 C   0  0  0  0  0  0
  -18.1858  -26.7907   22.1739 C   0  0  0  0  0  0
  -19.1515  -28.8904   23.2890 C   0  0  0  0  0  0
  -18.9529  -30.1571   23.8773 C   0  0  0  0  0  0
  -17.6530  -30.6687   24.0469 C   0  0  0  0  0  0
  -25.9023  -34.9459   23.5102 C   0  0  0  0  0  0
  -16.5396  -29.9156   23.6375 C   0  0  0  0  0  0
  -16.7254  -28.6548   23.0447 C   0  0  0  0  0  0
  -26.4474  -31.6549   25.0681 C   0  0  0  0  0  0
  -25.3731  -31.3638   26.1414 C   0  0  0  0  0  0
  -27.0316  -30.2992   24.6063 C   0  0  0  0  0  0
  -27.6064  -32.4250   25.7439 C   0  0  0  0  0  0
  -27.5579  -37.1793   24.8491 C   0  0  0  0  0  0
  -21.4145  -29.2831   22.3575 N   0  0  0  0  0  0
  -26.4292  -37.3784   23.9421 N   0  0  0  0  0  0
  -24.6727  -31.0653   22.1056 N   0  0  0  0  0  0
  -23.4107  -28.8278   23.3166 O   0  0  0  0  0  0
  -28.3634  -26.5874   20.0350 O   0  0  0  0  0  0
  -26.5623  -34.8927   22.4684 O   0  0  0  0  0  0
  -23.5364  -32.1514   23.7401 O   0  0  0  0  0  0
  -29.9245  -17.9748   20.2688 C   0  0  0  0  0  0
  -29.9827  -19.3133   20.7576 C   0  0  0  0  0  0
  -30.1119  -19.4832   22.1485 C   0  0  0  0  0  0
  -30.0044  -16.8719   21.1680 C   0  0  0  0  0  0
  -30.1707  -18.3392   22.9680 C   0  0  0  0  0  0
  -28.5604  -25.8699   18.8677 C   0  0  0  0  0  0
  -28.5493  -21.1347   19.5689 C   0  0  0  0  0  0
  -28.7164  -24.5279   18.6891 C   0  0  0  0  0  0
  -28.8020  -23.5005   19.7415 C   0  0  0  0  0  0
  -29.9527  -20.5606   19.8472 C   0  0  0  0  0  0
  -30.1122  -17.0785   22.5052 N   0  0  0  0  0  0
  -28.1237  -22.3384   19.3586 N   0  0  0  0  0  0
  -30.2844  -18.4797   24.3429 N   0  0  0  0  0  0
  -29.7749  -15.5563   20.6792 N   0  0  0  0  0  0
  -29.4083  -23.6573   20.8011 O   0  0  0  0  0  0
  -28.7811  -24.0702   17.4289 O   0  0  0  0  0  0
  -30.1797  -20.7216   22.6957 F   0  0  0  0  0  0
  -31.4727  -12.4457   19.1110 H   0  0  0  0  0  0
  -30.3484  -11.3134   19.8182 H   0  0  0  0  0  0
  -29.7318  -11.7763   17.4198 H   0  0  0  0  0  0
  -29.6559  -13.4837   17.7524 H   0  0  0  0  0  0
  -27.8195  -11.3030   18.8000 H   0  0  0  0  0  0
  -27.3657  -12.6388   17.7790 H   0  0  0  0  0  0
  -27.6853  -14.2416   19.5506 H   0  0  0  0  0  0
  -28.6934  -11.9563   21.3277 H   0  0  0  0  0  0
  -28.4844  -13.5987   21.8605 H   0  0  0  0  0  0
  -25.2717   -9.5686   22.4788 H   0  0  0  0  0  0
  -23.9982   -7.4618   22.7471 H   0  0  0  0  0  0
  -21.0806   -8.8750   19.8947 H   0  0  0  0  0  0
  -22.3630  -10.9682   19.6187 H   0  0  0  0  0  0
  -21.1997   -7.6144   23.9705 H   0  0  0  0  0  0
  -21.1503   -6.0539   25.9088 H   0  0  0  0  0  0
  -22.0575   -2.7597   23.2871 H   0  0  0  0  0  0
  -22.4041  -11.9906   22.4852 H   0  0  0  0  0  0
  -21.1090  -13.1286   22.2632 H   0  0  0  0  0  0
  -24.6490  -15.8322   20.4988 H   0  0  0  0  0  0
  -26.2530  -15.6244   20.0178 H   0  0  0  0  0  0
  -26.7083  -32.5505   23.1085 H   0  0  0  0  0  0
  -25.0041  -33.9744   25.0408 H   0  0  0  0  0  0
  -22.7046  -31.3116   21.4162 H   0  0  0  0  0  0
  -23.3750  -35.9626   23.3330 H   0  0  0  0  0  0
  -24.3561  -36.8864   22.2047 H   0  0  0  0  0  0
  -23.7249  -37.6498   23.6624 H   0  0  0  0  0  0
  -26.0527  -31.5569   20.5946 H   0  0  0  0  0  0
  -26.8282  -30.8672   21.9903 H   0  0  0  0  0  0
  -28.1091  -29.0373   21.1727 H   0  0  0  0  0  0
  -26.0019  -25.9649   18.9817 H   0  0  0  0  0  0
  -23.9689  -27.3179   18.9972 H   0  0  0  0  0  0
  -23.7286  -30.5932   19.4113 H   0  0  0  0  0  0
  -22.7347  -29.2423   19.8703 H   0  0  0  0  0  0
  -25.1274  -36.1959   25.0857 H   0  0  0  0  0  0
  -20.9831  -28.3406   24.1513 H   0  0  0  0  0  0
  -20.5285  -26.2405   23.4216 H   0  0  0  0  0  0
  -21.6588  -26.7081   22.1880 H   0  0  0  0  0  0
  -19.6861  -25.5995   21.1728 H   0  0  0  0  0  0
  -19.6878  -27.2814   20.6946 H   0  0  0  0  0  0
  -17.4177  -26.6596   21.4084 H   0  0  0  0  0  0
  -18.0168  -26.0129   22.9172 H   0  0  0  0  0  0
  -19.8037  -30.7444   24.1952 H   0  0  0  0  0  0
  -17.5082  -31.6410   24.4984 H   0  0  0  0  0  0
  -15.5435  -30.3118   23.7757 H   0  0  0  0  0  0
  -15.8623  -28.0872   22.7211 H   0  0  0  0  0  0
  -24.5962  -30.6929   25.7720 H   0  0  0  0  0  0
  -24.8862  -32.2783   26.4806 H   0  0  0  0  0  0
  -25.8093  -30.8841   27.0185 H   0  0  0  0  0  0
  -26.2869  -29.6740   24.1130 H   0  0  0  0  0  0
  -27.4110  -29.7231   25.4507 H   0  0  0  0  0  0
  -27.8691  -30.4302   23.9210 H   0  0  0  0  0  0
  -27.2709  -33.3567   26.1994 H   0  0  0  0  0  0
  -28.3872  -32.6749   25.0247 H   0  0  0  0  0  0
  -28.0714  -31.8364   26.5358 H   0  0  0  0  0  0
  -28.2618  -38.0065   24.7478 H   0  0  0  0  0  0
  -28.1054  -36.2589   24.6382 H   0  0  0  0  0  0
  -27.2291  -37.1511   25.8897 H   0  0  0  0  0  0
  -20.9378  -29.8160   21.6438 H   0  0  0  0  0  0
  -26.0187  -38.2883   24.1361 H   0  0  0  0  0  0
  -29.8163  -17.7900   19.2078 H   0  0  0  0  0  0
  -28.5274  -26.5387   18.0180 H   0  0  0  0  0  0
  -27.8311  -20.3192   19.4426 H   0  0  0  0  0  0
  -30.3768  -20.2699   18.8859 H   0  0  0  0  0  0
  -30.6192  -21.3239   20.2450 H   0  0  0  0  0  0
  -30.2126  -17.6924   24.9755 H   0  0  0  0  0  0
  -30.2268  -19.4016   24.7583 H   0  0  0  0  0  0
  -28.8131  -15.2727   20.6890 H   0  0  0  0  0  0
  -28.7837  -23.1226   17.5033 H   0  0  0  0  0  0
  1 25  1  0  0  0
  1 30  2  0  0  0
  1 84  1  0  0  0
  2  3  1  0  0  0
  2 25  1  0  0  0
  2 88  1  0  0  0
  2 89  1  0  0  0
  3  4  1  0  0  0
  3 90  1  0  0  0
  3 91  1  0  0  0
  4  5  1  0  0  0
  4 92  1  0  0  0
  4 93  1  0  0  0
  5  6  1  0  0  0
  5 26  1  0  0  0
  5 94  1  0  0  0
  6 25  1  0  0  0
  6 95  1  0  0  0
  6 96  1  0  0  0
  7  8  2  0  0  0
  7 26  1  0  0  0
  7 29  1  0  0  0
  8  9  1  0  0  0
  8 22  1  0  0  0
  9 10  1  0  0  0
  9 27  2  0  0  0
 10 11  2  0  0  0
 10 15  1  0  0  0
 11 12  1  0  0  0
 11 97  1  0  0  0
 12 13  2  0  0  0
 12 98  1  0  0  0
 13 14  1  0  0  0
 13 31  1  0  0  0
 14 15  2  0  0  0
 14 99  1  0  0  0
 15100  1  0  0  0
 16 17  2  0  0  0
 16 21  1  0  0  0
 16 31  1  0  0  0
 17 18  1  0  0  0
 17101  1  0  0  0
 18 19  2  0  0  0
 18102  1  0  0  0
 19 20  1  0  0  0
 19 24  1  0  0  0
 20 21  2  0  0  0
 20103  1  0  0  0
 21 23  1  0  0  0
 22 28  1  0  0  0
 22 32  2  0  0  0
 26 27  1  0  0  0
 28104  1  0  0  0
 28105  1  0  0  0
 29106  1  0  0  0
 29107  1  0  0  0
 33 34  1  0  0  0
 33 66  1  0  0  0
 33 70  2  0  0  0
 34 36  1  0  0  0
 34 59  1  0  0  0
 34108  1  0  0  0
 35 44  2  0  0  0
 35 45  1  0  0  0
 35 68  1  0  0  0
 36 56  1  0  0  0
 36109  1  0  0  0
 37 39  1  0  0  0
 37 47  1  0  0  0
 37 66  1  0  0  0
 37110  1  0  0  0
 38 43  2  0  0  0
 38 46  1  0  0  0
 38 47  1  0  0  0
 39 64  1  0  0  0
 39 67  2  0  0  0
 40 52  1  0  0  0
 40 53  2  0  0  0
 40 58  1  0  0  0
 41111  1  0  0  0
 41112  1  0  0  0
 41113  1  0  0  0
 41 48  1  0  0  0
 42 43  1  0  0  0
 42 66  1  0  0  0
 42114  1  0  0  0
 42115  1  0  0  0
 43 44  1  0  0  0
 44116  1  0  0  0
 45 46  2  0  0  0
 45117  1  0  0  0
 46118  1  0  0  0
 47119  1  0  0  0
 47120  1  0  0  0
 48 56  1  0  0  0
 48 65  1  0  0  0
 48121  1  0  0  0
 49 50  1  0  0  0
 49 53  1  0  0  0
 49 64  1  0  0  0
 49122  1  0  0  0
 50 51  1  0  0  0
 50123  1  0  0  0
 50124  1  0  0  0
 51 52  1  0  0  0
 51125  1  0  0  0
 51126  1  0  0  0
 52127  1  0  0  0
 52128  1  0  0  0
 53 54  1  0  0  0
 54 55  2  0  0  0
 54129  1  0  0  0
 55 57  1  0  0  0
 55130  1  0  0  0
 56 69  2  0  0  0
 57 58  2  0  0  0
 57131  1  0  0  0
 58132  1  0  0  0
 59 60  1  0  0  0
 59 61  1  0  0  0
 59 62  1  0  0  0
 60133  1  0  0  0
 60134  1  0  0  0
 60135  1  0  0  0
 61136  1  0  0  0
 61137  1  0  0  0
 61138  1  0  0  0
 62139  1  0  0  0
 62140  1  0  0  0
 62141  1  0  0  0
 63 65  1  0  0  0
 63142  1  0  0  0
 63143  1  0  0  0
 63144  1  0  0  0
 64145  1  0  0  0
 65146  1  0  0  0
 68 76  1  0  0  0
 71 72  2  0  0  0
 71 74  1  0  0  0
 71147  1  0  0  0
 72 73  1  0  0  0
 72 80  1  0  0  0
 73 75  2  0  0  0
 73 87  1  0  0  0
 74 81  2  0  0  0
 74 84  1  0  0  0
 75 81  1  0  0  0
 75 83  1  0  0  0
 76 78  2  0  0  0
 76148  1  0  0  0
 77 80  1  0  0  0
 77 82  2  0  0  0
 77149  1  0  0  0
 78 79  1  0  0  0
 78 86  1  0  0  0
 79 82  1  0  0  0
 79 85  2  0  0  0
 80150  1  0  0  0
 80151  1  0  0  0
 83152  1  0  0  0
 83153  1  0  0  0
 84154  1  0  0  0
 86155  1  0  0  0
M  ISO  4   1 100  68 101  76 101  84 100
M  END
> <chiral flag>
0

> <version>
0

> <s_m_source_file>
/data/baiqing/PycharmProjects/Reinvent-master-3.2/result/LINK_invent/BTK/process_docking_weight1_custom_product_contain_oxygen_bond_distance_aromatic_linkinvent_7_9_3/rearranged_h_0176.sdf

> <i_m_source_file_index>
77

> <r_mmod_Potential_Energy-OPLS-2005>
-120.188888549805

> <r_mmod_Stretch_Energy-OPLS-2005>
47.4407806396484

> <r_mmod_Bend_Energy-OPLS-2005>
147.476593017578

> <r_mmod_Torsional_Energy-OPLS-2005>
287.050964355469

> <r_mmod_Improper_Torsional_Energy-OPLS-2005>
11.9545402526855

> <r_mmod_Van_der_Waal_Energy-OPLS-2005>
155.195755004883

> <r_mmod_Electrostatic_Energy-OPLS-2005>
-549.332458496094

> <r_mmod_Solvation_Energy-OPLS-2005>
-244.672927856445

> <b_mmod_Minimization_Converged-OPLS-2005>
0

> <r_mmod_RMS_Derivative-OPLS-2005>
6.19665908813477

$$$$
77
                    3D
 Structure written by MMmdl.
161169  0  0  1  0            999 V2000
  -30.7317  -14.4249   20.6113 C   0  0  0  0  0  0
  -30.4188  -12.2905   19.4135 C   0  0  0  0  0  0
  -29.4896  -12.5076   18.2027 C   0  0  0  0  0  0
  -28.0119  -12.3707   18.6176 C   0  0  0  0  0  0
  -27.6638  -13.2049   19.8794 C   0  0  2  0  0  0
  -28.7044  -12.9679   20.9971 C   0  0  0  0  0  0
  -25.2595  -13.8163   20.5687 C   0  0  0  0  0  0
  -24.1841  -13.0439   20.9174 C   0  0  0  0  0  0
  -24.6398  -11.6906   20.8734 C   0  0  0  0  0  0
  -23.9067  -10.4288   21.0410 C   0  0  0  0  0  0
  -24.3623   -9.4204   21.9189 C   0  0  0  0  0  0
  -23.6296   -8.2236   22.0755 C   0  0  0  0  0  0
  -22.4273   -8.0276   21.3543 C   0  0  0  0  0  0
  -21.9914   -9.0254   20.4643 C   0  0  0  0  0  0
  -22.7242  -10.2131   20.3059 C   0  0  0  0  0  0
  -21.6850   -6.0736   22.5281 C   0  0  0  0  0  0
  -21.4005   -6.5641   23.8213 C   0  0  0  0  0  0
  -21.3659   -5.6789   24.9172 C   0  0  0  0  0  0
  -21.6044   -4.3059   24.7216 C   0  0  0  0  0  0
  -21.8818   -3.8147   23.4344 C   0  0  0  0  0  0
  -21.9190   -4.6966   22.3401 C   0  0  0  0  0  0
  -22.7858  -13.5235   21.1855 C   0  0  0  0  0  0
  -22.1661   -4.2155   21.0976 F   0  0  0  0  0  0
  -21.5633   -3.4541   25.7732 F   0  0  0  0  0  0
  -30.0400  -13.2654   20.4489 N   0  0  0  0  0  0
  -26.3036  -12.9331   20.3397 N   0  0  0  0  0  0
  -25.9327  -11.6493   20.5788 N   0  0  0  0  0  0
  -22.0510  -12.8213   22.0412 N   0  0  0  0  0  0
  -25.4334  -15.1881   20.4078 N   0  0  0  0  0  0
  -31.8325  -14.6198   20.0859 O   0  0  0  0  0  0
  -21.6633   -6.8879   21.4243 O   0  0  0  0  0  0
  -22.3537  -14.5548   20.6728 O   0  0  0  0  0  0
  -24.6109  -31.8696   23.2117 C   0  0  0  0  0  0
  -25.9023  -32.4831   23.8396 C   0  0  1  0  0  0
  -27.2387  -27.4660   20.0972 C   0  0  0  0  0  0
  -25.5901  -33.8625   24.2342 N   0  0  0  0  0  0
  -23.3975  -30.4919   21.5509 C   0  0  2  0  0  0
  -24.8458  -28.9563   20.1194 C   0  0  0  0  0  0
  -22.7402  -29.4655   22.5010 C   0  0  0  0  0  0
  -18.0264  -28.1377   22.8482 C   0  0  0  0  0  0
  -24.1491  -36.7303   23.2641 C   0  0  0  0  0  0
  -25.9224  -30.8455   21.3589 C   0  0  0  0  0  0
  -26.0024  -29.4793   20.7128 C   0  0  0  0  0  0
  -27.2046  -28.7405   20.6989 C   0  0  0  0  0  0
  -26.0698  -26.9439   19.5060 C   0  0  0  0  0  0
  -24.8718  -27.6853   19.5159 C   0  0  0  0  0  0
  -23.6050  -29.8188   20.1664 C   0  0  0  0  0  0
  -25.4109  -36.3113   24.0349 C   0  0  1  0  0  0
  -20.5855  -28.3659   23.1332 C   0  0  2  0  0  0
  -20.6760  -26.9396   22.5425 C   0  0  0  0  0  0
  -19.5739  -26.6375   21.5222 C   0  0  0  0  0  0
  -18.1906  -26.7922   22.1611 C   0  0  0  0  0  0
  -19.1517  -28.8831   23.2899 C   0  0  0  0  0  0
  -18.9451  -30.1436   23.8915 C   0  0  0  0  0  0
  -17.6460  -30.6587   24.0565 C   0  0  0  0  0  0
  -25.9031  -34.9479   23.5137 C   0  0  0  0  0  0
  -16.5348  -29.9094   23.6332 C   0  0  0  0  0  0
  -16.7259  -28.6508   23.0355 C   0  0  0  0  0  0
  -26.4470  -31.6596   25.0707 C   0  0  0  0  0  0
  -25.3759  -31.3711   26.1480 C   0  0  0  0  0  0
  -27.0285  -30.3045   24.6043 C   0  0  0  0  0  0
  -27.6055  -32.4306   25.7464 C   0  0  0  0  0  0
  -27.5590  -37.1789   24.8457 C   0  0  0  0  0  0
  -21.4131  -29.3033   22.3752 N   0  0  0  0  0  0
  -26.4287  -37.3799   23.9426 N   0  0  0  0  0  0
  -24.6617  -31.0832   22.0996 N   0  0  0  0  0  0
  -23.4195  -28.8190   23.3033 O   0  0  0  0  0  0
  -28.4062  -26.7502   20.0554 O   0  0  0  0  0  0
  -26.5568  -34.8927   22.4684 O   0  0  0  0  0  0
  -23.5311  -32.1420   23.7543 O   0  0  0  0  0  0
  -31.7416  -17.2155   21.5221 C   0  0  0  0  0  0
  -31.7898  -18.6278   21.7453 C   0  0  0  0  0  0
  -30.4774  -16.6786   21.4830 C   0  0  0  0  0  0
  -30.5361  -19.1918   21.8471 C   0  0  0  0  0  0
  -29.3191  -22.7091   22.1045 C   0  0  0  0  0  0
  -29.1797  -21.2205   21.7153 C   0  0  0  0  0  0
  -29.1127  -24.4419   20.2963 C   0  0  0  0  0  0
  -33.6095  -19.7223   20.4094 C   0  0  0  0  0  0
  -34.1605  -18.6798   22.6487 C   0  0  0  0  0  0
  -30.0834  -23.6033   21.1280 C   0  0  0  0  0  0
  -28.4528  -25.6528   20.9686 C   0  0  0  0  0  0
  -33.0870  -19.4018   21.8169 C   0  0  0  0  0  0
  -30.2758  -20.5145   22.0445 N   0  0  0  0  0  0
  -30.0876  -15.3864   21.2997 N   0  0  0  0  0  0
  -28.8698  -23.1542   23.1678 O   0  0  0  0  0  0
  -28.1624  -20.7765   21.1727 O   0  0  0  0  0  0
  -28.8961  -24.1693   19.1101 O   0  0  0  0  0  0
  -29.3028  -17.9417   21.7362 S   0  0  0  0  0  0
  -31.4637  -12.3812   19.1103 H   0  0  0  0  0  0
  -30.3127  -11.2761   19.8004 H   0  0  0  0  0  0
  -29.7220  -11.7883   17.4166 H   0  0  0  0  0  0
  -29.6624  -13.4959   17.7742 H   0  0  0  0  0  0
  -27.8205  -11.3143   18.8114 H   0  0  0  0  0  0
  -27.3599  -12.6507   17.7893 H   0  0  0  0  0  0
  -27.7148  -14.2550   19.5918 H   0  0  0  0  0  0
  -28.6745  -11.9282   21.3259 H   0  0  0  0  0  0
  -28.4649  -13.5539   21.8857 H   0  0  0  0  0  0
  -25.2771   -9.5672   22.4759 H   0  0  0  0  0  0
  -24.0008   -7.4620   22.7469 H   0  0  0  0  0  0
  -21.0849   -8.8764   19.8946 H   0  0  0  0  0  0
  -22.3708  -10.9670   19.6162 H   0  0  0  0  0  0
  -21.1991   -7.6144   23.9720 H   0  0  0  0  0  0
  -21.1487   -6.0516   25.9072 H   0  0  0  0  0  0
  -22.0598   -2.7610   23.2834 H   0  0  0  0  0  0
  -22.4128  -11.9860   22.4769 H   0  0  0  0  0  0
  -21.1139  -13.1249   22.2656 H   0  0  0  0  0  0
  -24.6712  -15.8492   20.5133 H   0  0  0  0  0  0
  -26.2908  -15.6239   20.0916 H   0  0  0  0  0  0
  -26.7101  -32.5569   23.1171 H   0  0  0  0  0  0
  -25.0103  -33.9799   25.0521 H   0  0  0  0  0  0
  -22.6817  -31.3050   21.4089 H   0  0  0  0  0  0
  -23.3782  -35.9603   23.3271 H   0  0  0  0  0  0
  -24.3599  -36.8948   22.2061 H   0  0  0  0  0  0
  -23.7204  -37.6484   23.6669 H   0  0  0  0  0  0
  -26.0269  -31.6099   20.5875 H   0  0  0  0  0  0
  -26.8122  -30.9019   21.9730 H   0  0  0  0  0  0
  -28.1025  -29.1435   21.1463 H   0  0  0  0  0  0
  -26.0932  -25.9718   19.0337 H   0  0  0  0  0  0
  -23.9815  -27.2766   19.0576 H   0  0  0  0  0  0
  -23.7056  -30.5894   19.4012 H   0  0  0  0  0  0
  -22.7319  -29.2313   19.8743 H   0  0  0  0  0  0
  -25.1283  -36.1975   25.0840 H   0  0  0  0  0  0
  -20.9925  -28.3225   24.1462 H   0  0  0  0  0  0
  -20.5676  -26.2266   23.3611 H   0  0  0  0  0  0
  -21.6634  -26.7438   22.1206 H   0  0  0  0  0  0
  -19.6907  -25.6286   21.1244 H   0  0  0  0  0  0
  -19.6703  -27.3197   20.6763 H   0  0  0  0  0  0
  -17.4188  -26.6695   21.4000 H   0  0  0  0  0  0
  -18.0277  -26.0049   22.8985 H   0  0  0  0  0  0
  -19.7939  -30.7230   24.2301 H   0  0  0  0  0  0
  -17.5026  -31.6274   24.5152 H   0  0  0  0  0  0
  -15.5356  -30.3010   23.7649 H   0  0  0  0  0  0
  -15.8648  -28.0838   22.7084 H   0  0  0  0  0  0
  -24.5908  -30.7084   25.7834 H   0  0  0  0  0  0
  -24.8980  -32.2873   26.4958 H   0  0  0  0  0  0
  -25.8111  -30.8855   27.0223 H   0  0  0  0  0  0
  -26.2786  -29.6813   24.1158 H   0  0  0  0  0  0
  -27.4149  -29.7280   25.4459 H   0  0  0  0  0  0
  -27.8585  -30.4388   23.9102 H   0  0  0  0  0  0
  -27.2701  -33.3622   26.2030 H   0  0  0  0  0  0
  -28.3876  -32.6842   25.0298 H   0  0  0  0  0  0
  -28.0704  -31.8434   26.5392 H   0  0  0  0  0  0
  -28.2577  -38.0122   24.7564 H   0  0  0  0  0  0
  -28.1123  -36.2652   24.6207 H   0  0  0  0  0  0
  -27.2308  -37.1347   25.8860 H   0  0  0  0  0  0
  -20.9296  -29.8757   21.6971 H   0  0  0  0  0  0
  -26.0188  -38.2874   24.1479 H   0  0  0  0  0  0
  -32.6478  -16.6417   21.3963 H   0  0  0  0  0  0
  -32.8970  -20.3330   19.8537 H   0  0  0  0  0  0
  -33.7882  -18.8130   19.8341 H   0  0  0  0  0  0
  -34.5481  -20.2751   20.4531 H   0  0  0  0  0  0
  -33.7989  -18.4623   23.6544 H   0  0  0  0  0  0
  -35.0551  -19.2951   22.7498 H   0  0  0  0  0  0
  -34.4687  -17.7396   22.1913 H   0  0  0  0  0  0
  -30.6999  -22.9939   20.4665 H   0  0  0  0  0  0
  -30.7509  -24.2604   21.6840 H   0  0  0  0  0  0
  -29.0282  -25.9443   21.8481 H   0  0  0  0  0  0
  -27.4565  -25.3666   21.3109 H   0  0  0  0  0  0
  -32.9126  -20.3546   22.3176 H   0  0  0  0  0  0
  -31.0262  -21.0654   22.4382 H   0  0  0  0  0  0
  -29.1561  -15.1475   21.6034 H   0  0  0  0  0  0
  1 25  1  0  0  0
  1 30  2  0  0  0
  1 84  1  0  0  0
  2  3  1  0  0  0
  2 25  1  0  0  0
  2 89  1  0  0  0
  2 90  1  0  0  0
  3  4  1  0  0  0
  3 91  1  0  0  0
  3 92  1  0  0  0
  4  5  1  0  0  0
  4 93  1  0  0  0
  4 94  1  0  0  0
  5  6  1  0  0  0
  5 26  1  0  0  0
  5 95  1  0  0  0
  6 25  1  0  0  0
  6 96  1  0  0  0
  6 97  1  0  0  0
  7  8  2  0  0  0
  7 26  1  0  0  0
  7 29  1  0  0  0
  8  9  1  0  0  0
  8 22  1  0  0  0
  9 10  1  0  0  0
  9 27  2  0  0  0
 10 11  2  0  0  0
 10 15  1  0  0  0
 11 12  1  0  0  0
 11 98  1  0  0  0
 12 13  2  0  0  0
 12 99  1  0  0  0
 13 14  1  0  0  0
 13 31  1  0  0  0
 14 15  2  0  0  0
 14100  1  0  0  0
 15101  1  0  0  0
 16 17  2  0  0  0
 16 21  1  0  0  0
 16 31  1  0  0  0
 17 18  1  0  0  0
 17102  1  0  0  0
 18 19  2  0  0  0
 18103  1  0  0  0
 19 20  1  0  0  0
 19 24  1  0  0  0
 20 21  2  0  0  0
 20104  1  0  0  0
 21 23  1  0  0  0
 22 28  1  0  0  0
 22 32  2  0  0  0
 26 27  1  0  0  0
 28105  1  0  0  0
 28106  1  0  0  0
 29107  1  0  0  0
 29108  1  0  0  0
 33 34  1  0  0  0
 33 66  1  0  0  0
 33 70  2  0  0  0
 34 36  1  0  0  0
 34 59  1  0  0  0
 34109  1  0  0  0
 35 44  2  0  0  0
 35 45  1  0  0  0
 35 68  1  0  0  0
 36 56  1  0  0  0
 36110  1  0  0  0
 37 39  1  0  0  0
 37 47  1  0  0  0
 37 66  1  0  0  0
 37111  1  0  0  0
 38 43  2  0  0  0
 38 46  1  0  0  0
 38 47  1  0  0  0
 39 64  1  0  0  0
 39 67  2  0  0  0
 40 52  1  0  0  0
 40 53  2  0  0  0
 40 58  1  0  0  0
 41112  1  0  0  0
 41113  1  0  0  0
 41114  1  0  0  0
 41 48  1  0  0  0
 42 43  1  0  0  0
 42 66  1  0  0  0
 42115  1  0  0  0
 42116  1  0  0  0
 43 44  1  0  0  0
 44117  1  0  0  0
 45 46  2  0  0  0
 45118  1  0  0  0
 46119  1  0  0  0
 47120  1  0  0  0
 47121  1  0  0  0
 48 56  1  0  0  0
 48 65  1  0  0  0
 48122  1  0  0  0
 49 50  1  0  0  0
 49 53  1  0  0  0
 49 64  1  0  0  0
 49123  1  0  0  0
 50 51  1  0  0  0
 50124  1  0  0  0
 50125  1  0  0  0
 51 52  1  0  0  0
 51126  1  0  0  0
 51127  1  0  0  0
 52128  1  0  0  0
 52129  1  0  0  0
 53 54  1  0  0  0
 54 55  2  0  0  0
 54130  1  0  0  0
 55 57  1  0  0  0
 55131  1  0  0  0
 56 69  2  0  0  0
 57 58  2  0  0  0
 57132  1  0  0  0
 58133  1  0  0  0
 59 60  1  0  0  0
 59 61  1  0  0  0
 59 62  1  0  0  0
 60134  1  0  0  0
 60135  1  0  0  0
 60136  1  0  0  0
 61137  1  0  0  0
 61138  1  0  0  0
 61139  1  0  0  0
 62140  1  0  0  0
 62141  1  0  0  0
 62142  1  0  0  0
 63 65  1  0  0  0
 63143  1  0  0  0
 63144  1  0  0  0
 63145  1  0  0  0
 64146  1  0  0  0
 65147  1  0  0  0
 68 81  1  0  0  0
 71 72  1  0  0  0
 71 73  2  0  0  0
 71148  1  0  0  0
 72 74  2  0  0  0
 72 82  1  0  0  0
 73 84  1  0  0  0
 73 88  1  0  0  0
 74 83  1  0  0  0
 74 88  1  0  0  0
 75 76  1  0  0  0
 75 80  1  0  0  0
 75 85  2  0  0  0
 76 83  1  0  0  0
 76 86  2  0  0  0
 77 80  1  0  0  0
 77 81  1  0  0  0
 77 87  2  0  0  0
 78149  1  0  0  0
 78150  1  0  0  0
 78151  1  0  0  0
 78 82  1  0  0  0
 79 82  1  0  0  0
 79152  1  0  0  0
 79153  1  0  0  0
 79154  1  0  0  0
 80155  1  0  0  0
 80156  1  0  0  0
 81157  1  0  0  0
 81158  1  0  0  0
 82159  1  0  0  0
 83160  1  0  0  0
 84161  1  0  0  0
M  ISO  4   1 100  68 101  81 101  84 100
M  END
> <chiral flag>
0

> <version>
0

> <s_m_source_file>
/data/baiqing/PycharmProjects/Reinvent-master-3.2/result/LINK_invent/BTK/process_docking_weight1_custom_product_contain_oxygen_bond_distance_aromatic_linkinvent_7_9_3/rearranged_h_0176.sdf

> <i_m_source_file_index>
78

> <r_mmod_Potential_Energy-OPLS-2005>
-127.594573974609

> <r_mmod_Stretch_Energy-OPLS-2005>
33.061107635498

> <r_mmod_Bend_Energy-OPLS-2005>
102.457778930664

> <r_mmod_Torsional_Energy-OPLS-2005>
262.982940673828

> <r_mmod_Improper_Torsional_Energy-OPLS-2005>
2.93945050239563

> <r_mmod_Van_der_Waal_Energy-OPLS-2005>
126.83317565918

> <r_mmod_Electrostatic_Energy-OPLS-2005>
-409.434783935547

> <r_mmod_Solvation_Energy-OPLS-2005>
-254.65934753418

> <b_mmod_Minimization_Converged-OPLS-2005>
0

> <r_mmod_RMS_Derivative-OPLS-2005>
1.70270586013794

$$$$
78
                    3D
 Structure written by MMmdl.
156164  0  0  1  0            999 V2000
  -30.6357  -14.5286   20.5896 C   0  0  0  0  0  0
  -30.4280  -12.3479   19.4335 C   0  0  0  0  0  0
  -29.4923  -12.5138   18.2161 C   0  0  0  0  0  0
  -28.0138  -12.3467   18.6278 C   0  0  0  0  0  0
  -27.6528  -13.1959   19.8708 C   0  0  2  0  0  0
  -28.6950  -12.9874   20.9927 C   0  0  0  0  0  0
  -25.2579  -13.8059   20.5699 C   0  0  0  0  0  0
  -24.1834  -13.0380   20.9183 C   0  0  0  0  0  0
  -24.6375  -11.6816   20.8733 C   0  0  0  0  0  0
  -23.9060  -10.4222   21.0402 C   0  0  0  0  0  0
  -24.3611   -9.4132   21.9183 C   0  0  0  0  0  0
  -23.6298   -8.2164   22.0714 C   0  0  0  0  0  0
  -22.4268   -8.0223   21.3511 C   0  0  0  0  0  0
  -21.9912   -9.0199   20.4614 C   0  0  0  0  0  0
  -22.7230  -10.2089   20.3053 C   0  0  0  0  0  0
  -21.6821   -6.0738   22.5283 C   0  0  0  0  0  0
  -21.3995   -6.5642   23.8222 C   0  0  0  0  0  0
  -21.3675   -5.6790   24.9179 C   0  0  0  0  0  0
  -21.6052   -4.3056   24.7213 C   0  0  0  0  0  0
  -21.8810   -3.8149   23.4328 C   0  0  0  0  0  0
  -21.9175   -4.6977   22.3390 C   0  0  0  0  0  0
  -22.7858  -13.5170   21.1843 C   0  0  0  0  0  0
  -22.1635   -4.2159   21.0968 F   0  0  0  0  0  0
  -21.5658   -3.4536   25.7731 F   0  0  0  0  0  0
  -30.0114  -13.3288   20.4374 N   0  0  0  0  0  0
  -26.2991  -12.9212   20.3368 N   0  0  0  0  0  0
  -25.9294  -11.6379   20.5765 N   0  0  0  0  0  0
  -22.0520  -12.8174   22.0425 N   0  0  0  0  0  0
  -25.4420  -15.1773   20.4031 N   0  0  0  0  0  0
  -31.7991  -14.7231   20.2171 O   0  0  0  0  0  0
  -21.6587   -6.8867   21.4236 O   0  0  0  0  0  0
  -22.3551  -14.5497   20.6702 O   0  0  0  0  0  0
  -24.6145  -31.8659   23.2139 C   0  0  0  0  0  0
  -25.9051  -32.4825   23.8399 C   0  0  1  0  0  0
  -27.2300  -27.4298   20.0792 C   0  0  0  0  0  0
  -25.5911  -33.8614   24.2336 N   0  0  0  0  0  0
  -23.3999  -30.4925   21.5490 C   0  0  2  0  0  0
  -24.8467  -28.9669   20.1093 C   0  0  0  0  0  0
  -22.7401  -29.4645   22.4969 C   0  0  0  0  0  0
  -18.0297  -28.1313   22.8572 C   0  0  0  0  0  0
  -24.1512  -36.7329   23.2625 C   0  0  0  0  0  0
  -25.9346  -30.8334   21.3663 C   0  0  0  0  0  0
  -26.0080  -29.4675   20.7091 C   0  0  0  0  0  0
  -27.1983  -28.7036   20.6940 C   0  0  0  0  0  0
  -26.0435  -26.9408   19.4872 C   0  0  0  0  0  0
  -24.8576  -27.7009   19.5009 C   0  0  0  0  0  0
  -23.6141  -29.8363   20.1606 C   0  0  0  0  0  0
  -25.4125  -36.3080   24.0314 C   0  0  1  0  0  0
  -20.5848  -28.3610   23.1345 C   0  0  2  0  0  0
  -20.6770  -26.9357   22.5434 C   0  0  0  0  0  0
  -19.5779  -26.6352   21.5220 C   0  0  0  0  0  0
  -18.1946  -26.7896   22.1651 C   0  0  0  0  0  0
  -19.1538  -28.8773   23.2975 C   0  0  0  0  0  0
  -18.9475  -30.1394   23.8970 C   0  0  0  0  0  0
  -17.6491  -30.6571   24.0560 C   0  0  0  0  0  0
  -25.9032  -34.9446   23.5109 C   0  0  0  0  0  0
  -16.5374  -29.9077   23.6353 C   0  0  0  0  0  0
  -16.7291  -28.6457   23.0412 C   0  0  0  0  0  0
  -26.4475  -31.6570   25.0690 C   0  0  0  0  0  0
  -25.3775  -31.3711   26.1473 C   0  0  0  0  0  0
  -27.0309  -30.3003   24.6075 C   0  0  0  0  0  0
  -27.6027  -32.4293   25.7483 C   0  0  0  0  0  0
  -27.5582  -37.1807   24.8448 C   0  0  0  0  0  0
  -21.4089  -29.3085   22.3812 N   0  0  0  0  0  0
  -26.4300  -37.3772   23.9390 N   0  0  0  0  0  0
  -24.6679  -31.0754   22.1027 N   0  0  0  0  0  0
  -23.4195  -28.8073   23.2903 O   0  0  0  0  0  0
  -28.4140  -26.7163   20.0956 O   0  0  0  0  0  0
  -26.5570  -34.8907   22.4659 O   0  0  0  0  0  0
  -23.5337  -32.1408   23.7532 O   0  0  0  0  0  0
  -30.9862  -18.4048   22.7807 C   0  0  0  0  0  0
  -29.2280  -19.1920   21.3017 C   0  0  0  0  0  0
  -30.1990  -19.4636   22.2920 C   0  0  0  0  0  0
  -29.1392  -17.8588   20.8313 C   0  0  0  0  0  0
  -30.0074  -16.8566   21.3480 C   0  0  0  0  0  0
  -27.1328  -23.2835   19.9538 C   0  0  0  0  0  0
  -26.9535  -21.9782   20.2995 C   0  0  0  0  0  0
  -28.1354  -24.2688   20.4264 C   0  0  0  0  0  0
  -27.7903  -21.2630   21.2684 C   0  0  0  0  0  0
  -25.7893  -21.2035   19.6849 C   0  0  0  0  0  0
  -28.4930  -25.4234   19.4649 C   0  0  0  0  0  0
  -30.9074  -17.1312   22.3248 N   0  0  0  0  0  0
  -28.3853  -20.1922   20.7062 N   0  0  0  0  0  0
  -29.7814  -15.5337   20.8807 N   0  0  0  0  0  0
  -28.6779  -24.2296   21.5346 O   0  0  0  0  0  0
  -27.8534  -21.5364   22.4685 O   0  0  0  0  0  0
  -30.4202  -20.7175   22.7551 F   0  0  0  0  0  0
  -28.2133  -17.5426   19.8899 F   0  0  0  0  0  0
  -31.4716  -12.4842   19.1456 H   0  0  0  0  0  0
  -30.3508  -11.3458   19.8537 H   0  0  0  0  0  0
  -29.7468  -11.7897   17.4400 H   0  0  0  0  0  0
  -29.6265  -13.5030   17.7747 H   0  0  0  0  0  0
  -27.8521  -11.2903   18.8423 H   0  0  0  0  0  0
  -27.3488  -12.5975   17.7996 H   0  0  0  0  0  0
  -27.6765  -14.2402   19.5518 H   0  0  0  0  0  0
  -28.6965  -11.9418   21.3002 H   0  0  0  0  0  0
  -28.4494  -13.5680   21.8855 H   0  0  0  0  0  0
  -25.2743   -9.5594   22.4789 H   0  0  0  0  0  0
  -23.9994   -7.4530   22.7416 H   0  0  0  0  0  0
  -21.0840   -8.8733   19.8902 H   0  0  0  0  0  0
  -22.3692  -10.9658   19.6194 H   0  0  0  0  0  0
  -21.1956   -7.6137   23.9749 H   0  0  0  0  0  0
  -21.1531   -6.0500   25.9104 H   0  0  0  0  0  0
  -22.0579   -2.7605   23.2811 H   0  0  0  0  0  0
  -22.4161  -11.9850   22.4817 H   0  0  0  0  0  0
  -21.1141  -13.1180   22.2688 H   0  0  0  0  0  0
  -24.6742  -15.8287   20.5006 H   0  0  0  0  0  0
  -26.2760  -15.6026   20.0231 H   0  0  0  0  0  0
  -26.7104  -32.5582   23.1154 H   0  0  0  0  0  0
  -25.0098  -33.9787   25.0501 H   0  0  0  0  0  0
  -22.6867  -31.3102   21.4125 H   0  0  0  0  0  0
  -23.3739  -35.9696   23.3279 H   0  0  0  0  0  0
  -24.3618  -36.8965   22.2042 H   0  0  0  0  0  0
  -23.7318  -37.6550   23.6673 H   0  0  0  0  0  0
  -26.0443  -31.6029   20.6016 H   0  0  0  0  0  0
  -26.8256  -30.8909   21.9789 H   0  0  0  0  0  0
  -28.0977  -29.0813   21.1573 H   0  0  0  0  0  0
  -26.0044  -25.9736   19.0089 H   0  0  0  0  0  0
  -23.9570  -27.3105   19.0440 H   0  0  0  0  0  0
  -23.7434  -30.6185   19.4101 H   0  0  0  0  0  0
  -22.7404  -29.2594   19.8576 H   0  0  0  0  0  0
  -25.1302  -36.1904   25.0802 H   0  0  0  0  0  0
  -20.9983  -28.3106   24.1454 H   0  0  0  0  0  0
  -20.5630  -26.2186   23.3576 H   0  0  0  0  0  0
  -21.6726  -26.7453   22.1366 H   0  0  0  0  0  0
  -19.6920  -25.6281   21.1202 H   0  0  0  0  0  0
  -19.6779  -27.3258   20.6802 H   0  0  0  0  0  0
  -17.4237  -26.6644   21.4062 H   0  0  0  0  0  0
  -18.0321  -26.0014   22.9002 H   0  0  0  0  0  0
  -19.7970  -30.7168   24.2299 H   0  0  0  0  0  0
  -17.5100  -31.6311   24.5075 H   0  0  0  0  0  0
  -15.5372  -30.3036   23.7644 H   0  0  0  0  0  0
  -15.8691  -28.0798   22.7064 H   0  0  0  0  0  0
  -24.5924  -30.7058   25.7865 H   0  0  0  0  0  0
  -24.9013  -32.2907   26.4898 H   0  0  0  0  0  0
  -25.8166  -30.8908   27.0235 H   0  0  0  0  0  0
  -26.2864  -29.6757   24.1134 H   0  0  0  0  0  0
  -27.4080  -29.7226   25.4528 H   0  0  0  0  0  0
  -27.8694  -30.4302   23.9231 H   0  0  0  0  0  0
  -27.2597  -33.3572   26.2104 H   0  0  0  0  0  0
  -28.3858  -32.6909   25.0337 H   0  0  0  0  0  0
  -28.0695  -31.8387   26.5393 H   0  0  0  0  0  0
  -28.2549  -38.0136   24.7471 H   0  0  0  0  0  0
  -28.1104  -36.2651   24.6281 H   0  0  0  0  0  0
  -27.2285  -37.1469   25.8842 H   0  0  0  0  0  0
  -20.9173  -29.9021   21.7277 H   0  0  0  0  0  0
  -26.0150  -38.2826   24.1426 H   0  0  0  0  0  0
  -31.7211  -18.5969   23.5471 H   0  0  0  0  0  0
  -26.4494  -23.6882   19.2220 H   0  0  0  0  0  0
  -26.1327  -20.3931   19.0441 H   0  0  0  0  0  0
  -25.1725  -21.8680   19.0766 H   0  0  0  0  0  0
  -25.1459  -20.7797   20.4583 H   0  0  0  0  0  0
  -27.9161  -25.3649   18.5451 H   0  0  0  0  0  0
  -29.5297  -25.2713   19.1717 H   0  0  0  0  0  0
  -28.0994  -20.0011   19.7584 H   0  0  0  0  0  0
  -28.8100  -15.3091   20.7437 H   0  0  0  0  0  0
  1 25  1  0  0  0
  1 30  2  0  0  0
  1 84  1  0  0  0
  2  3  1  0  0  0
  2 25  1  0  0  0
  2 89  1  0  0  0
  2 90  1  0  0  0
  3  4  1  0  0  0
  3 91  1  0  0  0
  3 92  1  0  0  0
  4  5  1  0  0  0
  4 93  1  0  0  0
  4 94  1  0  0  0
  5  6  1  0  0  0
  5 26  1  0  0  0
  5 95  1  0  0  0
  6 25  1  0  0  0
  6 96  1  0  0  0
  6 97  1  0  0  0
  7  8  2  0  0  0
  7 26  1  0  0  0
  7 29  1  0  0  0
  8  9  1  0  0  0
  8 22  1  0  0  0
  9 10  1  0  0  0
  9 27  2  0  0  0
 10 11  2  0  0  0
 10 15  1  0  0  0
 11 12  1  0  0  0
 11 98  1  0  0  0
 12 13  2  0  0  0
 12 99  1  0  0  0
 13 14  1  0  0  0
 13 31  1  0  0  0
 14 15  2  0  0  0
 14100  1  0  0  0
 15101  1  0  0  0
 16 17  2  0  0  0
 16 21  1  0  0  0
 16 31  1  0  0  0
 17 18  1  0  0  0
 17102  1  0  0  0
 18 19  2  0  0  0
 18103  1  0  0  0
 19 20  1  0  0  0
 19 24  1  0  0  0
 20 21  2  0  0  0
 20104  1  0  0  0
 21 23  1  0  0  0
 22 28  1  0  0  0
 22 32  2  0  0  0
 26 27  1  0  0  0
 28105  1  0  0  0
 28106  1  0  0  0
 29107  1  0  0  0
 29108  1  0  0  0
 33 34  1  0  0  0
 33 66  1  0  0  0
 33 70  2  0  0  0
 34 36  1  0  0  0
 34 59  1  0  0  0
 34109  1  0  0  0
 35 44  2  0  0  0
 35 45  1  0  0  0
 35 68  1  0  0  0
 36 56  1  0  0  0
 36110  1  0  0  0
 37 39  1  0  0  0
 37 47  1  0  0  0
 37 66  1  0  0  0
 37111  1  0  0  0
 38 43  2  0  0  0
 38 46  1  0  0  0
 38 47  1  0  0  0
 39 64  1  0  0  0
 39 67  2  0  0  0
 40 52  1  0  0  0
 40 53  2  0  0  0
 40 58  1  0  0  0
 41112  1  0  0  0
 41113  1  0  0  0
 41114  1  0  0  0
 41 48  1  0  0  0
 42 43  1  0  0  0
 42 66  1  0  0  0
 42115  1  0  0  0
 42116  1  0  0  0
 43 44  1  0  0  0
 44117  1  0  0  0
 45 46  2  0  0  0
 45118  1  0  0  0
 46119  1  0  0  0
 47120  1  0  0  0
 47121  1  0  0  0
 48 56  1  0  0  0
 48 65  1  0  0  0
 48122  1  0  0  0
 49 50  1  0  0  0
 49 53  1  0  0  0
 49 64  1  0  0  0
 49123  1  0  0  0
 50 51  1  0  0  0
 50124  1  0  0  0
 50125  1  0  0  0
 51 52  1  0  0  0
 51126  1  0  0  0
 51127  1  0  0  0
 52128  1  0  0  0
 52129  1  0  0  0
 53 54  1  0  0  0
 54 55  2  0  0  0
 54130  1  0  0  0
 55 57  1  0  0  0
 55131  1  0  0  0
 56 69  2  0  0  0
 57 58  2  0  0  0
 57132  1  0  0  0
 58133  1  0  0  0
 59 60  1  0  0  0
 59 61  1  0  0  0
 59 62  1  0  0  0
 60134  1  0  0  0
 60135  1  0  0  0
 60136  1  0  0  0
 61137  1  0  0  0
 61138  1  0  0  0
 61139  1  0  0  0
 62140  1  0  0  0
 62141  1  0  0  0
 62142  1  0  0  0
 63 65  1  0  0  0
 63143  1  0  0  0
 63144  1  0  0  0
 63145  1  0  0  0
 64146  1  0  0  0
 65147  1  0  0  0
 68 81  1  0  0  0
 71 73  2  0  0  0
 71 82  1  0  0  0
 71148  1  0  0  0
 72 73  1  0  0  0
 72 74  2  0  0  0
 72 83  1  0  0  0
 73 87  1  0  0  0
 74 75  1  0  0  0
 74 88  1  0  0  0
 75 82  2  0  0  0
 75 84  1  0  0  0
 76 77  2  0  0  0
 76 78  1  0  0  0
 76149  1  0  0  0
 77 79  1  0  0  0
 77 80  1  0  0  0
 78 81  1  0  0  0
 78 85  2  0  0  0
 79 83  1  0  0  0
 79 86  2  0  0  0
 80150  1  0  0  0
 80151  1  0  0  0
 80152  1  0  0  0
 81153  1  0  0  0
 81154  1  0  0  0
 83155  1  0  0  0
 84156  1  0  0  0
M  ISO  4   1 100  68 101  81 101  84 100
M  END
> <chiral flag>
0

> <version>
0

> <s_m_source_file>
/data/baiqing/PycharmProjects/Reinvent-master-3.2/result/LINK_invent/BTK/process_docking_weight1_custom_product_contain_oxygen_bond_distance_aromatic_linkinvent_7_9_3/rearranged_h_0176.sdf

> <i_m_source_file_index>
79

> <r_mmod_Potential_Energy-OPLS-2005>
-168.992462158203

> <r_mmod_Stretch_Energy-OPLS-2005>
40.7925300598145

> <r_mmod_Bend_Energy-OPLS-2005>
127.418045043945

> <r_mmod_Torsional_Energy-OPLS-2005>
262.661956787109

> <r_mmod_Improper_Torsional_Energy-OPLS-2005>
9.55885887145996

> <r_mmod_Van_der_Waal_Energy-OPLS-2005>
161.290283203125

> <r_mmod_Electrostatic_Energy-OPLS-2005>
-512.467468261719

> <r_mmod_Solvation_Energy-OPLS-2005>
-278.177276611328

> <b_mmod_Minimization_Converged-OPLS-2005>
0

> <r_mmod_RMS_Derivative-OPLS-2005>
7.4612398147583

$$$$
79
                    3D
 Structure written by MMmdl.
149157  0  0  1  0            999 V2000
  -30.5752  -14.7281   20.4598 C   0  0  0  0  0  0
  -30.4427  -12.4393   19.4638 C   0  0  0  0  0  0
  -29.5137  -12.5024   18.2298 C   0  0  0  0  0  0
  -28.0399  -12.3205   18.6459 C   0  0  0  0  0  0
  -27.6452  -13.2161   19.8501 C   0  0  2  0  0  0
  -28.6896  -13.1207   20.9849 C   0  0  0  0  0  0
  -25.2537  -13.8157   20.5664 C   0  0  0  0  0  0
  -24.1816  -13.0426   20.9198 C   0  0  0  0  0  0
  -24.6379  -11.6895   20.8732 C   0  0  0  0  0  0
  -23.9052  -10.4277   21.0404 C   0  0  0  0  0  0
  -24.3609   -9.4199   21.9182 C   0  0  0  0  0  0
  -23.6276   -8.2239   22.0759 C   0  0  0  0  0  0
  -22.4263   -8.0270   21.3546 C   0  0  0  0  0  0
  -21.9897   -9.0243   20.4648 C   0  0  0  0  0  0
  -22.7226  -10.2119   20.3050 C   0  0  0  0  0  0
  -21.6854   -6.0723   22.5275 C   0  0  0  0  0  0
  -21.4013   -6.5633   23.8206 C   0  0  0  0  0  0
  -21.3658   -5.6787   24.9172 C   0  0  0  0  0  0
  -21.6047   -4.3050   24.7226 C   0  0  0  0  0  0
  -21.8815   -3.8138   23.4350 C   0  0  0  0  0  0
  -21.9189   -4.6950   22.3405 C   0  0  0  0  0  0
  -22.7846  -13.5226   21.1870 C   0  0  0  0  0  0
  -22.1658   -4.2134   21.0984 F   0  0  0  0  0  0
  -21.5629   -3.4538   25.7744 F   0  0  0  0  0  0
  -29.9940  -13.4820   20.4119 N   0  0  0  0  0  0
  -26.2947  -12.9328   20.3254 N   0  0  0  0  0  0
  -25.9303  -11.6489   20.5729 N   0  0  0  0  0  0
  -22.0474  -12.8217   22.0415 N   0  0  0  0  0  0
  -25.4231  -15.1888   20.4076 N   0  0  0  0  0  0
  -31.7625  -14.8726   20.1465 O   0  0  0  0  0  0
  -21.6636   -6.8864   21.4237 O   0  0  0  0  0  0
  -22.3534  -14.5531   20.6712 O   0  0  0  0  0  0
  -24.6293  -31.8564   23.1971 C   0  0  0  0  0  0
  -25.9126  -32.4762   23.8320 C   0  0  1  0  0  0
  -27.2268  -27.2864   20.1326 C   0  0  0  0  0  0
  -25.5939  -33.8566   24.2264 N   0  0  0  0  0  0
  -23.4251  -30.4757   21.5411 C   0  0  2  0  0  0
  -24.8738  -28.9186   20.1163 C   0  0  0  0  0  0
  -22.7488  -29.4599   22.4926 C   0  0  0  0  0  0
  -18.0289  -28.1398   22.8482 C   0  0  0  0  0  0
  -24.1497  -36.7282   23.2642 C   0  0  0  0  0  0
  -25.9674  -30.7781   21.3710 C   0  0  0  0  0  0
  -26.0432  -29.3998   20.7183 C   0  0  0  0  0  0
  -27.2266  -28.5982   20.7081 C   0  0  0  0  0  0
  -26.0350  -26.8538   19.5183 C   0  0  0  0  0  0
  -24.8727  -27.6527   19.5060 C   0  0  0  0  0  0
  -23.6417  -29.8019   20.1596 C   0  0  0  0  0  0
  -25.4122  -36.3072   24.0334 C   0  0  1  0  0  0
  -20.5888  -28.3698   23.1287 C   0  0  2  0  0  0
  -20.6785  -26.9420   22.5411 C   0  0  0  0  0  0
  -19.5758  -26.6382   21.5221 C   0  0  0  0  0  0
  -18.1931  -26.7941   22.1616 C   0  0  0  0  0  0
  -19.1540  -28.8862   23.2882 C   0  0  0  0  0  0
  -18.9464  -30.1467   23.8898 C   0  0  0  0  0  0
  -17.6467  -30.6599   24.0561 C   0  0  0  0  0  0
  -25.9050  -34.9445   23.5094 C   0  0  0  0  0  0
  -16.5360  -29.9094   23.6337 C   0  0  0  0  0  0
  -16.7274  -28.6519   23.0352 C   0  0  0  0  0  0
  -26.4507  -31.6588   25.0707 C   0  0  0  0  0  0
  -25.3733  -31.3728   26.1428 C   0  0  0  0  0  0
  -27.0378  -30.3020   24.6167 C   0  0  0  0  0  0
  -27.6057  -32.4340   25.7485 C   0  0  0  0  0  0
  -27.5588  -37.1784   24.8464 C   0  0  0  0  0  0
  -21.4196  -29.3054   22.3683 N   0  0  0  0  0  0
  -26.4295  -37.3769   23.9416 N   0  0  0  0  0  0
  -24.6932  -31.0544   22.0935 N   0  0  0  0  0  0
  -23.4203  -28.8136   23.3014 O   0  0  0  0  0  0
  -28.3408  -26.4296   20.1198 O   0  0  0  0  0  0
  -26.5612  -34.8921   22.4654 O   0  0  0  0  0  0
  -23.5445  -32.1376   23.7285 O   0  0  0  0  0  0
  -29.3845  -19.8171   20.2169 C   0  0  0  0  0  0
  -30.6784  -19.4209   20.5449 C   0  0  0  0  0  0
  -29.7949  -17.2576   20.5053 C   0  0  0  0  0  0
  -29.0872  -22.4602   20.3259 C   0  0  0  0  0  0
  -28.8099  -21.1688   19.8856 C   0  0  0  0  0  0
  -28.5206  -23.8008   19.7844 C   0  0  0  0  0  0
  -28.2098  -25.0604   20.7122 C   0  0  0  0  0  0
  -30.8915  -18.0181   20.6866 N   0  0  0  0  0  0
  -31.7743  -20.2714   20.6973 N   0  0  0  0  0  0
  -29.7076  -15.7888   20.6495 N   0  0  0  0  0  0
  -28.3027  -23.9499   18.5767 O   0  0  0  0  0  0
  -27.8818  -21.0383   18.9228 O   0  0  0  0  0  0
  -28.3926  -18.3276   20.1562 S   0  0  0  0  0  0
  -31.4826  -12.5773   19.1632 H   0  0  0  0  0  0
  -30.3947  -11.4536   19.9296 H   0  0  0  0  0  0
  -29.7952  -11.7339   17.5086 H   0  0  0  0  0  0
  -29.6381  -13.4595   17.7211 H   0  0  0  0  0  0
  -27.9051  -11.2711   18.9123 H   0  0  0  0  0  0
  -27.3778  -12.5050   17.7987 H   0  0  0  0  0  0
  -27.6441  -14.2394   19.4749 H   0  0  0  0  0  0
  -28.7204  -12.1118   21.3984 H   0  0  0  0  0  0
  -28.4233  -13.7755   21.8162 H   0  0  0  0  0  0
  -25.2750   -9.5680   22.4763 H   0  0  0  0  0  0
  -23.9979   -7.4638   22.7489 H   0  0  0  0  0  0
  -21.0826   -8.8757   19.8957 H   0  0  0  0  0  0
  -22.3679  -10.9659   19.6160 H   0  0  0  0  0  0
  -21.2004   -7.6138   23.9703 H   0  0  0  0  0  0
  -21.1490   -6.0524   25.9073 H   0  0  0  0  0  0
  -22.0595   -2.7595   23.2858 H   0  0  0  0  0  0
  -22.4070  -11.9873   22.4806 H   0  0  0  0  0  0
  -21.1098  -13.1262   22.2619 H   0  0  0  0  0  0
  -24.6454  -15.8325   20.5088 H   0  0  0  0  0  0
  -26.2467  -15.6288   20.0199 H   0  0  0  0  0  0
  -26.7195  -32.5418   23.1064 H   0  0  0  0  0  0
  -25.0142  -33.9711   25.0448 H   0  0  0  0  0  0
  -22.7207  -31.2962   21.3907 H   0  0  0  0  0  0
  -23.3773  -35.9592   23.3276 H   0  0  0  0  0  0
  -24.3596  -36.8927   22.2061 H   0  0  0  0  0  0
  -23.7228  -37.6467   23.6682 H   0  0  0  0  0  0
  -26.0998  -31.5373   20.5995 H   0  0  0  0  0  0
  -26.8483  -30.8309   21.9991 H   0  0  0  0  0  0
  -28.1299  -28.9680   21.1720 H   0  0  0  0  0  0
  -26.0005  -25.8804   19.0494 H   0  0  0  0  0  0
  -23.9759  -27.2760   19.0346 H   0  0  0  0  0  0
  -23.7609  -30.5750   19.3996 H   0  0  0  0  0  0
  -22.7622  -29.2297   19.8580 H   0  0  0  0  0  0
  -25.1295  -36.1915   25.0826 H   0  0  0  0  0  0
  -20.9974  -28.3275   24.1414 H   0  0  0  0  0  0
  -20.5710  -26.2302   23.3613 H   0  0  0  0  0  0
  -21.6646  -26.7454   22.1184 H   0  0  0  0  0  0
  -19.6923  -25.6289   21.1267 H   0  0  0  0  0  0
  -19.6713  -27.3183   20.6746 H   0  0  0  0  0  0
  -17.4203  -26.6709   21.4015 H   0  0  0  0  0  0
  -18.0308  -26.0086   22.9009 H   0  0  0  0  0  0
  -19.7945  -30.7288   24.2262 H   0  0  0  0  0  0
  -17.5021  -31.6281   24.5157 H   0  0  0  0  0  0
  -15.5362  -30.3000   23.7671 H   0  0  0  0  0  0
  -15.8672  -28.0843   22.7069 H   0  0  0  0  0  0
  -24.5921  -30.7064   25.7749 H   0  0  0  0  0  0
  -24.8911  -32.2897   26.4832 H   0  0  0  0  0  0
  -25.8048  -30.8920   27.0215 H   0  0  0  0  0  0
  -26.2960  -29.6745   24.1210 H   0  0  0  0  0  0
  -27.4125  -29.7297   25.4663 H   0  0  0  0  0  0
  -27.8797  -30.4340   23.9366 H   0  0  0  0  0  0
  -27.2662  -33.3660   26.2020 H   0  0  0  0  0  0
  -28.3886  -32.6868   25.0323 H   0  0  0  0  0  0
  -28.0703  -31.8494   26.5435 H   0  0  0  0  0  0
  -28.2560  -38.0120   24.7539 H   0  0  0  0  0  0
  -28.1126  -36.2648   24.6246 H   0  0  0  0  0  0
  -27.2307  -37.1368   25.8864 H   0  0  0  0  0  0
  -20.9382  -29.8790   21.6892 H   0  0  0  0  0  0
  -26.0176  -38.2838   24.1426 H   0  0  0  0  0  0
  -29.8080  -22.5715   21.1229 H   0  0  0  0  0  0
  -28.8741  -25.0086   21.5746 H   0  0  0  0  0  0
  -27.2024  -24.9348   21.1097 H   0  0  0  0  0  0
  -31.7087  -21.2229   20.3552 H   0  0  0  0  0  0
  -32.7087  -19.8788   20.6621 H   0  0  0  0  0  0
  -28.7668  -15.4659   20.8064 H   0  0  0  0  0  0
  -27.7990  -20.1149   18.7212 H   0  0  0  0  0  0
  1 25  1  0  0  0
  1 30  2  0  0  0
  1 80  1  0  0  0
  2  3  1  0  0  0
  2 25  1  0  0  0
  2 84  1  0  0  0
  2 85  1  0  0  0
  3  4  1  0  0  0
  3 86  1  0  0  0
  3 87  1  0  0  0
  4  5  1  0  0  0
  4 88  1  0  0  0
  4 89  1  0  0  0
  5  6  1  0  0  0
  5 26  1  0  0  0
  5 90  1  0  0  0
  6 25  1  0  0  0
  6 91  1  0  0  0
  6 92  1  0  0  0
  7  8  2  0  0  0
  7 26  1  0  0  0
  7 29  1  0  0  0
  8  9  1  0  0  0
  8 22  1  0  0  0
  9 10  1  0  0  0
  9 27  2  0  0  0
 10 11  2  0  0  0
 10 15  1  0  0  0
 11 12  1  0  0  0
 11 93  1  0  0  0
 12 13  2  0  0  0
 12 94  1  0  0  0
 13 14  1  0  0  0
 13 31  1  0  0  0
 14 15  2  0  0  0
 14 95  1  0  0  0
 15 96  1  0  0  0
 16 17  2  0  0  0
 16 21  1  0  0  0
 16 31  1  0  0  0
 17 18  1  0  0  0
 17 97  1  0  0  0
 18 19  2  0  0  0
 18 98  1  0  0  0
 19 20  1  0  0  0
 19 24  1  0  0  0
 20 21  2  0  0  0
 20 99  1  0  0  0
 21 23  1  0  0  0
 22 28  1  0  0  0
 22 32  2  0  0  0
 26 27  1  0  0  0
 28100  1  0  0  0
 28101  1  0  0  0
 29102  1  0  0  0
 29103  1  0  0  0
 33 34  1  0  0  0
 33 66  1  0  0  0
 33 70  2  0  0  0
 34 36  1  0  0  0
 34 59  1  0  0  0
 34104  1  0  0  0
 35 44  2  0  0  0
 35 45  1  0  0  0
 35 68  1  0  0  0
 36 56  1  0  0  0
 36105  1  0  0  0
 37 39  1  0  0  0
 37 47  1  0  0  0
 37 66  1  0  0  0
 37106  1  0  0  0
 38 43  2  0  0  0
 38 46  1  0  0  0
 38 47  1  0  0  0
 39 64  1  0  0  0
 39 67  2  0  0  0
 40 52  1  0  0  0
 40 53  2  0  0  0
 40 58  1  0  0  0
 41107  1  0  0  0
 41108  1  0  0  0
 41109  1  0  0  0
 41 48  1  0  0  0
 42 43  1  0  0  0
 42 66  1  0  0  0
 42110  1  0  0  0
 42111  1  0  0  0
 43 44  1  0  0  0
 44112  1  0  0  0
 45 46  2  0  0  0
 45113  1  0  0  0
 46114  1  0  0  0
 47115  1  0  0  0
 47116  1  0  0  0
 48 56  1  0  0  0
 48 65  1  0  0  0
 48117  1  0  0  0
 49 50  1  0  0  0
 49 53  1  0  0  0
 49 64  1  0  0  0
 49118  1  0  0  0
 50 51  1  0  0  0
 50119  1  0  0  0
 50120  1  0  0  0
 51 52  1  0  0  0
 51121  1  0  0  0
 51122  1  0  0  0
 52123  1  0  0  0
 52124  1  0  0  0
 53 54  1  0  0  0
 54 55  2  0  0  0
 54125  1  0  0  0
 55 57  1  0  0  0
 55126  1  0  0  0
 56 69  2  0  0  0
 57 58  2  0  0  0
 57127  1  0  0  0
 58128  1  0  0  0
 59 60  1  0  0  0
 59 61  1  0  0  0
 59 62  1  0  0  0
 60129  1  0  0  0
 60130  1  0  0  0
 60131  1  0  0  0
 61132  1  0  0  0
 61133  1  0  0  0
 61134  1  0  0  0
 62135  1  0  0  0
 62136  1  0  0  0
 62137  1  0  0  0
 63 65  1  0  0  0
 63138  1  0  0  0
 63139  1  0  0  0
 63140  1  0  0  0
 64141  1  0  0  0
 65142  1  0  0  0
 68 77  1  0  0  0
 71 72  2  0  0  0
 71 75  1  0  0  0
 71 83  1  0  0  0
 72 78  1  0  0  0
 72 79  1  0  0  0
 73 78  2  0  0  0
 73 80  1  0  0  0
 73 83  1  0  0  0
 74 75  2  0  0  0
 74 76  1  0  0  0
 74143  1  0  0  0
 75 82  1  0  0  0
 76 77  1  0  0  0
 76 81  2  0  0  0
 77144  1  0  0  0
 77145  1  0  0  0
 79146  1  0  0  0
 79147  1  0  0  0
 80148  1  0  0  0
 82149  1  0  0  0
M  ISO  4   1 100  68 101  77 101  80 100
M  END
> <chiral flag>
0

> <version>
0

> <s_m_source_file>
/data/baiqing/PycharmProjects/Reinvent-master-3.2/result/LINK_invent/BTK/process_docking_weight1_custom_product_contain_oxygen_bond_distance_aromatic_linkinvent_7_9_3/rearranged_h_0176.sdf

> <i_m_source_file_index>
80

> <r_mmod_Potential_Energy-OPLS-2005>
83.5674514770508

> <r_mmod_Stretch_Energy-OPLS-2005>
105.239738464355

> <r_mmod_Bend_Energy-OPLS-2005>
160.800979614258

> <r_mmod_Torsional_Energy-OPLS-2005>
243.487777709961

> <r_mmod_Improper_Torsional_Energy-OPLS-2005>
8.58896636962891

> <r_mmod_Van_der_Waal_Energy-OPLS-2005>
113.768623352051

> <r_mmod_Electrostatic_Energy-OPLS-2005>
-348.193542480469

> <r_mmod_Solvation_Energy-OPLS-2005>
-272.93310546875

> <b_mmod_Minimization_Converged-OPLS-2005>
0

> <r_mmod_RMS_Derivative-OPLS-2005>
1.5338237285614

$$$$
80
                    3D
 Structure written by MMmdl.
157165  0  0  1  0            999 V2000
  -30.6967  -14.4091   20.5706 C   0  0  0  0  0  0
  -30.4147  -12.2610   19.4244 C   0  0  0  0  0  0
  -29.5020  -12.5176   18.2060 C   0  0  0  0  0  0
  -28.0175  -12.3864   18.6055 C   0  0  0  0  0  0
  -27.6655  -13.2002   19.8814 C   0  0  2  0  0  0
  -28.6979  -12.9448   21.0042 C   0  0  0  0  0  0
  -25.2617  -13.8154   20.5662 C   0  0  0  0  0  0
  -24.1835  -13.0433   20.9111 C   0  0  0  0  0  0
  -24.6374  -11.6892   20.8669 C   0  0  0  0  0  0
  -23.9036  -10.4280   21.0371 C   0  0  0  0  0  0
  -24.3597   -9.4193   21.9161 C   0  0  0  0  0  0
  -23.6257   -8.2237   22.0755 C   0  0  0  0  0  0
  -22.4246   -8.0277   21.3539 C   0  0  0  0  0  0
  -21.9867   -9.0249   20.4640 C   0  0  0  0  0  0
  -22.7204  -10.2123   20.3031 C   0  0  0  0  0  0
  -21.6842   -6.0709   22.5272 C   0  0  0  0  0  0
  -21.4020   -6.5614   23.8207 C   0  0  0  0  0  0
  -21.3647   -5.6773   24.9172 C   0  0  0  0  0  0
  -21.6051   -4.3040   24.7224 C   0  0  0  0  0  0
  -21.8822   -3.8118   23.4344 C   0  0  0  0  0  0
  -21.9188   -4.6936   22.3387 C   0  0  0  0  0  0
  -22.7865  -13.5247   21.1786 C   0  0  0  0  0  0
  -22.1664   -4.2130   21.0965 F   0  0  0  0  0  0
  -21.5611   -3.4512   25.7722 F   0  0  0  0  0  0
  -30.0379  -13.2264   20.4652 N   0  0  0  0  0  0
  -26.3031  -12.9301   20.3343 N   0  0  0  0  0  0
  -25.9304  -11.6464   20.5709 N   0  0  0  0  0  0
  -22.0482  -12.8279   22.0367 N   0  0  0  0  0  0
  -25.4412  -15.1886   20.4189 N   0  0  0  0  0  0
  -31.8373  -14.5916   20.1341 O   0  0  0  0  0  0
  -21.6642   -6.8859   21.4234 O   0  0  0  0  0  0
  -22.3558  -14.5550   20.6625 O   0  0  0  0  0  0
  -24.6048  -31.8742   23.2153 C   0  0  0  0  0  0
  -25.8977  -32.4846   23.8420 C   0  0  1  0  0  0
  -27.2401  -27.4904   20.0896 C   0  0  0  0  0  0
  -25.5881  -33.8648   24.2379 N   0  0  0  0  0  0
  -23.3898  -30.4960   21.5554 C   0  0  2  0  0  0
  -24.8383  -28.9708   20.1147 C   0  0  0  0  0  0
  -22.7348  -29.4669   22.5043 C   0  0  0  0  0  0
  -18.0260  -28.1357   22.8496 C   0  0  0  0  0  0
  -24.1490  -36.7328   23.2650 C   0  0  0  0  0  0
  -25.9095  -30.8572   21.3582 C   0  0  0  0  0  0
  -25.9902  -29.4933   20.7138 C   0  0  0  0  0  0
  -27.1915  -28.7580   20.7067 C   0  0  0  0  0  0
  -26.0795  -26.9762   19.4766 C   0  0  0  0  0  0
  -24.8734  -27.7058   19.4965 C   0  0  0  0  0  0
  -23.5942  -29.8292   20.1684 C   0  0  0  0  0  0
  -25.4102  -36.3123   24.0364 C   0  0  1  0  0  0
  -20.5838  -28.3641   23.1361 C   0  0  2  0  0  0
  -20.6754  -26.9392   22.5429 C   0  0  0  0  0  0
  -19.5741  -26.6369   21.5213 C   0  0  0  0  0  0
  -18.1911  -26.7911   22.1617 C   0  0  0  0  0  0
  -19.1506  -28.8808   23.2925 C   0  0  0  0  0  0
  -18.9446  -30.1410   23.8949 C   0  0  0  0  0  0
  -17.6448  -30.6574   24.0553 C   0  0  0  0  0  0
  -25.9025  -34.9486   23.5161 C   0  0  0  0  0  0
  -16.5335  -29.9089   23.6296 C   0  0  0  0  0  0
  -16.7247  -28.6488   23.0346 C   0  0  0  0  0  0
  -26.4443  -31.6601   25.0710 C   0  0  0  0  0  0
  -25.3726  -31.3685   26.1464 C   0  0  0  0  0  0
  -27.0251  -30.3055   24.6016 C   0  0  0  0  0  0
  -27.6057  -32.4291   25.7442 C   0  0  0  0  0  0
  -27.5588  -37.1816   24.8467 C   0  0  0  0  0  0
  -21.4094  -29.3020   22.3789 N   0  0  0  0  0  0
  -26.4308  -37.3783   23.9410 N   0  0  0  0  0  0
  -24.6537  -31.0880   22.1038 N   0  0  0  0  0  0
  -23.4152  -28.8213   23.3057 O   0  0  0  0  0  0
  -28.4015  -26.7620   20.0285 O   0  0  0  0  0  0
  -26.5581  -34.8922   22.4719 O   0  0  0  0  0  0
  -23.5261  -32.1506   23.7573 O   0  0  0  0  0  0
  -29.3224  -18.2234   18.4179 C   0  0  0  0  0  0
  -28.7845  -18.5559   19.6404 C   0  0  0  0  0  0
  -29.6900  -16.5581   20.1921 C   0  0  0  0  0  0
  -27.1438  -21.8290   20.4314 C   0  0  0  0  0  0
  -27.6298  -20.4198   20.8470 C   0  0  0  0  0  0
  -28.7787  -25.0968   21.7675 C   0  0  0  0  0  0
  -29.2902  -18.9960   17.1385 C   0  0  0  0  0  0
  -27.3634  -22.9775   21.4143 C   0  0  0  0  0  0
  -28.2194  -24.0825   20.7649 C   0  0  0  0  0  0
  -29.0457  -26.5298   21.2834 C   0  0  0  0  0  0
  -28.9779  -17.5964   20.6497 N   0  0  0  0  0  0
  -28.1105  -19.7874   19.7687 N   0  0  0  0  0  0
  -29.9500  -15.4318   21.0088 N   0  0  0  0  0  0
  -26.6633  -22.0520   19.3140 O   0  0  0  0  0  0
  -27.5780  -19.9873   22.0035 O   0  0  0  0  0  0
  -29.0293  -24.7654   22.9306 O   0  0  0  0  0  0
  -30.1338  -16.6898   18.4857 S   0  0  0  0  0  0
  -31.4677  -12.3329   19.1424 H   0  0  0  0  0  0
  -30.2758  -11.2434   19.7919 H   0  0  0  0  0  0
  -29.7360  -11.8223   17.3987 H   0  0  0  0  0  0
  -29.6867  -13.5192   17.8115 H   0  0  0  0  0  0
  -27.8161  -11.3267   18.7728 H   0  0  0  0  0  0
  -27.3814  -12.6967   17.7737 H   0  0  0  0  0  0
  -27.7153  -14.2538   19.6073 H   0  0  0  0  0  0
  -28.6481  -11.9045   21.3280 H   0  0  0  0  0  0
  -28.4683  -13.5365   21.8913 H   0  0  0  0  0  0
  -25.2740   -9.5640   22.4762 H   0  0  0  0  0  0
  -23.9932   -7.4637   22.7488 H   0  0  0  0  0  0
  -21.0779   -8.8759   19.8970 H   0  0  0  0  0  0
  -22.3648  -10.9666   19.6137 H   0  0  0  0  0  0
  -21.2058   -7.6135   23.9699 H   0  0  0  0  0  0
  -21.1456   -6.0510   25.9078 H   0  0  0  0  0  0
  -22.0622   -2.7579   23.2853 H   0  0  0  0  0  0
  -22.4033  -11.9928   22.4779 H   0  0  0  0  0  0
  -21.1115  -13.1364   22.2561 H   0  0  0  0  0  0
  -24.6874  -15.8513   20.5633 H   0  0  0  0  0  0
  -26.3155  -15.6377   20.1770 H   0  0  0  0  0  0
  -26.7037  -32.5587   23.1187 H   0  0  0  0  0  0
  -25.0007  -33.9824   25.0498 H   0  0  0  0  0  0
  -22.6753  -31.3103   21.4197 H   0  0  0  0  0  0
  -23.3742  -35.9668   23.3308 H   0  0  0  0  0  0
  -24.3594  -36.8918   22.2063 H   0  0  0  0  0  0
  -23.7234  -37.6545   23.6636 H   0  0  0  0  0  0
  -26.0088  -31.6246   20.5891 H   0  0  0  0  0  0
  -26.8047  -30.9202   21.9656 H   0  0  0  0  0  0
  -28.0800  -29.1784   21.1552 H   0  0  0  0  0  0
  -26.1073  -26.0139   18.9830 H   0  0  0  0  0  0
  -23.9885  -27.3009   19.0250 H   0  0  0  0  0  0
  -23.6898  -30.6068   19.4096 H   0  0  0  0  0  0
  -22.7192  -29.2463   19.8761 H   0  0  0  0  0  0
  -25.1258  -36.2019   25.0859 H   0  0  0  0  0  0
  -20.9925  -28.3176   24.1482 H   0  0  0  0  0  0
  -20.5651  -26.2243   23.3593 H   0  0  0  0  0  0
  -21.6640  -26.7431   22.1242 H   0  0  0  0  0  0
  -19.6920  -25.6292   21.1222 H   0  0  0  0  0  0
  -19.6674  -27.3194   20.6761 H   0  0  0  0  0  0
  -17.4181  -26.6659   21.4004 H   0  0  0  0  0  0
  -18.0294  -26.0041   22.9009 H   0  0  0  0  0  0
  -19.7923  -30.7188   24.2369 H   0  0  0  0  0  0
  -17.5013  -31.6274   24.5128 H   0  0  0  0  0  0
  -15.5352  -30.3013   23.7575 H   0  0  0  0  0  0
  -15.8647  -28.0803   22.7076 H   0  0  0  0  0  0
  -24.5899  -30.7028   25.7806 H   0  0  0  0  0  0
  -24.8912  -32.2827   26.4954 H   0  0  0  0  0  0
  -25.8095  -30.8824   27.0188 H   0  0  0  0  0  0
  -26.2762  -29.6834   24.1098 H   0  0  0  0  0  0
  -27.4091  -29.7272   25.4434 H   0  0  0  0  0  0
  -27.8556  -30.4426   23.9081 H   0  0  0  0  0  0
  -27.2728  -33.3594   26.2057 H   0  0  0  0  0  0
  -28.3830  -32.6839   25.0223 H   0  0  0  0  0  0
  -28.0738  -31.8366   26.5314 H   0  0  0  0  0  0
  -28.2619  -38.0108   24.7502 H   0  0  0  0  0  0
  -28.1067  -36.2636   24.6281 H   0  0  0  0  0  0
  -27.2306  -37.1453   25.8875 H   0  0  0  0  0  0
  -20.9227  -29.8755   21.7039 H   0  0  0  0  0  0
  -26.0205  -38.2869   24.1388 H   0  0  0  0  0  0
  -29.9038  -19.8943   17.2079 H   0  0  0  0  0  0
  -28.2752  -19.3039   16.8868 H   0  0  0  0  0  0
  -29.6651  -18.3927   16.3103 H   0  0  0  0  0  0
  -27.8287  -22.5922   22.3211 H   0  0  0  0  0  0
  -26.3942  -23.3844   21.7035 H   0  0  0  0  0  0
  -29.0729  -23.6430   20.2456 H   0  0  0  0  0  0
  -27.6307  -24.5851   20.0000 H   0  0  0  0  0  0
  -30.1207  -26.6601   21.1564 H   0  0  0  0  0  0
  -28.7208  -27.2218   22.0604 H   0  0  0  0  0  0
  -28.0130  -20.3367   18.9266 H   0  0  0  0  0  0
  -29.2034  -15.1959   21.6407 H   0  0  0  0  0  0
  1 25  1  0  0  0
  1 30  2  0  0  0
  1 83  1  0  0  0
  2  3  1  0  0  0
  2 25  1  0  0  0
  2 88  1  0  0  0
  2 89  1  0  0  0
  3  4  1  0  0  0
  3 90  1  0  0  0
  3 91  1  0  0  0
  4  5  1  0  0  0
  4 92  1  0  0  0
  4 93  1  0  0  0
  5  6  1  0  0  0
  5 26  1  0  0  0
  5 94  1  0  0  0
  6 25  1  0  0  0
  6 95  1  0  0  0
  6 96  1  0  0  0
  7  8  2  0  0  0
  7 26  1  0  0  0
  7 29  1  0  0  0
  8  9  1  0  0  0
  8 22  1  0  0  0
  9 10  1  0  0  0
  9 27  2  0  0  0
 10 11  2  0  0  0
 10 15  1  0  0  0
 11 12  1  0  0  0
 11 97  1  0  0  0
 12 13  2  0  0  0
 12 98  1  0  0  0
 13 14  1  0  0  0
 13 31  1  0  0  0
 14 15  2  0  0  0
 14 99  1  0  0  0
 15100  1  0  0  0
 16 17  2  0  0  0
 16 21  1  0  0  0
 16 31  1  0  0  0
 17 18  1  0  0  0
 17101  1  0  0  0
 18 19  2  0  0  0
 18102  1  0  0  0
 19 20  1  0  0  0
 19 24  1  0  0  0
 20 21  2  0  0  0
 20103  1  0  0  0
 21 23  1  0  0  0
 22 28  1  0  0  0
 22 32  2  0  0  0
 26 27  1  0  0  0
 28104  1  0  0  0
 28105  1  0  0  0
 29106  1  0  0  0
 29107  1  0  0  0
 33 34  1  0  0  0
 33 66  1  0  0  0
 33 70  2  0  0  0
 34 36  1  0  0  0
 34 59  1  0  0  0
 34108  1  0  0  0
 35 44  2  0  0  0
 35 45  1  0  0  0
 35 68  1  0  0  0
 36 56  1  0  0  0
 36109  1  0  0  0
 37 39  1  0  0  0
 37 47  1  0  0  0
 37 66  1  0  0  0
 37110  1  0  0  0
 38 43  2  0  0  0
 38 46  1  0  0  0
 38 47  1  0  0  0
 39 64  1  0  0  0
 39 67  2  0  0  0
 40 52  1  0  0  0
 40 53  2  0  0  0
 40 58  1  0  0  0
 41111  1  0  0  0
 41112  1  0  0  0
 41113  1  0  0  0
 41 48  1  0  0  0
 42 43  1  0  0  0
 42 66  1  0  0  0
 42114  1  0  0  0
 42115  1  0  0  0
 43 44  1  0  0  0
 44116  1  0  0  0
 45 46  2  0  0  0
 45117  1  0  0  0
 46118  1  0  0  0
 47119  1  0  0  0
 47120  1  0  0  0
 48 56  1  0  0  0
 48 65  1  0  0  0
 48121  1  0  0  0
 49 50  1  0  0  0
 49 53  1  0  0  0
 49 64  1  0  0  0
 49122  1  0  0  0
 50 51  1  0  0  0
 50123  1  0  0  0
 50124  1  0  0  0
 51 52  1  0  0  0
 51125  1  0  0  0
 51126  1  0  0  0
 52127  1  0  0  0
 52128  1  0  0  0
 53 54  1  0  0  0
 54 55  2  0  0  0
 54129  1  0  0  0
 55 57  1  0  0  0
 55130  1  0  0  0
 56 69  2  0  0  0
 57 58  2  0  0  0
 57131  1  0  0  0
 58132  1  0  0  0
 59 60  1  0  0  0
 59 61  1  0  0  0
 59 62  1  0  0  0
 60133  1  0  0  0
 60134  1  0  0  0
 60135  1  0  0  0
 61136  1  0  0  0
 61137  1  0  0  0
 61138  1  0  0  0
 62139  1  0  0  0
 62140  1  0  0  0
 62141  1  0  0  0
 63 65  1  0  0  0
 63142  1  0  0  0
 63143  1  0  0  0
 63144  1  0  0  0
 64145  1  0  0  0
 65146  1  0  0  0
 68 80  1  0  0  0
 71 72  2  0  0  0
 71 77  1  0  0  0
 71 87  1  0  0  0
 72 81  1  0  0  0
 72 82  1  0  0  0
 73 81  2  0  0  0
 73 83  1  0  0  0
 73 87  1  0  0  0
 74 75  1  0  0  0
 74 78  1  0  0  0
 74 84  2  0  0  0
 75 82  1  0  0  0
 75 85  2  0  0  0
 76 79  1  0  0  0
 76 80  1  0  0  0
 76 86  2  0  0  0
 77147  1  0  0  0
 77148  1  0  0  0
 77149  1  0  0  0
 78 79  1  0  0  0
 78150  1  0  0  0
 78151  1  0  0  0
 79152  1  0  0  0
 79153  1  0  0  0
 80154  1  0  0  0
 80155  1  0  0  0
 82156  1  0  0  0
 83157  1  0  0  0
M  ISO  4   1 100  68 101  80 101  83 100
M  END
> <chiral flag>
0

> <version>
0

> <s_m_source_file>
/data/baiqing/PycharmProjects/Reinvent-master-3.2/result/LINK_invent/BTK/process_docking_weight1_custom_product_contain_oxygen_bond_distance_aromatic_linkinvent_7_9_3/rearranged_h_0176.sdf

> <i_m_source_file_index>
81

> <r_mmod_Potential_Energy-OPLS-2005>
-179.603286743164

> <r_mmod_Stretch_Energy-OPLS-2005>
30.9357986450195

> <r_mmod_Bend_Energy-OPLS-2005>
102.947746276855

> <r_mmod_Torsional_Energy-OPLS-2005>
251.537231445312

> <r_mmod_Improper_Torsional_Energy-OPLS-2005>
7.66563081741333

> <r_mmod_Van_der_Waal_Energy-OPLS-2005>
130.024002075195

> <r_mmod_Electrostatic_Energy-OPLS-2005>
-465.196594238281

> <r_mmod_Solvation_Energy-OPLS-2005>
-246.633193969727

> <b_mmod_Minimization_Converged-OPLS-2005>
0

> <r_mmod_RMS_Derivative-OPLS-2005>
3.80201625823975

$$$$
81
                    3D
 Structure written by MMmdl.
155163  0  0  1  0            999 V2000
  -31.3238  -14.8599   21.2198 C   0  0  0  0  0  0
  -30.6059  -14.3542   18.9187 C   0  0  0  0  0  0
  -29.2846  -14.1431   17.7165 C   0  0  0  0  0  0
  -27.5336  -14.2307   18.1891 C   0  0  0  0  0  0
  -27.0684  -14.6133   19.9578 C   0  0  2  0  0  0
  -28.5532  -14.9494   21.2667 C   0  0  0  0  0  0
  -24.8759  -14.0856   20.7710 C   0  0  0  0  0  0
  -24.0005  -13.0958   20.9845 C   0  0  0  0  0  0
  -24.6635  -11.8428   20.8306 C   0  0  0  0  0  0
  -24.0080  -10.4880   20.9702 C   0  0  0  0  0  0
  -24.4307   -9.4804   21.8765 C   0  0  0  0  0  0
  -23.6819   -8.2840   22.0624 C   0  0  0  0  0  0
  -22.4763   -8.0660   21.3498 C   0  0  0  0  0  0
  -22.0552   -9.0571   20.4456 C   0  0  0  0  0  0
  -22.8068  -10.2369   20.2589 C   0  0  0  0  0  0
  -21.7116   -6.0967   22.5267 C   0  0  0  0  0  0
  -21.4212   -6.5790   23.8217 C   0  0  0  0  0  0
  -21.3714   -5.6885   24.9139 C   0  0  0  0  0  0
  -21.6037   -4.3139   24.7163 C   0  0  0  0  0  0
  -21.8804   -3.8277   23.4267 C   0  0  0  0  0  0
  -21.9279   -4.7145   22.3355 C   0  0  0  0  0  0
  -22.5763  -13.4181   21.2323 C   0  0  0  0  0  0
  -22.1697   -4.2310   21.0930 F   0  0  0  0  0  0
  -21.5570   -3.4585   25.7652 F   0  0  0  0  0  0
  -30.2158  -14.8601   20.5512 N   0  0  0  0  0  0
  -26.0398  -13.5578   20.4053 N   0  0  0  0  0  0
  -25.9568  -12.1301   20.4705 N   0  0  0  0  0  0
  -21.9237  -12.6768   22.1071 N   0  0  0  0  0  0
  -24.7186  -15.4601   20.8396 N   0  0  0  0  0  0
  -32.3674  -14.4932   20.6860 O   0  0  0  0  0  0
  -21.7029   -6.9240   21.4280 O   0  0  0  0  0  0
  -22.0738  -14.4132   20.7069 O   0  0  0  0  0  0
  -24.7903  -31.6530   23.0586 C   0  0  0  0  0  0
  -25.9914  -32.3768   23.7537 C   0  0  1  0  0  0
  -27.0614  -25.5220   20.1882 C   0  0  0  0  0  0
  -25.6020  -33.7666   24.1293 N   0  0  0  0  0  0
  -23.6446  -30.2187   21.4484 C   0  0  2  0  0  0
  -25.0472  -28.3118   20.1278 C   0  0  0  0  0  0
  -22.8142  -29.3575   22.4462 C   0  0  0  0  0  0
  -18.0382  -28.1466   22.8404 C   0  0  0  0  0  0
  -24.1498  -36.6853   23.2689 C   0  0  0  0  0  0
  -26.2426  -29.9756   21.4875 C   0  0  0  0  0  0
  -26.2490  -28.4179   20.8299 C   0  0  0  0  0  0
  -27.1993  -27.0957   20.7973 C   0  0  0  0  0  0
  -25.8659  -25.9288   19.4363 C   0  0  0  0  0  0
  -24.9624  -27.0969   19.4074 C   0  0  0  0  0  0
  -23.9289  -29.4249   20.1233 C   0  0  0  0  0  0
  -25.4186  -36.2490   24.0206 C   0  0  1  0  0  0
  -20.6049  -28.3833   23.0989 C   0  0  2  0  0  0
  -20.6779  -26.9404   22.5444 C   0  0  0  0  0  0
  -19.5788  -26.6323   21.5230 C   0  0  0  0  0  0
  -18.1967  -26.7976   22.1595 C   0  0  0  0  0  0
  -19.1670  -28.9001   23.2645 C   0  0  0  0  0  0
  -18.9570  -30.1565   23.8726 C   0  0  0  0  0  0
  -17.6551  -30.6622   24.0529 C   0  0  0  0  0  0
  -25.9227  -34.8908   23.4684 C   0  0  0  0  0  0
  -16.5432  -29.9090   23.6371 C   0  0  0  0  0  0
  -16.7360  -28.6522   23.0375 C   0  0  0  0  0  0
  -26.4774  -31.6331   25.0611 C   0  0  0  0  0  0
  -25.3574  -31.3930   26.1033 C   0  0  0  0  0  0
  -27.0888  -30.2605   24.7252 C   0  0  0  0  0  0
  -27.6012  -32.4469   25.7465 C   0  0  0  0  0  0
  -27.5522  -37.1575   24.8473 C   0  0  0  0  0  0
  -21.4712  -29.2858   22.3190 N   0  0  0  0  0  0
  -26.4221  -37.3373   23.9404 N   0  0  0  0  0  0
  -24.9385  -30.6788   22.0498 N   0  0  0  0  0  0
  -23.4108  -28.7373   23.3282 O   0  0  0  0  0  0
  -27.8077  -23.7931   20.0177 O   0  0  0  0  0  0
  -26.6045  -34.8724   22.4426 O   0  0  0  0  0  0
  -23.6726  -32.0167   23.4847 O   0  0  0  0  0  0
  -32.9801  -17.4612   22.0255 C   0  0  0  0  0  0
  -31.6895  -17.0068   21.9520 C   0  0  0  0  0  0
  -31.5301  -18.5625   20.3653 C   0  0  0  0  0  0
  -27.9248  -19.0033   19.7633 C   0  0  0  0  0  0
  -30.5064  -17.9584   18.1180 C   0  0  0  0  0  0
  -28.8135  -13.2242   19.8386 C   0  0  0  0  0  0
  -30.9760  -19.0929   19.0791 C   0  0  0  0  0  0
  -28.0825  -21.4421   20.1833 C   0  0  0  0  0  0
  -28.7035  -16.4238   19.3688 C   0  0  2  0  0  0
  -30.8297  -17.8219   21.2228 N   0  0  0  0  0  0
  -31.2972  -15.6946   22.2675 N   0  0  0  0  0  0
  -29.8232  -16.8385   18.4640 N   0  0  0  0  0  0
  -26.7020  -18.8866   19.6600 O   0  0  0  0  0  0
  -30.8919  -18.0312   16.9516 O   0  0  0  0  0  0
  -33.2154  -18.7459   20.8665 S   0  0  0  0  0  0
  -31.3769  -14.9993   18.4914 H   0  0  0  0  0  0
  -31.1588  -13.4087   18.9173 H   0  0  0  0  0  0
  -29.4503  -13.1932   17.2040 H   0  0  0  0  0  0
  -29.4352  -14.8488   16.9001 H   0  0  0  0  0  0
  -27.0438  -13.2989   17.8979 H   0  0  0  0  0  0
  -27.0202  -14.9232   17.5212 H   0  0  0  0  0  0
  -26.6083  -15.5651   19.7541 H   0  0  0  0  0  0
  -28.4867  -14.2700   22.1211 H   0  0  0  0  0  0
  -28.4098  -15.9148   21.7570 H   0  0  0  0  0  0
  -25.3322   -9.6384   22.4516 H   0  0  0  0  0  0
  -24.0454   -7.5403   22.7571 H   0  0  0  0  0  0
  -21.1447   -8.9121   19.8812 H   0  0  0  0  0  0
  -22.4372  -10.9782   19.5646 H   0  0  0  0  0  0
  -21.2292   -7.6304   23.9769 H   0  0  0  0  0  0
  -21.1505   -6.0591   25.9041 H   0  0  0  0  0  0
  -22.0497   -2.7729   23.2720 H   0  0  0  0  0  0
  -22.3664  -11.8876   22.5534 H   0  0  0  0  0  0
  -20.9638  -12.8937   22.3338 H   0  0  0  0  0  0
  -23.7991  -15.8619   20.9923 H   0  0  0  0  0  0
  -25.4258  -16.1569   20.6455 H   0  0  0  0  0  0
  -26.8159  -32.4095   23.0397 H   0  0  0  0  0  0
  -24.9860  -33.8501   24.9245 H   0  0  0  0  0  0
  -23.0384  -31.0870   21.1805 H   0  0  0  0  0  0
  -23.3794  -35.9143   23.3211 H   0  0  0  0  0  0
  -24.3526  -36.8723   22.2133 H   0  0  0  0  0  0
  -23.7240  -37.5939   23.6952 H   0  0  0  0  0  0
  -26.5887  -30.6292   20.6857 H   0  0  0  0  0  0
  -27.0521  -30.0168   22.2007 H   0  0  0  0  0  0
  -28.1059  -27.2311   21.3703 H   0  0  0  0  0  0
  -25.5090  -25.1332   18.7977 H   0  0  0  0  0  0
  -24.0928  -26.9889   18.7742 H   0  0  0  0  0  0
  -24.2046  -30.1402   19.3481 H   0  0  0  0  0  0
  -23.0010  -28.9728   19.7706 H   0  0  0  0  0  0
  -25.1455  -36.1089   25.0690 H   0  0  0  0  0  0
  -21.0093  -28.3523   24.1131 H   0  0  0  0  0  0
  -20.5519  -26.2483   23.3782 H   0  0  0  0  0  0
  -21.6632  -26.7167   22.1336 H   0  0  0  0  0  0
  -19.6912  -25.6189   21.1355 H   0  0  0  0  0  0
  -19.6774  -27.3052   20.6699 H   0  0  0  0  0  0
  -17.4243  -26.6742   21.3982 H   0  0  0  0  0  0
  -18.0300  -26.0157   22.9019 H   0  0  0  0  0  0
  -19.8051  -30.7418   24.2020 H   0  0  0  0  0  0
  -17.5102  -31.6283   24.5170 H   0  0  0  0  0  0
  -15.5428  -30.2944   23.7795 H   0  0  0  0  0  0
  -15.8760  -28.0793   22.7176 H   0  0  0  0  0  0
  -24.5842  -30.7214   25.7288 H   0  0  0  0  0  0
  -24.8694  -32.3237   26.3935 H   0  0  0  0  0  0
  -25.7515  -30.9410   27.0148 H   0  0  0  0  0  0
  -26.3692  -29.5796   24.2712 H   0  0  0  0  0  0
  -27.4379  -29.7599   25.6295 H   0  0  0  0  0  0
  -27.9646  -30.3556   24.0836 H   0  0  0  0  0  0
  -27.2425  -33.3983   26.1413 H   0  0  0  0  0  0
  -28.4122  -32.6693   25.0513 H   0  0  0  0  0  0
  -28.0359  -31.9048   26.5878 H   0  0  0  0  0  0
  -28.2449  -37.9942   24.7480 H   0  0  0  0  0  0
  -28.1098  -36.2440   24.6346 H   0  0  0  0  0  0
  -27.2225  -37.1241   25.8872 H   0  0  0  0  0  0
  -21.0264  -29.8348   21.5967 H   0  0  0  0  0  0
  -25.9944  -38.2372   24.1409 H   0  0  0  0  0  0
  -33.8301  -17.0249   22.5339 H   0  0  0  0  0  0
  -28.5724  -12.4441   19.1023 H   0  0  0  0  0  0
  -28.2847  -12.7517   20.6712 H   0  0  0  0  0  0
  -29.7011  -12.6909   20.2183 H   0  0  0  0  0  0
  -31.7959  -19.6106   18.5805 H   0  0  0  0  0  0
  -30.2480  -19.8740   19.2428 H   0  0  0  0  0  0
  -29.1682  -21.4741   20.2575 H   0  0  0  0  0  0
  -27.7564  -21.3783   21.2215 H   0  0  0  0  0  0
  -28.0087  -16.4544   18.5403 H   0  0  0  0  0  0
  -30.3861  -15.6739   22.6992 H   0  0  0  0  0  0
  -29.9088  -16.1564   17.7257 H   0  0  0  0  0  0
  1 25  1  0  0  0
  1 30  2  0  0  0
  1 81  1  0  0  0
  2  3  1  0  0  0
  2 25  1  0  0  0
  2 86  1  0  0  0
  2 87  1  0  0  0
  3  4  1  0  0  0
  3 88  1  0  0  0
  3 89  1  0  0  0
  4  5  1  0  0  0
  4 90  1  0  0  0
  4 91  1  0  0  0
  5  6  1  0  0  0
  5 26  1  0  0  0
  5 92  1  0  0  0
  6 25  1  0  0  0
  6 93  1  0  0  0
  6 94  1  0  0  0
  7  8  2  0  0  0
  7 26  1  0  0  0
  7 29  1  0  0  0
  8  9  1  0  0  0
  8 22  1  0  0  0
  9 10  1  0  0  0
  9 27  2  0  0  0
 10 11  2  0  0  0
 10 15  1  0  0  0
 11 12  1  0  0  0
 11 95  1  0  0  0
 12 13  2  0  0  0
 12 96  1  0  0  0
 13 14  1  0  0  0
 13 31  1  0  0  0
 14 15  2  0  0  0
 14 97  1  0  0  0
 15 98  1  0  0  0
 16 17  2  0  0  0
 16 21  1  0  0  0
 16 31  1  0  0  0
 17 18  1  0  0  0
 17 99  1  0  0  0
 18 19  2  0  0  0
 18100  1  0  0  0
 19 20  1  0  0  0
 19 24  1  0  0  0
 20 21  2  0  0  0
 20101  1  0  0  0
 21 23  1  0  0  0
 22 28  1  0  0  0
 22 32  2  0  0  0
 26 27  1  0  0  0
 28102  1  0  0  0
 28103  1  0  0  0
 29104  1  0  0  0
 29105  1  0  0  0
 33 34  1  0  0  0
 33 66  1  0  0  0
 33 70  2  0  0  0
 34 36  1  0  0  0
 34 59  1  0  0  0
 34106  1  0  0  0
 35 44  2  0  0  0
 35 45  1  0  0  0
 35 68  1  0  0  0
 36 56  1  0  0  0
 36107  1  0  0  0
 37 39  1  0  0  0
 37 47  1  0  0  0
 37 66  1  0  0  0
 37108  1  0  0  0
 38 43  2  0  0  0
 38 46  1  0  0  0
 38 47  1  0  0  0
 39 64  1  0  0  0
 39 67  2  0  0  0
 40 52  1  0  0  0
 40 53  2  0  0  0
 40 58  1  0  0  0
 41109  1  0  0  0
 41110  1  0  0  0
 41111  1  0  0  0
 41 48  1  0  0  0
 42 43  1  0  0  0
 42 66  1  0  0  0
 42112  1  0  0  0
 42113  1  0  0  0
 43 44  1  0  0  0
 44114  1  0  0  0
 45 46  2  0  0  0
 45115  1  0  0  0
 46116  1  0  0  0
 47117  1  0  0  0
 47118  1  0  0  0
 48 56  1  0  0  0
 48 65  1  0  0  0
 48119  1  0  0  0
 49 50  1  0  0  0
 49 53  1  0  0  0
 49 64  1  0  0  0
 49120  1  0  0  0
 50 51  1  0  0  0
 50121  1  0  0  0
 50122  1  0  0  0
 51 52  1  0  0  0
 51123  1  0  0  0
 51124  1  0  0  0
 52125  1  0  0  0
 52126  1  0  0  0
 53 54  1  0  0  0
 54 55  2  0  0  0
 54127  1  0  0  0
 55 57  1  0  0  0
 55128  1  0  0  0
 56 69  2  0  0  0
 57 58  2  0  0  0
 57129  1  0  0  0
 58130  1  0  0  0
 59 60  1  0  0  0
 59 61  1  0  0  0
 59 62  1  0  0  0
 60131  1  0  0  0
 60132  1  0  0  0
 60133  1  0  0  0
 61134  1  0  0  0
 61135  1  0  0  0
 61136  1  0  0  0
 62137  1  0  0  0
 62138  1  0  0  0
 62139  1  0  0  0
 63 65  1  0  0  0
 63140  1  0  0  0
 63141  1  0  0  0
 63142  1  0  0  0
 64143  1  0  0  0
 65144  1  0  0  0
 68 78  1  0  0  0
 71 72  2  0  0  0
 71 85  1  0  0  0
 71145  1  0  0  0
 72 80  1  0  0  0
 72 81  1  0  0  0
 73 77  1  0  0  0
 73 80  2  0  0  0
 73 85  1  0  0  0
 74 78  1  0  0  0
 74 79  1  0  0  0
 74 83  2  0  0  0
 75 77  1  0  0  0
 75 82  1  0  0  0
 75 84  2  0  0  0
 76146  1  0  0  0
 76147  1  0  0  0
 76148  1  0  0  0
 76 79  1  0  0  0
 77149  1  0  0  0
 77150  1  0  0  0
 78151  1  0  0  0
 78152  1  0  0  0
 79 82  1  0  0  0
 79153  1  0  0  0
 81154  1  0  0  0
 82155  1  0  0  0
M  ISO  4   1 100  68 101  78 101  81 100
M  END
> <chiral flag>
0

> <version>
0

> <s_m_source_file>
/data/baiqing/PycharmProjects/Reinvent-master-3.2/result/LINK_invent/BTK/process_docking_weight1_custom_product_contain_oxygen_bond_distance_aromatic_linkinvent_7_9_3/rearranged_h_0176.sdf

> <i_m_source_file_index>
82

> <r_mmod_Potential_Energy-OPLS-2005>
16804.166015625

> <r_mmod_Stretch_Energy-OPLS-2005>
9123.4150390625

> <r_mmod_Bend_Energy-OPLS-2005>
1777.32263183594

> <r_mmod_Torsional_Energy-OPLS-2005>
403.678314208984

> <r_mmod_Improper_Torsional_Energy-OPLS-2005>
28.5413246154785

> <r_mmod_Van_der_Waal_Energy-OPLS-2005>
1605.20825195312

> <r_mmod_Electrostatic_Energy-OPLS-2005>
-403.853820800781

> <r_mmod_Solvation_Energy-OPLS-2005>
-240.917816162109

> <b_mmod_Minimization_Converged-OPLS-2005>
0

> <r_mmod_RMS_Derivative-OPLS-2005>
1.9226758480072

$$$$
82
                    3D
 Structure written by MMmdl.
154162  0  0  1  0            999 V2000
  -30.6623  -14.5198   20.6223 C   0  0  0  0  0  0
  -30.4433  -12.3540   19.4170 C   0  0  0  0  0  0
  -29.5023  -12.5402   18.2070 C   0  0  0  0  0  0
  -28.0270  -12.3755   18.6198 C   0  0  0  0  0  0
  -27.6694  -13.2020   19.8826 C   0  0  2  0  0  0
  -28.7099  -12.9593   20.9991 C   0  0  0  0  0  0
  -25.2622  -13.8142   20.5664 C   0  0  0  0  0  0
  -24.1862  -13.0424   20.9146 C   0  0  0  0  0  0
  -24.6407  -11.6884   20.8711 C   0  0  0  0  0  0
  -23.9048  -10.4283   21.0393 C   0  0  0  0  0  0
  -24.3599   -9.4200   21.9176 C   0  0  0  0  0  0
  -23.6279   -8.2247   22.0766 C   0  0  0  0  0  0
  -22.4261   -8.0278   21.3545 C   0  0  0  0  0  0
  -21.9885   -9.0250   20.4663 C   0  0  0  0  0  0
  -22.7211  -10.2119   20.3052 C   0  0  0  0  0  0
  -21.6861   -6.0730   22.5273 C   0  0  0  0  0  0
  -21.4020   -6.5632   23.8205 C   0  0  0  0  0  0
  -21.3662   -5.6784   24.9167 C   0  0  0  0  0  0
  -21.6042   -4.3044   24.7217 C   0  0  0  0  0  0
  -21.8816   -3.8139   23.4339 C   0  0  0  0  0  0
  -21.9210   -4.6957   22.3396 C   0  0  0  0  0  0
  -22.7892  -13.5238   21.1800 C   0  0  0  0  0  0
  -22.1680   -4.2149   21.0980 F   0  0  0  0  0  0
  -21.5615   -3.4530   25.7727 F   0  0  0  0  0  0
  -30.0435  -13.3090   20.4686 N   0  0  0  0  0  0
  -26.3067  -12.9300   20.3380 N   0  0  0  0  0  0
  -25.9331  -11.6457   20.5721 N   0  0  0  0  0  0
  -22.0528  -12.8270   22.0386 N   0  0  0  0  0  0
  -25.4341  -15.1860   20.4070 N   0  0  0  0  0  0
  -31.7080  -14.8138   20.0330 O   0  0  0  0  0  0
  -21.6637   -6.8864   21.4230 O   0  0  0  0  0  0
  -22.3571  -14.5546   20.6659 O   0  0  0  0  0  0
  -24.6187  -31.8649   23.2047 C   0  0  0  0  0  0
  -25.9051  -32.4810   23.8360 C   0  0  1  0  0  0
  -27.2368  -27.3917   20.0870 C   0  0  0  0  0  0
  -25.5885  -33.8611   24.2292 N   0  0  0  0  0  0
  -23.4058  -30.4868   21.5496 C   0  0  2  0  0  0
  -24.8499  -28.9445   20.1144 C   0  0  0  0  0  0
  -22.7416  -29.4639   22.4993 C   0  0  0  0  0  0
  -18.0270  -28.1377   22.8493 C   0  0  0  0  0  0
  -24.1476  -36.7321   23.2639 C   0  0  0  0  0  0
  -25.9361  -30.8196   21.3555 C   0  0  0  0  0  0
  -26.0130  -29.4474   20.7075 C   0  0  0  0  0  0
  -27.2039  -28.6784   20.6894 C   0  0  0  0  0  0
  -26.0429  -26.9087   19.5006 C   0  0  0  0  0  0
  -24.8623  -27.6763   19.5107 C   0  0  0  0  0  0
  -23.6131  -29.8157   20.1658 C   0  0  0  0  0  0
  -25.4095  -36.3114   24.0342 C   0  0  1  0  0  0
  -20.5864  -28.3664   23.1331 C   0  0  2  0  0  0
  -20.6756  -26.9398   22.5432 C   0  0  0  0  0  0
  -19.5740  -26.6382   21.5216 C   0  0  0  0  0  0
  -18.1915  -26.7922   22.1622 C   0  0  0  0  0  0
  -19.1519  -28.8839   23.2907 C   0  0  0  0  0  0
  -18.9453  -30.1443   23.8919 C   0  0  0  0  0  0
  -17.6453  -30.6593   24.0566 C   0  0  0  0  0  0
  -25.9031  -34.9482   23.5123 C   0  0  0  0  0  0
  -16.5344  -29.9094   23.6320 C   0  0  0  0  0  0
  -16.7255  -28.6509   23.0348 C   0  0  0  0  0  0
  -26.4471  -31.6597   25.0702 C   0  0  0  0  0  0
  -25.3728  -31.3720   26.1453 C   0  0  0  0  0  0
  -27.0271  -30.3038   24.6046 C   0  0  0  0  0  0
  -27.6062  -32.4301   25.7456 C   0  0  0  0  0  0
  -27.5583  -37.1798   24.8457 C   0  0  0  0  0  0
  -21.4141  -29.3027   22.3731 N   0  0  0  0  0  0
  -26.4276  -37.3806   23.9430 N   0  0  0  0  0  0
  -24.6730  -31.0722   22.0962 N   0  0  0  0  0  0
  -23.4179  -28.8182   23.3047 O   0  0  0  0  0  0
  -28.4245  -26.6673   20.1095 O   0  0  0  0  0  0
  -26.5609  -34.8944   22.4691 O   0  0  0  0  0  0
  -23.5378  -32.1410   23.7430 O   0  0  0  0  0  0
  -29.9955  -17.8102   20.7576 C   0  0  0  0  0  0
  -29.5120  -16.6480   21.4442 C   0  0  0  0  0  0
  -28.3406  -16.7973   22.2135 C   0  0  0  0  0  0
  -29.2899  -19.0499   20.9007 C   0  0  0  0  0  0
  -27.6932  -18.0443   22.2520 C   0  0  0  0  0  0
  -29.0505  -22.7495   19.8856 C   0  0  0  0  0  0
  -28.7188  -24.1857   20.4545 C   0  0  0  0  0  0
  -29.2829  -21.5808   20.8835 C   0  0  0  0  0  0
  -28.5595  -25.3690   19.4581 C   0  0  0  0  0  0
  -28.1549  -19.1366   21.6261 N   0  0  0  0  0  0
  -26.5169  -18.2202   22.9682 N   0  0  0  0  0  0
  -30.0888  -15.3289   21.5379 N   0  0  0  0  0  0
  -29.7056  -20.2673   20.3097 N   0  0  0  0  0  0
  -29.1159  -22.5513   18.6661 O   0  0  0  0  0  0
  -28.5921  -24.3651   21.6733 O   0  0  0  0  0  0
  -27.8479  -15.7455   22.9153 F   0  0  0  0  0  0
  -31.4823  -12.4925   19.1133 H   0  0  0  0  0  0
  -30.3784  -11.3330   19.7946 H   0  0  0  0  0  0
  -29.7531  -11.8291   17.4180 H   0  0  0  0  0  0
  -29.6517  -13.5336   17.7791 H   0  0  0  0  0  0
  -27.8493  -11.3170   18.8089 H   0  0  0  0  0  0
  -27.3747  -12.6512   17.7906 H   0  0  0  0  0  0
  -27.7193  -14.2530   19.6002 H   0  0  0  0  0  0
  -28.7032  -11.9103   21.3007 H   0  0  0  0  0  0
  -28.4367  -13.5074   21.8998 H   0  0  0  0  0  0
  -25.2739   -9.5685   22.4744 H   0  0  0  0  0  0
  -23.9994   -7.4647   22.7484 H   0  0  0  0  0  0
  -21.0810   -8.8755   19.8973 H   0  0  0  0  0  0
  -22.3662  -10.9651   19.6162 H   0  0  0  0  0  0
  -21.2007   -7.6135   23.9694 H   0  0  0  0  0  0
  -21.1492   -6.0527   25.9072 H   0  0  0  0  0  0
  -22.0600   -2.7601   23.2844 H   0  0  0  0  0  0
  -22.4125  -11.9915   22.4784 H   0  0  0  0  0  0
  -21.1155  -13.1334   22.2586 H   0  0  0  0  0  0
  -24.6725  -15.8426   20.5345 H   0  0  0  0  0  0
  -26.2959  -15.6267   20.1172 H   0  0  0  0  0  0
  -26.7121  -32.5516   23.1123 H   0  0  0  0  0  0
  -24.9985  -33.9747   25.0406 H   0  0  0  0  0  0
  -22.6949  -31.3041   21.4105 H   0  0  0  0  0  0
  -23.3741  -35.9652   23.3291 H   0  0  0  0  0  0
  -24.3579  -36.8950   22.2059 H   0  0  0  0  0  0
  -23.7221  -37.6520   23.6660 H   0  0  0  0  0  0
  -26.0331  -31.5767   20.5764 H   0  0  0  0  0  0
  -26.8312  -30.8912   21.9610 H   0  0  0  0  0  0
  -28.1034  -29.0690   21.1437 H   0  0  0  0  0  0
  -25.9781  -25.9360   19.0400 H   0  0  0  0  0  0
  -23.9634  -27.2787   19.0594 H   0  0  0  0  0  0
  -23.7197  -30.5888   19.4046 H   0  0  0  0  0  0
  -22.7342  -29.2386   19.8718 H   0  0  0  0  0  0
  -25.1263  -36.1976   25.0834 H   0  0  0  0  0  0
  -20.9942  -28.3238   24.1458 H   0  0  0  0  0  0
  -20.5646  -26.2274   23.3620 H   0  0  0  0  0  0
  -21.6634  -26.7436   22.1244 H   0  0  0  0  0  0
  -19.6901  -25.6297   21.1240 H   0  0  0  0  0  0
  -19.6680  -27.3197   20.6751 H   0  0  0  0  0  0
  -17.4184  -26.6678   21.4023 H   0  0  0  0  0  0
  -18.0312  -26.0068   22.9022 H   0  0  0  0  0  0
  -19.7929  -30.7246   24.2307 H   0  0  0  0  0  0
  -17.5016  -31.6272   24.5162 H   0  0  0  0  0  0
  -15.5351  -30.3006   23.7631 H   0  0  0  0  0  0
  -15.8658  -28.0832   22.7058 H   0  0  0  0  0  0
  -24.5898  -30.7063   25.7800 H   0  0  0  0  0  0
  -24.8918  -32.2885   26.4890 H   0  0  0  0  0  0
  -25.8084  -30.8902   27.0215 H   0  0  0  0  0  0
  -26.2785  -29.6821   24.1117 H   0  0  0  0  0  0
  -27.4072  -29.7257   25.4477 H   0  0  0  0  0  0
  -27.8614  -30.4363   23.9149 H   0  0  0  0  0  0
  -27.2708  -33.3609   26.2043 H   0  0  0  0  0  0
  -28.3868  -32.6839   25.0270 H   0  0  0  0  0  0
  -28.0725  -31.8404   26.5359 H   0  0  0  0  0  0
  -28.2587  -38.0110   24.7548 H   0  0  0  0  0  0
  -28.1088  -36.2652   24.6204 H   0  0  0  0  0  0
  -27.2326  -37.1375   25.8864 H   0  0  0  0  0  0
  -20.9299  -29.8752   21.6954 H   0  0  0  0  0  0
  -26.0166  -38.2880   24.1463 H   0  0  0  0  0  0
  -30.8993  -17.7547   20.1673 H   0  0  0  0  0  0
  -28.3611  -21.4916   21.4562 H   0  0  0  0  0  0
  -30.0379  -21.9094   21.5985 H   0  0  0  0  0  0
  -27.7720  -25.1447   18.7458 H   0  0  0  0  0  0
  -29.4722  -25.4087   18.8629 H   0  0  0  0  0  0
  -26.0111  -17.3709   23.1875 H   0  0  0  0  0  0
  -25.9260  -18.9928   22.6917 H   0  0  0  0  0  0
  -29.5324  -14.7719   22.1692 H   0  0  0  0  0  0
  -30.5451  -20.2767   19.7385 H   0  0  0  0  0  0
  1 25  1  0  0  0
  1 30  2  0  0  0
  1 82  1  0  0  0
  2  3  1  0  0  0
  2 25  1  0  0  0
  2 87  1  0  0  0
  2 88  1  0  0  0
  3  4  1  0  0  0
  3 89  1  0  0  0
  3 90  1  0  0  0
  4  5  1  0  0  0
  4 91  1  0  0  0
  4 92  1  0  0  0
  5  6  1  0  0  0
  5 26  1  0  0  0
  5 93  1  0  0  0
  6 25  1  0  0  0
  6 94  1  0  0  0
  6 95  1  0  0  0
  7  8  2  0  0  0
  7 26  1  0  0  0
  7 29  1  0  0  0
  8  9  1  0  0  0
  8 22  1  0  0  0
  9 10  1  0  0  0
  9 27  2  0  0  0
 10 11  2  0  0  0
 10 15  1  0  0  0
 11 12  1  0  0  0
 11 96  1  0  0  0
 12 13  2  0  0  0
 12 97  1  0  0  0
 13 14  1  0  0  0
 13 31  1  0  0  0
 14 15  2  0  0  0
 14 98  1  0  0  0
 15 99  1  0  0  0
 16 17  2  0  0  0
 16 21  1  0  0  0
 16 31  1  0  0  0
 17 18  1  0  0  0
 17100  1  0  0  0
 18 19  2  0  0  0
 18101  1  0  0  0
 19 20  1  0  0  0
 19 24  1  0  0  0
 20 21  2  0  0  0
 20102  1  0  0  0
 21 23  1  0  0  0
 22 28  1  0  0  0
 22 32  2  0  0  0
 26 27  1  0  0  0
 28103  1  0  0  0
 28104  1  0  0  0
 29105  1  0  0  0
 29106  1  0  0  0
 33 34  1  0  0  0
 33 66  1  0  0  0
 33 70  2  0  0  0
 34 36  1  0  0  0
 34 59  1  0  0  0
 34107  1  0  0  0
 35 44  2  0  0  0
 35 45  1  0  0  0
 35 68  1  0  0  0
 36 56  1  0  0  0
 36108  1  0  0  0
 37 39  1  0  0  0
 37 47  1  0  0  0
 37 66  1  0  0  0
 37109  1  0  0  0
 38 43  2  0  0  0
 38 46  1  0  0  0
 38 47  1  0  0  0
 39 64  1  0  0  0
 39 67  2  0  0  0
 40 52  1  0  0  0
 40 53  2  0  0  0
 40 58  1  0  0  0
 41110  1  0  0  0
 41111  1  0  0  0
 41112  1  0  0  0
 41 48  1  0  0  0
 42 43  1  0  0  0
 42 66  1  0  0  0
 42113  1  0  0  0
 42114  1  0  0  0
 43 44  1  0  0  0
 44115  1  0  0  0
 45 46  2  0  0  0
 45116  1  0  0  0
 46117  1  0  0  0
 47118  1  0  0  0
 47119  1  0  0  0
 48 56  1  0  0  0
 48 65  1  0  0  0
 48120  1  0  0  0
 49 50  1  0  0  0
 49 53  1  0  0  0
 49 64  1  0  0  0
 49121  1  0  0  0
 50 51  1  0  0  0
 50122  1  0  0  0
 50123  1  0  0  0
 51 52  1  0  0  0
 51124  1  0  0  0
 51125  1  0  0  0
 52126  1  0  0  0
 52127  1  0  0  0
 53 54  1  0  0  0
 54 55  2  0  0  0
 54128  1  0  0  0
 55 57  1  0  0  0
 55129  1  0  0  0
 56 69  2  0  0  0
 57 58  2  0  0  0
 57130  1  0  0  0
 58131  1  0  0  0
 59 60  1  0  0  0
 59 61  1  0  0  0
 59 62  1  0  0  0
 60132  1  0  0  0
 60133  1  0  0  0
 60134  1  0  0  0
 61135  1  0  0  0
 61136  1  0  0  0
 61137  1  0  0  0
 62138  1  0  0  0
 62139  1  0  0  0
 62140  1  0  0  0
 63 65  1  0  0  0
 63141  1  0  0  0
 63142  1  0  0  0
 63143  1  0  0  0
 64144  1  0  0  0
 65145  1  0  0  0
 68 79  1  0  0  0
 71 72  2  0  0  0
 71 74  1  0  0  0
 71146  1  0  0  0
 72 73  1  0  0  0
 72 82  1  0  0  0
 73 75  2  0  0  0
 73 86  1  0  0  0
 74 80  2  0  0  0
 74 83  1  0  0  0
 75 80  1  0  0  0
 75 81  1  0  0  0
 76 77  1  0  0  0
 76 78  1  0  0  0
 76 84  2  0  0  0
 77 79  1  0  0  0
 77 85  2  0  0  0
 78 83  1  0  0  0
 78147  1  0  0  0
 78148  1  0  0  0
 79149  1  0  0  0
 79150  1  0  0  0
 81151  1  0  0  0
 81152  1  0  0  0
 82153  1  0  0  0
 83154  1  0  0  0
M  ISO  4   1 100  68 101  79 101  82 100
M  END
> <chiral flag>
0

> <version>
0

> <s_m_source_file>
/data/baiqing/PycharmProjects/Reinvent-master-3.2/result/LINK_invent/BTK/process_docking_weight1_custom_product_contain_oxygen_bond_distance_aromatic_linkinvent_7_9_3/rearranged_h_0176.sdf

> <i_m_source_file_index>
83

> <r_mmod_Potential_Energy-OPLS-2005>
-178.833877563477

> <r_mmod_Stretch_Energy-OPLS-2005>
55.7031745910645

> <r_mmod_Bend_Energy-OPLS-2005>
149.42057800293

> <r_mmod_Torsional_Energy-OPLS-2005>
215.725982666016

> <r_mmod_Improper_Torsional_Energy-OPLS-2005>
10.9823637008667

> <r_mmod_Van_der_Waal_Energy-OPLS-2005>
148.649688720703

> <r_mmod_Electrostatic_Energy-OPLS-2005>
-521.436950683594

> <r_mmod_Solvation_Energy-OPLS-2005>
-257.792541503906

> <b_mmod_Minimization_Converged-OPLS-2005>
0

> <r_mmod_RMS_Derivative-OPLS-2005>
2.55563187599182

$$$$
83
                    3D
 Structure written by MMmdl.
160168  0  0  1  0            999 V2000
  -30.6786  -14.5298   20.5374 C   0  0  0  0  0  0
  -30.4146  -12.3290   19.4383 C   0  0  0  0  0  0
  -29.4990  -12.5234   18.2105 C   0  0  0  0  0  0
  -28.0191  -12.3736   18.6156 C   0  0  0  0  0  0
  -27.6577  -13.2171   19.8672 C   0  0  2  0  0  0
  -28.6955  -13.0289   20.9958 C   0  0  0  0  0  0
  -25.2595  -13.8184   20.5648 C   0  0  0  0  0  0
  -24.1850  -13.0449   20.9169 C   0  0  0  0  0  0
  -24.6428  -11.6922   20.8765 C   0  0  0  0  0  0
  -23.9112  -10.4288   21.0408 C   0  0  0  0  0  0
  -24.3665   -9.4202   21.9187 C   0  0  0  0  0  0
  -23.6325   -8.2235   22.0765 C   0  0  0  0  0  0
  -22.4291   -8.0286   21.3556 C   0  0  0  0  0  0
  -21.9949   -9.0258   20.4627 C   0  0  0  0  0  0
  -22.7287  -10.2125   20.3046 C   0  0  0  0  0  0
  -21.6861   -6.0764   22.5290 C   0  0  0  0  0  0
  -21.4000   -6.5668   23.8223 C   0  0  0  0  0  0
  -21.3648   -5.6819   24.9185 C   0  0  0  0  0  0
  -21.6026   -4.3079   24.7227 C   0  0  0  0  0  0
  -21.8811   -3.8168   23.4350 C   0  0  0  0  0  0
  -21.9189   -4.6997   22.3416 C   0  0  0  0  0  0
  -22.7855  -13.5245   21.1846 C   0  0  0  0  0  0
  -22.1657   -4.2200   21.0985 F   0  0  0  0  0  0
  -21.5631   -3.4549   25.7733 F   0  0  0  0  0  0
  -30.0264  -13.3316   20.4467 N   0  0  0  0  0  0
  -26.3023  -12.9371   20.3319 N   0  0  0  0  0  0
  -25.9359  -11.6537   20.5780 N   0  0  0  0  0  0
  -22.0498  -12.8227   22.0385 N   0  0  0  0  0  0
  -25.4315  -15.1895   20.4018 N   0  0  0  0  0  0
  -31.8193  -14.6766   20.0902 O   0  0  0  0  0  0
  -21.6649   -6.8879   21.4241 O   0  0  0  0  0  0
  -22.3550  -14.5568   20.6716 O   0  0  0  0  0  0
  -24.6183  -31.8638   23.2056 C   0  0  0  0  0  0
  -25.9063  -32.4797   23.8396 C   0  0  1  0  0  0
  -27.2330  -27.4108   20.1226 C   0  0  0  0  0  0
  -25.5905  -33.8594   24.2330 N   0  0  0  0  0  0
  -23.4090  -30.4860   21.5442 C   0  0  2  0  0  0
  -24.8585  -28.9495   20.1079 C   0  0  0  0  0  0
  -22.7449  -29.4647   22.4968 C   0  0  0  0  0  0
  -18.0258  -28.1367   22.8471 C   0  0  0  0  0  0
  -24.1482  -36.7293   23.2668 C   0  0  0  0  0  0
  -25.9382  -30.8267   21.3599 C   0  0  0  0  0  0
  -26.0174  -29.4592   20.7081 C   0  0  0  0  0  0
  -27.2104  -28.6962   20.7137 C   0  0  0  0  0  0
  -26.0635  -26.9197   19.5077 C   0  0  0  0  0  0
  -24.8799  -27.6834   19.4964 C   0  0  0  0  0  0
  -23.6184  -29.8160   20.1581 C   0  0  0  0  0  0
  -25.4106  -36.3097   24.0351 C   0  0  1  0  0  0
  -20.5864  -28.3655   23.1299 C   0  0  2  0  0  0
  -20.6746  -26.9386   22.5401 C   0  0  0  0  0  0
  -19.5735  -26.6358   21.5211 C   0  0  0  0  0  0
  -18.1896  -26.7921   22.1574 C   0  0  0  0  0  0
  -19.1515  -28.8824   23.2880 C   0  0  0  0  0  0
  -18.9434  -30.1436   23.8880 C   0  0  0  0  0  0
  -17.6436  -30.6574   24.0570 C   0  0  0  0  0  0
  -25.9034  -34.9470   23.5145 C   0  0  0  0  0  0
  -16.5336  -29.9062   23.6344 C   0  0  0  0  0  0
  -16.7248  -28.6492   23.0341 C   0  0  0  0  0  0
  -26.4476  -31.6582   25.0730 C   0  0  0  0  0  0
  -25.3740  -31.3654   26.1484 C   0  0  0  0  0  0
  -27.0328  -30.3020   24.6122 C   0  0  0  0  0  0
  -27.6047  -32.4310   25.7489 C   0  0  0  0  0  0
  -27.5569  -37.1813   24.8480 C   0  0  0  0  0  0
  -21.4167  -29.3023   22.3716 N   0  0  0  0  0  0
  -26.4282  -37.3788   23.9433 N   0  0  0  0  0  0
  -24.6737  -31.0738   22.0952 N   0  0  0  0  0  0
  -23.4218  -28.8204   23.3032 O   0  0  0  0  0  0
  -28.3643  -26.6214   20.1487 O   0  0  0  0  0  0
  -26.5578  -34.8928   22.4694 O   0  0  0  0  0  0
  -23.5367  -32.1381   23.7434 O   0  0  0  0  0  0
  -30.1803  -19.4779   20.9758 C   0  0  0  0  0  0
  -30.8674  -18.9366   19.9055 C   0  0  0  0  0  0
  -30.1536  -16.9780   20.8774 C   0  0  0  0  0  0
  -30.0444  -20.8633   21.5335 C   0  0  0  0  0  0
  -28.5544  -24.1479   20.6323 C   0  0  0  0  0  0
  -26.0463  -21.8257   24.4665 C   0  0  0  0  0  0
  -28.3339  -25.5913   21.1733 C   0  0  0  0  0  0
  -27.3261  -22.7851   22.4631 C   0  0  0  0  0  0
  -28.6550  -22.9771   21.6744 C   0  0  1  0  0  0
  -27.3962  -21.9052   23.7345 C   0  0  0  0  0  0
  -30.8293  -17.5328   19.8549 N   0  0  0  0  0  0
  -31.5989  -19.6218   18.9224 N   0  0  0  0  0  0
  -29.9622  -15.5611   21.0461 N   0  0  0  0  0  0
  -29.0731  -21.6800   21.0666 N   0  0  0  0  0  0
  -30.8152  -21.2214   22.4259 O   0  0  0  0  0  0
  -28.6305  -23.9529   19.4128 O   0  0  0  0  0  0
  -27.7317  -20.6553   23.4306 F   0  0  0  0  0  0
  -28.3046  -22.4037   24.5743 F   0  0  0  0  0  0
  -29.4482  -18.1976   21.9419 S   0  0  0  0  0  0
  -31.4651  -12.4058   19.1522 H   0  0  0  0  0  0
  -30.2942  -11.3192   19.8400 H   0  0  0  0  0  0
  -29.7524  -11.8045   17.4295 H   0  0  0  0  0  0
  -29.6639  -13.5137   17.7816 H   0  0  0  0  0  0
  -27.8346  -11.3152   18.8133 H   0  0  0  0  0  0
  -27.3661  -12.6419   17.7830 H   0  0  0  0  0  0
  -27.6894  -14.2619   19.5600 H   0  0  0  0  0  0
  -28.6694  -12.0048   21.3713 H   0  0  0  0  0  0
  -28.4492  -13.6579   21.8504 H   0  0  0  0  0  0
  -25.2795   -9.5689   22.4802 H   0  0  0  0  0  0
  -24.0027   -7.4638   22.7505 H   0  0  0  0  0  0
  -21.0879   -8.8778   19.8933 H   0  0  0  0  0  0
  -22.3765  -10.9684   19.6169 H   0  0  0  0  0  0
  -21.1988   -7.6188   23.9754 H   0  0  0  0  0  0
  -21.1472   -6.0536   25.9088 H   0  0  0  0  0  0
  -22.0606   -2.7639   23.2825 H   0  0  0  0  0  0
  -22.4058  -11.9821   22.4693 H   0  0  0  0  0  0
  -21.1113  -13.1232   22.2618 H   0  0  0  0  0  0
  -24.6593  -15.8406   20.4824 H   0  0  0  0  0  0
  -26.2774  -15.6226   20.0561 H   0  0  0  0  0  0
  -26.7169  -32.5484   23.1188 H   0  0  0  0  0  0
  -25.0113  -33.9757   25.0523 H   0  0  0  0  0  0
  -22.6993  -31.3025   21.4000 H   0  0  0  0  0  0
  -23.3751  -35.9614   23.3272 H   0  0  0  0  0  0
  -24.3627  -36.8943   22.2095 H   0  0  0  0  0  0
  -23.7193  -37.6468   23.6703 H   0  0  0  0  0  0
  -26.0578  -31.5944   20.5950 H   0  0  0  0  0  0
  -26.8270  -30.8779   21.9772 H   0  0  0  0  0  0
  -28.1040  -29.0840   21.1847 H   0  0  0  0  0  0
  -26.0700  -25.9446   19.0401 H   0  0  0  0  0  0
  -23.9926  -27.2863   19.0240 H   0  0  0  0  0  0
  -23.7244  -30.5930   19.3994 H   0  0  0  0  0  0
  -22.7433  -29.2346   19.8564 H   0  0  0  0  0  0
  -25.1307  -36.1956   25.0852 H   0  0  0  0  0  0
  -20.9918  -28.3174   24.1426 H   0  0  0  0  0  0
  -20.5604  -26.2274   23.3602 H   0  0  0  0  0  0
  -21.6629  -26.7393   22.1187 H   0  0  0  0  0  0
  -19.6894  -25.6264   21.1225 H   0  0  0  0  0  0
  -19.6698  -27.3192   20.6765 H   0  0  0  0  0  0
  -17.4204  -26.6686   21.3959 H   0  0  0  0  0  0
  -18.0249  -26.0067   22.8939 H   0  0  0  0  0  0
  -19.7938  -30.7259   24.2209 H   0  0  0  0  0  0
  -17.5003  -31.6267   24.5174 H   0  0  0  0  0  0
  -15.5335  -30.2964   23.7722 H   0  0  0  0  0  0
  -15.8630  -28.0852   22.7037 H   0  0  0  0  0  0
  -24.5938  -30.6967   25.7840 H   0  0  0  0  0  0
  -24.8909  -32.2783   26.4992 H   0  0  0  0  0  0
  -25.8079  -30.8797   27.0231 H   0  0  0  0  0  0
  -26.2874  -29.6712   24.1248 H   0  0  0  0  0  0
  -27.4211  -29.7337   25.4588 H   0  0  0  0  0  0
  -27.8668  -30.4409   23.9236 H   0  0  0  0  0  0
  -27.2712  -33.3688   26.1983 H   0  0  0  0  0  0
  -28.3896  -32.6715   25.0296 H   0  0  0  0  0  0
  -28.0656  -31.8465   26.5464 H   0  0  0  0  0  0
  -28.2590  -38.0106   24.7484 H   0  0  0  0  0  0
  -28.1048  -36.2617   24.6333 H   0  0  0  0  0  0
  -27.2287  -37.1475   25.8889 H   0  0  0  0  0  0
  -20.9341  -29.8778   21.6952 H   0  0  0  0  0  0
  -26.0146  -38.2874   24.1380 H   0  0  0  0  0  0
  -25.2681  -21.4121   23.8240 H   0  0  0  0  0  0
  -25.7085  -22.8084   24.7946 H   0  0  0  0  0  0
  -26.1120  -21.1881   25.3511 H   0  0  0  0  0  0
  -29.0995  -25.8161   21.9167 H   0  0  0  0  0  0
  -27.3790  -25.6179   21.7003 H   0  0  0  0  0  0
  -26.5693  -22.3783   21.7916 H   0  0  0  0  0  0
  -26.9412  -23.7547   22.7782 H   0  0  0  0  0  0
  -29.4108  -23.2901   22.3971 H   0  0  0  0  0  0
  -31.8665  -20.5916   19.0634 H   0  0  0  0  0  0
  -32.2477  -19.1028   18.3371 H   0  0  0  0  0  0
  -29.1199  -15.2947   21.5307 H   0  0  0  0  0  0
  -28.4902  -21.3319   20.3204 H   0  0  0  0  0  0
  1 25  1  0  0  0
  1 30  2  0  0  0
  1 83  1  0  0  0
  2  3  1  0  0  0
  2 25  1  0  0  0
  2 90  1  0  0  0
  2 91  1  0  0  0
  3  4  1  0  0  0
  3 92  1  0  0  0
  3 93  1  0  0  0
  4  5  1  0  0  0
  4 94  1  0  0  0
  4 95  1  0  0  0
  5  6  1  0  0  0
  5 26  1  0  0  0
  5 96  1  0  0  0
  6 25  1  0  0  0
  6 97  1  0  0  0
  6 98  1  0  0  0
  7  8  2  0  0  0
  7 26  1  0  0  0
  7 29  1  0  0  0
  8  9  1  0  0  0
  8 22  1  0  0  0
  9 10  1  0  0  0
  9 27  2  0  0  0
 10 11  2  0  0  0
 10 15  1  0  0  0
 11 12  1  0  0  0
 11 99  1  0  0  0
 12 13  2  0  0  0
 12100  1  0  0  0
 13 14  1  0  0  0
 13 31  1  0  0  0
 14 15  2  0  0  0
 14101  1  0  0  0
 15102  1  0  0  0
 16 17  2  0  0  0
 16 21  1  0  0  0
 16 31  1  0  0  0
 17 18  1  0  0  0
 17103  1  0  0  0
 18 19  2  0  0  0
 18104  1  0  0  0
 19 20  1  0  0  0
 19 24  1  0  0  0
 20 21  2  0  0  0
 20105  1  0  0  0
 21 23  1  0  0  0
 22 28  1  0  0  0
 22 32  2  0  0  0
 26 27  1  0  0  0
 28106  1  0  0  0
 28107  1  0  0  0
 29108  1  0  0  0
 29109  1  0  0  0
 33 34  1  0  0  0
 33 66  1  0  0  0
 33 70  2  0  0  0
 34 36  1  0  0  0
 34 59  1  0  0  0
 34110  1  0  0  0
 35 44  2  0  0  0
 35 45  1  0  0  0
 35 68  1  0  0  0
 36 56  1  0  0  0
 36111  1  0  0  0
 37 39  1  0  0  0
 37 47  1  0  0  0
 37 66  1  0  0  0
 37112  1  0  0  0
 38 43  2  0  0  0
 38 46  1  0  0  0
 38 47  1  0  0  0
 39 64  1  0  0  0
 39 67  2  0  0  0
 40 52  1  0  0  0
 40 53  2  0  0  0
 40 58  1  0  0  0
 41113  1  0  0  0
 41114  1  0  0  0
 41115  1  0  0  0
 41 48  1  0  0  0
 42 43  1  0  0  0
 42 66  1  0  0  0
 42116  1  0  0  0
 42117  1  0  0  0
 43 44  1  0  0  0
 44118  1  0  0  0
 45 46  2  0  0  0
 45119  1  0  0  0
 46120  1  0  0  0
 47121  1  0  0  0
 47122  1  0  0  0
 48 56  1  0  0  0
 48 65  1  0  0  0
 48123  1  0  0  0
 49 50  1  0  0  0
 49 53  1  0  0  0
 49 64  1  0  0  0
 49124  1  0  0  0
 50 51  1  0  0  0
 50125  1  0  0  0
 50126  1  0  0  0
 51 52  1  0  0  0
 51127  1  0  0  0
 51128  1  0  0  0
 52129  1  0  0  0
 52130  1  0  0  0
 53 54  1  0  0  0
 54 55  2  0  0  0
 54131  1  0  0  0
 55 57  1  0  0  0
 55132  1  0  0  0
 56 69  2  0  0  0
 57 58  2  0  0  0
 57133  1  0  0  0
 58134  1  0  0  0
 59 60  1  0  0  0
 59 61  1  0  0  0
 59 62  1  0  0  0
 60135  1  0  0  0
 60136  1  0  0  0
 60137  1  0  0  0
 61138  1  0  0  0
 61139  1  0  0  0
 61140  1  0  0  0
 62141  1  0  0  0
 62142  1  0  0  0
 62143  1  0  0  0
 63 65  1  0  0  0
 63144  1  0  0  0
 63145  1  0  0  0
 63146  1  0  0  0
 64147  1  0  0  0
 65148  1  0  0  0
 68 77  1  0  0  0
 71 72  2  0  0  0
 71 74  1  0  0  0
 71 89  1  0  0  0
 72 81  1  0  0  0
 72 82  1  0  0  0
 73 81  2  0  0  0
 73 83  1  0  0  0
 73 89  1  0  0  0
 74 84  1  0  0  0
 74 85  2  0  0  0
 75 77  1  0  0  0
 75 79  1  0  0  0
 75 86  2  0  0  0
 76149  1  0  0  0
 76150  1  0  0  0
 76151  1  0  0  0
 76 80  1  0  0  0
 77152  1  0  0  0
 77153  1  0  0  0
 78 80  1  0  0  0
 78154  1  0  0  0
 78155  1  0  0  0
 78 79  1  0  0  0
 79 84  1  0  0  0
 79156  1  0  0  0
 80 87  1  0  0  0
 80 88  1  0  0  0
 82157  1  0  0  0
 82158  1  0  0  0
 83159  1  0  0  0
 84160  1  0  0  0
M  ISO  4   1 100  68 101  77 101  83 100
M  END
> <chiral flag>
0

> <version>
0

> <s_m_source_file>
/data/baiqing/PycharmProjects/Reinvent-master-3.2/result/LINK_invent/BTK/process_docking_weight1_custom_product_contain_oxygen_bond_distance_aromatic_linkinvent_7_9_3/rearranged_h_0176.sdf

> <i_m_source_file_index>
84

> <r_mmod_Potential_Energy-OPLS-2005>
-151.545608520508

> <r_mmod_Stretch_Energy-OPLS-2005>
48.5234565734863

> <r_mmod_Bend_Energy-OPLS-2005>
109.874137878418

> <r_mmod_Torsional_Energy-OPLS-2005>
285.2958984375

> <r_mmod_Improper_Torsional_Energy-OPLS-2005>
5.97550582885742

> <r_mmod_Van_der_Waal_Energy-OPLS-2005>
117.461669921875

> <r_mmod_Electrostatic_Energy-OPLS-2005>
-462.435211181641

> <r_mmod_Solvation_Energy-OPLS-2005>
-276.192535400391

> <b_mmod_Minimization_Converged-OPLS-2005>
0

> <r_mmod_RMS_Derivative-OPLS-2005>
4.92514228820801

$$$$
84
                    3D
 Structure written by MMmdl.
156164  0  0  1  0            999 V2000
  -30.6014  -14.6099   20.5006 C   0  0  0  0  0  0
  -30.4435  -12.3733   19.4368 C   0  0  0  0  0  0
  -29.5042  -12.5128   18.2152 C   0  0  0  0  0  0
  -28.0213  -12.3595   18.6209 C   0  0  0  0  0  0
  -27.6545  -13.2030   19.8702 C   0  0  2  0  0  0
  -28.7035  -12.9830   20.9824 C   0  0  0  0  0  0
  -25.2561  -13.8132   20.5676 C   0  0  0  0  0  0
  -24.1814  -13.0412   20.9159 C   0  0  0  0  0  0
  -24.6374  -11.6876   20.8721 C   0  0  0  0  0  0
  -23.9043  -10.4274   21.0394 C   0  0  0  0  0  0
  -24.3610   -9.4203   21.9171 C   0  0  0  0  0  0
  -23.6272   -8.2243   22.0767 C   0  0  0  0  0  0
  -22.4255   -8.0279   21.3550 C   0  0  0  0  0  0
  -21.9886   -9.0248   20.4649 C   0  0  0  0  0  0
  -22.7219  -10.2117   20.3045 C   0  0  0  0  0  0
  -21.6856   -6.0727   22.5279 C   0  0  0  0  0  0
  -21.4018   -6.5637   23.8200 C   0  0  0  0  0  0
  -21.3656   -5.6795   24.9166 C   0  0  0  0  0  0
  -21.6040   -4.3058   24.7231 C   0  0  0  0  0  0
  -21.8814   -3.8140   23.4356 C   0  0  0  0  0  0
  -21.9201   -4.6948   22.3405 C   0  0  0  0  0  0
  -22.7841  -13.5207   21.1829 C   0  0  0  0  0  0
  -22.1666   -4.2129   21.0982 F   0  0  0  0  0  0
  -21.5612   -3.4542   25.7746 F   0  0  0  0  0  0
  -30.0158  -13.3690   20.4400 N   0  0  0  0  0  0
  -26.2986  -12.9286   20.3360 N   0  0  0  0  0  0
  -25.9287  -11.6449   20.5730 N   0  0  0  0  0  0
  -22.0497  -12.8190   22.0396 N   0  0  0  0  0  0
  -25.4319  -15.1849   20.4118 N   0  0  0  0  0  0
  -31.7842  -14.7473   20.1681 O   0  0  0  0  0  0
  -21.6639   -6.8870   21.4239 O   0  0  0  0  0  0
  -22.3506  -14.5513   20.6689 O   0  0  0  0  0  0
  -24.6201  -31.8652   23.2055 C   0  0  0  0  0  0
  -25.9071  -32.4809   23.8374 C   0  0  1  0  0  0
  -27.2434  -27.3801   20.1150 C   0  0  0  0  0  0
  -25.5914  -33.8607   24.2311 N   0  0  0  0  0  0
  -23.4130  -30.4836   21.5462 C   0  0  2  0  0  0
  -24.8674  -28.9411   20.1165 C   0  0  0  0  0  0
  -22.7439  -29.4639   22.4968 C   0  0  0  0  0  0
  -18.0276  -28.1379   22.8483 C   0  0  0  0  0  0
  -24.1490  -36.7300   23.2636 C   0  0  0  0  0  0
  -25.9476  -30.8098   21.3731 C   0  0  0  0  0  0
  -26.0289  -29.4380   20.7244 C   0  0  0  0  0  0
  -27.2218  -28.6643   20.7264 C   0  0  0  0  0  0
  -26.0689  -26.9171   19.4927 C   0  0  0  0  0  0
  -24.8844  -27.6788   19.4981 C   0  0  0  0  0  0
  -23.6307  -29.8136   20.1628 C   0  0  0  0  0  0
  -25.4111  -36.3093   24.0334 C   0  0  1  0  0  0
  -20.5870  -28.3681   23.1299 C   0  0  2  0  0  0
  -20.6767  -26.9413   22.5412 C   0  0  0  0  0  0
  -19.5753  -26.6383   21.5201 C   0  0  0  0  0  0
  -18.1930  -26.7924   22.1615 C   0  0  0  0  0  0
  -19.1526  -28.8845   23.2883 C   0  0  0  0  0  0
  -18.9456  -30.1448   23.8900 C   0  0  0  0  0  0
  -17.6459  -30.6584   24.0562 C   0  0  0  0  0  0
  -25.9042  -34.9464   23.5114 C   0  0  0  0  0  0
  -16.5350  -29.9086   23.6326 C   0  0  0  0  0  0
  -16.7266  -28.6503   23.0348 C   0  0  0  0  0  0
  -26.4494  -31.6591   25.0710 C   0  0  0  0  0  0
  -25.3740  -31.3721   26.1441 C   0  0  0  0  0  0
  -27.0328  -30.3018   24.6124 C   0  0  0  0  0  0
  -27.6067  -32.4305   25.7484 C   0  0  0  0  0  0
  -27.5579  -37.1804   24.8466 C   0  0  0  0  0  0
  -21.4165  -29.3037   22.3701 N   0  0  0  0  0  0
  -26.4298  -37.3778   23.9401 N   0  0  0  0  0  0
  -24.6771  -31.0684   22.0996 N   0  0  0  0  0  0
  -23.4180  -28.8185   23.3033 O   0  0  0  0  0  0
  -28.3446  -26.5340   20.0826 O   0  0  0  0  0  0
  -26.5607  -34.8933   22.4679 O   0  0  0  0  0  0
  -23.5374  -32.1447   23.7398 O   0  0  0  0  0  0
  -28.6264  -18.8531   22.2275 C   0  0  0  0  0  0
  -28.2786  -20.2500   22.2649 C   0  0  0  0  0  0
  -29.6864  -18.5758   21.3816 C   0  0  0  0  0  0
  -29.0491  -21.0861   21.5011 C   0  0  0  0  0  0
  -28.8114  -26.0487   21.2875 C   0  0  0  0  0  0
  -29.1779  -24.7826   21.6574 C   0  0  0  0  0  0
  -29.1706  -23.5351   20.8462 C   0  0  0  0  0  0
  -27.9203  -17.8322   23.0797 C   0  0  0  0  0  0
  -30.4637  -17.2405   21.2108 C   0  0  0  0  0  0
  -29.7366  -15.9297   20.7033 C   0  0  2  0  0  0
  -27.2470  -20.7233   23.0872 N   0  0  0  0  0  0
  -28.9752  -22.4533   21.6446 N   0  0  0  0  0  0
  -29.3222  -23.4546   19.6269 O   0  0  0  0  0  0
  -29.6226  -24.6599   22.9207 O   0  0  0  0  0  0
  -28.7091  -15.6888   21.5069 F   0  0  0  0  0  0
  -30.1895  -20.0917   20.5861 S   0  0  0  0  0  0
  -31.4814  -12.5087   19.1292 H   0  0  0  0  0  0
  -30.3897  -11.3653   19.8484 H   0  0  0  0  0  0
  -29.7610  -11.7741   17.4552 H   0  0  0  0  0  0
  -29.6534  -13.4884   17.7502 H   0  0  0  0  0  0
  -27.8424  -11.3033   18.8264 H   0  0  0  0  0  0
  -27.3703  -12.6198   17.7852 H   0  0  0  0  0  0
  -27.6874  -14.2473   19.5642 H   0  0  0  0  0  0
  -28.7200  -11.9299   21.2679 H   0  0  0  0  0  0
  -28.4535  -13.4987   21.9072 H   0  0  0  0  0  0
  -25.2766   -9.5651   22.4722 H   0  0  0  0  0  0
  -23.9964   -7.4647   22.7504 H   0  0  0  0  0  0
  -21.0804   -8.8768   19.8987 H   0  0  0  0  0  0
  -22.3703  -10.9631   19.6124 H   0  0  0  0  0  0
  -21.2028   -7.6149   23.9692 H   0  0  0  0  0  0
  -21.1475   -6.0534   25.9061 H   0  0  0  0  0  0
  -22.0608   -2.7601   23.2862 H   0  0  0  0  0  0
  -22.4150  -11.9879   22.4804 H   0  0  0  0  0  0
  -21.1112  -13.1182   22.2615 H   0  0  0  0  0  0
  -24.6821  -15.8531   20.5521 H   0  0  0  0  0  0
  -26.3221  -15.6194   20.2030 H   0  0  0  0  0  0
  -26.7134  -32.5515   23.1128 H   0  0  0  0  0  0
  -25.0071  -33.9768   25.0461 H   0  0  0  0  0  0
  -22.7046  -31.3011   21.3996 H   0  0  0  0  0  0
  -23.3746  -35.9636   23.3321 H   0  0  0  0  0  0
  -24.3583  -36.8900   22.2044 H   0  0  0  0  0  0
  -23.7254  -37.6517   23.6648 H   0  0  0  0  0  0
  -26.0684  -31.5712   20.6014 H   0  0  0  0  0  0
  -26.8317  -30.8651   21.9971 H   0  0  0  0  0  0
  -28.1170  -29.0438   21.1999 H   0  0  0  0  0  0
  -26.0713  -25.9467   19.0158 H   0  0  0  0  0  0
  -23.9943  -27.2870   19.0252 H   0  0  0  0  0  0
  -23.7482  -30.5889   19.4054 H   0  0  0  0  0  0
  -22.7544  -29.2382   19.8596 H   0  0  0  0  0  0
  -25.1285  -36.1956   25.0828 H   0  0  0  0  0  0
  -20.9956  -28.3244   24.1423 H   0  0  0  0  0  0
  -20.5660  -26.2286   23.3601 H   0  0  0  0  0  0
  -21.6639  -26.7442   22.1212 H   0  0  0  0  0  0
  -19.6922  -25.6289   21.1238 H   0  0  0  0  0  0
  -19.6695  -27.3190   20.6730 H   0  0  0  0  0  0
  -17.4196  -26.6661   21.4028 H   0  0  0  0  0  0
  -18.0348  -26.0063   22.9013 H   0  0  0  0  0  0
  -19.7935  -30.7253   24.2284 H   0  0  0  0  0  0
  -17.5019  -31.6272   24.5154 H   0  0  0  0  0  0
  -15.5356  -30.2992   23.7647 H   0  0  0  0  0  0
  -15.8666  -28.0823   22.7067 H   0  0  0  0  0  0
  -24.5904  -30.7087   25.7769 H   0  0  0  0  0  0
  -24.8942  -32.2891   26.4875 H   0  0  0  0  0  0
  -25.8067  -30.8887   27.0209 H   0  0  0  0  0  0
  -26.2892  -29.6769   24.1161 H   0  0  0  0  0  0
  -27.4067  -29.7264   25.4605 H   0  0  0  0  0  0
  -27.8748  -30.4314   23.9315 H   0  0  0  0  0  0
  -27.2689  -33.3592   26.2099 H   0  0  0  0  0  0
  -28.3873  -32.6887   25.0314 H   0  0  0  0  0  0
  -28.0745  -31.8397   26.5371 H   0  0  0  0  0  0
  -28.2603  -38.0092   24.7487 H   0  0  0  0  0  0
  -28.1069  -36.2622   24.6322 H   0  0  0  0  0  0
  -27.2297  -37.1487   25.8871 H   0  0  0  0  0  0
  -20.9339  -29.8766   21.6920 H   0  0  0  0  0  0
  -26.0186  -38.2862   24.1386 H   0  0  0  0  0  0
  -28.8777  -26.8520   22.0088 H   0  0  0  0  0  0
  -27.1521  -17.3100   22.5086 H   0  0  0  0  0  0
  -27.4251  -18.2755   23.9427 H   0  0  0  0  0  0
  -28.6118  -17.0925   23.4818 H   0  0  0  0  0  0
  -30.9166  -17.0007   22.1740 H   0  0  0  0  0  0
  -31.3099  -17.4239   20.5475 H   0  0  0  0  0  0
  -29.2936  -16.1479   19.7320 H   0  0  0  0  0  0
  -26.7200  -21.5034   22.7127 H   0  0  0  0  0  0
  -26.6266  -20.0088   23.4494 H   0  0  0  0  0  0
  -28.6196  -22.7149   22.5543 H   0  0  0  0  0  0
  -30.0506  -23.8147   22.9825 H   0  0  0  0  0  0
  1 25  1  0  0  0
  1 30  2  0  0  0
  1 80  1  0  0  0
  2  3  1  0  0  0
  2 25  1  0  0  0
  2 87  1  0  0  0
  2 88  1  0  0  0
  3  4  1  0  0  0
  3 89  1  0  0  0
  3 90  1  0  0  0
  4  5  1  0  0  0
  4 91  1  0  0  0
  4 92  1  0  0  0
  5  6  1  0  0  0
  5 26  1  0  0  0
  5 93  1  0  0  0
  6 25  1  0  0  0
  6 94  1  0  0  0
  6 95  1  0  0  0
  7  8  2  0  0  0
  7 26  1  0  0  0
  7 29  1  0  0  0
  8  9  1  0  0  0
  8 22  1  0  0  0
  9 10  1  0  0  0
  9 27  2  0  0  0
 10 11  2  0  0  0
 10 15  1  0  0  0
 11 12  1  0  0  0
 11 96  1  0  0  0
 12 13  2  0  0  0
 12 97  1  0  0  0
 13 14  1  0  0  0
 13 31  1  0  0  0
 14 15  2  0  0  0
 14 98  1  0  0  0
 15 99  1  0  0  0
 16 17  2  0  0  0
 16 21  1  0  0  0
 16 31  1  0  0  0
 17 18  1  0  0  0
 17100  1  0  0  0
 18 19  2  0  0  0
 18101  1  0  0  0
 19 20  1  0  0  0
 19 24  1  0  0  0
 20 21  2  0  0  0
 20102  1  0  0  0
 21 23  1  0  0  0
 22 28  1  0  0  0
 22 32  2  0  0  0
 26 27  1  0  0  0
 28103  1  0  0  0
 28104  1  0  0  0
 29105  1  0  0  0
 29106  1  0  0  0
 33 34  1  0  0  0
 33 66  1  0  0  0
 33 70  2  0  0  0
 34 36  1  0  0  0
 34 59  1  0  0  0
 34107  1  0  0  0
 35 44  2  0  0  0
 35 45  1  0  0  0
 35 68  1  0  0  0
 36 56  1  0  0  0
 36108  1  0  0  0
 37 39  1  0  0  0
 37 47  1  0  0  0
 37 66  1  0  0  0
 37109  1  0  0  0
 38 43  2  0  0  0
 38 46  1  0  0  0
 38 47  1  0  0  0
 39 64  1  0  0  0
 39 67  2  0  0  0
 40 52  1  0  0  0
 40 53  2  0  0  0
 40 58  1  0  0  0
 41110  1  0  0  0
 41111  1  0  0  0
 41112  1  0  0  0
 41 48  1  0  0  0
 42 43  1  0  0  0
 42 66  1  0  0  0
 42113  1  0  0  0
 42114  1  0  0  0
 43 44  1  0  0  0
 44115  1  0  0  0
 45 46  2  0  0  0
 45116  1  0  0  0
 46117  1  0  0  0
 47118  1  0  0  0
 47119  1  0  0  0
 48 56  1  0  0  0
 48 65  1  0  0  0
 48120  1  0  0  0
 49 50  1  0  0  0
 49 53  1  0  0  0
 49 64  1  0  0  0
 49121  1  0  0  0
 50 51  1  0  0  0
 50122  1  0  0  0
 50123  1  0  0  0
 51 52  1  0  0  0
 51124  1  0  0  0
 51125  1  0  0  0
 52126  1  0  0  0
 52127  1  0  0  0
 53 54  1  0  0  0
 54 55  2  0  0  0
 54128  1  0  0  0
 55 57  1  0  0  0
 55129  1  0  0  0
 56 69  2  0  0  0
 57 58  2  0  0  0
 57130  1  0  0  0
 58131  1  0  0  0
 59 60  1  0  0  0
 59 61  1  0  0  0
 59 62  1  0  0  0
 60132  1  0  0  0
 60133  1  0  0  0
 60134  1  0  0  0
 61135  1  0  0  0
 61136  1  0  0  0
 61137  1  0  0  0
 62138  1  0  0  0
 62139  1  0  0  0
 62140  1  0  0  0
 63 65  1  0  0  0
 63141  1  0  0  0
 63142  1  0  0  0
 63143  1  0  0  0
 64144  1  0  0  0
 65145  1  0  0  0
 68 75  1  0  0  0
 71 72  1  0  0  0
 71 73  2  0  0  0
 71 78  1  0  0  0
 72 74  2  0  0  0
 72 81  1  0  0  0
 73 79  1  0  0  0
 73 86  1  0  0  0
 74 82  1  0  0  0
 74 86  1  0  0  0
 75 76  2  0  0  0
 75146  1  0  0  0
 76 77  1  0  0  0
 76 84  1  0  0  0
 77 82  1  0  0  0
 77 83  2  0  0  0
 78147  1  0  0  0
 78148  1  0  0  0
 78149  1  0  0  0
 79 80  1  0  0  0
 79150  1  0  0  0
 79151  1  0  0  0
 80 85  1  0  0  0
 80152  1  0  0  0
 81153  1  0  0  0
 81154  1  0  0  0
 82155  1  0  0  0
 84156  1  0  0  0
M  ISO  4   1 100  68 101  75 101  80 100
M  END
> <chiral flag>
0

> <version>
0

> <s_m_source_file>
/data/baiqing/PycharmProjects/Reinvent-master-3.2/result/LINK_invent/BTK/process_docking_weight1_custom_product_contain_oxygen_bond_distance_aromatic_linkinvent_7_9_3/rearranged_h_0176.sdf

> <i_m_source_file_index>
85

> <r_mmod_Potential_Energy-OPLS-2005>
-50.2899017333984

> <r_mmod_Stretch_Energy-OPLS-2005>
61.3980941772461

> <r_mmod_Bend_Energy-OPLS-2005>
168.525924682617

> <r_mmod_Torsional_Energy-OPLS-2005>
222.407592773438

> <r_mmod_Improper_Torsional_Energy-OPLS-2005>
12.2601766586304

> <r_mmod_Van_der_Waal_Energy-OPLS-2005>
134.505981445312

> <r_mmod_Electrostatic_Energy-OPLS-2005>
-455.400054931641

> <r_mmod_Solvation_Energy-OPLS-2005>
-227.455688476562

> <b_mmod_Minimization_Converged-OPLS-2005>
0

> <r_mmod_RMS_Derivative-OPLS-2005>
2.04828381538391

$$$$
85
                    3D
 Structure written by MMmdl.
154162  0  0  1  0            999 V2000
  -30.7392  -14.3997   20.5192 C   0  0  0  0  0  0
  -30.4045  -12.2460   19.4254 C   0  0  0  0  0  0
  -29.4912  -12.4820   18.2059 C   0  0  0  0  0  0
  -28.0068  -12.3726   18.6088 C   0  0  0  0  0  0
  -27.6585  -13.2085   19.8705 C   0  0  2  0  0  0
  -28.7005  -12.9950   20.9945 C   0  0  0  0  0  0
  -25.2557  -13.8174   20.5645 C   0  0  0  0  0  0
  -24.1810  -13.0443   20.9157 C   0  0  0  0  0  0
  -24.6371  -11.6910   20.8730 C   0  0  0  0  0  0
  -23.9043  -10.4287   21.0409 C   0  0  0  0  0  0
  -24.3601   -9.4202   21.9189 C   0  0  0  0  0  0
  -23.6279   -8.2236   22.0758 C   0  0  0  0  0  0
  -22.4262   -8.0271   21.3547 C   0  0  0  0  0  0
  -21.9890   -9.0242   20.4655 C   0  0  0  0  0  0
  -22.7214  -10.2124   20.3062 C   0  0  0  0  0  0
  -21.6843   -6.0725   22.5277 C   0  0  0  0  0  0
  -21.4012   -6.5638   23.8211 C   0  0  0  0  0  0
  -21.3651   -5.6792   24.9176 C   0  0  0  0  0  0
  -21.6049   -4.3055   24.7234 C   0  0  0  0  0  0
  -21.8819   -3.8140   23.4354 C   0  0  0  0  0  0
  -21.9180   -4.6953   22.3402 C   0  0  0  0  0  0
  -22.7833  -13.5246   21.1821 C   0  0  0  0  0  0
  -22.1646   -4.2135   21.0984 F   0  0  0  0  0  0
  -21.5620   -3.4543   25.7749 F   0  0  0  0  0  0
  -30.0381  -13.2433   20.4380 N   0  0  0  0  0  0
  -26.3001  -12.9351   20.3347 N   0  0  0  0  0  0
  -25.9305  -11.6505   20.5766 N   0  0  0  0  0  0
  -22.0468  -12.8248   22.0397 N   0  0  0  0  0  0
  -25.4279  -15.1890   20.4030 N   0  0  0  0  0  0
  -31.9165  -14.4988   20.1675 O   0  0  0  0  0  0
  -21.6631   -6.8867   21.4239 O   0  0  0  0  0  0
  -22.3524  -14.5546   20.6653 O   0  0  0  0  0  0
  -24.6095  -31.8718   23.2133 C   0  0  0  0  0  0
  -25.9014  -32.4836   23.8411 C   0  0  1  0  0  0
  -27.2396  -27.4860   20.0889 C   0  0  0  0  0  0
  -25.5894  -33.8632   24.2343 N   0  0  0  0  0  0
  -23.3932  -30.4962   21.5539 C   0  0  2  0  0  0
  -24.8381  -28.9655   20.1193 C   0  0  0  0  0  0
  -22.7380  -29.4676   22.5021 C   0  0  0  0  0  0
  -18.0269  -28.1375   22.8490 C   0  0  0  0  0  0
  -24.1490  -36.7330   23.2640 C   0  0  0  0  0  0
  -25.9158  -30.8556   21.3549 C   0  0  0  0  0  0
  -25.9950  -29.4929   20.7046 C   0  0  0  0  0  0
  -27.1989  -28.7624   20.6809 C   0  0  0  0  0  0
  -26.0619  -26.9547   19.5104 C   0  0  0  0  0  0
  -24.8636  -27.6927   19.5224 C   0  0  0  0  0  0
  -23.5980  -29.8271   20.1679 C   0  0  0  0  0  0
  -25.4106  -36.3120   24.0341 C   0  0  1  0  0  0
  -20.5851  -28.3647   23.1341 C   0  0  2  0  0  0
  -20.6751  -26.9389   22.5429 C   0  0  0  0  0  0
  -19.5738  -26.6384   21.5213 C   0  0  0  0  0  0
  -18.1916  -26.7924   22.1617 C   0  0  0  0  0  0
  -19.1515  -28.8828   23.2913 C   0  0  0  0  0  0
  -18.9442  -30.1438   23.8917 C   0  0  0  0  0  0
  -17.6443  -30.6579   24.0564 C   0  0  0  0  0  0
  -25.9031  -34.9483   23.5137 C   0  0  0  0  0  0
  -16.5335  -29.9084   23.6319 C   0  0  0  0  0  0
  -16.7259  -28.6504   23.0335 C   0  0  0  0  0  0
  -26.4462  -31.6601   25.0722 C   0  0  0  0  0  0
  -25.3754  -31.3699   26.1494 C   0  0  0  0  0  0
  -27.0265  -30.3048   24.6052 C   0  0  0  0  0  0
  -27.6068  -32.4302   25.7460 C   0  0  0  0  0  0
  -27.5582  -37.1808   24.8457 C   0  0  0  0  0  0
  -21.4116  -29.3022   22.3759 N   0  0  0  0  0  0
  -26.4290  -37.3799   23.9413 N   0  0  0  0  0  0
  -24.6577  -31.0876   22.1001 N   0  0  0  0  0  0
  -23.4181  -28.8234   23.3050 O   0  0  0  0  0  0
  -28.4427  -26.8238   20.0790 O   0  0  0  0  0  0
  -26.5585  -34.8927   22.4693 O   0  0  0  0  0  0
  -23.5305  -32.1440   23.7573 O   0  0  0  0  0  0
  -30.8374  -18.5693   18.6112 C   0  0  0  0  0  0
  -30.1942  -18.9233   19.7731 C   0  0  0  0  0  0
  -30.2280  -16.7048   20.1001 C   0  0  0  0  0  0
  -28.3377  -23.2032   19.0349 C   0  0  0  0  0  0
  -29.2082  -22.3931   19.6763 C   0  0  0  0  0  0
  -28.4894  -24.6545   18.9634 C   0  0  0  0  0  0
  -28.9147  -20.9669   19.6887 C   0  0  0  0  0  0
  -31.3646  -19.4520   17.5261 C   0  0  0  0  0  0
  -28.4036  -25.4180   20.2891 C   0  0  0  0  0  0
  -29.8360  -17.8698   20.6211 N   0  0  0  0  0  0
  -29.9779  -20.2673   20.0870 N   0  0  0  0  0  0
  -30.0206  -15.4925   20.7933 N   0  0  0  0  0  0
  -28.6743  -25.2480   17.8968 O   0  0  0  0  0  0
  -27.8361  -20.4495   19.3796 O   0  0  0  0  0  0
  -30.3408  -22.8325   20.2707 O   0  0  0  0  0  0
  -30.9728  -16.8448   18.4961 S   0  0  0  0  0  0
  -31.4542  -12.3040   19.1293 H   0  0  0  0  0  0
  -30.2646  -11.2409   19.8275 H   0  0  0  0  0  0
  -29.7154  -11.7598   17.4198 H   0  0  0  0  0  0
  -29.6857  -13.4697   17.7829 H   0  0  0  0  0  0
  -27.7841  -11.3199   18.7863 H   0  0  0  0  0  0
  -27.3709  -12.6741   17.7755 H   0  0  0  0  0  0
  -27.6985  -14.2547   19.5681 H   0  0  0  0  0  0
  -28.6509  -11.9723   21.3697 H   0  0  0  0  0  0
  -28.4895  -13.6355   21.8516 H   0  0  0  0  0  0
  -25.2752   -9.5669   22.4758 H   0  0  0  0  0  0
  -23.9981   -7.4626   22.7477 H   0  0  0  0  0  0
  -21.0811   -8.8758   19.8972 H   0  0  0  0  0  0
  -22.3668  -10.9657   19.6164 H   0  0  0  0  0  0
  -21.2018   -7.6148   23.9714 H   0  0  0  0  0  0
  -21.1473   -6.0526   25.9081 H   0  0  0  0  0  0
  -22.0611   -2.7602   23.2862 H   0  0  0  0  0  0
  -22.4083  -11.9925   22.4808 H   0  0  0  0  0  0
  -21.1098  -13.1301   22.2614 H   0  0  0  0  0  0
  -24.6621  -15.8476   20.5005 H   0  0  0  0  0  0
  -26.2849  -15.6299   20.0915 H   0  0  0  0  0  0
  -26.7090  -32.5567   23.1189 H   0  0  0  0  0  0
  -25.0043  -33.9793   25.0485 H   0  0  0  0  0  0
  -22.6786  -31.3108   21.4176 H   0  0  0  0  0  0
  -23.3732  -35.9680   23.3311 H   0  0  0  0  0  0
  -24.3587  -36.8932   22.2051 H   0  0  0  0  0  0
  -23.7257  -37.6551   23.6639 H   0  0  0  0  0  0
  -26.0166  -31.6230   20.5863 H   0  0  0  0  0  0
  -26.8079  -30.9109   21.9662 H   0  0  0  0  0  0
  -28.0974  -29.1748   21.1194 H   0  0  0  0  0  0
  -26.0575  -25.9872   19.0312 H   0  0  0  0  0  0
  -23.9721  -27.2800   19.0706 H   0  0  0  0  0  0
  -23.7033  -30.6015   19.4070 H   0  0  0  0  0  0
  -22.7219  -29.2456   19.8744 H   0  0  0  0  0  0
  -25.1277  -36.1988   25.0831 H   0  0  0  0  0  0
  -20.9937  -28.3208   24.1464 H   0  0  0  0  0  0
  -20.5647  -26.2254   23.3611 H   0  0  0  0  0  0
  -21.6630  -26.7439   22.1230 H   0  0  0  0  0  0
  -19.6901  -25.6304   21.1225 H   0  0  0  0  0  0
  -19.6692  -27.3210   20.6758 H   0  0  0  0  0  0
  -17.4197  -26.6685   21.4011 H   0  0  0  0  0  0
  -18.0310  -26.0062   22.9006 H   0  0  0  0  0  0
  -19.7919  -30.7246   24.2301 H   0  0  0  0  0  0
  -17.5001  -31.6259   24.5165 H   0  0  0  0  0  0
  -15.5335  -30.2987   23.7635 H   0  0  0  0  0  0
  -15.8661  -28.0834   22.7022 H   0  0  0  0  0  0
  -24.5933  -30.7026   25.7856 H   0  0  0  0  0  0
  -24.8933  -32.2846   26.4953 H   0  0  0  0  0  0
  -25.8140  -30.8882   27.0241 H   0  0  0  0  0  0
  -26.2772  -29.6824   24.1144 H   0  0  0  0  0  0
  -27.4087  -29.7273   25.4480 H   0  0  0  0  0  0
  -27.8591  -30.4376   23.9139 H   0  0  0  0  0  0
  -27.2712  -33.3579   26.2103 H   0  0  0  0  0  0
  -28.3832  -32.6893   25.0251 H   0  0  0  0  0  0
  -28.0786  -31.8383   26.5311 H   0  0  0  0  0  0
  -28.2609  -38.0098   24.7499 H   0  0  0  0  0  0
  -28.1066  -36.2630   24.6276 H   0  0  0  0  0  0
  -27.2309  -37.1463   25.8864 H   0  0  0  0  0  0
  -20.9274  -29.8737   21.6978 H   0  0  0  0  0  0
  -26.0184  -38.2878   24.1414 H   0  0  0  0  0  0
  -27.4642  -22.7979   18.5426 H   0  0  0  0  0  0
  -30.5538  -19.9909   17.0354 H   0  0  0  0  0  0
  -31.8885  -18.8738   16.7642 H   0  0  0  0  0  0
  -32.0647  -20.1838   17.9302 H   0  0  0  0  0  0
  -29.2566  -25.1459   20.9104 H   0  0  0  0  0  0
  -27.5093  -25.1172   20.8375 H   0  0  0  0  0  0
  -30.7884  -20.8398   20.2829 H   0  0  0  0  0  0
  -29.1296  -15.3752   21.2470 H   0  0  0  0  0  0
  -30.4622  -23.7490   20.0684 H   0  0  0  0  0  0
  1 25  1  0  0  0
  1 30  2  0  0  0
  1 82  1  0  0  0
  2  3  1  0  0  0
  2 25  1  0  0  0
  2 87  1  0  0  0
  2 88  1  0  0  0
  3  4  1  0  0  0
  3 89  1  0  0  0
  3 90  1  0  0  0
  4  5  1  0  0  0
  4 91  1  0  0  0
  4 92  1  0  0  0
  5  6  1  0  0  0
  5 26  1  0  0  0
  5 93  1  0  0  0
  6 25  1  0  0  0
  6 94  1  0  0  0
  6 95  1  0  0  0
  7  8  2  0  0  0
  7 26  1  0  0  0
  7 29  1  0  0  0
  8  9  1  0  0  0
  8 22  1  0  0  0
  9 10  1  0  0  0
  9 27  2  0  0  0
 10 11  2  0  0  0
 10 15  1  0  0  0
 11 12  1  0  0  0
 11 96  1  0  0  0
 12 13  2  0  0  0
 12 97  1  0  0  0
 13 14  1  0  0  0
 13 31  1  0  0  0
 14 15  2  0  0  0
 14 98  1  0  0  0
 15 99  1  0  0  0
 16 17  2  0  0  0
 16 21  1  0  0  0
 16 31  1  0  0  0
 17 18  1  0  0  0
 17100  1  0  0  0
 18 19  2  0  0  0
 18101  1  0  0  0
 19 20  1  0  0  0
 19 24  1  0  0  0
 20 21  2  0  0  0
 20102  1  0  0  0
 21 23  1  0  0  0
 22 28  1  0  0  0
 22 32  2  0  0  0
 26 27  1  0  0  0
 28103  1  0  0  0
 28104  1  0  0  0
 29105  1  0  0  0
 29106  1  0  0  0
 33 34  1  0  0  0
 33 66  1  0  0  0
 33 70  2  0  0  0
 34 36  1  0  0  0
 34 59  1  0  0  0
 34107  1  0  0  0
 35 44  2  0  0  0
 35 45  1  0  0  0
 35 68  1  0  0  0
 36 56  1  0  0  0
 36108  1  0  0  0
 37 39  1  0  0  0
 37 47  1  0  0  0
 37 66  1  0  0  0
 37109  1  0  0  0
 38 43  2  0  0  0
 38 46  1  0  0  0
 38 47  1  0  0  0
 39 64  1  0  0  0
 39 67  2  0  0  0
 40 52  1  0  0  0
 40 53  2  0  0  0
 40 58  1  0  0  0
 41110  1  0  0  0
 41111  1  0  0  0
 41112  1  0  0  0
 41 48  1  0  0  0
 42 43  1  0  0  0
 42 66  1  0  0  0
 42113  1  0  0  0
 42114  1  0  0  0
 43 44  1  0  0  0
 44115  1  0  0  0
 45 46  2  0  0  0
 45116  1  0  0  0
 46117  1  0  0  0
 47118  1  0  0  0
 47119  1  0  0  0
 48 56  1  0  0  0
 48 65  1  0  0  0
 48120  1  0  0  0
 49 50  1  0  0  0
 49 53  1  0  0  0
 49 64  1  0  0  0
 49121  1  0  0  0
 50 51  1  0  0  0
 50122  1  0  0  0
 50123  1  0  0  0
 51 52  1  0  0  0
 51124  1  0  0  0
 51125  1  0  0  0
 52126  1  0  0  0
 52127  1  0  0  0
 53 54  1  0  0  0
 54 55  2  0  0  0
 54128  1  0  0  0
 55 57  1  0  0  0
 55129  1  0  0  0
 56 69  2  0  0  0
 57 58  2  0  0  0
 57130  1  0  0  0
 58131  1  0  0  0
 59 60  1  0  0  0
 59 61  1  0  0  0
 59 62  1  0  0  0
 60132  1  0  0  0
 60133  1  0  0  0
 60134  1  0  0  0
 61135  1  0  0  0
 61136  1  0  0  0
 61137  1  0  0  0
 62138  1  0  0  0
 62139  1  0  0  0
 62140  1  0  0  0
 63 65  1  0  0  0
 63141  1  0  0  0
 63142  1  0  0  0
 63143  1  0  0  0
 64144  1  0  0  0
 65145  1  0  0  0
 68 79  1  0  0  0
 71 72  2  0  0  0
 71 78  1  0  0  0
 71 86  1  0  0  0
 72 80  1  0  0  0
 72 81  1  0  0  0
 73 80  2  0  0  0
 73 82  1  0  0  0
 73 86  1  0  0  0
 74 75  2  0  0  0
 74 76  1  0  0  0
 74146  1  0  0  0
 75 77  1  0  0  0
 75 85  1  0  0  0
 76 79  1  0  0  0
 76 83  2  0  0  0
 77 81  1  0  0  0
 77 84  2  0  0  0
 78147  1  0  0  0
 78148  1  0  0  0
 78149  1  0  0  0
 79150  1  0  0  0
 79151  1  0  0  0
 81152  1  0  0  0
 82153  1  0  0  0
 85154  1  0  0  0
M  ISO  4   1 100  68 101  79 101  82 100
M  END
> <chiral flag>
0

> <version>
0

> <s_m_source_file>
/data/baiqing/PycharmProjects/Reinvent-master-3.2/result/LINK_invent/BTK/process_docking_weight1_custom_product_contain_oxygen_bond_distance_aromatic_linkinvent_7_9_3/rearranged_h_0176.sdf

> <i_m_source_file_index>
86

> <r_mmod_Potential_Energy-OPLS-2005>
-155.284851074219

> <r_mmod_Stretch_Energy-OPLS-2005>
29.7563762664795

> <r_mmod_Bend_Energy-OPLS-2005>
93.261100769043

> <r_mmod_Torsional_Energy-OPLS-2005>
275.676666259766

> <r_mmod_Improper_Torsional_Energy-OPLS-2005>
7.83340883255005

> <r_mmod_Van_der_Waal_Energy-OPLS-2005>
149.376235961914

> <r_mmod_Electrostatic_Energy-OPLS-2005>
-475.483642578125

> <r_mmod_Solvation_Energy-OPLS-2005>
-252.115325927734

> <b_mmod_Minimization_Converged-OPLS-2005>
0

> <r_mmod_RMS_Derivative-OPLS-2005>
1.6944807767868

$$$$
86
                    3D
 Structure written by MMmdl.
149157  0  0  1  0            999 V2000
  -30.6555  -14.7691   20.4284 C   0  0  0  0  0  0
  -30.4186  -12.4595   19.4955 C   0  0  0  0  0  0
  -29.5128  -12.5200   18.2467 C   0  0  0  0  0  0
  -28.0416  -12.3406   18.6583 C   0  0  0  0  0  0
  -27.6441  -13.2435   19.8539 C   0  0  2  0  0  0
  -28.6904  -13.2297   20.9962 C   0  0  0  0  0  0
  -25.2510  -13.8236   20.5596 C   0  0  0  0  0  0
  -24.1833  -13.0475   20.9194 C   0  0  0  0  0  0
  -24.6452  -11.6948   20.8765 C   0  0  0  0  0  0
  -23.9149  -10.4316   21.0428 C   0  0  0  0  0  0
  -24.3684   -9.4212   21.9198 C   0  0  0  0  0  0
  -23.6334   -8.2254   22.0776 C   0  0  0  0  0  0
  -22.4313   -8.0310   21.3559 C   0  0  0  0  0  0
  -21.9959   -9.0294   20.4669 C   0  0  0  0  0  0
  -22.7320  -10.2156   20.3086 C   0  0  0  0  0  0
  -21.6858   -6.0761   22.5264 C   0  0  0  0  0  0
  -21.4030   -6.5660   23.8198 C   0  0  0  0  0  0
  -21.3671   -5.6818   24.9157 C   0  0  0  0  0  0
  -21.6044   -4.3078   24.7206 C   0  0  0  0  0  0
  -21.8829   -3.8169   23.4319 C   0  0  0  0  0  0
  -21.9204   -4.6988   22.3383 C   0  0  0  0  0  0
  -22.7855  -13.5227   21.1833 C   0  0  0  0  0  0
  -22.1680   -4.2189   21.0958 F   0  0  0  0  0  0
  -21.5614   -3.4554   25.7714 F   0  0  0  0  0  0
  -29.9978  -13.5536   20.4112 N   0  0  0  0  0  0
  -26.2980  -12.9465   20.3309 N   0  0  0  0  0  0
  -25.9381  -11.6592   20.5789 N   0  0  0  0  0  0
  -22.0535  -12.8233   22.0430 N   0  0  0  0  0  0
  -25.4115  -15.1950   20.3730 N   0  0  0  0  0  0
  -31.8413  -14.7803   20.0867 O   0  0  0  0  0  0
  -21.6674   -6.8907   21.4226 O   0  0  0  0  0  0
  -22.3520  -14.5518   20.6641 O   0  0  0  0  0  0
  -24.6363  -31.8547   23.1991 C   0  0  0  0  0  0
  -25.9172  -32.4741   23.8365 C   0  0  1  0  0  0
  -27.1912  -27.1995   20.1578 C   0  0  0  0  0  0
  -25.5964  -33.8563   24.2270 N   0  0  0  0  0  0
  -23.4362  -30.4820   21.5392 C   0  0  2  0  0  0
  -24.8788  -28.9284   20.1004 C   0  0  0  0  0  0
  -22.7516  -29.4630   22.4846 C   0  0  0  0  0  0
  -18.0306  -28.1431   22.8468 C   0  0  0  0  0  0
  -24.1477  -36.7277   23.2645 C   0  0  0  0  0  0
  -25.9863  -30.7417   21.3944 C   0  0  0  0  0  0
  -26.0464  -29.3616   20.7391 C   0  0  0  0  0  0
  -27.2011  -28.5056   20.7678 C   0  0  0  0  0  0
  -26.0135  -26.8733   19.4416 C   0  0  0  0  0  0
  -24.8724  -27.6973   19.4330 C   0  0  0  0  0  0
  -23.6551  -29.8244   20.1506 C   0  0  0  0  0  0
  -25.4106  -36.3064   24.0321 C   0  0  1  0  0  0
  -20.5908  -28.3770   23.1211 C   0  0  2  0  0  0
  -20.6804  -26.9478   22.5386 C   0  0  0  0  0  0
  -19.5764  -26.6412   21.5209 C   0  0  0  0  0  0
  -18.1948  -26.7968   22.1618 C   0  0  0  0  0  0
  -19.1562  -28.8906   23.2839 C   0  0  0  0  0  0
  -18.9489  -30.1498   23.8886 C   0  0  0  0  0  0
  -17.6481  -30.6619   24.0583 C   0  0  0  0  0  0
  -25.9059  -34.9435   23.5086 C   0  0  0  0  0  0
  -16.5371  -29.9109   23.6349 C   0  0  0  0  0  0
  -16.7294  -28.6532   23.0360 C   0  0  0  0  0  0
  -26.4514  -31.6605   25.0799 C   0  0  0  0  0  0
  -25.3728  -31.3796   26.1521 C   0  0  0  0  0  0
  -27.0396  -30.3002   24.6371 C   0  0  0  0  0  0
  -27.6051  -32.4391   25.7552 C   0  0  0  0  0  0
  -27.5562  -37.1784   24.8461 C   0  0  0  0  0  0
  -21.4220  -29.3094   22.3573 N   0  0  0  0  0  0
  -26.4269  -37.3767   23.9411 N   0  0  0  0  0  0
  -24.7059  -31.0463   22.1000 N   0  0  0  0  0  0
  -23.4165  -28.8185   23.2996 O   0  0  0  0  0  0
  -28.2396  -26.2382   20.2968 O   0  0  0  0  0  0
  -26.5619  -34.8904   22.4648 O   0  0  0  0  0  0
  -23.5496  -32.1407   23.7246 O   0  0  0  0  0  0
  -29.6067  -18.5660   20.7863 C   0  0  0  0  0  0
  -29.2048  -18.7820   22.0833 C   0  0  0  0  0  0
  -29.0653  -20.9320   20.7963 C   0  0  0  0  0  0
  -30.3024  -17.2511   20.2604 C   0  0  0  0  0  0
  -28.6404  -23.5551   20.7684 C   0  0  0  0  0  0
  -28.4419  -24.6647   18.4181 C   0  0  0  0  0  0
  -28.0269  -24.7798   19.8929 C   0  0  2  0  0  0
  -29.4931  -19.8376   20.0743 N   0  0  0  0  0  0
  -28.8122  -22.2828   20.2139 N   0  0  0  0  0  0
  -29.9536  -15.9542   20.6609 N   0  0  0  0  0  0
  -31.1831  -17.4254   19.4077 O   0  0  0  0  0  0
  -28.9217  -23.7679   21.9513 O   0  0  0  0  0  0
  -29.2220  -17.8208   23.0428 F   0  0  0  0  0  0
  -28.7557  -20.4481   22.4720 S   0  0  0  0  0  0
  -31.4662  -12.5341   19.2000 H   0  0  0  0  0  0
  -30.3188  -11.4930   19.9903 H   0  0  0  0  0  0
  -29.7968  -11.7517   17.5269 H   0  0  0  0  0  0
  -29.6469  -13.4775   17.7407 H   0  0  0  0  0  0
  -27.9032  -11.2915   18.9239 H   0  0  0  0  0  0
  -27.3867  -12.5329   17.8070 H   0  0  0  0  0  0
  -27.6269  -14.2552   19.4509 H   0  0  0  0  0  0
  -28.7218  -12.2673   21.5067 H   0  0  0  0  0  0
  -28.4207  -13.9654   21.7554 H   0  0  0  0  0  0
  -25.2823   -9.5684   22.4787 H   0  0  0  0  0  0
  -24.0046   -7.4650   22.7497 H   0  0  0  0  0  0
  -21.0892   -8.8840   19.8962 H   0  0  0  0  0  0
  -22.3791  -10.9715   19.6223 H   0  0  0  0  0  0
  -21.2045   -7.6169   23.9703 H   0  0  0  0  0  0
  -21.1481   -6.0540   25.9053 H   0  0  0  0  0  0
  -22.0598   -2.7636   23.2800 H   0  0  0  0  0  0
  -22.4163  -11.9921   22.4844 H   0  0  0  0  0  0
  -21.1150  -13.1238   22.2630 H   0  0  0  0  0  0
  -24.6063  -15.8132   20.3734 H   0  0  0  0  0  0
  -26.2069  -15.5974   19.8939 H   0  0  0  0  0  0
  -26.7255  -32.5347   23.1118 H   0  0  0  0  0  0
  -25.0171  -33.9734   25.0443 H   0  0  0  0  0  0
  -22.7385  -31.3101   21.3972 H   0  0  0  0  0  0
  -23.3732  -35.9618   23.3317 H   0  0  0  0  0  0
  -24.3564  -36.8898   22.2062 H   0  0  0  0  0  0
  -23.7227  -37.6472   23.6673 H   0  0  0  0  0  0
  -26.1450  -31.4937   20.6214 H   0  0  0  0  0  0
  -26.8577  -30.7802   22.0383 H   0  0  0  0  0  0
  -28.0798  -28.8140   21.3157 H   0  0  0  0  0  0
  -25.9203  -25.9553   18.8830 H   0  0  0  0  0  0
  -23.9920  -27.3771   18.8934 H   0  0  0  0  0  0
  -23.7829  -30.6086   19.4037 H   0  0  0  0  0  0
  -22.7680  -29.2688   19.8396 H   0  0  0  0  0  0
  -25.1285  -36.1922   25.0812 H   0  0  0  0  0  0
  -21.0027  -28.3404   24.1320 H   0  0  0  0  0  0
  -20.5740  -26.2414   23.3628 H   0  0  0  0  0  0
  -21.6672  -26.7543   22.1167 H   0  0  0  0  0  0
  -19.6955  -25.6308   21.1281 H   0  0  0  0  0  0
  -19.6688  -27.3192   20.6710 H   0  0  0  0  0  0
  -17.4223  -26.6714   21.4019 H   0  0  0  0  0  0
  -18.0357  -26.0113   22.9022 H   0  0  0  0  0  0
  -19.7955  -30.7324   24.2242 H   0  0  0  0  0  0
  -17.5039  -31.6292   24.5195 H   0  0  0  0  0  0
  -15.5366  -30.3025   23.7680 H   0  0  0  0  0  0
  -15.8691  -28.0858   22.7080 H   0  0  0  0  0  0
  -24.5819  -30.7253   25.7827 H   0  0  0  0  0  0
  -24.9032  -32.2998   26.5010 H   0  0  0  0  0  0
  -25.8004  -30.8884   27.0270 H   0  0  0  0  0  0
  -26.3031  -29.6721   24.1340 H   0  0  0  0  0  0
  -27.3962  -29.7308   25.4962 H   0  0  0  0  0  0
  -27.8963  -30.4243   23.9746 H   0  0  0  0  0  0
  -27.2631  -33.3683   26.2119 H   0  0  0  0  0  0
  -28.3840  -32.6972   25.0372 H   0  0  0  0  0  0
  -28.0757  -31.8559   26.5476 H   0  0  0  0  0  0
  -28.2565  -38.0095   24.7523 H   0  0  0  0  0  0
  -28.1063  -36.2616   24.6258 H   0  0  0  0  0  0
  -27.2301  -37.1430   25.8873 H   0  0  0  0  0  0
  -20.9424  -29.8770   21.6729 H   0  0  0  0  0  0
  -26.0142  -38.2838   24.1395 H   0  0  0  0  0  0
  -28.1193  -23.7216   17.9773 H   0  0  0  0  0  0
  -29.5239  -24.7389   18.3183 H   0  0  0  0  0  0
  -28.0041  -25.4665   17.8247 H   0  0  0  0  0  0
  -26.9646  -24.5512   19.9824 H   0  0  0  0  0  0
  -28.6853  -22.2653   19.2130 H   0  0  0  0  0  0
  -29.0854  -15.8687   21.1620 H   0  0  0  0  0  0
  1 25  1  0  0  0
  1 30  2  0  0  0
  1 80  1  0  0  0
  2  3  1  0  0  0
  2 25  1  0  0  0
  2 85  1  0  0  0
  2 86  1  0  0  0
  3  4  1  0  0  0
  3 87  1  0  0  0
  3 88  1  0  0  0
  4  5  1  0  0  0
  4 89  1  0  0  0
  4 90  1  0  0  0
  5  6  1  0  0  0
  5 26  1  0  0  0
  5 91  1  0  0  0
  6 25  1  0  0  0
  6 92  1  0  0  0
  6 93  1  0  0  0
  7  8  2  0  0  0
  7 26  1  0  0  0
  7 29  1  0  0  0
  8  9  1  0  0  0
  8 22  1  0  0  0
  9 10  1  0  0  0
  9 27  2  0  0  0
 10 11  2  0  0  0
 10 15  1  0  0  0
 11 12  1  0  0  0
 11 94  1  0  0  0
 12 13  2  0  0  0
 12 95  1  0  0  0
 13 14  1  0  0  0
 13 31  1  0  0  0
 14 15  2  0  0  0
 14 96  1  0  0  0
 15 97  1  0  0  0
 16 17  2  0  0  0
 16 21  1  0  0  0
 16 31  1  0  0  0
 17 18  1  0  0  0
 17 98  1  0  0  0
 18 19  2  0  0  0
 18 99  1  0  0  0
 19 20  1  0  0  0
 19 24  1  0  0  0
 20 21  2  0  0  0
 20100  1  0  0  0
 21 23  1  0  0  0
 22 28  1  0  0  0
 22 32  2  0  0  0
 26 27  1  0  0  0
 28101  1  0  0  0
 28102  1  0  0  0
 29103  1  0  0  0
 29104  1  0  0  0
 33 34  1  0  0  0
 33 66  1  0  0  0
 33 70  2  0  0  0
 34 36  1  0  0  0
 34 59  1  0  0  0
 34105  1  0  0  0
 35 44  2  0  0  0
 35 45  1  0  0  0
 35 68  1  0  0  0
 36 56  1  0  0  0
 36106  1  0  0  0
 37 39  1  0  0  0
 37 47  1  0  0  0
 37 66  1  0  0  0
 37107  1  0  0  0
 38 43  2  0  0  0
 38 46  1  0  0  0
 38 47  1  0  0  0
 39 64  1  0  0  0
 39 67  2  0  0  0
 40 52  1  0  0  0
 40 53  2  0  0  0
 40 58  1  0  0  0
 41108  1  0  0  0
 41109  1  0  0  0
 41110  1  0  0  0
 41 48  1  0  0  0
 42 43  1  0  0  0
 42 66  1  0  0  0
 42111  1  0  0  0
 42112  1  0  0  0
 43 44  1  0  0  0
 44113  1  0  0  0
 45 46  2  0  0  0
 45114  1  0  0  0
 46115  1  0  0  0
 47116  1  0  0  0
 47117  1  0  0  0
 48 56  1  0  0  0
 48 65  1  0  0  0
 48118  1  0  0  0
 49 50  1  0  0  0
 49 53  1  0  0  0
 49 64  1  0  0  0
 49119  1  0  0  0
 50 51  1  0  0  0
 50120  1  0  0  0
 50121  1  0  0  0
 51 52  1  0  0  0
 51122  1  0  0  0
 51123  1  0  0  0
 52124  1  0  0  0
 52125  1  0  0  0
 53 54  1  0  0  0
 54 55  2  0  0  0
 54126  1  0  0  0
 55 57  1  0  0  0
 55127  1  0  0  0
 56 69  2  0  0  0
 57 58  2  0  0  0
 57128  1  0  0  0
 58129  1  0  0  0
 59 60  1  0  0  0
 59 61  1  0  0  0
 59 62  1  0  0  0
 60130  1  0  0  0
 60131  1  0  0  0
 60132  1  0  0  0
 61133  1  0  0  0
 61134  1  0  0  0
 61135  1  0  0  0
 62136  1  0  0  0
 62137  1  0  0  0
 62138  1  0  0  0
 63 65  1  0  0  0
 63139  1  0  0  0
 63140  1  0  0  0
 63141  1  0  0  0
 64142  1  0  0  0
 65143  1  0  0  0
 68 77  1  0  0  0
 71 72  2  0  0  0
 71 74  1  0  0  0
 71 78  1  0  0  0
 72 83  1  0  0  0
 72 84  1  0  0  0
 73 78  2  0  0  0
 73 79  1  0  0  0
 73 84  1  0  0  0
 74 80  1  0  0  0
 74 81  2  0  0  0
 75 77  1  0  0  0
 75 79  1  0  0  0
 75 82  2  0  0  0
 76144  1  0  0  0
 76145  1  0  0  0
 76146  1  0  0  0
 76 77  1  0  0  0
 77147  1  0  0  0
 79148  1  0  0  0
 80149  1  0  0  0
M  ISO  4   1 100  68 101  77 101  80 100
M  END
> <chiral flag>
0

> <version>
0

> <s_m_source_file>
/data/baiqing/PycharmProjects/Reinvent-master-3.2/result/LINK_invent/BTK/process_docking_weight1_custom_product_contain_oxygen_bond_distance_aromatic_linkinvent_7_9_3/rearranged_h_0176.sdf

> <i_m_source_file_index>
87

> <r_mmod_Potential_Energy-OPLS-2005>
102.387641906738

> <r_mmod_Stretch_Energy-OPLS-2005>
145.584213256836

> <r_mmod_Bend_Energy-OPLS-2005>
185.530853271484

> <r_mmod_Torsional_Energy-OPLS-2005>
244.313323974609

> <r_mmod_Improper_Torsional_Energy-OPLS-2005>
6.6938681602478

> <r_mmod_Van_der_Waal_Energy-OPLS-2005>
126.298675537109

> <r_mmod_Electrostatic_Energy-OPLS-2005>
-468.251892089844

> <r_mmod_Solvation_Energy-OPLS-2005>
-258.075958251953

> <b_mmod_Minimization_Converged-OPLS-2005>
0

> <r_mmod_RMS_Derivative-OPLS-2005>
4.15200042724609

$$$$
87
                    3D
 Structure written by MMmdl.
154162  0  0  1  0            999 V2000
  -30.6845  -14.5037   20.4549 C   0  0  0  0  0  0
  -30.4425  -12.2924   19.4208 C   0  0  0  0  0  0
  -29.5134  -12.5041   18.2034 C   0  0  0  0  0  0
  -28.0269  -12.3858   18.6061 C   0  0  0  0  0  0
  -27.6678  -13.2100   19.8741 C   0  0  2  0  0  0
  -28.7252  -13.0020   20.9821 C   0  0  0  0  0  0
  -25.2633  -13.8176   20.5729 C   0  0  0  0  0  0
  -24.1848  -13.0419   20.9169 C   0  0  0  0  0  0
  -24.6415  -11.6900   20.8717 C   0  0  0  0  0  0
  -23.9043  -10.4274   21.0384 C   0  0  0  0  0  0
  -24.3583   -9.4214   21.9198 C   0  0  0  0  0  0
  -23.6268   -8.2247   22.0769 C   0  0  0  0  0  0
  -22.4271   -8.0283   21.3533 C   0  0  0  0  0  0
  -21.9871   -9.0249   20.4648 C   0  0  0  0  0  0
  -22.7191  -10.2135   20.3054 C   0  0  0  0  0  0
  -21.6853   -6.0735   22.5273 C   0  0  0  0  0  0
  -21.4013   -6.5633   23.8206 C   0  0  0  0  0  0
  -21.3646   -5.6789   24.9167 C   0  0  0  0  0  0
  -21.6033   -4.3045   24.7225 C   0  0  0  0  0  0
  -21.8819   -3.8146   23.4341 C   0  0  0  0  0  0
  -21.9185   -4.6961   22.3400 C   0  0  0  0  0  0
  -22.7868  -13.5237   21.1781 C   0  0  0  0  0  0
  -22.1662   -4.2150   21.0981 F   0  0  0  0  0  0
  -21.5614   -3.4530   25.7735 F   0  0  0  0  0  0
  -30.0607  -13.2937   20.4309 N   0  0  0  0  0  0
  -26.3087  -12.9324   20.3424 N   0  0  0  0  0  0
  -25.9366  -11.6472   20.5794 N   0  0  0  0  0  0
  -22.0463  -12.8280   22.0363 N   0  0  0  0  0  0
  -25.4296  -15.1889   20.4182 N   0  0  0  0  0  0
  -31.8807  -14.6064   20.1703 O   0  0  0  0  0  0
  -21.6618   -6.8890   21.4251 O   0  0  0  0  0  0
  -22.3549  -14.5528   20.6635 O   0  0  0  0  0  0
  -24.6109  -31.8673   23.2117 C   0  0  0  0  0  0
  -25.9013  -32.4840   23.8415 C   0  0  1  0  0  0
  -27.2321  -27.4549   20.0811 C   0  0  0  0  0  0
  -25.5862  -33.8629   24.2363 N   0  0  0  0  0  0
  -23.3987  -30.4946   21.5448 C   0  0  2  0  0  0
  -24.8479  -28.9622   20.1107 C   0  0  0  0  0  0
  -22.7371  -29.4707   22.4947 C   0  0  0  0  0  0
  -18.0325  -28.1328   22.8447 C   0  0  0  0  0  0
  -24.1479  -36.7343   23.2640 C   0  0  0  0  0  0
  -25.9219  -30.8491   21.3510 C   0  0  0  0  0  0
  -26.0083  -29.4805   20.7010 C   0  0  0  0  0  0
  -27.2085  -28.7332   20.6836 C   0  0  0  0  0  0
  -26.0684  -26.9541   19.4740 C   0  0  0  0  0  0
  -24.8705  -27.6935   19.5004 C   0  0  0  0  0  0
  -23.6057  -29.8206   20.1613 C   0  0  0  0  0  0
  -25.4099  -36.3139   24.0346 C   0  0  1  0  0  0
  -20.5907  -28.3662   23.1307 C   0  0  2  0  0  0
  -20.6856  -26.9402   22.5429 C   0  0  0  0  0  0
  -19.5902  -26.6506   21.5110 C   0  0  0  0  0  0
  -18.2024  -26.7941   22.1472 C   0  0  0  0  0  0
  -19.1563  -28.8802   23.2924 C   0  0  0  0  0  0
  -18.9440  -30.1363   23.8984 C   0  0  0  0  0  0
  -17.6434  -30.6512   24.0585 C   0  0  0  0  0  0
  -25.9008  -34.9490   23.5147 C   0  0  0  0  0  0
  -16.5354  -29.9063   23.6239 C   0  0  0  0  0  0
  -16.7306  -28.6474   23.0249 C   0  0  0  0  0  0
  -26.4455  -31.6607   25.0715 C   0  0  0  0  0  0
  -25.3771  -31.3664   26.1504 C   0  0  0  0  0  0
  -27.0293  -30.3071   24.6031 C   0  0  0  0  0  0
  -27.6014  -32.4341   25.7476 C   0  0  0  0  0  0
  -27.5578  -37.1824   24.8461 C   0  0  0  0  0  0
  -21.4117  -29.3036   22.3656 N   0  0  0  0  0  0
  -26.4297  -37.3807   23.9403 N   0  0  0  0  0  0
  -24.6623  -31.0818   22.0981 N   0  0  0  0  0  0
  -23.4119  -28.8315   23.3082 O   0  0  0  0  0  0
  -28.3590  -26.6707   20.0614 O   0  0  0  0  0  0
  -26.5557  -34.8914   22.4697 O   0  0  0  0  0  0
  -23.5317  -32.1384   23.7550 O   0  0  0  0  0  0
  -29.6003  -19.2515   20.4416 C   0  0  0  0  0  0
  -29.4814  -17.9389   19.8763 C   0  0  0  0  0  0
  -28.6842  -17.9145   18.7481 C   0  0  0  0  0  0
  -28.9989  -20.2319   19.6753 C   0  0  0  0  0  0
  -30.2452  -16.7698   20.4081 C   0  0  0  0  0  0
  -28.9829  -23.7468   20.6803 C   0  0  0  0  0  0
  -28.5899  -24.7128   21.5460 C   0  0  0  0  0  0
  -28.8137  -22.3100   20.9169 C   0  0  0  0  0  0
  -28.2558  -16.8058   17.8503 C   0  0  0  0  0  0
  -28.7798  -26.2226   21.3539 C   0  0  0  0  0  0
  -29.7876  -15.5744   20.5170 N   0  0  0  0  0  0
  -29.0124  -21.5866   19.8058 N   0  0  0  0  0  0
  -28.5151  -21.7972   22.0010 O   0  0  0  0  0  0
  -27.9720  -24.4778   22.7181 O   0  0  0  0  0  0
  -28.2277  -19.5254   18.2835 S   0  0  0  0  0  0
  -31.4898  -12.3739   19.1180 H   0  0  0  0  0  0
  -30.3306  -11.2846   19.8233 H   0  0  0  0  0  0
  -29.7468  -11.7854   17.4158 H   0  0  0  0  0  0
  -29.7018  -13.4901   17.7742 H   0  0  0  0  0  0
  -27.8113  -11.3324   18.7810 H   0  0  0  0  0  0
  -27.3934  -12.6929   17.7732 H   0  0  0  0  0  0
  -27.6912  -14.2573   19.5928 H   0  0  0  0  0  0
  -28.7027  -11.9657   21.3250 H   0  0  0  0  0  0
  -28.5157  -13.6203   21.8580 H   0  0  0  0  0  0
  -25.2721   -9.5703   22.4768 H   0  0  0  0  0  0
  -23.9957   -7.4653   22.7505 H   0  0  0  0  0  0
  -21.0782   -8.8765   19.8978 H   0  0  0  0  0  0
  -22.3633  -10.9673   19.6160 H   0  0  0  0  0  0
  -21.2026   -7.6146   23.9713 H   0  0  0  0  0  0
  -21.1457   -6.0516   25.9065 H   0  0  0  0  0  0
  -22.0617   -2.7609   23.2841 H   0  0  0  0  0  0
  -22.3994  -11.9936   22.4793 H   0  0  0  0  0  0
  -21.1109  -13.1406   22.2529 H   0  0  0  0  0  0
  -24.6691  -15.8504   20.5318 H   0  0  0  0  0  0
  -26.3077  -15.6298   20.1713 H   0  0  0  0  0  0
  -26.7051  -32.5573   23.1162 H   0  0  0  0  0  0
  -25.0061  -33.9775   25.0552 H   0  0  0  0  0  0
  -22.6848  -31.3131   21.4111 H   0  0  0  0  0  0
  -23.3729  -35.9684   23.3307 H   0  0  0  0  0  0
  -24.3589  -36.8943   22.2054 H   0  0  0  0  0  0
  -23.7234  -37.6553   23.6642 H   0  0  0  0  0  0
  -26.0092  -31.6150   20.5792 H   0  0  0  0  0  0
  -26.8211  -30.9187   21.9525 H   0  0  0  0  0  0
  -28.1140  -29.1347   21.1162 H   0  0  0  0  0  0
  -26.0900  -25.9847   18.9972 H   0  0  0  0  0  0
  -23.9780  -27.2801   19.0531 H   0  0  0  0  0  0
  -23.6983  -30.5919   19.3976 H   0  0  0  0  0  0
  -22.7355  -29.2328   19.8696 H   0  0  0  0  0  0
  -25.1269  -36.2009   25.0838 H   0  0  0  0  0  0
  -21.0069  -28.3225   24.1403 H   0  0  0  0  0  0
  -20.5678  -26.2269   23.3580 H   0  0  0  0  0  0
  -21.6780  -26.7475   22.1377 H   0  0  0  0  0  0
  -19.7088  -25.6497   21.0983 H   0  0  0  0  0  0
  -19.6883  -27.3442   20.6742 H   0  0  0  0  0  0
  -17.4344  -26.6731   21.3802 H   0  0  0  0  0  0
  -18.0383  -25.9983   22.8769 H   0  0  0  0  0  0
  -19.7861  -30.7161   24.2497 H   0  0  0  0  0  0
  -17.4969  -31.6156   24.5266 H   0  0  0  0  0  0
  -15.5354  -30.2959   23.7549 H   0  0  0  0  0  0
  -15.8699  -28.0819   22.6901 H   0  0  0  0  0  0
  -24.5931  -30.7004   25.7873 H   0  0  0  0  0  0
  -24.8976  -32.2798   26.5032 H   0  0  0  0  0  0
  -25.8193  -30.8797   27.0218 H   0  0  0  0  0  0
  -26.2794  -29.6824   24.1139 H   0  0  0  0  0  0
  -27.4168  -29.7306   25.4451 H   0  0  0  0  0  0
  -27.8596  -30.4449   23.9095 H   0  0  0  0  0  0
  -27.2604  -33.3629   26.2080 H   0  0  0  0  0  0
  -28.3804  -32.6920   25.0286 H   0  0  0  0  0  0
  -28.0699  -31.8447   26.5369 H   0  0  0  0  0  0
  -28.2605  -38.0114   24.7508 H   0  0  0  0  0  0
  -28.1060  -36.2638   24.6291 H   0  0  0  0  0  0
  -27.2294  -37.1503   25.8865 H   0  0  0  0  0  0
  -20.9317  -29.8604   21.6709 H   0  0  0  0  0  0
  -26.0189  -38.2883   24.1396 H   0  0  0  0  0  0
  -30.1690  -19.4308   21.3438 H   0  0  0  0  0  0
  -31.2810  -17.0094   20.6781 H   0  0  0  0  0  0
  -29.4677  -24.0706   19.7711 H   0  0  0  0  0  0
  -28.7959  -16.8735   16.9049 H   0  0  0  0  0  0
  -27.1889  -16.8795   17.6331 H   0  0  0  0  0  0
  -28.4325  -15.8326   18.2907 H   0  0  0  0  0  0
  -29.8307  -26.4785   21.4863 H   0  0  0  0  0  0
  -28.2547  -26.7575   22.1499 H   0  0  0  0  0  0
  -29.0736  -22.1153   18.9470 H   0  0  0  0  0  0
  -27.8520  -23.5368   22.8107 H   0  0  0  0  0  0
  1 25  1  0  0  0
  1 30  2  0  0  0
  1 81  1  0  0  0
  2  3  1  0  0  0
  2 25  1  0  0  0
  2 86  1  0  0  0
  2 87  1  0  0  0
  3  4  1  0  0  0
  3 88  1  0  0  0
  3 89  1  0  0  0
  4  5  1  0  0  0
  4 90  1  0  0  0
  4 91  1  0  0  0
  5  6  1  0  0  0
  5 26  1  0  0  0
  5 92  1  0  0  0
  6 25  1  0  0  0
  6 93  1  0  0  0
  6 94  1  0  0  0
  7  8  2  0  0  0
  7 26  1  0  0  0
  7 29  1  0  0  0
  8  9  1  0  0  0
  8 22  1  0  0  0
  9 10  1  0  0  0
  9 27  2  0  0  0
 10 11  2  0  0  0
 10 15  1  0  0  0
 11 12  1  0  0  0
 11 95  1  0  0  0
 12 13  2  0  0  0
 12 96  1  0  0  0
 13 14  1  0  0  0
 13 31  1  0  0  0
 14 15  2  0  0  0
 14 97  1  0  0  0
 15 98  1  0  0  0
 16 17  2  0  0  0
 16 21  1  0  0  0
 16 31  1  0  0  0
 17 18  1  0  0  0
 17 99  1  0  0  0
 18 19  2  0  0  0
 18100  1  0  0  0
 19 20  1  0  0  0
 19 24  1  0  0  0
 20 21  2  0  0  0
 20101  1  0  0  0
 21 23  1  0  0  0
 22 28  1  0  0  0
 22 32  2  0  0  0
 26 27  1  0  0  0
 28102  1  0  0  0
 28103  1  0  0  0
 29104  1  0  0  0
 29105  1  0  0  0
 33 34  1  0  0  0
 33 66  1  0  0  0
 33 70  2  0  0  0
 34 36  1  0  0  0
 34 59  1  0  0  0
 34106  1  0  0  0
 35 44  2  0  0  0
 35 45  1  0  0  0
 35 68  1  0  0  0
 36 56  1  0  0  0
 36107  1  0  0  0
 37 39  1  0  0  0
 37 47  1  0  0  0
 37 66  1  0  0  0
 37108  1  0  0  0
 38 43  2  0  0  0
 38 46  1  0  0  0
 38 47  1  0  0  0
 39 64  1  0  0  0
 39 67  2  0  0  0
 40 52  1  0  0  0
 40 53  2  0  0  0
 40 58  1  0  0  0
 41109  1  0  0  0
 41110  1  0  0  0
 41111  1  0  0  0
 41 48  1  0  0  0
 42 43  1  0  0  0
 42 66  1  0  0  0
 42112  1  0  0  0
 42113  1  0  0  0
 43 44  1  0  0  0
 44114  1  0  0  0
 45 46  2  0  0  0
 45115  1  0  0  0
 46116  1  0  0  0
 47117  1  0  0  0
 47118  1  0  0  0
 48 56  1  0  0  0
 48 65  1  0  0  0
 48119  1  0  0  0
 49 50  1  0  0  0
 49 53  1  0  0  0
 49 64  1  0  0  0
 49120  1  0  0  0
 50 51  1  0  0  0
 50121  1  0  0  0
 50122  1  0  0  0
 51 52  1  0  0  0
 51123  1  0  0  0
 51124  1  0  0  0
 52125  1  0  0  0
 52126  1  0  0  0
 53 54  1  0  0  0
 54 55  2  0  0  0
 54127  1  0  0  0
 55 57  1  0  0  0
 55128  1  0  0  0
 56 69  2  0  0  0
 57 58  2  0  0  0
 57129  1  0  0  0
 58130  1  0  0  0
 59 60  1  0  0  0
 59 61  1  0  0  0
 59 62  1  0  0  0
 60131  1  0  0  0
 60132  1  0  0  0
 60133  1  0  0  0
 61134  1  0  0  0
 61135  1  0  0  0
 61136  1  0  0  0
 62137  1  0  0  0
 62138  1  0  0  0
 62139  1  0  0  0
 63 65  1  0  0  0
 63140  1  0  0  0
 63141  1  0  0  0
 63142  1  0  0  0
 64143  1  0  0  0
 65144  1  0  0  0
 68 80  1  0  0  0
 71 72  1  0  0  0
 71 74  2  0  0  0
 71145  1  0  0  0
 72 73  2  0  0  0
 72 75  1  0  0  0
 73 79  1  0  0  0
 73 85  1  0  0  0
 74 82  1  0  0  0
 74 85  1  0  0  0
 75 81  2  0  0  0
 75146  1  0  0  0
 76 77  2  0  0  0
 76 78  1  0  0  0
 76147  1  0  0  0
 77 80  1  0  0  0
 77 84  1  0  0  0
 78 82  1  0  0  0
 78 83  2  0  0  0
 79148  1  0  0  0
 79149  1  0  0  0
 79150  1  0  0  0
 80151  1  0  0  0
 80152  1  0  0  0
 82153  1  0  0  0
 84154  1  0  0  0
M  ISO  4   1 100  68 101  80 101  81 100
M  END
> <chiral flag>
0

> <version>
0

> <s_m_source_file>
/data/baiqing/PycharmProjects/Reinvent-master-3.2/result/LINK_invent/BTK/process_docking_weight1_custom_product_contain_oxygen_bond_distance_aromatic_linkinvent_7_9_3/rearranged_h_0176.sdf

> <i_m_source_file_index>
88

> <r_mmod_Potential_Energy-OPLS-2005>
-27.7735023498535

> <r_mmod_Stretch_Energy-OPLS-2005>
38.7748870849609

> <r_mmod_Bend_Energy-OPLS-2005>
104.5576171875

> <r_mmod_Torsional_Energy-OPLS-2005>
241.301666259766

> <r_mmod_Improper_Torsional_Energy-OPLS-2005>
8.93252658843994

> <r_mmod_Van_der_Waal_Energy-OPLS-2005>
138.835037231445

> <r_mmod_Electrostatic_Energy-OPLS-2005>
-375.856140136719

> <r_mmod_Solvation_Energy-OPLS-2005>
-203.523391723633

> <b_mmod_Minimization_Converged-OPLS-2005>
0

> <r_mmod_RMS_Derivative-OPLS-2005>
6.80277299880981

$$$$
88
                    3D
 Structure written by MMmdl.
158166  0  0  1  0            999 V2000
  -30.6545  -14.5883   20.4257 C   0  0  0  0  0  0
  -30.4180  -12.3400   19.4434 C   0  0  0  0  0  0
  -29.4973  -12.4818   18.2110 C   0  0  0  0  0  0
  -28.0185  -12.3393   18.6232 C   0  0  0  0  0  0
  -27.6486  -13.2159   19.8516 C   0  0  2  0  0  0
  -28.6993  -13.0920   20.9811 C   0  0  0  0  0  0
  -25.2545  -13.8189   20.5694 C   0  0  0  0  0  0
  -24.1809  -13.0437   20.9224 C   0  0  0  0  0  0
  -24.6366  -11.6920   20.8715 C   0  0  0  0  0  0
  -23.9025  -10.4292   21.0369 C   0  0  0  0  0  0
  -24.3596   -9.4225   21.9159 C   0  0  0  0  0  0
  -23.6276   -8.2246   22.0744 C   0  0  0  0  0  0
  -22.4246   -8.0259   21.3544 C   0  0  0  0  0  0
  -21.9882   -9.0228   20.4653 C   0  0  0  0  0  0
  -22.7189  -10.2115   20.3038 C   0  0  0  0  0  0
  -21.6859   -6.0707   22.5270 C   0  0  0  0  0  0
  -21.4033   -6.5636   23.8197 C   0  0  0  0  0  0
  -21.3655   -5.6798   24.9169 C   0  0  0  0  0  0
  -21.6028   -4.3052   24.7238 C   0  0  0  0  0  0
  -21.8822   -3.8134   23.4367 C   0  0  0  0  0  0
  -21.9206   -4.6937   22.3414 C   0  0  0  0  0  0
  -22.7841  -13.5243   21.1875 C   0  0  0  0  0  0
  -22.1671   -4.2117   21.0987 F   0  0  0  0  0  0
  -21.5613   -3.4545   25.7756 F   0  0  0  0  0  0
  -30.0139  -13.3856   20.4017 N   0  0  0  0  0  0
  -26.2961  -12.9372   20.3302 N   0  0  0  0  0  0
  -25.9301  -11.6524   20.5754 N   0  0  0  0  0  0
  -22.0495  -12.8194   22.0434 N   0  0  0  0  0  0
  -25.4269  -15.1892   20.4097 N   0  0  0  0  0  0
  -31.8622  -14.6804   20.1984 O   0  0  0  0  0  0
  -21.6629   -6.8829   21.4216 O   0  0  0  0  0  0
  -22.3521  -14.5527   20.6697 O   0  0  0  0  0  0
  -24.6192  -31.8643   23.2078 C   0  0  0  0  0  0
  -25.9039  -32.4831   23.8404 C   0  0  1  0  0  0
  -27.2241  -27.3638   20.1195 C   0  0  0  0  0  0
  -25.5869  -33.8618   24.2347 N   0  0  0  0  0  0
  -23.4146  -30.4827   21.5529 C   0  0  2  0  0  0
  -24.8609  -28.9442   20.1210 C   0  0  0  0  0  0
  -22.7470  -29.4599   22.5022 C   0  0  0  0  0  0
  -18.0286  -28.1362   22.8536 C   0  0  0  0  0  0
  -24.1465  -36.7264   23.2637 C   0  0  0  0  0  0
  -25.9498  -30.8130   21.3718 C   0  0  0  0  0  0
  -26.0307  -29.4450   20.7096 C   0  0  0  0  0  0
  -27.2213  -28.6652   20.6975 C   0  0  0  0  0  0
  -26.0370  -26.9020   19.5160 C   0  0  0  0  0  0
  -24.8644  -27.6789   19.5142 C   0  0  0  0  0  0
  -23.6244  -29.8148   20.1718 C   0  0  0  0  0  0
  -25.4105  -36.3127   24.0348 C   0  0  1  0  0  0
  -20.5865  -28.3634   23.1357 C   0  0  2  0  0  0
  -20.6760  -26.9372   22.5440 C   0  0  0  0  0  0
  -19.5729  -26.6388   21.5238 C   0  0  0  0  0  0
  -18.1919  -26.7915   22.1659 C   0  0  0  0  0  0
  -19.1537  -28.8823   23.2933 C   0  0  0  0  0  0
  -18.9440  -30.1431   23.8926 C   0  0  0  0  0  0
  -17.6431  -30.6571   24.0553 C   0  0  0  0  0  0
  -25.9040  -34.9480   23.5166 C   0  0  0  0  0  0
  -16.5331  -29.9047   23.6333 C   0  0  0  0  0  0
  -16.7270  -28.6452   23.0395 C   0  0  0  0  0  0
  -26.4446  -31.6611   25.0733 C   0  0  0  0  0  0
  -25.3659  -31.3664   26.1431 C   0  0  0  0  0  0
  -27.0258  -30.3051   24.6118 C   0  0  0  0  0  0
  -27.6075  -32.4283   25.7449 C   0  0  0  0  0  0
  -27.5595  -37.1800   24.8493 C   0  0  0  0  0  0
  -21.4182  -29.2952   22.3735 N   0  0  0  0  0  0
  -26.4320  -37.3809   23.9420 N   0  0  0  0  0  0
  -24.6802  -31.0654   22.1037 N   0  0  0  0  0  0
  -23.4210  -28.8183   23.3126 O   0  0  0  0  0  0
  -28.3387  -26.5310   20.1320 O   0  0  0  0  0  0
  -26.5621  -34.8921   22.4732 O   0  0  0  0  0  0
  -23.5357  -32.1406   23.7419 O   0  0  0  0  0  0
  -30.5517  -19.2120   18.0364 C   0  0  0  0  0  0
  -30.9803  -17.9438   17.6111 C   0  0  0  0  0  0
  -29.8240  -19.3765   19.2362 C   0  0  0  0  0  0
  -30.0894  -16.9101   19.6544 C   0  0  0  0  0  0
  -30.7043  -16.8016   18.3772 C   0  0  0  0  0  0
  -29.6304  -18.2141   20.0646 C   0  0  0  0  0  0
  -29.3006  -20.7637   19.4951 C   0  0  0  0  0  0
  -29.2448  -22.7612   21.1607 C   0  0  0  0  0  0
  -28.5412  -25.6419   22.3359 C   0  0  0  0  0  0
  -28.9491  -24.0134   20.2393 C   0  0  0  0  0  0
  -28.1946  -25.2714   20.8761 C   0  0  1  0  0  0
  -29.8703  -15.7062   20.4486 N   0  0  0  0  0  0
  -29.4483  -21.3895   20.6884 N   0  0  0  0  0  0
  -28.7138  -21.3966   18.4691 N   0  3  0  0  0  0
  -29.4252  -22.9101   22.3703 O   0  0  0  0  0  0
  -31.0052  -15.5979   17.8321 F   0  0  0  0  0  0
  -28.9852  -18.3517   21.2498 F   0  0  0  0  0  0
  -31.4625  -12.4353   19.1431 H   0  0  0  0  0  0
  -30.3209  -11.3473   19.8872 H   0  0  0  0  0  0
  -29.7502  -11.7347   17.4570 H   0  0  0  0  0  0
  -29.6581  -13.4523   17.7411 H   0  0  0  0  0  0
  -27.8396  -11.2854   18.8490 H   0  0  0  0  0  0
  -27.3735  -12.5848   17.7786 H   0  0  0  0  0  0
  -27.6595  -14.2453   19.4981 H   0  0  0  0  0  0
  -28.6975  -12.0874   21.4074 H   0  0  0  0  0  0
  -28.4755  -13.7785   21.8009 H   0  0  0  0  0  0
  -25.2746   -9.5705   22.4735 H   0  0  0  0  0  0
  -24.0003   -7.4638   22.7470 H   0  0  0  0  0  0
  -21.0815   -8.8713   19.8975 H   0  0  0  0  0  0
  -22.3616  -10.9635   19.6141 H   0  0  0  0  0  0
  -21.2031   -7.6143   23.9696 H   0  0  0  0  0  0
  -21.1472   -6.0531   25.9064 H   0  0  0  0  0  0
  -22.0607   -2.7597   23.2882 H   0  0  0  0  0  0
  -22.4162  -11.9853   22.4766 H   0  0  0  0  0  0
  -21.1106  -13.1190   22.2655 H   0  0  0  0  0  0
  -24.6601  -15.8458   20.5055 H   0  0  0  0  0  0
  -26.2716  -15.6260   20.0649 H   0  0  0  0  0  0
  -26.7090  -32.5542   23.1154 H   0  0  0  0  0  0
  -24.9968  -33.9800   25.0465 H   0  0  0  0  0  0
  -22.7015  -31.2964   21.4106 H   0  0  0  0  0  0
  -23.3802  -35.9533   23.3363 H   0  0  0  0  0  0
  -24.3576  -36.8810   22.2041 H   0  0  0  0  0  0
  -23.7134  -37.6447   23.6619 H   0  0  0  0  0  0
  -26.0666  -31.5933   20.6197 H   0  0  0  0  0  0
  -26.8343  -30.8600   21.9962 H   0  0  0  0  0  0
  -28.1281  -29.0360   21.1550 H   0  0  0  0  0  0
  -26.0126  -25.9258   19.0537 H   0  0  0  0  0  0
  -23.9661  -27.2863   19.0586 H   0  0  0  0  0  0
  -23.7221  -30.5827   19.4049 H   0  0  0  0  0  0
  -22.7505  -29.2269   19.8903 H   0  0  0  0  0  0
  -25.1293  -36.2022   25.0851 H   0  0  0  0  0  0
  -20.9980  -28.3173   24.1467 H   0  0  0  0  0  0
  -20.5674  -26.2207   23.3606 H   0  0  0  0  0  0
  -21.6627  -26.7401   22.1215 H   0  0  0  0  0  0
  -19.6878  -25.6317   21.1218 H   0  0  0  0  0  0
  -19.6677  -27.3238   20.6800 H   0  0  0  0  0  0
  -17.4195  -26.6710   21.4057 H   0  0  0  0  0  0
  -18.0292  -26.0038   22.9020 H   0  0  0  0  0  0
  -19.7893  -30.7266   24.2327 H   0  0  0  0  0  0
  -17.4956  -31.6281   24.5098 H   0  0  0  0  0  0
  -15.5322  -30.2937   23.7638 H   0  0  0  0  0  0
  -15.8679  -28.0755   22.7126 H   0  0  0  0  0  0
  -24.5931  -30.6925   25.7694 H   0  0  0  0  0  0
  -24.8709  -32.2757   26.4826 H   0  0  0  0  0  0
  -25.7958  -30.8851   27.0220 H   0  0  0  0  0  0
  -26.2787  -29.6853   24.1139 H   0  0  0  0  0  0
  -27.3954  -29.7251   25.4585 H   0  0  0  0  0  0
  -27.8674  -30.4369   23.9318 H   0  0  0  0  0  0
  -27.2826  -33.3636   26.2003 H   0  0  0  0  0  0
  -28.3878  -32.6722   25.0230 H   0  0  0  0  0  0
  -28.0744  -31.8376   26.5348 H   0  0  0  0  0  0
  -28.2670  -38.0053   24.7566 H   0  0  0  0  0  0
  -28.1052  -36.2601   24.6342 H   0  0  0  0  0  0
  -27.2314  -37.1442   25.8898 H   0  0  0  0  0  0
  -20.9369  -29.8549   21.6842 H   0  0  0  0  0  0
  -26.0240  -38.2911   24.1416 H   0  0  0  0  0  0
  -30.7707  -20.0683   17.4122 H   0  0  0  0  0  0
  -31.5030  -17.8382   16.6710 H   0  0  0  0  0  0
  -28.0677  -26.5743   22.6412 H   0  0  0  0  0  0
  -29.6152  -25.7491   22.4891 H   0  0  0  0  0  0
  -28.1656  -24.9024   23.0438 H   0  0  0  0  0  0
  -28.3604  -23.7160   19.3748 H   0  0  0  0  0  0
  -29.9082  -24.3458   19.8404 H   0  0  0  0  0  0
  -27.1466  -24.9764   20.8900 H   0  0  0  0  0  0
  -28.9468  -15.6100   20.8405 H   0  0  0  0  0  0
  -29.7463  -20.7001   21.3629 H   0  0  0  0  0  0
  -28.2218  -22.2651   18.5873 H   0  0  0  0  0  0
  -28.6572  -20.9364   17.5740 H   0  0  0  0  0  0
  1 25  1  0  0  0
  1 30  2  0  0  0
  1 82  1  0  0  0
  2  3  1  0  0  0
  2 25  1  0  0  0
  2 88  1  0  0  0
  2 89  1  0  0  0
  3  4  1  0  0  0
  3 90  1  0  0  0
  3 91  1  0  0  0
  4  5  1  0  0  0
  4 92  1  0  0  0
  4 93  1  0  0  0
  5  6  1  0  0  0
  5 26  1  0  0  0
  5 94  1  0  0  0
  6 25  1  0  0  0
  6 95  1  0  0  0
  6 96  1  0  0  0
  7  8  2  0  0  0
  7 26  1  0  0  0
  7 29  1  0  0  0
  8  9  1  0  0  0
  8 22  1  0  0  0
  9 10  1  0  0  0
  9 27  2  0  0  0
 10 11  2  0  0  0
 10 15  1  0  0  0
 11 12  1  0  0  0
 11 97  1  0  0  0
 12 13  2  0  0  0
 12 98  1  0  0  0
 13 14  1  0  0  0
 13 31  1  0  0  0
 14 15  2  0  0  0
 14 99  1  0  0  0
 15100  1  0  0  0
 16 17  2  0  0  0
 16 21  1  0  0  0
 16 31  1  0  0  0
 17 18  1  0  0  0
 17101  1  0  0  0
 18 19  2  0  0  0
 18102  1  0  0  0
 19 20  1  0  0  0
 19 24  1  0  0  0
 20 21  2  0  0  0
 20103  1  0  0  0
 21 23  1  0  0  0
 22 28  1  0  0  0
 22 32  2  0  0  0
 26 27  1  0  0  0
 28104  1  0  0  0
 28105  1  0  0  0
 29106  1  0  0  0
 29107  1  0  0  0
 33 34  1  0  0  0
 33 66  1  0  0  0
 33 70  2  0  0  0
 34 36  1  0  0  0
 34 59  1  0  0  0
 34108  1  0  0  0
 35 44  2  0  0  0
 35 45  1  0  0  0
 35 68  1  0  0  0
 36 56  1  0  0  0
 36109  1  0  0  0
 37 39  1  0  0  0
 37 47  1  0  0  0
 37 66  1  0  0  0
 37110  1  0  0  0
 38 43  2  0  0  0
 38 46  1  0  0  0
 38 47  1  0  0  0
 39 64  1  0  0  0
 39 67  2  0  0  0
 40 52  1  0  0  0
 40 53  2  0  0  0
 40 58  1  0  0  0
 41111  1  0  0  0
 41112  1  0  0  0
 41113  1  0  0  0
 41 48  1  0  0  0
 42 43  1  0  0  0
 42 66  1  0  0  0
 42114  1  0  0  0
 42115  1  0  0  0
 43 44  1  0  0  0
 44116  1  0  0  0
 45 46  2  0  0  0
 45117  1  0  0  0
 46118  1  0  0  0
 47119  1  0  0  0
 47120  1  0  0  0
 48 56  1  0  0  0
 48 65  1  0  0  0
 48121  1  0  0  0
 49 50  1  0  0  0
 49 53  1  0  0  0
 49 64  1  0  0  0
 49122  1  0  0  0
 50 51  1  0  0  0
 50123  1  0  0  0
 50124  1  0  0  0
 51 52  1  0  0  0
 51125  1  0  0  0
 51126  1  0  0  0
 52127  1  0  0  0
 52128  1  0  0  0
 53 54  1  0  0  0
 54 55  2  0  0  0
 54129  1  0  0  0
 55 57  1  0  0  0
 55130  1  0  0  0
 56 69  2  0  0  0
 57 58  2  0  0  0
 57131  1  0  0  0
 58132  1  0  0  0
 59 60  1  0  0  0
 59 61  1  0  0  0
 59 62  1  0  0  0
 60133  1  0  0  0
 60134  1  0  0  0
 60135  1  0  0  0
 61136  1  0  0  0
 61137  1  0  0  0
 61138  1  0  0  0
 62139  1  0  0  0
 62140  1  0  0  0
 62141  1  0  0  0
 63 65  1  0  0  0
 63142  1  0  0  0
 63143  1  0  0  0
 63144  1  0  0  0
 64145  1  0  0  0
 65146  1  0  0  0
 68 81  1  0  0  0
 71 72  2  0  0  0
 71 73  1  0  0  0
 71147  1  0  0  0
 72 75  1  0  0  0
 72148  1  0  0  0
 73 76  2  0  0  0
 73 77  1  0  0  0
 74 75  2  0  0  0
 74 76  1  0  0  0
 74 82  1  0  0  0
 75 86  1  0  0  0
 76 87  1  0  0  0
 77 83  1  0  0  0
 77 84  2  0  0  0
 78 80  1  0  0  0
 78 83  1  0  0  0
 78 85  2  0  0  0
 79149  1  0  0  0
 79150  1  0  0  0
 79151  1  0  0  0
 79 81  1  0  0  0
 80 81  1  0  0  0
 80152  1  0  0  0
 80153  1  0  0  0
 81154  1  0  0  0
 82155  1  0  0  0
 83156  1  0  0  0
 84157  1  0  0  0
 84158  1  0  0  0
M  CHG  1  84   1
M  ISO  4   1 100  68 101  81 101  82 100
M  END
> <chiral flag>
0

> <version>
0

> <s_m_source_file>
/data/baiqing/PycharmProjects/Reinvent-master-3.2/result/LINK_invent/BTK/process_docking_weight1_custom_product_contain_oxygen_bond_distance_aromatic_linkinvent_7_9_3/rearranged_h_0176.sdf

> <i_m_source_file_index>
89

> <r_mmod_Potential_Energy-OPLS-2005>
-225.619277954102

> <r_mmod_Stretch_Energy-OPLS-2005>
69.9135665893555

> <r_mmod_Bend_Energy-OPLS-2005>
159.558090209961

> <r_mmod_Torsional_Energy-OPLS-2005>
268.793640136719

> <r_mmod_Improper_Torsional_Energy-OPLS-2005>
8.3339204788208

> <r_mmod_Van_der_Waal_Energy-OPLS-2005>
161.696426391602

> <r_mmod_Electrostatic_Energy-OPLS-2005>
-450.987091064453

> <r_mmod_Solvation_Energy-OPLS-2005>
-482.281036376953

> <b_mmod_Minimization_Converged-OPLS-2005>
0

> <r_mmod_RMS_Derivative-OPLS-2005>
4.94794273376465

$$$$
89
                    3D
 Structure written by MMmdl.
149157  0  0  1  0            999 V2000
  -30.5494  -14.9034   20.4354 C   0  0  0  0  0  0
  -30.4465  -12.5632   19.4775 C   0  0  0  0  0  0
  -29.5203  -12.5310   18.2402 C   0  0  0  0  0  0
  -28.0518  -12.3196   18.6607 C   0  0  0  0  0  0
  -27.6329  -13.2402   19.8375 C   0  0  2  0  0  0
  -28.6812  -13.2409   20.9699 C   0  0  0  0  0  0
  -25.2488  -13.8195   20.5699 C   0  0  0  0  0  0
  -24.1792  -13.0428   20.9217 C   0  0  0  0  0  0
  -24.6398  -11.6911   20.8745 C   0  0  0  0  0  0
  -23.9082  -10.4286   21.0422 C   0  0  0  0  0  0
  -24.3626   -9.4199   21.9199 C   0  0  0  0  0  0
  -23.6299   -8.2235   22.0759 C   0  0  0  0  0  0
  -22.4282   -8.0287   21.3545 C   0  0  0  0  0  0
  -21.9925   -9.0269   20.4650 C   0  0  0  0  0  0
  -22.7259  -10.2139   20.3069 C   0  0  0  0  0  0
  -21.6859   -6.0745   22.5279 C   0  0  0  0  0  0
  -21.4016   -6.5643   23.8216 C   0  0  0  0  0  0
  -21.3653   -5.6788   24.9172 C   0  0  0  0  0  0
  -21.6043   -4.3054   24.7219 C   0  0  0  0  0  0
  -21.8814   -3.8151   23.4338 C   0  0  0  0  0  0
  -21.9185   -4.6968   22.3393 C   0  0  0  0  0  0
  -22.7807  -13.5214   21.1868 C   0  0  0  0  0  0
  -22.1656   -4.2158   21.0972 F   0  0  0  0  0  0
  -21.5626   -3.4529   25.7729 F   0  0  0  0  0  0
  -29.9569  -13.6475   20.3669 N   0  0  0  0  0  0
  -26.2908  -12.9411   20.3222 N   0  0  0  0  0  0
  -25.9335  -11.6551   20.5723 N   0  0  0  0  0  0
  -22.0429  -12.8233   22.0420 N   0  0  0  0  0  0
  -25.4132  -15.1929   20.4138 N   0  0  0  0  0  0
  -31.7656  -14.9775   20.2294 O   0  0  0  0  0  0
  -21.6637   -6.8895   21.4251 O   0  0  0  0  0  0
  -22.3496  -14.5518   20.6700 O   0  0  0  0  0  0
  -24.6407  -31.8479   23.1922 C   0  0  0  0  0  0
  -25.9186  -32.4722   23.8306 C   0  0  1  0  0  0
  -27.2271  -27.1772   20.1415 C   0  0  0  0  0  0
  -25.5944  -33.8535   24.2215 N   0  0  0  0  0  0
  -23.4425  -30.4684   21.5377 C   0  0  2  0  0  0
  -24.8918  -28.9046   20.1095 C   0  0  0  0  0  0
  -22.7549  -29.4562   22.4875 C   0  0  0  0  0  0
  -18.0297  -28.1382   22.8472 C   0  0  0  0  0  0
  -24.1487  -36.7281   23.2640 C   0  0  0  0  0  0
  -25.9970  -30.7351   21.3860 C   0  0  0  0  0  0
  -26.0701  -29.3523   20.7221 C   0  0  0  0  0  0
  -27.2378  -28.5048   20.7219 C   0  0  0  0  0  0
  -26.0069  -26.8082   19.5287 C   0  0  0  0  0  0
  -24.8697  -27.6419   19.5001 C   0  0  0  0  0  0
  -23.6671  -29.8034   20.1547 C   0  0  0  0  0  0
  -25.4119  -36.3056   24.0311 C   0  0  1  0  0  0
  -20.5908  -28.3715   23.1244 C   0  0  2  0  0  0
  -20.6792  -26.9425   22.5408 C   0  0  0  0  0  0
  -19.5773  -26.6371   21.5215 C   0  0  0  0  0  0
  -18.1942  -26.7922   22.1611 C   0  0  0  0  0  0
  -19.1547  -28.8865   23.2849 C   0  0  0  0  0  0
  -18.9470  -30.1455   23.8881 C   0  0  0  0  0  0
  -17.6470  -30.6591   24.0554 C   0  0  0  0  0  0
  -25.9064  -34.9426   23.5066 C   0  0  0  0  0  0
  -16.5364  -29.9079   23.6334 C   0  0  0  0  0  0
  -16.7280  -28.6489   23.0370 C   0  0  0  0  0  0
  -26.4497  -31.6590   25.0752 C   0  0  0  0  0  0
  -25.3672  -31.3807   26.1446 C   0  0  0  0  0  0
  -27.0361  -30.2975   24.6349 C   0  0  0  0  0  0
  -27.6018  -32.4355   25.7547 C   0  0  0  0  0  0
  -27.5575  -37.1802   24.8453 C   0  0  0  0  0  0
  -21.4246  -29.3043   22.3616 N   0  0  0  0  0  0
  -26.4289  -37.3761   23.9390 N   0  0  0  0  0  0
  -24.7130  -31.0363   22.0945 N   0  0  0  0  0  0
  -23.4197  -28.8122   23.3032 O   0  0  0  0  0  0
  -28.2788  -26.1925   20.2250 O   0  0  0  0  0  0
  -26.5640  -34.8911   22.4641 O   0  0  0  0  0  0
  -23.5528  -32.1346   23.7152 O   0  0  0  0  0  0
  -30.7785  -18.0497   21.6012 C   0  0  0  0  0  0
  -29.9310  -17.5475   20.6386 C   0  0  0  0  0  0
  -29.5003  -19.9685   20.5051 C   0  0  0  0  0  0
  -28.6803  -23.6991   19.3315 C   0  0  0  0  0  0
  -28.4393  -25.1114   19.2756 C   0  0  0  0  0  0
  -28.9598  -22.6364   20.4071 C   0  0  0  0  0  0
  -28.3942  -25.7421   17.8758 C   0  0  0  0  0  0
  -29.2125  -18.6829   20.0352 N   0  0  0  0  0  0
  -29.7242  -16.0550   20.4327 N   0  0  0  0  0  0
  -28.9939  -21.2901   19.9595 N   0  0  0  0  0  0
  -29.1586  -22.9116   21.5924 O   0  0  0  0  0  0
  -28.7072  -23.1275   18.1128 O   0  0  0  0  0  0
  -30.7030  -19.8180   21.7904 S   0  0  0  0  0  0
  -31.4790  -12.7328   19.1661 H   0  0  0  0  0  0
  -30.4402  -11.6026   19.9956 H   0  0  0  0  0  0
  -29.8356  -11.7477   17.5506 H   0  0  0  0  0  0
  -29.6123  -13.4722   17.6951 H   0  0  0  0  0  0
  -27.9425  -11.2764   18.9577 H   0  0  0  0  0  0
  -27.3870  -12.4622   17.8078 H   0  0  0  0  0  0
  -27.6038  -14.2483   19.4243 H   0  0  0  0  0  0
  -28.7608  -12.2566   21.4346 H   0  0  0  0  0  0
  -28.3931  -13.9324   21.7637 H   0  0  0  0  0  0
  -25.2770   -9.5676   22.4780 H   0  0  0  0  0  0
  -23.9998   -7.4630   22.7488 H   0  0  0  0  0  0
  -21.0849   -8.8813   19.8965 H   0  0  0  0  0  0
  -22.3738  -10.9689   19.6177 H   0  0  0  0  0  0
  -21.2025   -7.6153   23.9729 H   0  0  0  0  0  0
  -21.1479   -6.0511   25.9073 H   0  0  0  0  0  0
  -22.0603   -2.7618   23.2828 H   0  0  0  0  0  0
  -22.4013  -11.9898   22.4848 H   0  0  0  0  0  0
  -21.1052  -13.1311   22.2600 H   0  0  0  0  0  0
  -24.6423  -15.8410   20.5354 H   0  0  0  0  0  0
  -26.2522  -15.6428   20.0749 H   0  0  0  0  0  0
  -26.7274  -32.5328   23.1061 H   0  0  0  0  0  0
  -25.0090  -33.9668   25.0355 H   0  0  0  0  0  0
  -22.7441  -31.2944   21.3885 H   0  0  0  0  0  0
  -23.3749  -35.9616   23.3301 H   0  0  0  0  0  0
  -24.3578  -36.8913   22.2060 H   0  0  0  0  0  0
  -23.7250  -37.6479   23.6679 H   0  0  0  0  0  0
  -26.1524  -31.4981   20.6223 H   0  0  0  0  0  0
  -26.8678  -30.7778   22.0293 H   0  0  0  0  0  0
  -28.1375  -28.8447   21.2154 H   0  0  0  0  0  0
  -25.9044  -25.8221   19.1008 H   0  0  0  0  0  0
  -23.9643  -27.2809   19.0321 H   0  0  0  0  0  0
  -23.8024  -30.5838   19.4045 H   0  0  0  0  0  0
  -22.7813  -29.2467   19.8425 H   0  0  0  0  0  0
  -25.1309  -36.1900   25.0807 H   0  0  0  0  0  0
  -20.9993  -28.3307   24.1371 H   0  0  0  0  0  0
  -20.5705  -26.2332   23.3623 H   0  0  0  0  0  0
  -21.6663  -26.7456   22.1207 H   0  0  0  0  0  0
  -19.6953  -25.6270   21.1275 H   0  0  0  0  0  0
  -19.6725  -27.3158   20.6726 H   0  0  0  0  0  0
  -17.4230  -26.6669   21.3998 H   0  0  0  0  0  0
  -18.0334  -26.0060   22.9002 H   0  0  0  0  0  0
  -19.7948  -30.7260   24.2259 H   0  0  0  0  0  0
  -17.5034  -31.6281   24.5140 H   0  0  0  0  0  0
  -15.5360  -30.2993   23.7662 H   0  0  0  0  0  0
  -15.8672  -28.0804   22.7119 H   0  0  0  0  0  0
  -24.5831  -30.7174   25.7774 H   0  0  0  0  0  0
  -24.8889  -32.3015   26.4801 H   0  0  0  0  0  0
  -25.7944  -30.9025   27.0270 H   0  0  0  0  0  0
  -26.2998  -29.6712   24.1305 H   0  0  0  0  0  0
  -27.3896  -29.7266   25.4947 H   0  0  0  0  0  0
  -27.8936  -30.4194   23.9726 H   0  0  0  0  0  0
  -27.2589  -33.3658   26.2087 H   0  0  0  0  0  0
  -28.3862  -32.6912   25.0412 H   0  0  0  0  0  0
  -28.0650  -31.8513   26.5508 H   0  0  0  0  0  0
  -28.2578  -38.0108   24.7492 H   0  0  0  0  0  0
  -28.1078  -36.2637   24.6283 H   0  0  0  0  0  0
  -27.2292  -37.1458   25.8854 H   0  0  0  0  0  0
  -20.9439  -29.8744   21.6796 H   0  0  0  0  0  0
  -26.0159  -38.2832   24.1383 H   0  0  0  0  0  0
  -31.4276  -17.4870   22.2580 H   0  0  0  0  0  0
  -29.3015  -25.5037   17.3189 H   0  0  0  0  0  0
  -28.3519  -26.8309   17.8943 H   0  0  0  0  0  0
  -27.5299  -25.3903   17.3117 H   0  0  0  0  0  0
  -28.7595  -15.8118   20.2811 H   0  0  0  0  0  0
  -28.6741  -21.2372   19.0024 H   0  0  0  0  0  0
  -28.5772  -23.8267   17.4847 H   0  0  0  0  0  0
  1 25  1  0  0  0
  1 30  2  0  0  0
  1 79  1  0  0  0
  2  3  1  0  0  0
  2 25  1  0  0  0
  2 84  1  0  0  0
  2 85  1  0  0  0
  3  4  1  0  0  0
  3 86  1  0  0  0
  3 87  1  0  0  0
  4  5  1  0  0  0
  4 88  1  0  0  0
  4 89  1  0  0  0
  5  6  1  0  0  0
  5 26  1  0  0  0
  5 90  1  0  0  0
  6 25  1  0  0  0
  6 91  1  0  0  0
  6 92  1  0  0  0
  7  8  2  0  0  0
  7 26  1  0  0  0
  7 29  1  0  0  0
  8  9  1  0  0  0
  8 22  1  0  0  0
  9 10  1  0  0  0
  9 27  2  0  0  0
 10 11  2  0  0  0
 10 15  1  0  0  0
 11 12  1  0  0  0
 11 93  1  0  0  0
 12 13  2  0  0  0
 12 94  1  0  0  0
 13 14  1  0  0  0
 13 31  1  0  0  0
 14 15  2  0  0  0
 14 95  1  0  0  0
 15 96  1  0  0  0
 16 17  2  0  0  0
 16 21  1  0  0  0
 16 31  1  0  0  0
 17 18  1  0  0  0
 17 97  1  0  0  0
 18 19  2  0  0  0
 18 98  1  0  0  0
 19 20  1  0  0  0
 19 24  1  0  0  0
 20 21  2  0  0  0
 20 99  1  0  0  0
 21 23  1  0  0  0
 22 28  1  0  0  0
 22 32  2  0  0  0
 26 27  1  0  0  0
 28100  1  0  0  0
 28101  1  0  0  0
 29102  1  0  0  0
 29103  1  0  0  0
 33 34  1  0  0  0
 33 66  1  0  0  0
 33 70  2  0  0  0
 34 36  1  0  0  0
 34 59  1  0  0  0
 34104  1  0  0  0
 35 44  2  0  0  0
 35 45  1  0  0  0
 35 68  1  0  0  0
 36 56  1  0  0  0
 36105  1  0  0  0
 37 39  1  0  0  0
 37 47  1  0  0  0
 37 66  1  0  0  0
 37106  1  0  0  0
 38 43  2  0  0  0
 38 46  1  0  0  0
 38 47  1  0  0  0
 39 64  1  0  0  0
 39 67  2  0  0  0
 40 52  1  0  0  0
 40 53  2  0  0  0
 40 58  1  0  0  0
 41107  1  0  0  0
 41108  1  0  0  0
 41109  1  0  0  0
 41 48  1  0  0  0
 42 43  1  0  0  0
 42 66  1  0  0  0
 42110  1  0  0  0
 42111  1  0  0  0
 43 44  1  0  0  0
 44112  1  0  0  0
 45 46  2  0  0  0
 45113  1  0  0  0
 46114  1  0  0  0
 47115  1  0  0  0
 47116  1  0  0  0
 48 56  1  0  0  0
 48 65  1  0  0  0
 48117  1  0  0  0
 49 50  1  0  0  0
 49 53  1  0  0  0
 49 64  1  0  0  0
 49118  1  0  0  0
 50 51  1  0  0  0
 50119  1  0  0  0
 50120  1  0  0  0
 51 52  1  0  0  0
 51121  1  0  0  0
 51122  1  0  0  0
 52123  1  0  0  0
 52124  1  0  0  0
 53 54  1  0  0  0
 54 55  2  0  0  0
 54125  1  0  0  0
 55 57  1  0  0  0
 55126  1  0  0  0
 56 69  2  0  0  0
 57 58  2  0  0  0
 57127  1  0  0  0
 58128  1  0  0  0
 59 60  1  0  0  0
 59 61  1  0  0  0
 59 62  1  0  0  0
 60129  1  0  0  0
 60130  1  0  0  0
 60131  1  0  0  0
 61132  1  0  0  0
 61133  1  0  0  0
 61134  1  0  0  0
 62135  1  0  0  0
 62136  1  0  0  0
 62137  1  0  0  0
 63 65  1  0  0  0
 63138  1  0  0  0
 63139  1  0  0  0
 63140  1  0  0  0
 64141  1  0  0  0
 65142  1  0  0  0
 68 75  1  0  0  0
 71 72  2  0  0  0
 71 83  1  0  0  0
 71143  1  0  0  0
 72 78  1  0  0  0
 72 79  1  0  0  0
 73 78  2  0  0  0
 73 80  1  0  0  0
 73 83  1  0  0  0
 74 75  2  0  0  0
 74 76  1  0  0  0
 74 82  1  0  0  0
 75 77  1  0  0  0
 76 80  1  0  0  0
 76 81  2  0  0  0
 77144  1  0  0  0
 77145  1  0  0  0
 77146  1  0  0  0
 79147  1  0  0  0
 80148  1  0  0  0
 82149  1  0  0  0
M  ISO  4   1 100  68 101  75 101  79 100
M  END
> <chiral flag>
0

> <version>
0

> <s_m_source_file>
/data/baiqing/PycharmProjects/Reinvent-master-3.2/result/LINK_invent/BTK/process_docking_weight1_custom_product_contain_oxygen_bond_distance_aromatic_linkinvent_7_9_3/rearranged_h_0176.sdf

> <i_m_source_file_index>
90

> <r_mmod_Potential_Energy-OPLS-2005>
319.839385986328

> <r_mmod_Stretch_Energy-OPLS-2005>
197.0283203125

> <r_mmod_Bend_Energy-OPLS-2005>
269.517852783203

> <r_mmod_Torsional_Energy-OPLS-2005>
231.419219970703

> <r_mmod_Improper_Torsional_Energy-OPLS-2005>
8.93704414367676

> <r_mmod_Van_der_Waal_Energy-OPLS-2005>
134.119338989258

> <r_mmod_Electrostatic_Energy-OPLS-2005>
-449.050445556641

> <r_mmod_Solvation_Energy-OPLS-2005>
-237.739273071289

> <b_mmod_Minimization_Converged-OPLS-2005>
0

> <r_mmod_RMS_Derivative-OPLS-2005>
2.06308650970459

$$$$
90
                    3D
 Structure written by MMmdl.
150158  0  0  1  0            999 V2000
  -30.6635  -14.6262   20.4535 C   0  0  0  0  0  0
  -30.4090  -12.3667   19.4707 C   0  0  0  0  0  0
  -29.4917  -12.4645   18.2334 C   0  0  0  0  0  0
  -28.0168  -12.3076   18.6451 C   0  0  0  0  0  0
  -27.6374  -13.2191   19.8403 C   0  0  2  0  0  0
  -28.6755  -13.1381   20.9740 C   0  0  0  0  0  0
  -25.2515  -13.8210   20.5626 C   0  0  0  0  0  0
  -24.1763  -13.0462   20.9154 C   0  0  0  0  0  0
  -24.6349  -11.6933   20.8737 C   0  0  0  0  0  0
  -23.9033  -10.4292   21.0432 C   0  0  0  0  0  0
  -24.3598   -9.4202   21.9197 C   0  0  0  0  0  0
  -23.6270   -8.2235   22.0786 C   0  0  0  0  0  0
  -22.4254   -8.0273   21.3562 C   0  0  0  0  0  0
  -21.9891   -9.0245   20.4664 C   0  0  0  0  0  0
  -22.7233  -10.2119   20.3068 C   0  0  0  0  0  0
  -21.6852   -6.0729   22.5267 C   0  0  0  0  0  0
  -21.3997   -6.5627   23.8197 C   0  0  0  0  0  0
  -21.3661   -5.6787   24.9151 C   0  0  0  0  0  0
  -21.6045   -4.3046   24.7206 C   0  0  0  0  0  0
  -21.8826   -3.8134   23.4323 C   0  0  0  0  0  0
  -21.9186   -4.6949   22.3384 C   0  0  0  0  0  0
  -22.7778  -13.5257   21.1812 C   0  0  0  0  0  0
  -22.1666   -4.2141   21.0962 F   0  0  0  0  0  0
  -21.5634   -3.4541   25.7724 F   0  0  0  0  0  0
  -29.9961  -13.4308   20.4093 N   0  0  0  0  0  0
  -26.2892  -12.9385   20.3237 N   0  0  0  0  0  0
  -25.9259  -11.6539   20.5741 N   0  0  0  0  0  0
  -22.0456  -12.8227   22.0401 N   0  0  0  0  0  0
  -25.4277  -15.1909   20.4027 N   0  0  0  0  0  0
  -31.8561  -14.6467   20.1408 O   0  0  0  0  0  0
  -21.6641   -6.8854   21.4224 O   0  0  0  0  0  0
  -22.3447  -14.5565   20.6686 O   0  0  0  0  0  0
  -24.6307  -31.8594   23.2060 C   0  0  0  0  0  0
  -25.9170  -32.4753   23.8354 C   0  0  1  0  0  0
  -27.2044  -27.3509   20.0880 C   0  0  0  0  0  0
  -25.6015  -33.8542   24.2289 N   0  0  0  0  0  0
  -23.4182  -30.4909   21.5474 C   0  0  2  0  0  0
  -24.8601  -28.9585   20.0961 C   0  0  0  0  0  0
  -22.7460  -29.4683   22.4941 C   0  0  0  0  0  0
  -18.0283  -28.1377   22.8471 C   0  0  0  0  0  0
  -24.1518  -36.7262   23.2636 C   0  0  0  0  0  0
  -25.9571  -30.8071   21.3622 C   0  0  0  0  0  0
  -26.0323  -29.4396   20.6964 C   0  0  0  0  0  0
  -27.2146  -28.6434   20.6892 C   0  0  0  0  0  0
  -26.0246  -26.9240   19.4497 C   0  0  0  0  0  0
  -24.8574  -27.7055   19.4654 C   0  0  0  0  0  0
  -23.6242  -29.8303   20.1616 C   0  0  0  0  0  0
  -25.4123  -36.3036   24.0337 C   0  0  1  0  0  0
  -20.5873  -28.3692   23.1243 C   0  0  2  0  0  0
  -20.6794  -26.9423   22.5373 C   0  0  0  0  0  0
  -19.5786  -26.6379   21.5175 C   0  0  0  0  0  0
  -18.1938  -26.7919   22.1578 C   0  0  0  0  0  0
  -19.1526  -28.8837   23.2865 C   0  0  0  0  0  0
  -18.9485  -30.1436   23.8887 C   0  0  0  0  0  0
  -17.6501  -30.6610   24.0552 C   0  0  0  0  0  0
  -25.9077  -34.9419   23.5089 C   0  0  0  0  0  0
  -16.5382  -29.9094   23.6353 C   0  0  0  0  0  0
  -16.7275  -28.6488   23.0391 C   0  0  0  0  0  0
  -26.4549  -31.6527   25.0696 C   0  0  0  0  0  0
  -25.3826  -31.3559   26.1437 C   0  0  0  0  0  0
  -27.0433  -30.3005   24.6070 C   0  0  0  0  0  0
  -27.6170  -32.4226   25.7442 C   0  0  0  0  0  0
  -27.5569  -37.1772   24.8468 C   0  0  0  0  0  0
  -21.4178  -29.3072   22.3648 N   0  0  0  0  0  0
  -26.4269  -37.3776   23.9440 N   0  0  0  0  0  0
  -24.6882  -31.0651   22.0965 N   0  0  0  0  0  0
  -23.4159  -28.8216   23.3034 O   0  0  0  0  0  0
  -28.2197  -26.4001   20.2083 O   0  0  0  0  0  0
  -26.5615  -34.8903   22.4637 O   0  0  0  0  0  0
  -23.5472  -32.1338   23.7453 O   0  0  0  0  0  0
  -29.8815  -20.5701   18.6473 C   0  0  0  0  0  0
  -29.2952  -20.5770   19.8868 C   0  0  0  0  0  0
  -29.2407  -19.2388   20.4896 C   0  0  0  0  0  0
  -29.8275  -18.2438   19.6992 C   0  0  0  0  0  0
  -30.1736  -16.7805   19.8029 C   0  0  0  0  0  0
  -27.8373  -25.3420   21.0472 C   0  0  0  0  0  0
  -28.0266  -23.9801   21.0642 C   0  0  0  0  0  0
  -28.7971  -23.1150   20.1322 C   0  0  0  0  0  0
  -29.9017  -15.8156   20.6427 N   0  0  0  0  0  0
  -28.6710  -19.0419   21.7614 N   0  0  0  0  0  0
  -28.7827  -21.7896   20.5087 N   0  0  0  0  0  0
  -29.3881  -23.5292   19.1324 O   0  0  0  0  0  0
  -27.3989  -23.3320   22.0670 O   0  0  0  0  0  0
  -30.3631  -18.9628   18.1869 S   0  0  0  0  0  0
  -31.4520  -12.4463   19.1650 H   0  0  0  0  0  0
  -30.3128  -11.3892   19.9482 H   0  0  0  0  0  0
  -29.7545  -11.6949   17.5060 H   0  0  0  0  0  0
  -29.6322  -13.4249   17.7368 H   0  0  0  0  0  0
  -27.8614  -11.2623   18.9168 H   0  0  0  0  0  0
  -27.3598  -12.5021   17.7975 H   0  0  0  0  0  0
  -27.6472  -14.2394   19.4570 H   0  0  0  0  0  0
  -28.6699  -12.1453   21.4295 H   0  0  0  0  0  0
  -28.4231  -13.8414   21.7695 H   0  0  0  0  0  0
  -25.2745   -9.5672   22.4782 H   0  0  0  0  0  0
  -23.9981   -7.4630   22.7495 H   0  0  0  0  0  0
  -21.0837   -8.8729   19.8955 H   0  0  0  0  0  0
  -22.3687  -10.9645   19.6160 H   0  0  0  0  0  0
  -21.1982   -7.6130   23.9679 H   0  0  0  0  0  0
  -21.1487   -6.0524   25.9053 H   0  0  0  0  0  0
  -22.0605   -2.7606   23.2826 H   0  0  0  0  0  0
  -22.4136  -11.9845   22.4654 H   0  0  0  0  0  0
  -21.1117  -13.1240   22.2710 H   0  0  0  0  0  0
  -24.6716  -15.8598   20.5044 H   0  0  0  0  0  0
  -26.2983  -15.6193   20.1109 H   0  0  0  0  0  0
  -26.7236  -32.5411   23.1110 H   0  0  0  0  0  0
  -25.0233  -33.9685   25.0478 H   0  0  0  0  0  0
  -22.7171  -31.3179   21.4100 H   0  0  0  0  0  0
  -23.3799  -35.9576   23.3247 H   0  0  0  0  0  0
  -24.3618  -36.8929   22.2061 H   0  0  0  0  0  0
  -23.7274  -37.6442   23.6697 H   0  0  0  0  0  0
  -26.0828  -31.5798   20.5997 H   0  0  0  0  0  0
  -26.8400  -30.8478   21.9879 H   0  0  0  0  0  0
  -28.1079  -28.9948   21.1858 H   0  0  0  0  0  0
  -25.9898  -25.9498   18.9804 H   0  0  0  0  0  0
  -23.9560  -27.3317   19.0039 H   0  0  0  0  0  0
  -23.7288  -30.6078   19.4039 H   0  0  0  0  0  0
  -22.7406  -29.2618   19.8716 H   0  0  0  0  0  0
  -25.1313  -36.1815   25.0832 H   0  0  0  0  0  0
  -20.9977  -28.3274   24.1368 H   0  0  0  0  0  0
  -20.5671  -26.2342   23.3586 H   0  0  0  0  0  0
  -21.6648  -26.7472   22.1164 H   0  0  0  0  0  0
  -19.6986  -25.6290   21.1193 H   0  0  0  0  0  0
  -19.6704  -27.3195   20.6685 H   0  0  0  0  0  0
  -17.4220  -26.6665   21.3986 H   0  0  0  0  0  0
  -18.0370  -26.0032   22.8923 H   0  0  0  0  0  0
  -19.7968  -30.7217   24.2264 H   0  0  0  0  0  0
  -17.5080  -31.6293   24.5139 H   0  0  0  0  0  0
  -15.5398  -30.3029   23.7707 H   0  0  0  0  0  0
  -15.8641  -28.0823   22.7179 H   0  0  0  0  0  0
  -24.6089  -30.6828   25.7758 H   0  0  0  0  0  0
  -24.8949  -32.2668   26.4921 H   0  0  0  0  0  0
  -25.8198  -30.8719   27.0182 H   0  0  0  0  0  0
  -26.2972  -29.6649   24.1291 H   0  0  0  0  0  0
  -27.4445  -29.7317   25.4476 H   0  0  0  0  0  0
  -27.8678  -30.4384   23.9073 H   0  0  0  0  0  0
  -27.2883  -33.3594   26.1906 H   0  0  0  0  0  0
  -28.4009  -32.6585   25.0264 H   0  0  0  0  0  0
  -28.0761  -31.8368   26.5415 H   0  0  0  0  0  0
  -28.2524  -38.0121   24.7578 H   0  0  0  0  0  0
  -28.1109  -36.2655   24.6188 H   0  0  0  0  0  0
  -27.2277  -37.1256   25.8858 H   0  0  0  0  0  0
  -20.9372  -29.8741   21.6793 H   0  0  0  0  0  0
  -26.0099  -38.2819   24.1490 H   0  0  0  0  0  0
  -30.0697  -21.3898   17.9618 H   0  0  0  0  0  0
  -30.8217  -16.5243   18.9556 H   0  0  0  0  0  0
  -27.2252  -25.7499   21.8425 H   0  0  0  0  0  0
  -27.9588  -19.6827   22.0885 H   0  0  0  0  0  0
  -28.4486  -18.0840   22.0197 H   0  0  0  0  0  0
  -28.3024  -21.6495   21.3874 H   0  0  0  0  0  0
  -26.8522  -23.9621   22.5193 H   0  0  0  0  0  0
  1 25  1  0  0  0
  1 30  2  0  0  0
  1 79  1  0  0  0
  2  3  1  0  0  0
  2 25  1  0  0  0
  2 85  1  0  0  0
  2 86  1  0  0  0
  3  4  1  0  0  0
  3 87  1  0  0  0
  3 88  1  0  0  0
  4  5  1  0  0  0
  4 89  1  0  0  0
  4 90  1  0  0  0
  5  6  1  0  0  0
  5 26  1  0  0  0
  5 91  1  0  0  0
  6 25  1  0  0  0
  6 92  1  0  0  0
  6 93  1  0  0  0
  7  8  2  0  0  0
  7 26  1  0  0  0
  7 29  1  0  0  0
  8  9  1  0  0  0
  8 22  1  0  0  0
  9 10  1  0  0  0
  9 27  2  0  0  0
 10 11  2  0  0  0
 10 15  1  0  0  0
 11 12  1  0  0  0
 11 94  1  0  0  0
 12 13  2  0  0  0
 12 95  1  0  0  0
 13 14  1  0  0  0
 13 31  1  0  0  0
 14 15  2  0  0  0
 14 96  1  0  0  0
 15 97  1  0  0  0
 16 17  2  0  0  0
 16 21  1  0  0  0
 16 31  1  0  0  0
 17 18  1  0  0  0
 17 98  1  0  0  0
 18 19  2  0  0  0
 18 99  1  0  0  0
 19 20  1  0  0  0
 19 24  1  0  0  0
 20 21  2  0  0  0
 20100  1  0  0  0
 21 23  1  0  0  0
 22 28  1  0  0  0
 22 32  2  0  0  0
 26 27  1  0  0  0
 28101  1  0  0  0
 28102  1  0  0  0
 29103  1  0  0  0
 29104  1  0  0  0
 33 34  1  0  0  0
 33 66  1  0  0  0
 33 70  2  0  0  0
 34 36  1  0  0  0
 34 59  1  0  0  0
 34105  1  0  0  0
 35 44  2  0  0  0
 35 45  1  0  0  0
 35 68  1  0  0  0
 36 56  1  0  0  0
 36106  1  0  0  0
 37 39  1  0  0  0
 37 47  1  0  0  0
 37 66  1  0  0  0
 37107  1  0  0  0
 38 43  2  0  0  0
 38 46  1  0  0  0
 38 47  1  0  0  0
 39 64  1  0  0  0
 39 67  2  0  0  0
 40 52  1  0  0  0
 40 53  2  0  0  0
 40 58  1  0  0  0
 41108  1  0  0  0
 41109  1  0  0  0
 41110  1  0  0  0
 41 48  1  0  0  0
 42 43  1  0  0  0
 42 66  1  0  0  0
 42111  1  0  0  0
 42112  1  0  0  0
 43 44  1  0  0  0
 44113  1  0  0  0
 45 46  2  0  0  0
 45114  1  0  0  0
 46115  1  0  0  0
 47116  1  0  0  0
 47117  1  0  0  0
 48 56  1  0  0  0
 48 65  1  0  0  0
 48118  1  0  0  0
 49 50  1  0  0  0
 49 53  1  0  0  0
 49 64  1  0  0  0
 49119  1  0  0  0
 50 51  1  0  0  0
 50120  1  0  0  0
 50121  1  0  0  0
 51 52  1  0  0  0
 51122  1  0  0  0
 51123  1  0  0  0
 52124  1  0  0  0
 52125  1  0  0  0
 53 54  1  0  0  0
 54 55  2  0  0  0
 54126  1  0  0  0
 55 57  1  0  0  0
 55127  1  0  0  0
 56 69  2  0  0  0
 57 58  2  0  0  0
 57128  1  0  0  0
 58129  1  0  0  0
 59 60  1  0  0  0
 59 61  1  0  0  0
 59 62  1  0  0  0
 60130  1  0  0  0
 60131  1  0  0  0
 60132  1  0  0  0
 61133  1  0  0  0
 61134  1  0  0  0
 61135  1  0  0  0
 62136  1  0  0  0
 62137  1  0  0  0
 62138  1  0  0  0
 63 65  1  0  0  0
 63139  1  0  0  0
 63140  1  0  0  0
 63141  1  0  0  0
 64142  1  0  0  0
 65143  1  0  0  0
 68 76  1  0  0  0
 71 72  2  0  0  0
 71 84  1  0  0  0
 71144  1  0  0  0
 72 73  1  0  0  0
 72 81  1  0  0  0
 73 74  2  0  0  0
 73 80  1  0  0  0
 74 75  1  0  0  0
 74 84  1  0  0  0
 75 79  2  0  0  0
 75145  1  0  0  0
 76 77  2  0  0  0
 76146  1  0  0  0
 77 78  1  0  0  0
 77 83  1  0  0  0
 78 81  1  0  0  0
 78 82  2  0  0  0
 80147  1  0  0  0
 80148  1  0  0  0
 81149  1  0  0  0
 83150  1  0  0  0
M  ISO  4   1 100  68 101  76 101  79 100
M  END
> <chiral flag>
0

> <version>
0

> <s_m_source_file>
/data/baiqing/PycharmProjects/Reinvent-master-3.2/result/LINK_invent/BTK/process_docking_weight1_custom_product_contain_oxygen_bond_distance_aromatic_linkinvent_7_9_3/rearranged_h_0176.sdf

> <i_m_source_file_index>
91

> <r_mmod_Potential_Energy-OPLS-2005>
22.2272415161133

> <r_mmod_Stretch_Energy-OPLS-2005>
73.1376419067383

> <r_mmod_Bend_Energy-OPLS-2005>
180.636199951172

> <r_mmod_Torsional_Energy-OPLS-2005>
193.972213745117

> <r_mmod_Improper_Torsional_Energy-OPLS-2005>
9.42015266418457

> <r_mmod_Van_der_Waal_Energy-OPLS-2005>
147.46403503418

> <r_mmod_Electrostatic_Energy-OPLS-2005>
-424.800964355469

> <r_mmod_Solvation_Energy-OPLS-2005>
-216.224731445312

> <b_mmod_Minimization_Converged-OPLS-2005>
0

> <r_mmod_RMS_Derivative-OPLS-2005>
5.33098268508911

$$$$
91
                    3D
 Structure written by MMmdl.
159167  0  0  1  0            999 V2000
  -30.6560  -14.5198   20.5067 C   0  0  0  0  0  0
  -30.4342  -12.3015   19.4520 C   0  0  0  0  0  0
  -29.5060  -12.4230   18.2235 C   0  0  0  0  0  0
  -28.0193  -12.3369   18.6284 C   0  0  0  0  0  0
  -27.6608  -13.2020   19.8670 C   0  0  2  0  0  0
  -28.6986  -13.0092   20.9955 C   0  0  0  0  0  0
  -25.2606  -13.8157   20.5675 C   0  0  0  0  0  0
  -24.1845  -13.0446   20.9179 C   0  0  0  0  0  0
  -24.6384  -11.6909   20.8737 C   0  0  0  0  0  0
  -23.9049  -10.4296   21.0406 C   0  0  0  0  0  0
  -24.3608   -9.4211   21.9180 C   0  0  0  0  0  0
  -23.6294   -8.2240   22.0743 C   0  0  0  0  0  0
  -22.4274   -8.0275   21.3536 C   0  0  0  0  0  0
  -21.9903   -9.0247   20.4639 C   0  0  0  0  0  0
  -22.7223  -10.2134   20.3054 C   0  0  0  0  0  0
  -21.6856   -6.0735   22.5277 C   0  0  0  0  0  0
  -21.4015   -6.5637   23.8213 C   0  0  0  0  0  0
  -21.3660   -5.6786   24.9174 C   0  0  0  0  0  0
  -21.6046   -4.3050   24.7225 C   0  0  0  0  0  0
  -21.8822   -3.8145   23.4346 C   0  0  0  0  0  0
  -21.9196   -4.6962   22.3401 C   0  0  0  0  0  0
  -22.7867  -13.5252   21.1851 C   0  0  0  0  0  0
  -22.1662   -4.2150   21.0980 F   0  0  0  0  0  0
  -21.5634   -3.4533   25.7739 F   0  0  0  0  0  0
  -30.0276  -13.3131   20.4423 N   0  0  0  0  0  0
  -26.3019  -12.9313   20.3331 N   0  0  0  0  0  0
  -25.9311  -11.6482   20.5783 N   0  0  0  0  0  0
  -22.0507  -12.8240   22.0405 N   0  0  0  0  0  0
  -25.4360  -15.1873   20.4099 N   0  0  0  0  0  0
  -31.8043  -14.7011   20.0910 O   0  0  0  0  0  0
  -21.6640   -6.8872   21.4236 O   0  0  0  0  0  0
  -22.3551  -14.5557   20.6703 O   0  0  0  0  0  0
  -24.6146  -31.8669   23.2090 C   0  0  0  0  0  0
  -25.9035  -32.4818   23.8387 C   0  0  1  0  0  0
  -27.2288  -27.4303   20.1118 C   0  0  0  0  0  0
  -25.5883  -33.8611   24.2324 N   0  0  0  0  0  0
  -23.4028  -30.4895   21.5500 C   0  0  2  0  0  0
  -24.8512  -28.9565   20.1128 C   0  0  0  0  0  0
  -22.7412  -29.4650   22.4995 C   0  0  0  0  0  0
  -18.0269  -28.1374   22.8492 C   0  0  0  0  0  0
  -24.1482  -36.7314   23.2644 C   0  0  0  0  0  0
  -25.9311  -30.8352   21.3606 C   0  0  0  0  0  0
  -26.0109  -29.4694   20.7082 C   0  0  0  0  0  0
  -27.2076  -28.7158   20.6991 C   0  0  0  0  0  0
  -26.0577  -26.9334   19.5038 C   0  0  0  0  0  0
  -24.8695  -27.6880   19.5054 C   0  0  0  0  0  0
  -23.6107  -29.8201   20.1650 C   0  0  0  0  0  0
  -25.4100  -36.3106   24.0344 C   0  0  1  0  0  0
  -20.5860  -28.3650   23.1326 C   0  0  2  0  0  0
  -20.6755  -26.9385   22.5426 C   0  0  0  0  0  0
  -19.5740  -26.6377   21.5215 C   0  0  0  0  0  0
  -18.1916  -26.7920   22.1623 C   0  0  0  0  0  0
  -19.1522  -28.8828   23.2905 C   0  0  0  0  0  0
  -18.9450  -30.1433   23.8916 C   0  0  0  0  0  0
  -17.6456  -30.6581   24.0558 C   0  0  0  0  0  0
  -25.9028  -34.9471   23.5136 C   0  0  0  0  0  0
  -16.5344  -29.9083   23.6323 C   0  0  0  0  0  0
  -16.7261  -28.6499   23.0347 C   0  0  0  0  0  0
  -26.4461  -31.6593   25.0710 C   0  0  0  0  0  0
  -25.3726  -31.3702   26.1459 C   0  0  0  0  0  0
  -27.0297  -30.3034   24.6082 C   0  0  0  0  0  0
  -27.6034  -32.4315   25.7471 C   0  0  0  0  0  0
  -27.5579  -37.1805   24.8464 C   0  0  0  0  0  0
  -21.4140  -29.3019   22.3734 N   0  0  0  0  0  0
  -26.4290  -37.3786   23.9410 N   0  0  0  0  0  0
  -24.6680  -31.0778   22.0985 N   0  0  0  0  0  0
  -23.4193  -28.8193   23.3030 O   0  0  0  0  0  0
  -28.3667  -26.6524   20.1291 O   0  0  0  0  0  0
  -26.5597  -34.8923   22.4702 O   0  0  0  0  0  0
  -23.5342  -32.1417   23.7486 O   0  0  0  0  0  0
  -29.5197  -18.0247   20.8514 C   0  0  0  0  0  0
  -29.1868  -17.9123   18.0529 C   0  0  0  0  0  0
  -29.2303  -19.2172   20.1261 C   0  0  0  0  0  0
  -29.6821  -16.7780   20.1818 C   0  0  0  0  0  0
  -29.0371  -19.1381   18.7251 C   0  0  0  0  0  0
  -29.5132  -16.7489   18.7733 C   0  0  0  0  0  0
  -28.7919  -22.8967   21.0322 C   0  0  0  0  0  0
  -29.5042  -21.6731   20.3739 C   0  0  0  0  0  0
  -28.9647  -17.8239   16.5525 C   0  0  0  0  0  0
  -28.9079  -25.9040   22.3366 C   0  0  0  0  0  0
  -28.9895  -24.2685   20.3371 C   0  0  0  0  0  0
  -28.2877  -25.4941   20.9893 C   0  0  2  0  0  0
  -29.0394  -20.4731   20.7902 N   0  0  0  0  0  0
  -29.8888  -15.5566   20.9163 N   0  0  0  0  0  0
  -28.0828  -22.7697   22.0385 O   0  0  0  0  0  0
  -30.4326  -21.8133   19.5695 O   0  0  0  0  0  0
  -28.6536  -20.2323   18.0204 F   0  0  0  0  0  0
  -29.5994  -15.5873   18.0905 F   0  0  0  0  0  0
  -31.4769  -12.4133   19.1490 H   0  0  0  0  0  0
  -30.3572  -11.3053   19.8900 H   0  0  0  0  0  0
  -29.7334  -11.6275   17.5128 H   0  0  0  0  0  0
  -29.7027  -13.3472   17.6881 H   0  0  0  0  0  0
  -27.8078  -11.2884   18.8421 H   0  0  0  0  0  0
  -27.3816  -12.6045   17.7849 H   0  0  0  0  0  0
  -27.6981  -14.2432   19.5464 H   0  0  0  0  0  0
  -28.6789  -11.9808   21.3586 H   0  0  0  0  0  0
  -28.4587  -13.6295   21.8595 H   0  0  0  0  0  0
  -25.2757   -9.5701   22.4750 H   0  0  0  0  0  0
  -24.0013   -7.4636   22.7461 H   0  0  0  0  0  0
  -21.0833   -8.8760   19.8952 H   0  0  0  0  0  0
  -22.3670  -10.9670   19.6166 H   0  0  0  0  0  0
  -21.1997   -7.6146   23.9717 H   0  0  0  0  0  0
  -21.1482   -6.0516   25.9077 H   0  0  0  0  0  0
  -22.0602   -2.7608   23.2845 H   0  0  0  0  0  0
  -22.4119  -11.9900   22.4797 H   0  0  0  0  0  0
  -21.1121  -13.1264   22.2617 H   0  0  0  0  0  0
  -24.6734  -15.8460   20.5236 H   0  0  0  0  0  0
  -26.2920  -15.6233   20.0930 H   0  0  0  0  0  0
  -26.7106  -32.5535   23.1152 H   0  0  0  0  0  0
  -24.9997  -33.9750   25.0448 H   0  0  0  0  0  0
  -22.6921  -31.3064   21.4111 H   0  0  0  0  0  0
  -23.3732  -35.9659   23.3318 H   0  0  0  0  0  0
  -24.3584  -36.8917   22.2060 H   0  0  0  0  0  0
  -23.7244  -37.6527   23.6647 H   0  0  0  0  0  0
  -26.0426  -31.6018   20.5923 H   0  0  0  0  0  0
  -26.8198  -30.8901   21.9777 H   0  0  0  0  0  0
  -28.1038  -29.1044   21.1623 H   0  0  0  0  0  0
  -26.0631  -25.9564   19.0416 H   0  0  0  0  0  0
  -23.9771  -27.2868   19.0453 H   0  0  0  0  0  0
  -23.7127  -30.5937   19.4031 H   0  0  0  0  0  0
  -22.7358  -29.2350   19.8738 H   0  0  0  0  0  0
  -25.1281  -36.1972   25.0839 H   0  0  0  0  0  0
  -20.9939  -28.3202   24.1451 H   0  0  0  0  0  0
  -20.5645  -26.2251   23.3608 H   0  0  0  0  0  0
  -21.6625  -26.7417   22.1221 H   0  0  0  0  0  0
  -19.6886  -25.6292   21.1231 H   0  0  0  0  0  0
  -19.6682  -27.3198   20.6756 H   0  0  0  0  0  0
  -17.4182  -26.6668   21.4025 H   0  0  0  0  0  0
  -18.0308  -26.0064   22.9022 H   0  0  0  0  0  0
  -19.7928  -30.7234   24.2299 H   0  0  0  0  0  0
  -17.5014  -31.6263   24.5152 H   0  0  0  0  0  0
  -15.5344  -30.2992   23.7640 H   0  0  0  0  0  0
  -15.8657  -28.0820   22.7063 H   0  0  0  0  0  0
  -24.5865  -30.7100   25.7780 H   0  0  0  0  0  0
  -24.8957  -32.2867   26.4941 H   0  0  0  0  0  0
  -25.8062  -30.8820   27.0198 H   0  0  0  0  0  0
  -26.2845  -29.6797   24.1130 H   0  0  0  0  0  0
  -27.4071  -29.7270   25.4540 H   0  0  0  0  0  0
  -27.8676  -30.4367   23.9234 H   0  0  0  0  0  0
  -27.2634  -33.3581   26.2104 H   0  0  0  0  0  0
  -28.3801  -32.6935   25.0273 H   0  0  0  0  0  0
  -28.0751  -31.8412   26.5340 H   0  0  0  0  0  0
  -28.2599  -38.0098   24.7497 H   0  0  0  0  0  0
  -28.1071  -36.2628   24.6300 H   0  0  0  0  0  0
  -27.2301  -37.1479   25.8868 H   0  0  0  0  0  0
  -20.9294  -29.8749   21.6966 H   0  0  0  0  0  0
  -26.0184  -38.2870   24.1402 H   0  0  0  0  0  0
  -29.6190  -18.0693   21.9261 H   0  0  0  0  0  0
  -28.5484  -18.7442   16.1431 H   0  0  0  0  0  0
  -28.2705  -17.0158   16.3208 H   0  0  0  0  0  0
  -29.9062  -17.6218   16.0417 H   0  0  0  0  0  0
  -28.4009  -26.7733   22.7551 H   0  0  0  0  0  0
  -29.9613  -26.1586   22.2231 H   0  0  0  0  0  0
  -28.8367  -25.1062   23.0765 H   0  0  0  0  0  0
  -28.6202  -24.1562   19.3179 H   0  0  0  0  0  0
  -30.0590  -24.4581   20.2542 H   0  0  0  0  0  0
  -27.2452  -25.2227   21.1699 H   0  0  0  0  0  0
  -28.4074  -20.5023   21.5800 H   0  0  0  0  0  0
  -29.1027  -15.2791   21.4833 H   0  0  0  0  0  0
  1 25  1  0  0  0
  1 30  2  0  0  0
  1 84  1  0  0  0
  2  3  1  0  0  0
  2 25  1  0  0  0
  2 89  1  0  0  0
  2 90  1  0  0  0
  3  4  1  0  0  0
  3 91  1  0  0  0
  3 92  1  0  0  0
  4  5  1  0  0  0
  4 93  1  0  0  0
  4 94  1  0  0  0
  5  6  1  0  0  0
  5 26  1  0  0  0
  5 95  1  0  0  0
  6 25  1  0  0  0
  6 96  1  0  0  0
  6 97  1  0  0  0
  7  8  2  0  0  0
  7 26  1  0  0  0
  7 29  1  0  0  0
  8  9  1  0  0  0
  8 22  1  0  0  0
  9 10  1  0  0  0
  9 27  2  0  0  0
 10 11  2  0  0  0
 10 15  1  0  0  0
 11 12  1  0  0  0
 11 98  1  0  0  0
 12 13  2  0  0  0
 12 99  1  0  0  0
 13 14  1  0  0  0
 13 31  1  0  0  0
 14 15  2  0  0  0
 14100  1  0  0  0
 15101  1  0  0  0
 16 17  2  0  0  0
 16 21  1  0  0  0
 16 31  1  0  0  0
 17 18  1  0  0  0
 17102  1  0  0  0
 18 19  2  0  0  0
 18103  1  0  0  0
 19 20  1  0  0  0
 19 24  1  0  0  0
 20 21  2  0  0  0
 20104  1  0  0  0
 21 23  1  0  0  0
 22 28  1  0  0  0
 22 32  2  0  0  0
 26 27  1  0  0  0
 28105  1  0  0  0
 28106  1  0  0  0
 29107  1  0  0  0
 29108  1  0  0  0
 33 34  1  0  0  0
 33 66  1  0  0  0
 33 70  2  0  0  0
 34 36  1  0  0  0
 34 59  1  0  0  0
 34109  1  0  0  0
 35 44  2  0  0  0
 35 45  1  0  0  0
 35 68  1  0  0  0
 36 56  1  0  0  0
 36110  1  0  0  0
 37 39  1  0  0  0
 37 47  1  0  0  0
 37 66  1  0  0  0
 37111  1  0  0  0
 38 43  2  0  0  0
 38 46  1  0  0  0
 38 47  1  0  0  0
 39 64  1  0  0  0
 39 67  2  0  0  0
 40 52  1  0  0  0
 40 53  2  0  0  0
 40 58  1  0  0  0
 41112  1  0  0  0
 41113  1  0  0  0
 41114  1  0  0  0
 41 48  1  0  0  0
 42 43  1  0  0  0
 42 66  1  0  0  0
 42115  1  0  0  0
 42116  1  0  0  0
 43 44  1  0  0  0
 44117  1  0  0  0
 45 46  2  0  0  0
 45118  1  0  0  0
 46119  1  0  0  0
 47120  1  0  0  0
 47121  1  0  0  0
 48 56  1  0  0  0
 48 65  1  0  0  0
 48122  1  0  0  0
 49 50  1  0  0  0
 49 53  1  0  0  0
 49 64  1  0  0  0
 49123  1  0  0  0
 50 51  1  0  0  0
 50124  1  0  0  0
 50125  1  0  0  0
 51 52  1  0  0  0
 51126  1  0  0  0
 51127  1  0  0  0
 52128  1  0  0  0
 52129  1  0  0  0
 53 54  1  0  0  0
 54 55  2  0  0  0
 54130  1  0  0  0
 55 57  1  0  0  0
 55131  1  0  0  0
 56 69  2  0  0  0
 57 58  2  0  0  0
 57132  1  0  0  0
 58133  1  0  0  0
 59 60  1  0  0  0
 59 61  1  0  0  0
 59 62  1  0  0  0
 60134  1  0  0  0
 60135  1  0  0  0
 60136  1  0  0  0
 61137  1  0  0  0
 61138  1  0  0  0
 61139  1  0  0  0
 62140  1  0  0  0
 62141  1  0  0  0
 62142  1  0  0  0
 63 65  1  0  0  0
 63143  1  0  0  0
 63144  1  0  0  0
 63145  1  0  0  0
 64146  1  0  0  0
 65147  1  0  0  0
 68 82  1  0  0  0
 71 73  2  0  0  0
 71 74  1  0  0  0
 71148  1  0  0  0
 72 75  2  0  0  0
 72 76  1  0  0  0
 72 79  1  0  0  0
 73 75  1  0  0  0
 73 83  1  0  0  0
 74 76  2  0  0  0
 74 84  1  0  0  0
 75 87  1  0  0  0
 76 88  1  0  0  0
 77 78  1  0  0  0
 77 81  1  0  0  0
 77 85  2  0  0  0
 78 83  1  0  0  0
 78 86  2  0  0  0
 79149  1  0  0  0
 79150  1  0  0  0
 79151  1  0  0  0
 80152  1  0  0  0
 80153  1  0  0  0
 80154  1  0  0  0
 80 82  1  0  0  0
 81 82  1  0  0  0
 81155  1  0  0  0
 81156  1  0  0  0
 82157  1  0  0  0
 83158  1  0  0  0
 84159  1  0  0  0
M  ISO  4   1 100  68 101  82 101  84 100
M  END
> <chiral flag>
0

> <version>
0

> <s_m_source_file>
/data/baiqing/PycharmProjects/Reinvent-master-3.2/result/LINK_invent/BTK/process_docking_weight1_custom_product_contain_oxygen_bond_distance_aromatic_linkinvent_7_9_3/rearranged_h_0176.sdf

> <i_m_source_file_index>
92

> <r_mmod_Potential_Energy-OPLS-2005>
-69.4702758789062

> <r_mmod_Stretch_Energy-OPLS-2005>
43.7078666687012

> <r_mmod_Bend_Energy-OPLS-2005>
93.4337158203125

> <r_mmod_Torsional_Energy-OPLS-2005>
288.167938232422

> <r_mmod_Improper_Torsional_Energy-OPLS-2005>
6.75332117080688

> <r_mmod_Van_der_Waal_Energy-OPLS-2005>
155.618515014648

> <r_mmod_Electrostatic_Energy-OPLS-2005>
-444.470458984375

> <r_mmod_Solvation_Energy-OPLS-2005>
-232.310470581055

> <b_mmod_Minimization_Converged-OPLS-2005>
0

> <r_mmod_RMS_Derivative-OPLS-2005>
1.24762904644012

$$$$
92
                    3D
 Structure written by MMmdl.
156164  0  0  1  0            999 V2000
  -30.6986  -14.5784   20.6018 C   0  0  0  0  0  0
  -30.4542  -12.3779   19.4640 C   0  0  0  0  0  0
  -29.5212  -12.5277   18.2406 C   0  0  0  0  0  0
  -28.0468  -12.3614   18.6593 C   0  0  0  0  0  0
  -27.6742  -13.2239   19.8964 C   0  0  2  0  0  0
  -28.7238  -13.0378   21.0191 C   0  0  0  0  0  0
  -25.2657  -13.8209   20.5751 C   0  0  0  0  0  0
  -24.1871  -13.0465   20.9231 C   0  0  0  0  0  0
  -24.6414  -11.6962   20.8744 C   0  0  0  0  0  0
  -23.9093  -10.4367   21.0462 C   0  0  0  0  0  0
  -24.3640   -9.4278   21.9211 C   0  0  0  0  0  0
  -23.6302   -8.2325   22.0797 C   0  0  0  0  0  0
  -22.4289   -8.0333   21.3607 C   0  0  0  0  0  0
  -21.9940   -9.0316   20.4719 C   0  0  0  0  0  0
  -22.7266  -10.2180   20.3118 C   0  0  0  0  0  0
  -21.6862   -6.0760   22.5275 C   0  0  0  0  0  0
  -21.4019   -6.5655   23.8200 C   0  0  0  0  0  0
  -21.3656   -5.6792   24.9158 C   0  0  0  0  0  0
  -21.6030   -4.3068   24.7224 C   0  0  0  0  0  0
  -21.8827   -3.8149   23.4331 C   0  0  0  0  0  0
  -21.9198   -4.6977   22.3387 C   0  0  0  0  0  0
  -22.7880  -13.5283   21.1877 C   0  0  0  0  0  0
  -22.1668   -4.2155   21.0966 F   0  0  0  0  0  0
  -21.5634   -3.4535   25.7747 F   0  0  0  0  0  0
  -30.0483  -13.3773   20.4670 N   0  0  0  0  0  0
  -26.3119  -12.9397   20.3541 N   0  0  0  0  0  0
  -25.9396  -11.6547   20.5872 N   0  0  0  0  0  0
  -22.0469  -12.8274   22.0382 N   0  0  0  0  0  0
  -25.4443  -15.1902   20.4089 N   0  0  0  0  0  0
  -31.8182  -14.7747   20.1183 O   0  0  0  0  0  0
  -21.6668   -6.8922   21.4260 O   0  0  0  0  0  0
  -22.3612  -14.5602   20.6733 O   0  0  0  0  0  0
  -24.6099  -31.8683   23.2062 C   0  0  0  0  0  0
  -25.8985  -32.4812   23.8394 C   0  0  1  0  0  0
  -27.2652  -27.3940   20.0964 C   0  0  0  0  0  0
  -25.5841  -33.8636   24.2299 N   0  0  0  0  0  0
  -23.4029  -30.4805   21.5537 C   0  0  2  0  0  0
  -24.8612  -28.9428   20.1102 C   0  0  0  0  0  0
  -22.7385  -29.4655   22.5074 C   0  0  0  0  0  0
  -18.0312  -28.1336   22.8471 C   0  0  0  0  0  0
  -24.1495  -36.7305   23.2637 C   0  0  0  0  0  0
  -25.9317  -30.8171   21.3662 C   0  0  0  0  0  0
  -26.0197  -29.4479   20.7112 C   0  0  0  0  0  0
  -27.2156  -28.6799   20.7030 C   0  0  0  0  0  0
  -26.0843  -26.9080   19.4877 C   0  0  0  0  0  0
  -24.8965  -27.6753   19.4963 C   0  0  0  0  0  0
  -23.6035  -29.7973   20.1720 C   0  0  0  0  0  0
  -25.4113  -36.3142   24.0334 C   0  0  1  0  0  0
  -20.5868  -28.3695   23.1440 C   0  0  2  0  0  0
  -20.6816  -26.9439   22.5480 C   0  0  0  0  0  0
  -19.5892  -26.6482   21.5202 C   0  0  0  0  0  0
  -18.2016  -26.7938   22.1495 C   0  0  0  0  0  0
  -19.1534  -28.8816   23.2952 C   0  0  0  0  0  0
  -18.9410  -30.1413   23.8928 C   0  0  0  0  0  0
  -17.6402  -30.6534   24.0476 C   0  0  0  0  0  0
  -25.9060  -34.9480   23.5136 C   0  0  0  0  0  0
  -16.5311  -29.9001   23.6262 C   0  0  0  0  0  0
  -16.7288  -28.6422   23.0294 C   0  0  0  0  0  0
  -26.4440  -31.6625   25.0742 C   0  0  0  0  0  0
  -25.3676  -31.3700   26.1455 C   0  0  0  0  0  0
  -27.0246  -30.3083   24.6071 C   0  0  0  0  0  0
  -27.6019  -32.4303   25.7445 C   0  0  0  0  0  0
  -27.5592  -37.1778   24.8469 C   0  0  0  0  0  0
  -21.4100  -29.3080   22.3825 N   0  0  0  0  0  0
  -26.4320  -37.3805   23.9405 N   0  0  0  0  0  0
  -24.6667  -31.0684   22.1007 N   0  0  0  0  0  0
  -23.4135  -28.8187   23.3141 O   0  0  0  0  0  0
  -28.4689  -26.6945   20.1358 O   0  0  0  0  0  0
  -26.5640  -34.8907   22.4694 O   0  0  0  0  0  0
  -23.5274  -32.1450   23.7424 O   0  0  0  0  0  0
  -29.3217  -17.9149   20.7214 C   0  0  0  0  0  0
  -29.7080  -19.3000   20.9329 C   0  0  0  0  0  0
  -30.1913  -16.9452   21.1853 C   0  0  0  0  0  0
  -30.8884  -19.3638   21.6538 C   0  0  0  0  0  0
  -28.8593  -20.4577   20.4900 C   0  0  0  0  0  0
  -29.5243  -21.7878   19.9282 C   0  0  0  0  0  0
  -27.1731  -23.6748   20.9262 C   0  0  0  0  0  0
  -29.6789  -23.0610   20.8114 C   0  0  0  0  0  0
  -28.6659  -25.3262   19.6666 C   0  0  0  0  0  0
  -28.5958  -24.2187   20.7916 C   0  0  1  0  0  0
  -31.5315  -20.4722   22.2208 N   0  0  0  0  0  0
  -29.9771  -15.5764   21.1795 N   0  0  0  0  0  0
  -27.6249  -20.3892   20.3990 O   0  0  0  0  0  0
  -29.9184  -21.8293   18.7557 O   0  0  0  0  0  0
  -28.8482  -24.8782   21.9260 F   0  0  0  0  0  0
  -31.5525  -17.7507   21.9408 S   0  0  0  0  0  0
  -31.4993  -12.4880   19.1684 H   0  0  0  0  0  0
  -30.3806  -11.3756   19.8913 H   0  0  0  0  0  0
  -29.7871  -11.7957   17.4756 H   0  0  0  0  0  0
  -29.6644  -13.5066   17.7788 H   0  0  0  0  0  0
  -27.9106  -11.3075   18.8981 H   0  0  0  0  0  0
  -27.3823  -12.5715   17.8256 H   0  0  0  0  0  0
  -27.7080  -14.2679   19.5838 H   0  0  0  0  0  0
  -28.7225  -12.0076   21.3715 H   0  0  0  0  0  0
  -28.4771  -13.6311   21.9010 H   0  0  0  0  0  0
  -25.2801   -9.5723   22.4763 H   0  0  0  0  0  0
  -23.9990   -7.4726   22.7497 H   0  0  0  0  0  0
  -21.0896   -8.8851   19.9022 H   0  0  0  0  0  0
  -22.3735  -10.9714   19.6212 H   0  0  0  0  0  0
  -21.2032   -7.6153   23.9695 H   0  0  0  0  0  0
  -21.1456   -6.0552   25.9057 H   0  0  0  0  0  0
  -22.0608   -2.7614   23.2834 H   0  0  0  0  0  0
  -22.3992  -11.9880   22.4726 H   0  0  0  0  0  0
  -21.1136  -13.1438   22.2635 H   0  0  0  0  0  0
  -24.7030  -15.8699   20.5436 H   0  0  0  0  0  0
  -26.3199  -15.6090   20.1214 H   0  0  0  0  0  0
  -26.7051  -32.5526   23.1151 H   0  0  0  0  0  0
  -24.9955  -33.9920   25.0404 H   0  0  0  0  0  0
  -22.6938  -31.2977   21.4168 H   0  0  0  0  0  0
  -23.3825  -35.9611   23.3344 H   0  0  0  0  0  0
  -24.3570  -36.8856   22.2064 H   0  0  0  0  0  0
  -23.7250  -37.6475   23.6652 H   0  0  0  0  0  0
  -26.0358  -31.5846   20.5963 H   0  0  0  0  0  0
  -26.8168  -30.8831   21.9882 H   0  0  0  0  0  0
  -28.0978  -29.0633   21.1934 H   0  0  0  0  0  0
  -26.0410  -25.9353   19.0209 H   0  0  0  0  0  0
  -24.0049  -27.2765   19.0317 H   0  0  0  0  0  0
  -23.6701  -30.5642   19.4020 H   0  0  0  0  0  0
  -22.7270  -29.2082   19.8985 H   0  0  0  0  0  0
  -25.1303  -36.1998   25.0852 H   0  0  0  0  0  0
  -21.0021  -28.3285   24.1543 H   0  0  0  0  0  0
  -20.5859  -26.2244   23.3643 H   0  0  0  0  0  0
  -21.6727  -26.7618   22.1277 H   0  0  0  0  0  0
  -19.7142  -25.6491   21.1044 H   0  0  0  0  0  0
  -19.6888  -27.3461   20.6916 H   0  0  0  0  0  0
  -17.4386  -26.6779   21.3760 H   0  0  0  0  0  0
  -18.0369  -25.9991   22.8762 H   0  0  0  0  0  0
  -19.7841  -30.7242   24.2328 H   0  0  0  0  0  0
  -17.4904  -31.6234   24.5046 H   0  0  0  0  0  0
  -15.5290  -30.2862   23.7599 H   0  0  0  0  0  0
  -15.8711  -28.0740   22.7002 H   0  0  0  0  0  0
  -24.5893  -30.7021   25.7758 H   0  0  0  0  0  0
  -24.8852  -32.2883   26.4847 H   0  0  0  0  0  0
  -25.8019  -30.8879   27.0245 H   0  0  0  0  0  0
  -26.2811  -29.6859   24.1107 H   0  0  0  0  0  0
  -27.4065  -29.7253   25.4468 H   0  0  0  0  0  0
  -27.8629  -30.4445   23.9211 H   0  0  0  0  0  0
  -27.2699  -33.3618   26.2030 H   0  0  0  0  0  0
  -28.3814  -32.6799   25.0240 H   0  0  0  0  0  0
  -28.0756  -31.8435   26.5328 H   0  0  0  0  0  0
  -28.2582  -38.0073   24.7467 H   0  0  0  0  0  0
  -28.1063  -36.2588   24.6342 H   0  0  0  0  0  0
  -27.2271  -37.1456   25.8845 H   0  0  0  0  0  0
  -20.9271  -29.8695   21.6971 H   0  0  0  0  0  0
  -26.0203  -38.2876   24.1399 H   0  0  0  0  0  0
  -28.3895  -17.6694   20.2322 H   0  0  0  0  0  0
  -26.8433  -23.2298   19.9886 H   0  0  0  0  0  0
  -26.4834  -24.4808   21.1733 H   0  0  0  0  0  0
  -27.1130  -22.9202   21.7088 H   0  0  0  0  0  0
  -30.6530  -23.4848   20.5785 H   0  0  0  0  0  0
  -29.7931  -22.6992   21.8316 H   0  0  0  0  0  0
  -28.0553  -25.0919   18.7956 H   0  0  0  0  0  0
  -29.6865  -25.3163   19.2771 H   0  0  0  0  0  0
  -30.9859  -21.0303   22.8755 H   0  0  0  0  0  0
  -32.4504  -20.3385   22.6475 H   0  0  0  0  0  0
  -29.0501  -15.2816   21.4547 H   0  0  0  0  0  0
  1 25  1  0  0  0
  1 30  2  0  0  0
  1 82  1  0  0  0
  2  3  1  0  0  0
  2 25  1  0  0  0
  2 87  1  0  0  0
  2 88  1  0  0  0
  3  4  1  0  0  0
  3 89  1  0  0  0
  3 90  1  0  0  0
  4  5  1  0  0  0
  4 91  1  0  0  0
  4 92  1  0  0  0
  5  6  1  0  0  0
  5 26  1  0  0  0
  5 93  1  0  0  0
  6 25  1  0  0  0
  6 94  1  0  0  0
  6 95  1  0  0  0
  7  8  2  0  0  0
  7 26  1  0  0  0
  7 29  1  0  0  0
  8  9  1  0  0  0
  8 22  1  0  0  0
  9 10  1  0  0  0
  9 27  2  0  0  0
 10 11  2  0  0  0
 10 15  1  0  0  0
 11 12  1  0  0  0
 11 96  1  0  0  0
 12 13  2  0  0  0
 12 97  1  0  0  0
 13 14  1  0  0  0
 13 31  1  0  0  0
 14 15  2  0  0  0
 14 98  1  0  0  0
 15 99  1  0  0  0
 16 17  2  0  0  0
 16 21  1  0  0  0
 16 31  1  0  0  0
 17 18  1  0  0  0
 17100  1  0  0  0
 18 19  2  0  0  0
 18101  1  0  0  0
 19 20  1  0  0  0
 19 24  1  0  0  0
 20 21  2  0  0  0
 20102  1  0  0  0
 21 23  1  0  0  0
 22 28  1  0  0  0
 22 32  2  0  0  0
 26 27  1  0  0  0
 28103  1  0  0  0
 28104  1  0  0  0
 29105  1  0  0  0
 29106  1  0  0  0
 33 34  1  0  0  0
 33 66  1  0  0  0
 33 70  2  0  0  0
 34 36  1  0  0  0
 34 59  1  0  0  0
 34107  1  0  0  0
 35 44  2  0  0  0
 35 45  1  0  0  0
 35 68  1  0  0  0
 36 56  1  0  0  0
 36108  1  0  0  0
 37 39  1  0  0  0
 37 47  1  0  0  0
 37 66  1  0  0  0
 37109  1  0  0  0
 38 43  2  0  0  0
 38 46  1  0  0  0
 38 47  1  0  0  0
 39 64  1  0  0  0
 39 67  2  0  0  0
 40 52  1  0  0  0
 40 53  2  0  0  0
 40 58  1  0  0  0
 41110  1  0  0  0
 41111  1  0  0  0
 41112  1  0  0  0
 41 48  1  0  0  0
 42 43  1  0  0  0
 42 66  1  0  0  0
 42113  1  0  0  0
 42114  1  0  0  0
 43 44  1  0  0  0
 44115  1  0  0  0
 45 46  2  0  0  0
 45116  1  0  0  0
 46117  1  0  0  0
 47118  1  0  0  0
 47119  1  0  0  0
 48 56  1  0  0  0
 48 65  1  0  0  0
 48120  1  0  0  0
 49 50  1  0  0  0
 49 53  1  0  0  0
 49 64  1  0  0  0
 49121  1  0  0  0
 50 51  1  0  0  0
 50122  1  0  0  0
 50123  1  0  0  0
 51 52  1  0  0  0
 51124  1  0  0  0
 51125  1  0  0  0
 52126  1  0  0  0
 52127  1  0  0  0
 53 54  1  0  0  0
 54 55  2  0  0  0
 54128  1  0  0  0
 55 57  1  0  0  0
 55129  1  0  0  0
 56 69  2  0  0  0
 57 58  2  0  0  0
 57130  1  0  0  0
 58131  1  0  0  0
 59 60  1  0  0  0
 59 61  1  0  0  0
 59 62  1  0  0  0
 60132  1  0  0  0
 60133  1  0  0  0
 60134  1  0  0  0
 61135  1  0  0  0
 61136  1  0  0  0
 61137  1  0  0  0
 62138  1  0  0  0
 62139  1  0  0  0
 62140  1  0  0  0
 63 65  1  0  0  0
 63141  1  0  0  0
 63142  1  0  0  0
 63143  1  0  0  0
 64144  1  0  0  0
 65145  1  0  0  0
 68 79  1  0  0  0
 71 72  1  0  0  0
 71 73  2  0  0  0
 71146  1  0  0  0
 72 74  2  0  0  0
 72 75  1  0  0  0
 73 82  1  0  0  0
 73 86  1  0  0  0
 74 81  1  0  0  0
 74 86  1  0  0  0
 75 76  1  0  0  0
 75 83  2  0  0  0
 76 78  1  0  0  0
 76 84  2  0  0  0
 77147  1  0  0  0
 77148  1  0  0  0
 77149  1  0  0  0
 77 80  1  0  0  0
 78 80  1  0  0  0
 78150  1  0  0  0
 78151  1  0  0  0
 79 80  1  0  0  0
 79152  1  0  0  0
 79153  1  0  0  0
 80 85  1  0  0  0
 81154  1  0  0  0
 81155  1  0  0  0
 82156  1  0  0  0
M  ISO  4   1 100  68 101  79 101  82 100
M  END
> <chiral flag>
0

> <version>
0

> <s_m_source_file>
/data/baiqing/PycharmProjects/Reinvent-master-3.2/result/LINK_invent/BTK/process_docking_weight1_custom_product_contain_oxygen_bond_distance_aromatic_linkinvent_7_9_3/rearranged_h_0176.sdf

> <i_m_source_file_index>
93

> <r_mmod_Potential_Energy-OPLS-2005>
91.0218734741211

> <r_mmod_Stretch_Energy-OPLS-2005>
64.4051132202148

> <r_mmod_Bend_Energy-OPLS-2005>
154.117034912109

> <r_mmod_Torsional_Energy-OPLS-2005>
243.324798583984

> <r_mmod_Improper_Torsional_Energy-OPLS-2005>
10.641547203064

> <r_mmod_Van_der_Waal_Energy-OPLS-2005>
113.254028320312

> <r_mmod_Electrostatic_Energy-OPLS-2005>
-281.012908935547

> <r_mmod_Solvation_Energy-OPLS-2005>
-239.431457519531

> <b_mmod_Minimization_Converged-OPLS-2005>
0

> <r_mmod_RMS_Derivative-OPLS-2005>
9.47311878204346

$$$$
93
                    3D
 Structure written by MMmdl.
155163  0  0  1  0            999 V2000
  -30.7518  -14.4011   20.6545 C   0  0  0  0  0  0
  -30.4109  -12.2911   19.4147 C   0  0  0  0  0  0
  -29.4829  -12.4972   18.2049 C   0  0  0  0  0  0
  -28.0129  -12.3370   18.6370 C   0  0  0  0  0  0
  -27.6608  -13.1986   19.8769 C   0  0  2  0  0  0
  -28.6962  -12.9786   21.0022 C   0  0  0  0  0  0
  -25.2597  -13.8163   20.5685 C   0  0  0  0  0  0
  -24.1810  -13.0456   20.9194 C   0  0  0  0  0  0
  -24.6357  -11.6911   20.8773 C   0  0  0  0  0  0
  -23.9015  -10.4299   21.0457 C   0  0  0  0  0  0
  -24.3607   -9.4202   21.9214 C   0  0  0  0  0  0
  -23.6281   -8.2235   22.0767 C   0  0  0  0  0  0
  -22.4264   -8.0288   21.3566 C   0  0  0  0  0  0
  -21.9903   -9.0250   20.4658 C   0  0  0  0  0  0
  -22.7217  -10.2138   20.3064 C   0  0  0  0  0  0
  -21.6845   -6.0711   22.5266 C   0  0  0  0  0  0
  -21.4008   -6.5613   23.8198 C   0  0  0  0  0  0
  -21.3657   -5.6777   24.9169 C   0  0  0  0  0  0
  -21.6057   -4.3040   24.7243 C   0  0  0  0  0  0
  -21.8809   -3.8125   23.4365 C   0  0  0  0  0  0
  -21.9193   -4.6935   22.3415 C   0  0  0  0  0  0
  -22.7843  -13.5285   21.1875 C   0  0  0  0  0  0
  -22.1653   -4.2115   21.0998 F   0  0  0  0  0  0
  -21.5657   -3.4533   25.7763 F   0  0  0  0  0  0
  -30.0277  -13.2698   20.4466 N   0  0  0  0  0  0
  -26.3003  -12.9302   20.3365 N   0  0  0  0  0  0
  -25.9286  -11.6469   20.5817 N   0  0  0  0  0  0
  -22.0457  -12.8260   22.0418 N   0  0  0  0  0  0
  -25.4401  -15.1859   20.4069 N   0  0  0  0  0  0
  -31.8618  -14.5579   20.1331 O   0  0  0  0  0  0
  -21.6630   -6.8883   21.4241 O   0  0  0  0  0  0
  -22.3545  -14.5619   20.6769 O   0  0  0  0  0  0
  -24.6083  -31.8693   23.2114 C   0  0  0  0  0  0
  -25.8985  -32.4882   23.8377 C   0  0  1  0  0  0
  -27.2478  -27.4915   20.0859 C   0  0  0  0  0  0
  -25.5849  -33.8670   24.2332 N   0  0  0  0  0  0
  -23.3956  -30.4885   21.5528 C   0  0  2  0  0  0
  -24.8450  -28.9677   20.1104 C   0  0  0  0  0  0
  -22.7391  -29.4632   22.5039 C   0  0  0  0  0  0
  -18.0262  -28.1285   22.8537 C   0  0  0  0  0  0
  -24.1481  -36.7342   23.2645 C   0  0  0  0  0  0
  -25.9121  -30.8595   21.3525 C   0  0  0  0  0  0
  -25.9978  -29.4964   20.7039 C   0  0  0  0  0  0
  -27.1981  -28.7636   20.6911 C   0  0  0  0  0  0
  -26.0798  -26.9669   19.4802 C   0  0  0  0  0  0
  -24.8810  -27.7044   19.4950 C   0  0  0  0  0  0
  -23.6004  -29.8255   20.1628 C   0  0  0  0  0  0
  -25.4113  -36.3161   24.0340 C   0  0  1  0  0  0
  -20.5861  -28.3612   23.1404 C   0  0  2  0  0  0
  -20.6793  -26.9336   22.5462 C   0  0  0  0  0  0
  -19.5768  -26.6392   21.5220 C   0  0  0  0  0  0
  -18.1955  -26.7852   22.1680 C   0  0  0  0  0  0
  -19.1500  -28.8753   23.2968 C   0  0  0  0  0  0
  -18.9391  -30.1366   23.8939 C   0  0  0  0  0  0
  -17.6390  -30.6495   24.0543 C   0  0  0  0  0  0
  -25.8999  -34.9519   23.5139 C   0  0  0  0  0  0
  -16.5278  -29.8977   23.6301 C   0  0  0  0  0  0
  -16.7248  -28.6397   23.0331 C   0  0  0  0  0  0
  -26.4439  -31.6650   25.0678 C   0  0  0  0  0  0
  -25.3695  -31.3700   26.1413 C   0  0  0  0  0  0
  -27.0287  -30.3124   24.6015 C   0  0  0  0  0  0
  -27.6047  -32.4357   25.7416 C   0  0  0  0  0  0
  -27.5600  -37.1829   24.8470 C   0  0  0  0  0  0
  -21.4118  -29.3053   22.3865 N   0  0  0  0  0  0
  -26.4333  -37.3822   23.9395 N   0  0  0  0  0  0
  -24.6567  -31.0837   22.1007 N   0  0  0  0  0  0
  -23.4179  -28.8121   23.3032 O   0  0  0  0  0  0
  -28.4588  -26.8432   20.1071 O   0  0  0  0  0  0
  -26.5571  -34.8975   22.4703 O   0  0  0  0  0  0
  -23.5279  -32.1417   23.7529 O   0  0  0  0  0  0
  -30.4210  -19.0288   21.8644 C   0  0  0  0  0  0
  -28.1258  -19.5017   21.9653 C   0  0  0  0  0  0
  -29.3933  -20.0134   21.8535 C   0  0  0  0  0  0
  -29.9399  -17.7469   21.9133 C   0  0  0  0  0  0
  -30.7230  -16.4848   21.8419 C   0  0  0  0  0  0
  -30.0106  -23.4995   20.7027 C   0  0  0  0  0  0
  -29.0473  -22.4028   21.2180 C   0  0  0  0  0  0
  -28.9287  -25.2768   18.3613 C   0  0  0  0  0  0
  -29.5953  -24.9596   20.8574 C   0  0  0  0  0  0
  -28.5403  -25.4480   19.8465 C   0  0  2  0  0  0
  -29.7623  -21.3728   21.6861 N   0  0  0  0  0  0
  -30.1325  -15.3801   21.3486 N   0  0  0  0  0  0
  -31.9176  -16.5332   22.1643 O   0  0  0  0  0  0
  -31.1147  -23.2168   20.2181 O   0  0  0  0  0  0
  -27.8137  -22.4980   21.2138 O   0  0  0  0  0  0
  -28.1865  -17.7459   22.0378 S   0  0  0  0  0  0
  -31.4558  -12.3702   19.1095 H   0  0  0  0  0  0
  -30.3032  -11.2757   19.8021 H   0  0  0  0  0  0
  -29.7240  -11.7719   17.4270 H   0  0  0  0  0  0
  -29.6386  -13.4862   17.7718 H   0  0  0  0  0  0
  -27.8577  -11.2824   18.8763 H   0  0  0  0  0  0
  -27.3375  -12.5633   17.8114 H   0  0  0  0  0  0
  -27.7112  -14.2447   19.5720 H   0  0  0  0  0  0
  -28.6626  -11.9411   21.3417 H   0  0  0  0  0  0
  -28.4549  -13.5830   21.8779 H   0  0  0  0  0  0
  -25.2769   -9.5650   22.4778 H   0  0  0  0  0  0
  -23.9981   -7.4611   22.7476 H   0  0  0  0  0  0
  -21.0826   -8.8776   19.8947 H   0  0  0  0  0  0
  -22.3712  -10.9678   19.6158 H   0  0  0  0  0  0
  -21.1966   -7.6115   23.9705 H   0  0  0  0  0  0
  -21.1506   -6.0506   25.9081 H   0  0  0  0  0  0
  -22.0606   -2.7584   23.2879 H   0  0  0  0  0  0
  -22.4037  -11.9865   22.4733 H   0  0  0  0  0  0
  -21.1104  -13.1328   22.2710 H   0  0  0  0  0  0
  -24.6955  -15.8611   20.5387 H   0  0  0  0  0  0
  -26.3008  -15.6069   20.0828 H   0  0  0  0  0  0
  -26.7089  -32.5632   23.1173 H   0  0  0  0  0  0
  -25.0052  -33.9856   25.0516 H   0  0  0  0  0  0
  -22.6850  -31.3065   21.4203 H   0  0  0  0  0  0
  -23.3761  -35.9657   23.3325 H   0  0  0  0  0  0
  -24.3586  -36.8928   22.2062 H   0  0  0  0  0  0
  -23.7229  -37.6551   23.6632 H   0  0  0  0  0  0
  -26.0065  -31.6276   20.5816 H   0  0  0  0  0  0
  -26.8027  -30.9154   21.9658 H   0  0  0  0  0  0
  -28.0897  -29.1810   21.1413 H   0  0  0  0  0  0
  -26.0811  -26.0119   18.9710 H   0  0  0  0  0  0
  -23.9981  -27.3035   19.0157 H   0  0  0  0  0  0
  -23.6991  -30.6004   19.4011 H   0  0  0  0  0  0
  -22.7273  -29.2363   19.8760 H   0  0  0  0  0  0
  -25.1301  -36.2050   25.0839 H   0  0  0  0  0  0
  -20.9927  -28.3225   24.1544 H   0  0  0  0  0  0
  -20.5632  -26.2167   23.3604 H   0  0  0  0  0  0
  -21.6695  -26.7324   22.1310 H   0  0  0  0  0  0
  -19.6877  -25.6331   21.1138 H   0  0  0  0  0  0
  -19.6745  -27.3312   20.6848 H   0  0  0  0  0  0
  -17.4159  -26.6564   21.4173 H   0  0  0  0  0  0
  -18.0517  -25.9962   22.9039 H   0  0  0  0  0  0
  -19.7863  -30.7193   24.2330 H   0  0  0  0  0  0
  -17.4944  -31.6187   24.5127 H   0  0  0  0  0  0
  -15.5258  -30.2873   23.7623 H   0  0  0  0  0  0
  -15.8676  -28.0681   22.7014 H   0  0  0  0  0  0
  -24.5847  -30.7126   25.7666 H   0  0  0  0  0  0
  -24.8903  -32.2822   26.4956 H   0  0  0  0  0  0
  -25.7992  -30.8741   27.0116 H   0  0  0  0  0  0
  -26.2796  -29.6875   24.1142 H   0  0  0  0  0  0
  -27.4164  -29.7410   25.4456 H   0  0  0  0  0  0
  -27.8574  -30.4523   23.9076 H   0  0  0  0  0  0
  -27.2710  -33.3634   26.2090 H   0  0  0  0  0  0
  -28.3762  -32.6969   25.0155 H   0  0  0  0  0  0
  -28.0820  -31.8425   26.5231 H   0  0  0  0  0  0
  -28.2632  -38.0106   24.7507 H   0  0  0  0  0  0
  -28.1067  -36.2646   24.6301 H   0  0  0  0  0  0
  -27.2296  -37.1485   25.8861 H   0  0  0  0  0  0
  -20.9219  -29.8845   21.7190 H   0  0  0  0  0  0
  -26.0235  -38.2912   24.1360 H   0  0  0  0  0  0
  -31.4707  -19.2734   21.7838 H   0  0  0  0  0  0
  -27.1701  -20.0197   21.9873 H   0  0  0  0  0  0
  -29.9476  -25.6225   18.1685 H   0  0  0  0  0  0
  -28.2660  -25.8461   17.7107 H   0  0  0  0  0  0
  -28.8657  -24.2385   18.0403 H   0  0  0  0  0  0
  -29.2208  -25.0985   21.8716 H   0  0  0  0  0  0
  -30.4938  -25.5739   20.7723 H   0  0  0  0  0  0
  -27.6024  -24.9357   20.0711 H   0  0  0  0  0  0
  -30.7546  -21.5727   21.6439 H   0  0  0  0  0  0
  -29.1294  -15.3268   21.4117 H   0  0  0  0  0  0
  1 25  1  0  0  0
  1 30  2  0  0  0
  1 82  1  0  0  0
  2  3  1  0  0  0
  2 25  1  0  0  0
  2 87  1  0  0  0
  2 88  1  0  0  0
  3  4  1  0  0  0
  3 89  1  0  0  0
  3 90  1  0  0  0
  4  5  1  0  0  0
  4 91  1  0  0  0
  4 92  1  0  0  0
  5  6  1  0  0  0
  5 26  1  0  0  0
  5 93  1  0  0  0
  6 25  1  0  0  0
  6 94  1  0  0  0
  6 95  1  0  0  0
  7  8  2  0  0  0
  7 26  1  0  0  0
  7 29  1  0  0  0
  8  9  1  0  0  0
  8 22  1  0  0  0
  9 10  1  0  0  0
  9 27  2  0  0  0
 10 11  2  0  0  0
 10 15  1  0  0  0
 11 12  1  0  0  0
 11 96  1  0  0  0
 12 13  2  0  0  0
 12 97  1  0  0  0
 13 14  1  0  0  0
 13 31  1  0  0  0
 14 15  2  0  0  0
 14 98  1  0  0  0
 15 99  1  0  0  0
 16 17  2  0  0  0
 16 21  1  0  0  0
 16 31  1  0  0  0
 17 18  1  0  0  0
 17100  1  0  0  0
 18 19  2  0  0  0
 18101  1  0  0  0
 19 20  1  0  0  0
 19 24  1  0  0  0
 20 21  2  0  0  0
 20102  1  0  0  0
 21 23  1  0  0  0
 22 28  1  0  0  0
 22 32  2  0  0  0
 26 27  1  0  0  0
 28103  1  0  0  0
 28104  1  0  0  0
 29105  1  0  0  0
 29106  1  0  0  0
 33 34  1  0  0  0
 33 66  1  0  0  0
 33 70  2  0  0  0
 34 36  1  0  0  0
 34 59  1  0  0  0
 34107  1  0  0  0
 35 44  2  0  0  0
 35 45  1  0  0  0
 35 68  1  0  0  0
 36 56  1  0  0  0
 36108  1  0  0  0
 37 39  1  0  0  0
 37 47  1  0  0  0
 37 66  1  0  0  0
 37109  1  0  0  0
 38 43  2  0  0  0
 38 46  1  0  0  0
 38 47  1  0  0  0
 39 64  1  0  0  0
 39 67  2  0  0  0
 40 52  1  0  0  0
 40 53  2  0  0  0
 40 58  1  0  0  0
 41110  1  0  0  0
 41111  1  0  0  0
 41112  1  0  0  0
 41 48  1  0  0  0
 42 43  1  0  0  0
 42 66  1  0  0  0
 42113  1  0  0  0
 42114  1  0  0  0
 43 44  1  0  0  0
 44115  1  0  0  0
 45 46  2  0  0  0
 45116  1  0  0  0
 46117  1  0  0  0
 47118  1  0  0  0
 47119  1  0  0  0
 48 56  1  0  0  0
 48 65  1  0  0  0
 48120  1  0  0  0
 49 50  1  0  0  0
 49 53  1  0  0  0
 49 64  1  0  0  0
 49121  1  0  0  0
 50 51  1  0  0  0
 50122  1  0  0  0
 50123  1  0  0  0
 51 52  1  0  0  0
 51124  1  0  0  0
 51125  1  0  0  0
 52126  1  0  0  0
 52127  1  0  0  0
 53 54  1  0  0  0
 54 55  2  0  0  0
 54128  1  0  0  0
 55 57  1  0  0  0
 55129  1  0  0  0
 56 69  2  0  0  0
 57 58  2  0  0  0
 57130  1  0  0  0
 58131  1  0  0  0
 59 60  1  0  0  0
 59 61  1  0  0  0
 59 62  1  0  0  0
 60132  1  0  0  0
 60133  1  0  0  0
 60134  1  0  0  0
 61135  1  0  0  0
 61136  1  0  0  0
 61137  1  0  0  0
 62138  1  0  0  0
 62139  1  0  0  0
 62140  1  0  0  0
 63 65  1  0  0  0
 63141  1  0  0  0
 63142  1  0  0  0
 63143  1  0  0  0
 64144  1  0  0  0
 65145  1  0  0  0
 68 80  1  0  0  0
 71 73  1  0  0  0
 71 74  2  0  0  0
 71146  1  0  0  0
 72 73  2  0  0  0
 72 86  1  0  0  0
 72147  1  0  0  0
 73 81  1  0  0  0
 74 75  1  0  0  0
 74 86  1  0  0  0
 75 82  1  0  0  0
 75 83  2  0  0  0
 76 77  1  0  0  0
 76 79  1  0  0  0
 76 84  2  0  0  0
 77 81  1  0  0  0
 77 85  2  0  0  0
 78148  1  0  0  0
 78149  1  0  0  0
 78150  1  0  0  0
 78 80  1  0  0  0
 79 80  1  0  0  0
 79151  1  0  0  0
 79152  1  0  0  0
 80153  1  0  0  0
 81154  1  0  0  0
 82155  1  0  0  0
M  ISO  4   1 100  68 101  80 101  82 100
M  END
> <chiral flag>
0

> <version>
0

> <s_m_source_file>
/data/baiqing/PycharmProjects/Reinvent-master-3.2/result/LINK_invent/BTK/process_docking_weight1_custom_product_contain_oxygen_bond_distance_aromatic_linkinvent_7_9_3/rearranged_h_0176.sdf

> <i_m_source_file_index>
94

> <r_mmod_Potential_Energy-OPLS-2005>
-140.579956054688

> <r_mmod_Stretch_Energy-OPLS-2005>
32.2946090698242

> <r_mmod_Bend_Energy-OPLS-2005>
124.329147338867

> <r_mmod_Torsional_Energy-OPLS-2005>
248.899444580078

> <r_mmod_Improper_Torsional_Energy-OPLS-2005>
4.55908012390137

> <r_mmod_Van_der_Waal_Energy-OPLS-2005>
140.71028137207

> <r_mmod_Electrostatic_Energy-OPLS-2005>
-465.082275390625

> <r_mmod_Solvation_Energy-OPLS-2005>
-238.480651855469

> <b_mmod_Minimization_Converged-OPLS-2005>
0

> <r_mmod_RMS_Derivative-OPLS-2005>
5.50884103775024

$$$$
94
                    3D
 Structure written by MMmdl.
155163  0  0  1  0            999 V2000
  -30.7323  -14.4031   20.6326 C   0  0  0  0  0  0
  -30.4152  -12.2853   19.4041 C   0  0  0  0  0  0
  -29.4876  -12.5238   18.1958 C   0  0  0  0  0  0
  -28.0094  -12.3852   18.6078 C   0  0  0  0  0  0
  -27.6652  -13.2029   19.8819 C   0  0  2  0  0  0
  -28.7024  -12.9411   20.9967 C   0  0  0  0  0  0
  -25.2595  -13.8161   20.5657 C   0  0  0  0  0  0
  -24.1845  -13.0443   20.9159 C   0  0  0  0  0  0
  -24.6401  -11.6907   20.8734 C   0  0  0  0  0  0
  -23.9079  -10.4293   21.0423 C   0  0  0  0  0  0
  -24.3631   -9.4204   21.9201 C   0  0  0  0  0  0
  -23.6296   -8.2245   22.0771 C   0  0  0  0  0  0
  -22.4279   -8.0285   21.3553 C   0  0  0  0  0  0
  -21.9920   -9.0269   20.4664 C   0  0  0  0  0  0
  -22.7260  -10.2144   20.3070 C   0  0  0  0  0  0
  -21.6850   -6.0737   22.5282 C   0  0  0  0  0  0
  -21.4015   -6.5646   23.8216 C   0  0  0  0  0  0
  -21.3661   -5.6800   24.9178 C   0  0  0  0  0  0
  -21.6041   -4.3060   24.7226 C   0  0  0  0  0  0
  -21.8818   -3.8153   23.4354 C   0  0  0  0  0  0
  -21.9189   -4.6969   22.3402 C   0  0  0  0  0  0
  -22.7872  -13.5240   21.1825 C   0  0  0  0  0  0
  -22.1652   -4.2151   21.0981 F   0  0  0  0  0  0
  -21.5633   -3.4544   25.7743 F   0  0  0  0  0  0
  -30.0412  -13.2438   20.4559 N   0  0  0  0  0  0
  -26.3036  -12.9325   20.3371 N   0  0  0  0  0  0
  -25.9320  -11.6488   20.5763 N   0  0  0  0  0  0
  -22.0513  -12.8240   22.0385 N   0  0  0  0  0  0
  -25.4319  -15.1884   20.4065 N   0  0  0  0  0  0
  -31.8087  -14.6227   20.0672 O   0  0  0  0  0  0
  -21.6638   -6.8891   21.4248 O   0  0  0  0  0  0
  -22.3559  -14.5554   20.6679 O   0  0  0  0  0  0
  -24.6127  -31.8682   23.2142 C   0  0  0  0  0  0
  -25.9015  -32.4843   23.8419 C   0  0  1  0  0  0
  -27.2476  -27.4579   20.0729 C   0  0  0  0  0  0
  -25.5875  -33.8643   24.2320 N   0  0  0  0  0  0
  -23.3984  -30.4936   21.5557 C   0  0  2  0  0  0
  -24.8446  -28.9624   20.1168 C   0  0  0  0  0  0
  -22.7374  -29.4667   22.5026 C   0  0  0  0  0  0
  -18.0250  -28.1391   22.8499 C   0  0  0  0  0  0
  -24.1481  -36.7333   23.2638 C   0  0  0  0  0  0
  -25.9262  -30.8376   21.3660 C   0  0  0  0  0  0
  -26.0035  -29.4748   20.7117 C   0  0  0  0  0  0
  -27.2015  -28.7277   20.6914 C   0  0  0  0  0  0
  -26.0610  -26.9485   19.4939 C   0  0  0  0  0  0
  -24.8665  -27.6942   19.5130 C   0  0  0  0  0  0
  -23.6029  -29.8238   20.1713 C   0  0  0  0  0  0
  -25.4103  -36.3117   24.0325 C   0  0  1  0  0  0
  -20.5835  -28.3665   23.1337 C   0  0  2  0  0  0
  -20.6739  -26.9408   22.5431 C   0  0  0  0  0  0
  -19.5720  -26.6392   21.5223 C   0  0  0  0  0  0
  -18.1890  -26.7944   22.1623 C   0  0  0  0  0  0
  -19.1498  -28.8841   23.2922 C   0  0  0  0  0  0
  -18.9429  -30.1451   23.8935 C   0  0  0  0  0  0
  -17.6434  -30.6603   24.0578 C   0  0  0  0  0  0
  -25.9034  -34.9487   23.5122 C   0  0  0  0  0  0
  -16.5323  -29.9105   23.6355 C   0  0  0  0  0  0
  -16.7243  -28.6531   23.0359 C   0  0  0  0  0  0
  -26.4459  -31.6668   25.0770 C   0  0  0  0  0  0
  -25.3733  -31.3803   26.1541 C   0  0  0  0  0  0
  -27.0308  -30.3108   24.6196 C   0  0  0  0  0  0
  -27.6050  -32.4415   25.7493 C   0  0  0  0  0  0
  -27.5574  -37.1805   24.8447 C   0  0  0  0  0  0
  -21.4106  -29.3039   22.3752 N   0  0  0  0  0  0
  -26.4286  -37.3800   23.9400 N   0  0  0  0  0  0
  -24.6644  -31.0794   22.1045 N   0  0  0  0  0  0
  -23.4147  -28.8191   23.3049 O   0  0  0  0  0  0
  -28.4594  -26.7918   20.0698 O   0  0  0  0  0  0
  -26.5607  -34.8935   22.4688 O   0  0  0  0  0  0
  -23.5320  -32.1437   23.7547 O   0  0  0  0  0  0
  -31.8011  -18.4809   21.9255 C   0  0  0  0  0  0
  -30.5925  -19.0429   22.2676 C   0  0  0  0  0  0
  -30.4727  -16.6556   21.6617 C   0  0  0  0  0  0
  -29.3395  -23.2975   20.4670 C   0  0  0  0  0  0
  -28.4851  -24.3483   20.3932 C   0  0  0  0  0  0
  -29.1930  -22.2080   21.4399 C   0  0  0  0  0  0
  -31.6297  -21.7233   21.0871 C   0  0  0  0  0  0
  -30.3312  -20.4411   22.7549 C   0  0  0  0  0  0
  -28.6193  -25.5210   19.4246 C   0  0  0  0  0  0
  -31.7229  -17.1265   21.5875 N   0  0  0  0  0  0
  -30.1158  -15.3075   21.4114 N   0  0  0  0  0  0
  -30.3152  -21.4770   21.6998 N   0  0  0  0  0  0
  -28.1229  -21.9812   22.0168 O   0  0  0  0  0  0
  -27.4088  -24.5127   21.1821 O   0  0  0  0  0  0
  -29.3013  -17.8676   22.1642 S   0  0  0  0  0  0
  -31.4613  -12.3744   19.1042 H   0  0  0  0  0  0
  -30.3019  -11.2642   19.7719 H   0  0  0  0  0  0
  -29.7200  -11.8202   17.3953 H   0  0  0  0  0  0
  -29.6621  -13.5199   17.7864 H   0  0  0  0  0  0
  -27.8099  -11.3266   18.7782 H   0  0  0  0  0  0
  -27.3618  -12.6852   17.7835 H   0  0  0  0  0  0
  -27.7239  -14.2577   19.6145 H   0  0  0  0  0  0
  -28.6646  -11.8944   21.3037 H   0  0  0  0  0  0
  -28.4554  -13.5064   21.8961 H   0  0  0  0  0  0
  -25.2792   -9.5656   22.4768 H   0  0  0  0  0  0
  -23.9997   -7.4633   22.7494 H   0  0  0  0  0  0
  -21.0852   -8.8818   19.8969 H   0  0  0  0  0  0
  -22.3757  -10.9688   19.6168 H   0  0  0  0  0  0
  -21.2014   -7.6156   23.9718 H   0  0  0  0  0  0
  -21.1483   -6.0532   25.9079 H   0  0  0  0  0  0
  -22.0598   -2.7612   23.2855 H   0  0  0  0  0  0
  -22.4123  -11.9884   22.4742 H   0  0  0  0  0  0
  -21.1138  -13.1285   22.2617 H   0  0  0  0  0  0
  -24.6658  -15.8447   20.5137 H   0  0  0  0  0  0
  -26.2876  -15.6296   20.0923 H   0  0  0  0  0  0
  -26.7080  -32.5550   23.1180 H   0  0  0  0  0  0
  -25.0010  -33.9828   25.0451 H   0  0  0  0  0  0
  -22.6879  -31.3118   21.4181 H   0  0  0  0  0  0
  -23.3741  -35.9661   23.3274 H   0  0  0  0  0  0
  -24.3556  -36.9010   22.2055 H   0  0  0  0  0  0
  -23.7248  -37.6521   23.6708 H   0  0  0  0  0  0
  -26.0316  -31.6017   20.5944 H   0  0  0  0  0  0
  -26.8160  -30.8929   21.9819 H   0  0  0  0  0  0
  -28.0975  -29.1264   21.1474 H   0  0  0  0  0  0
  -26.0300  -25.9753   19.0309 H   0  0  0  0  0  0
  -23.9720  -27.2853   19.0639 H   0  0  0  0  0  0
  -23.6929  -30.5983   19.4090 H   0  0  0  0  0  0
  -22.7306  -29.2339   19.8856 H   0  0  0  0  0  0
  -25.1283  -36.1970   25.0820 H   0  0  0  0  0  0
  -20.9903  -28.3230   24.1466 H   0  0  0  0  0  0
  -20.5629  -26.2276   23.3610 H   0  0  0  0  0  0
  -21.6609  -26.7458   22.1222 H   0  0  0  0  0  0
  -19.6878  -25.6299   21.1259 H   0  0  0  0  0  0
  -19.6675  -27.3194   20.6744 H   0  0  0  0  0  0
  -17.4163  -26.6703   21.4022 H   0  0  0  0  0  0
  -18.0284  -26.0079   22.9012 H   0  0  0  0  0  0
  -19.7906  -30.7251   24.2324 H   0  0  0  0  0  0
  -17.5005  -31.6298   24.5158 H   0  0  0  0  0  0
  -15.5330  -30.3020   23.7695 H   0  0  0  0  0  0
  -15.8634  -28.0883   22.7051 H   0  0  0  0  0  0
  -24.5779  -30.7324   25.7854 H   0  0  0  0  0  0
  -24.9074  -32.2983   26.5133 H   0  0  0  0  0  0
  -25.8045  -30.8804   27.0224 H   0  0  0  0  0  0
  -26.2866  -29.6838   24.1276 H   0  0  0  0  0  0
  -27.4082  -29.7413   25.4702 H   0  0  0  0  0  0
  -27.8701  -30.4430   23.9361 H   0  0  0  0  0  0
  -27.2682  -33.3722   26.2082 H   0  0  0  0  0  0
  -28.3810  -32.6987   25.0270 H   0  0  0  0  0  0
  -28.0772  -31.8551   26.5385 H   0  0  0  0  0  0
  -28.2580  -38.0117   24.7514 H   0  0  0  0  0  0
  -28.1087  -36.2643   24.6250 H   0  0  0  0  0  0
  -27.2291  -37.1444   25.8853 H   0  0  0  0  0  0
  -20.9247  -29.8788   21.7018 H   0  0  0  0  0  0
  -26.0168  -38.2873   24.1418 H   0  0  0  0  0  0
  -32.7693  -18.9617   21.9199 H   0  0  0  0  0  0
  -30.1587  -23.2808   19.7625 H   0  0  0  0  0  0
  -31.6463  -21.3633   20.0578 H   0  0  0  0  0  0
  -32.4333  -21.2219   21.6253 H   0  0  0  0  0  0
  -31.8945  -22.7810   21.0916 H   0  0  0  0  0  0
  -31.1000  -20.7143   23.4792 H   0  0  0  0  0  0
  -29.4118  -20.4333   23.3419 H   0  0  0  0  0  0
  -27.9826  -25.3829   18.5523 H   0  0  0  0  0  0
  -29.6350  -25.5103   19.0251 H   0  0  0  0  0  0
  -29.2187  -15.0196   21.7673 H   0  0  0  0  0  0
  -27.3526  -23.7479   21.7476 H   0  0  0  0  0  0
  1 25  1  0  0  0
  1 30  2  0  0  0
  1 81  1  0  0  0
  2  3  1  0  0  0
  2 25  1  0  0  0
  2 86  1  0  0  0
  2 87  1  0  0  0
  3  4  1  0  0  0
  3 88  1  0  0  0
  3 89  1  0  0  0
  4  5  1  0  0  0
  4 90  1  0  0  0
  4 91  1  0  0  0
  5  6  1  0  0  0
  5 26  1  0  0  0
  5 92  1  0  0  0
  6 25  1  0  0  0
  6 93  1  0  0  0
  6 94  1  0  0  0
  7  8  2  0  0  0
  7 26  1  0  0  0
  7 29  1  0  0  0
  8  9  1  0  0  0
  8 22  1  0  0  0
  9 10  1  0  0  0
  9 27  2  0  0  0
 10 11  2  0  0  0
 10 15  1  0  0  0
 11 12  1  0  0  0
 11 95  1  0  0  0
 12 13  2  0  0  0
 12 96  1  0  0  0
 13 14  1  0  0  0
 13 31  1  0  0  0
 14 15  2  0  0  0
 14 97  1  0  0  0
 15 98  1  0  0  0
 16 17  2  0  0  0
 16 21  1  0  0  0
 16 31  1  0  0  0
 17 18  1  0  0  0
 17 99  1  0  0  0
 18 19  2  0  0  0
 18100  1  0  0  0
 19 20  1  0  0  0
 19 24  1  0  0  0
 20 21  2  0  0  0
 20101  1  0  0  0
 21 23  1  0  0  0
 22 28  1  0  0  0
 22 32  2  0  0  0
 26 27  1  0  0  0
 28102  1  0  0  0
 28103  1  0  0  0
 29104  1  0  0  0
 29105  1  0  0  0
 33 34  1  0  0  0
 33 66  1  0  0  0
 33 70  2  0  0  0
 34 36  1  0  0  0
 34 59  1  0  0  0
 34106  1  0  0  0
 35 44  2  0  0  0
 35 45  1  0  0  0
 35 68  1  0  0  0
 36 56  1  0  0  0
 36107  1  0  0  0
 37 39  1  0  0  0
 37 47  1  0  0  0
 37 66  1  0  0  0
 37108  1  0  0  0
 38 43  2  0  0  0
 38 46  1  0  0  0
 38 47  1  0  0  0
 39 64  1  0  0  0
 39 67  2  0  0  0
 40 52  1  0  0  0
 40 53  2  0  0  0
 40 58  1  0  0  0
 41109  1  0  0  0
 41110  1  0  0  0
 41111  1  0  0  0
 41 48  1  0  0  0
 42 43  1  0  0  0
 42 66  1  0  0  0
 42112  1  0  0  0
 42113  1  0  0  0
 43 44  1  0  0  0
 44114  1  0  0  0
 45 46  2  0  0  0
 45115  1  0  0  0
 46116  1  0  0  0
 47117  1  0  0  0
 47118  1  0  0  0
 48 56  1  0  0  0
 48 65  1  0  0  0
 48119  1  0  0  0
 49 50  1  0  0  0
 49 53  1  0  0  0
 49 64  1  0  0  0
 49120  1  0  0  0
 50 51  1  0  0  0
 50121  1  0  0  0
 50122  1  0  0  0
 51 52  1  0  0  0
 51123  1  0  0  0
 51124  1  0  0  0
 52125  1  0  0  0
 52126  1  0  0  0
 53 54  1  0  0  0
 54 55  2  0  0  0
 54127  1  0  0  0
 55 57  1  0  0  0
 55128  1  0  0  0
 56 69  2  0  0  0
 57 58  2  0  0  0
 57129  1  0  0  0
 58130  1  0  0  0
 59 60  1  0  0  0
 59 61  1  0  0  0
 59 62  1  0  0  0
 60131  1  0  0  0
 60132  1  0  0  0
 60133  1  0  0  0
 61134  1  0  0  0
 61135  1  0  0  0
 61136  1  0  0  0
 62137  1  0  0  0
 62138  1  0  0  0
 62139  1  0  0  0
 63 65  1  0  0  0
 63140  1  0  0  0
 63141  1  0  0  0
 63142  1  0  0  0
 64143  1  0  0  0
 65144  1  0  0  0
 68 79  1  0  0  0
 71 72  2  0  0  0
 71 80  1  0  0  0
 71145  1  0  0  0
 72 78  1  0  0  0
 72 85  1  0  0  0
 73 80  2  0  0  0
 73 81  1  0  0  0
 73 85  1  0  0  0
 74 75  2  0  0  0
 74 76  1  0  0  0
 74146  1  0  0  0
 75 79  1  0  0  0
 75 84  1  0  0  0
 76 82  1  0  0  0
 76 83  2  0  0  0
 77 82  1  0  0  0
 77147  1  0  0  0
 77148  1  0  0  0
 77149  1  0  0  0
 78 82  1  0  0  0
 78150  1  0  0  0
 78151  1  0  0  0
 79152  1  0  0  0
 79153  1  0  0  0
 81154  1  0  0  0
 84155  1  0  0  0
M  ISO  4   1 100  68 101  79 101  81 100
M  END
> <chiral flag>
0

> <version>
0

> <s_m_source_file>
/data/baiqing/PycharmProjects/Reinvent-master-3.2/result/LINK_invent/BTK/process_docking_weight1_custom_product_contain_oxygen_bond_distance_aromatic_linkinvent_7_9_3/rearranged_h_0176.sdf

> <i_m_source_file_index>
95

> <r_mmod_Potential_Energy-OPLS-2005>
-113.6650390625

> <r_mmod_Stretch_Energy-OPLS-2005>
37.2696228027344

> <r_mmod_Bend_Energy-OPLS-2005>
112.95792388916

> <r_mmod_Torsional_Energy-OPLS-2005>
191.294479370117

> <r_mmod_Improper_Torsional_Energy-OPLS-2005>
2.69940710067749

> <r_mmod_Van_der_Waal_Energy-OPLS-2005>
158.963851928711

> <r_mmod_Electrostatic_Energy-OPLS-2005>
-370.44482421875

> <r_mmod_Solvation_Energy-OPLS-2005>
-255.059036254883

> <b_mmod_Minimization_Converged-OPLS-2005>
0

> <r_mmod_RMS_Derivative-OPLS-2005>
2.13848996162415

$$$$
95
                    3D
 Structure written by MMmdl.
149157  0  0  1  0            999 V2000
  -30.6651  -14.4890   20.5465 C   0  0  0  0  0  0
  -30.4353  -12.2990   19.4462 C   0  0  0  0  0  0
  -29.5177  -12.5044   18.2209 C   0  0  0  0  0  0
  -28.0283  -12.3788   18.6146 C   0  0  0  0  0  0
  -27.6648  -13.2037   19.8803 C   0  0  2  0  0  0
  -28.6991  -12.9468   20.9967 C   0  0  0  0  0  0
  -25.2589  -13.8152   20.5707 C   0  0  0  0  0  0
  -24.1840  -13.0432   20.9194 C   0  0  0  0  0  0
  -24.6367  -11.6899   20.8704 C   0  0  0  0  0  0
  -23.9024  -10.4303   21.0376 C   0  0  0  0  0  0
  -24.3580   -9.4235   21.9156 C   0  0  0  0  0  0
  -23.6293   -8.2257   22.0736 C   0  0  0  0  0  0
  -22.4276   -8.0256   21.3531 C   0  0  0  0  0  0
  -21.9882   -9.0222   20.4638 C   0  0  0  0  0  0
  -22.7179  -10.2123   20.3033 C   0  0  0  0  0  0
  -21.6867   -6.0714   22.5288 C   0  0  0  0  0  0
  -21.3998   -6.5633   23.8233 C   0  0  0  0  0  0
  -21.3659   -5.6785   24.9192 C   0  0  0  0  0  0
  -21.6054   -4.3047   24.7240 C   0  0  0  0  0  0
  -21.8814   -3.8124   23.4362 C   0  0  0  0  0  0
  -21.9193   -4.6948   22.3416 C   0  0  0  0  0  0
  -22.7864  -13.5252   21.1878 C   0  0  0  0  0  0
  -22.1657   -4.2130   21.1001 F   0  0  0  0  0  0
  -21.5644   -3.4541   25.7756 F   0  0  0  0  0  0
  -30.0308  -13.2826   20.4668 N   0  0  0  0  0  0
  -26.3024  -12.9318   20.3342 N   0  0  0  0  0  0
  -25.9286  -11.6479   20.5694 N   0  0  0  0  0  0
  -22.0475  -12.8253   22.0420 N   0  0  0  0  0  0
  -25.4369  -15.1880   20.4185 N   0  0  0  0  0  0
  -31.8071  -14.6455   20.1025 O   0  0  0  0  0  0
  -21.6645   -6.8846   21.4231 O   0  0  0  0  0  0
  -22.3547  -14.5570   20.6749 O   0  0  0  0  0  0
  -24.6205  -31.8646   23.2074 C   0  0  0  0  0  0
  -25.9079  -32.4799   23.8384 C   0  0  1  0  0  0
  -27.2246  -27.3933   20.0971 C   0  0  0  0  0  0
  -25.5914  -33.8611   24.2307 N   0  0  0  0  0  0
  -23.4095  -30.4910   21.5483 C   0  0  2  0  0  0
  -24.8552  -28.9528   20.1137 C   0  0  0  0  0  0
  -22.7423  -29.4673   22.4942 C   0  0  0  0  0  0
  -18.0265  -28.1381   22.8494 C   0  0  0  0  0  0
  -24.1487  -36.7308   23.2639 C   0  0  0  0  0  0
  -25.9458  -30.8151   21.3708 C   0  0  0  0  0  0
  -26.0222  -29.4500   20.7095 C   0  0  0  0  0  0
  -27.2146  -28.6792   20.6966 C   0  0  0  0  0  0
  -26.0421  -26.9260   19.4857 C   0  0  0  0  0  0
  -24.8612  -27.6906   19.4968 C   0  0  0  0  0  0
  -23.6217  -29.8275   20.1631 C   0  0  0  0  0  0
  -25.4110  -36.3096   24.0331 C   0  0  1  0  0  0
  -20.5855  -28.3693   23.1281 C   0  0  2  0  0  0
  -20.6763  -26.9431   22.5396 C   0  0  0  0  0  0
  -19.5739  -26.6382   21.5209 C   0  0  0  0  0  0
  -18.1917  -26.7924   22.1636 C   0  0  0  0  0  0
  -19.1516  -28.8861   23.2879 C   0  0  0  0  0  0
  -18.9456  -30.1455   23.8895 C   0  0  0  0  0  0
  -17.6460  -30.6600   24.0554 C   0  0  0  0  0  0
  -25.9048  -34.9465   23.5109 C   0  0  0  0  0  0
  -16.5344  -29.9099   23.6334 C   0  0  0  0  0  0
  -16.7242  -28.6510   23.0366 C   0  0  0  0  0  0
  -26.4476  -31.6599   25.0736 C   0  0  0  0  0  0
  -25.3774  -31.3782   26.1534 C   0  0  0  0  0  0
  -27.0257  -30.2992   24.6197 C   0  0  0  0  0  0
  -27.6084  -32.4305   25.7459 C   0  0  0  0  0  0
  -27.5580  -37.1800   24.8453 C   0  0  0  0  0  0
  -21.4150  -29.3056   22.3686 N   0  0  0  0  0  0
  -26.4275  -37.3801   23.9412 N   0  0  0  0  0  0
  -24.6764  -31.0724   22.0995 N   0  0  0  0  0  0
  -23.4170  -28.8219   23.3011 O   0  0  0  0  0  0
  -28.3356  -26.5650   20.1092 O   0  0  0  0  0  0
  -26.5617  -34.8912   22.4670 O   0  0  0  0  0  0
  -23.5387  -32.1430   23.7433 O   0  0  0  0  0  0
  -29.7003  -19.3835   20.3672 C   0  0  0  0  0  0
  -27.9244  -19.9207   21.7908 C   0  0  0  0  0  0
  -28.8333  -20.4082   20.8830 C   0  0  0  0  0  0
  -29.4612  -18.1376   20.9190 C   0  0  0  0  0  0
  -30.1207  -16.8870   20.6132 C   0  0  0  0  0  0
  -29.8554  -15.6200   21.0256 C   0  0  0  0  0  0
  -28.1364  -25.3148   20.6814 C   0  0  0  0  0  0
  -28.7025  -24.1429   20.2869 C   0  0  0  0  0  0
  -28.3744  -22.8967   21.0090 C   0  0  0  0  0  0
  -28.9078  -21.7816   20.4504 N   0  0  0  0  0  0
  -27.6883  -22.8636   22.0371 O   0  0  0  0  0  0
  -29.5543  -24.1091   19.2487 O   0  0  0  0  0  0
  -28.1410  -18.2084   22.0628 S   0  0  0  0  0  0
  -31.4852  -12.3924   19.1620 H   0  0  0  0  0  0
  -30.3299  -11.2847   19.8324 H   0  0  0  0  0  0
  -29.7684  -11.7792   17.4453 H   0  0  0  0  0  0
  -29.7041  -13.4885   17.7865 H   0  0  0  0  0  0
  -27.8301  -11.3222   18.7925 H   0  0  0  0  0  0
  -27.3918  -12.6659   17.7780 H   0  0  0  0  0  0
  -27.7153  -14.2577   19.6045 H   0  0  0  0  0  0
  -28.6766  -11.8917   21.2751 H   0  0  0  0  0  0
  -28.4567  -13.4738   21.9190 H   0  0  0  0  0  0
  -25.2717   -9.5759   22.4734 H   0  0  0  0  0  0
  -24.0021   -7.4659   22.7456 H   0  0  0  0  0  0
  -21.0802   -8.8690   19.8957 H   0  0  0  0  0  0
  -22.3572  -10.9639   19.6145 H   0  0  0  0  0  0
  -21.1960   -7.6136   23.9738 H   0  0  0  0  0  0
  -21.1499   -6.0509   25.9101 H   0  0  0  0  0  0
  -22.0589   -2.7591   23.2892 H   0  0  0  0  0  0
  -22.4008  -11.9891   22.4849 H   0  0  0  0  0  0
  -21.1083  -13.1297   22.2588 H   0  0  0  0  0  0
  -24.6895  -15.8573   20.5619 H   0  0  0  0  0  0
  -26.3081  -15.6208   20.1368 H   0  0  0  0  0  0
  -26.7151  -32.5489   23.1154 H   0  0  0  0  0  0
  -25.0017  -33.9776   25.0420 H   0  0  0  0  0  0
  -22.7014  -31.3104   21.4085 H   0  0  0  0  0  0
  -23.3749  -35.9638   23.3291 H   0  0  0  0  0  0
  -24.3592  -36.8938   22.2055 H   0  0  0  0  0  0
  -23.7231  -37.6499   23.6683 H   0  0  0  0  0  0
  -26.0758  -31.5854   20.6098 H   0  0  0  0  0  0
  -26.8265  -30.8542   22.0006 H   0  0  0  0  0  0
  -28.1129  -29.0558   21.1648 H   0  0  0  0  0  0
  -26.0297  -25.9546   19.0110 H   0  0  0  0  0  0
  -23.9637  -27.3010   19.0347 H   0  0  0  0  0  0
  -23.7414  -30.6063   19.4083 H   0  0  0  0  0  0
  -22.7421  -29.2575   19.8584 H   0  0  0  0  0  0
  -25.1292  -36.1933   25.0827 H   0  0  0  0  0  0
  -20.9945  -28.3265   24.1402 H   0  0  0  0  0  0
  -20.5669  -26.2321   23.3596 H   0  0  0  0  0  0
  -21.6633  -26.7486   22.1172 H   0  0  0  0  0  0
  -19.6897  -25.6289   21.1247 H   0  0  0  0  0  0
  -19.6650  -27.3190   20.6737 H   0  0  0  0  0  0
  -17.4174  -26.6650   21.4048 H   0  0  0  0  0  0
  -18.0338  -26.0057   22.9041 H   0  0  0  0  0  0
  -19.7938  -30.7263   24.2265 H   0  0  0  0  0  0
  -17.5028  -31.6296   24.5140 H   0  0  0  0  0  0
  -15.5348  -30.3017   23.7676 H   0  0  0  0  0  0
  -15.8634  -28.0833   22.7107 H   0  0  0  0  0  0
  -24.5688  -30.7479   25.7829 H   0  0  0  0  0  0
  -24.9343  -32.3013   26.5280 H   0  0  0  0  0  0
  -25.8075  -30.8592   27.0112 H   0  0  0  0  0  0
  -26.2787  -29.6750   24.1284 H   0  0  0  0  0  0
  -27.3959  -29.7249   25.4699 H   0  0  0  0  0  0
  -27.8681  -30.4201   23.9387 H   0  0  0  0  0  0
  -27.2747  -33.3636   26.2007 H   0  0  0  0  0  0
  -28.3898  -32.6805   25.0273 H   0  0  0  0  0  0
  -28.0745  -31.8445   26.5393 H   0  0  0  0  0  0
  -28.2575  -38.0117   24.7531 H   0  0  0  0  0  0
  -28.1092  -36.2659   24.6223 H   0  0  0  0  0  0
  -27.2314  -37.1352   25.8854 H   0  0  0  0  0  0
  -20.9317  -29.8791   21.6914 H   0  0  0  0  0  0
  -26.0149  -38.2860   24.1457 H   0  0  0  0  0  0
  -30.4590  -19.5890   19.6224 H   0  0  0  0  0  0
  -27.1303  -20.4438   22.3104 H   0  0  0  0  0  0
  -30.9556  -17.0059   19.9347 H   0  0  0  0  0  0
  -29.0352  -15.4618   21.7067 H   0  0  0  0  0  0
  -27.4451  -25.3637   21.5121 H   0  0  0  0  0  0
  -29.4607  -21.9728   19.6237 H   0  0  0  0  0  0
  -29.6583  -25.0038   18.9524 H   0  0  0  0  0  0
  1 25  1  0  0  0
  1 30  2  0  0  0
  1 76  1  0  0  0
  2  3  1  0  0  0
  2 25  1  0  0  0
  2 84  1  0  0  0
  2 85  1  0  0  0
  3  4  1  0  0  0
  3 86  1  0  0  0
  3 87  1  0  0  0
  4  5  1  0  0  0
  4 88  1  0  0  0
  4 89  1  0  0  0
  5  6  1  0  0  0
  5 26  1  0  0  0
  5 90  1  0  0  0
  6 25  1  0  0  0
  6 91  1  0  0  0
  6 92  1  0  0  0
  7  8  2  0  0  0
  7 26  1  0  0  0
  7 29  1  0  0  0
  8  9  1  0  0  0
  8 22  1  0  0  0
  9 10  1  0  0  0
  9 27  2  0  0  0
 10 11  2  0  0  0
 10 15  1  0  0  0
 11 12  1  0  0  0
 11 93  1  0  0  0
 12 13  2  0  0  0
 12 94  1  0  0  0
 13 14  1  0  0  0
 13 31  1  0  0  0
 14 15  2  0  0  0
 14 95  1  0  0  0
 15 96  1  0  0  0
 16 17  2  0  0  0
 16 21  1  0  0  0
 16 31  1  0  0  0
 17 18  1  0  0  0
 17 97  1  0  0  0
 18 19  2  0  0  0
 18 98  1  0  0  0
 19 20  1  0  0  0
 19 24  1  0  0  0
 20 21  2  0  0  0
 20 99  1  0  0  0
 21 23  1  0  0  0
 22 28  1  0  0  0
 22 32  2  0  0  0
 26 27  1  0  0  0
 28100  1  0  0  0
 28101  1  0  0  0
 29102  1  0  0  0
 29103  1  0  0  0
 33 34  1  0  0  0
 33 66  1  0  0  0
 33 70  2  0  0  0
 34 36  1  0  0  0
 34 59  1  0  0  0
 34104  1  0  0  0
 35 44  2  0  0  0
 35 45  1  0  0  0
 35 68  1  0  0  0
 36 56  1  0  0  0
 36105  1  0  0  0
 37 39  1  0  0  0
 37 47  1  0  0  0
 37 66  1  0  0  0
 37106  1  0  0  0
 38 43  2  0  0  0
 38 46  1  0  0  0
 38 47  1  0  0  0
 39 64  1  0  0  0
 39 67  2  0  0  0
 40 52  1  0  0  0
 40 53  2  0  0  0
 40 58  1  0  0  0
 41107  1  0  0  0
 41108  1  0  0  0
 41109  1  0  0  0
 41 48  1  0  0  0
 42 43  1  0  0  0
 42 66  1  0  0  0
 42110  1  0  0  0
 42111  1  0  0  0
 43 44  1  0  0  0
 44112  1  0  0  0
 45 46  2  0  0  0
 45113  1  0  0  0
 46114  1  0  0  0
 47115  1  0  0  0
 47116  1  0  0  0
 48 56  1  0  0  0
 48 65  1  0  0  0
 48117  1  0  0  0
 49 50  1  0  0  0
 49 53  1  0  0  0
 49 64  1  0  0  0
 49118  1  0  0  0
 50 51  1  0  0  0
 50119  1  0  0  0
 50120  1  0  0  0
 51 52  1  0  0  0
 51121  1  0  0  0
 51122  1  0  0  0
 52123  1  0  0  0
 52124  1  0  0  0
 53 54  1  0  0  0
 54 55  2  0  0  0
 54125  1  0  0  0
 55 57  1  0  0  0
 55126  1  0  0  0
 56 69  2  0  0  0
 57 58  2  0  0  0
 57127  1  0  0  0
 58128  1  0  0  0
 59 60  1  0  0  0
 59 61  1  0  0  0
 59 62  1  0  0  0
 60129  1  0  0  0
 60130  1  0  0  0
 60131  1  0  0  0
 61132  1  0  0  0
 61133  1  0  0  0
 61134  1  0  0  0
 62135  1  0  0  0
 62136  1  0  0  0
 62137  1  0  0  0
 63 65  1  0  0  0
 63138  1  0  0  0
 63139  1  0  0  0
 63140  1  0  0  0
 64141  1  0  0  0
 65142  1  0  0  0
 68 77  1  0  0  0
 71 73  1  0  0  0
 71 74  2  0  0  0
 71143  1  0  0  0
 72 73  2  0  0  0
 72 83  1  0  0  0
 72144  1  0  0  0
 73 80  1  0  0  0
 74 75  1  0  0  0
 74 83  1  0  0  0
 75 76  2  0  0  0
 75145  1  0  0  0
 76146  1  0  0  0
 77 78  2  0  0  0
 77147  1  0  0  0
 78 79  1  0  0  0
 78 82  1  0  0  0
 79 80  1  0  0  0
 79 81  2  0  0  0
 80148  1  0  0  0
 82149  1  0  0  0
M  ISO  4   1 100  68 101  76 100  77 101
M  END
> <chiral flag>
0

> <version>
0

> <s_m_source_file>
/data/baiqing/PycharmProjects/Reinvent-master-3.2/result/LINK_invent/BTK/process_docking_weight1_custom_product_contain_oxygen_bond_distance_aromatic_linkinvent_7_9_3/rearranged_h_0176.sdf

> <i_m_source_file_index>
96

> <r_mmod_Potential_Energy-OPLS-2005>
-95.3438034057617

> <r_mmod_Stretch_Energy-OPLS-2005>
43.4745101928711

> <r_mmod_Bend_Energy-OPLS-2005>
104.524703979492

> <r_mmod_Torsional_Energy-OPLS-2005>
183.039077758789

> <r_mmod_Improper_Torsional_Energy-OPLS-2005>
3.83907914161682

> <r_mmod_Van_der_Waal_Energy-OPLS-2005>
142.673782348633

> <r_mmod_Electrostatic_Energy-OPLS-2005>
-384.644958496094

> <r_mmod_Solvation_Energy-OPLS-2005>
-208.372146606445

> <b_mmod_Minimization_Converged-OPLS-2005>
0

> <r_mmod_RMS_Derivative-OPLS-2005>
4.45977878570557

$$$$
96
                    3D
 Structure written by MMmdl.
154162  0  0  1  0            999 V2000
  -30.6836  -14.5090   20.5678 C   0  0  0  0  0  0
  -30.4312  -12.3276   19.4277 C   0  0  0  0  0  0
  -29.4994  -12.5111   18.2103 C   0  0  0  0  0  0
  -28.0211  -12.3568   18.6211 C   0  0  0  0  0  0
  -27.6630  -13.2040   19.8703 C   0  0  2  0  0  0
  -28.7031  -12.9936   20.9945 C   0  0  0  0  0  0
  -25.2622  -13.8157   20.5687 C   0  0  0  0  0  0
  -24.1861  -13.0444   20.9172 C   0  0  0  0  0  0
  -24.6399  -11.6907   20.8721 C   0  0  0  0  0  0
  -23.9049  -10.4301   21.0396 C   0  0  0  0  0  0
  -24.3601   -9.4223   21.9190 C   0  0  0  0  0  0
  -23.6288   -8.2257   22.0760 C   0  0  0  0  0  0
  -22.4272   -8.0289   21.3544 C   0  0  0  0  0  0
  -21.9902   -9.0263   20.4653 C   0  0  0  0  0  0
  -22.7220  -10.2150   20.3055 C   0  0  0  0  0  0
  -21.6857   -6.0747   22.5284 C   0  0  0  0  0  0
  -21.4019   -6.5644   23.8214 C   0  0  0  0  0  0
  -21.3656   -5.6780   24.9173 C   0  0  0  0  0  0
  -21.6034   -4.3052   24.7214 C   0  0  0  0  0  0
  -21.8817   -3.8154   23.4331 C   0  0  0  0  0  0
  -21.9205   -4.6974   22.3397 C   0  0  0  0  0  0
  -22.7879  -13.5265   21.1822 C   0  0  0  0  0  0
  -22.1676   -4.2167   21.0971 F   0  0  0  0  0  0
  -21.5624   -3.4525   25.7723 F   0  0  0  0  0  0
  -30.0352  -13.3129   20.4505 N   0  0  0  0  0  0
  -26.3037  -12.9320   20.3324 N   0  0  0  0  0  0
  -25.9323  -11.6481   20.5718 N   0  0  0  0  0  0
  -22.0471  -12.8302   22.0370 N   0  0  0  0  0  0
  -25.4374  -15.1876   20.4158 N   0  0  0  0  0  0
  -31.8101  -14.6917   20.0958 O   0  0  0  0  0  0
  -21.6635   -6.8894   21.4244 O   0  0  0  0  0  0
  -22.3594  -14.5573   20.6653 O   0  0  0  0  0  0
  -24.6165  -31.8671   23.2074 C   0  0  0  0  0  0
  -25.9052  -32.4817   23.8383 C   0  0  1  0  0  0
  -27.2364  -27.4177   20.1055 C   0  0  0  0  0  0
  -25.5912  -33.8618   24.2316 N   0  0  0  0  0  0
  -23.4078  -30.4906   21.5445 C   0  0  2  0  0  0
  -24.8591  -28.9578   20.1081 C   0  0  0  0  0  0
  -22.7422  -29.4657   22.4925 C   0  0  0  0  0  0
  -18.0265  -28.1394   22.8471 C   0  0  0  0  0  0
  -24.1482  -36.7319   23.2634 C   0  0  0  0  0  0
  -25.9381  -30.8320   21.3607 C   0  0  0  0  0  0
  -26.0195  -29.4663   20.7048 C   0  0  0  0  0  0
  -27.2160  -28.7085   20.6915 C   0  0  0  0  0  0
  -26.0625  -26.9368   19.4868 C   0  0  0  0  0  0
  -24.8766  -27.6957   19.4896 C   0  0  0  0  0  0
  -23.6223  -29.8261   20.1581 C   0  0  0  0  0  0
  -25.4097  -36.3104   24.0329 C   0  0  1  0  0  0
  -20.5861  -28.3701   23.1274 C   0  0  2  0  0  0
  -20.6757  -26.9429   22.5400 C   0  0  0  0  0  0
  -19.5746  -26.6396   21.5192 C   0  0  0  0  0  0
  -18.1923  -26.7936   22.1597 C   0  0  0  0  0  0
  -19.1519  -28.8849   23.2880 C   0  0  0  0  0  0
  -18.9453  -30.1441   23.8920 C   0  0  0  0  0  0
  -17.6466  -30.6601   24.0561 C   0  0  0  0  0  0
  -25.9027  -34.9476   23.5110 C   0  0  0  0  0  0
  -16.5348  -29.9117   23.6325 C   0  0  0  0  0  0
  -16.7251  -28.6525   23.0352 C   0  0  0  0  0  0
  -26.4498  -31.6594   25.0712 C   0  0  0  0  0  0
  -25.3784  -31.3719   26.1481 C   0  0  0  0  0  0
  -27.0317  -30.3018   24.6087 C   0  0  0  0  0  0
  -27.6046  -32.4331   25.7510 C   0  0  0  0  0  0
  -27.5572  -37.1815   24.8463 C   0  0  0  0  0  0
  -21.4139  -29.3077   22.3681 N   0  0  0  0  0  0
  -26.4279  -37.3790   23.9415 N   0  0  0  0  0  0
  -24.6720  -31.0778   22.0964 N   0  0  0  0  0  0
  -23.4177  -28.8186   23.2969 O   0  0  0  0  0  0
  -28.3645  -26.6148   20.1700 O   0  0  0  0  0  0
  -26.5587  -34.8938   22.4672 O   0  0  0  0  0  0
  -23.5349  -32.1409   23.7465 O   0  0  0  0  0  0
  -29.9176  -19.4080   21.3123 C   0  0  0  0  0  0
  -30.8074  -18.9764   20.3433 C   0  0  0  0  0  0
  -30.1072  -16.9193   21.0830 C   0  0  0  0  0  0
  -29.5581  -20.7395   21.9198 C   0  0  0  0  0  0
  -29.5696  -23.1594   21.6179 C   0  0  0  0  0  0
  -27.9547  -25.7154   22.3809 C   0  0  0  0  0  0
  -29.3893  -24.3554   20.6297 C   0  0  0  0  0  0
  -28.1971  -25.3569   20.8922 C   0  0  2  0  0  0
  -30.8818  -17.5783   20.2108 N   0  0  0  0  0  0
  -31.6206  -19.7573   19.5188 N   0  0  0  0  0  0
  -29.9707  -15.4930   21.1624 N   0  0  0  0  0  0
  -29.6110  -21.8737   21.1636 N   0  0  0  0  0  0
  -29.1969  -20.7412   23.1048 O   0  0  0  0  0  0
  -29.7520  -23.4396   22.8082 O   0  0  0  0  0  0
  -29.1798  -18.0136   22.1036 S   0  0  0  0  0  0
  -31.4746  -12.4396   19.1252 H   0  0  0  0  0  0
  -30.3510  -11.3156   19.8273 H   0  0  0  0  0  0
  -29.7487  -11.7875   17.4328 H   0  0  0  0  0  0
  -29.6554  -13.4988   17.7738 H   0  0  0  0  0  0
  -27.8418  -11.3011   18.8290 H   0  0  0  0  0  0
  -27.3681  -12.6228   17.7872 H   0  0  0  0  0  0
  -27.7080  -14.2491   19.5643 H   0  0  0  0  0  0
  -28.6863  -11.9575   21.3334 H   0  0  0  0  0  0
  -28.4508  -13.5882   21.8740 H   0  0  0  0  0  0
  -25.2738   -9.5720   22.4773 H   0  0  0  0  0  0
  -24.0009   -7.4640   22.7474 H   0  0  0  0  0  0
  -21.0839   -8.8774   19.8942 H   0  0  0  0  0  0
  -22.3675  -10.9695   19.6168 H   0  0  0  0  0  0
  -21.2003   -7.6149   23.9737 H   0  0  0  0  0  0
  -21.1480   -6.0503   25.9077 H   0  0  0  0  0  0
  -22.0605   -2.7624   23.2818 H   0  0  0  0  0  0
  -22.4043  -11.9968   22.4797 H   0  0  0  0  0  0
  -21.1083  -13.1391   22.2492 H   0  0  0  0  0  0
  -24.6682  -15.8412   20.5184 H   0  0  0  0  0  0
  -26.2895  -15.6268   20.0898 H   0  0  0  0  0  0
  -26.7126  -32.5534   23.1153 H   0  0  0  0  0  0
  -25.0116  -33.9782   25.0495 H   0  0  0  0  0  0
  -22.6943  -31.3052   21.4019 H   0  0  0  0  0  0
  -23.3733  -35.9666   23.3309 H   0  0  0  0  0  0
  -24.3571  -36.8930   22.2047 H   0  0  0  0  0  0
  -23.7260  -37.6533   23.6649 H   0  0  0  0  0  0
  -26.0475  -31.5963   20.5907 H   0  0  0  0  0  0
  -26.8261  -30.8876   21.9793 H   0  0  0  0  0  0
  -28.1113  -29.0924   21.1604 H   0  0  0  0  0  0
  -26.0582  -25.9671   19.0099 H   0  0  0  0  0  0
  -23.9871  -27.2979   19.0219 H   0  0  0  0  0  0
  -23.7406  -30.6050   19.4044 H   0  0  0  0  0  0
  -22.7468  -29.2515   19.8514 H   0  0  0  0  0  0
  -25.1274  -36.1965   25.0820 H   0  0  0  0  0  0
  -20.9944  -28.3306   24.1392 H   0  0  0  0  0  0
  -20.5646  -26.2322   23.3602 H   0  0  0  0  0  0
  -21.6631  -26.7470   22.1204 H   0  0  0  0  0  0
  -19.6923  -25.6307   21.1227 H   0  0  0  0  0  0
  -19.6699  -27.3185   20.6708 H   0  0  0  0  0  0
  -17.4186  -26.6658   21.4006 H   0  0  0  0  0  0
  -18.0351  -26.0074   22.8992 H   0  0  0  0  0  0
  -19.7936  -30.7225   24.2324 H   0  0  0  0  0  0
  -17.5039  -31.6279   24.5164 H   0  0  0  0  0  0
  -15.5356  -30.3047   23.7632 H   0  0  0  0  0  0
  -15.8637  -28.0853   22.7088 H   0  0  0  0  0  0
  -24.5948  -30.7060   25.7861 H   0  0  0  0  0  0
  -24.8996  -32.2881   26.4932 H   0  0  0  0  0  0
  -25.8164  -30.8914   27.0235 H   0  0  0  0  0  0
  -26.2844  -29.6793   24.1144 H   0  0  0  0  0  0
  -27.4074  -29.7246   25.4550 H   0  0  0  0  0  0
  -27.8696  -30.4310   23.9233 H   0  0  0  0  0  0
  -27.2617  -33.3609   26.2104 H   0  0  0  0  0  0
  -28.3872  -32.6931   25.0375 H   0  0  0  0  0  0
  -28.0696  -31.8455   26.5438 H   0  0  0  0  0  0
  -28.2585  -38.0115   24.7490 H   0  0  0  0  0  0
  -28.1065  -36.2639   24.6288 H   0  0  0  0  0  0
  -27.2295  -37.1472   25.8870 H   0  0  0  0  0  0
  -20.9286  -29.8842   21.6948 H   0  0  0  0  0  0
  -26.0163  -38.2863   24.1433 H   0  0  0  0  0  0
  -27.6712  -24.8413   22.9674 H   0  0  0  0  0  0
  -27.1393  -26.4253   22.5187 H   0  0  0  0  0  0
  -28.8469  -26.1501   22.8336 H   0  0  0  0  0  0
  -29.3305  -23.9794   19.6081 H   0  0  0  0  0  0
  -30.3161  -24.9275   20.6781 H   0  0  0  0  0  0
  -27.3024  -24.8497   20.5285 H   0  0  0  0  0  0
  -31.8997  -20.6818   19.8293 H   0  0  0  0  0  0
  -32.3509  -19.2803   19.0001 H   0  0  0  0  0  0
  -29.1384  -15.1786   21.6328 H   0  0  0  0  0  0
  -29.6980  -21.7390   20.1680 H   0  0  0  0  0  0
  1 25  1  0  0  0
  1 30  2  0  0  0
  1 81  1  0  0  0
  2  3  1  0  0  0
  2 25  1  0  0  0
  2 86  1  0  0  0
  2 87  1  0  0  0
  3  4  1  0  0  0
  3 88  1  0  0  0
  3 89  1  0  0  0
  4  5  1  0  0  0
  4 90  1  0  0  0
  4 91  1  0  0  0
  5  6  1  0  0  0
  5 26  1  0  0  0
  5 92  1  0  0  0
  6 25  1  0  0  0
  6 93  1  0  0  0
  6 94  1  0  0  0
  7  8  2  0  0  0
  7 26  1  0  0  0
  7 29  1  0  0  0
  8  9  1  0  0  0
  8 22  1  0  0  0
  9 10  1  0  0  0
  9 27  2  0  0  0
 10 11  2  0  0  0
 10 15  1  0  0  0
 11 12  1  0  0  0
 11 95  1  0  0  0
 12 13  2  0  0  0
 12 96  1  0  0  0
 13 14  1  0  0  0
 13 31  1  0  0  0
 14 15  2  0  0  0
 14 97  1  0  0  0
 15 98  1  0  0  0
 16 17  2  0  0  0
 16 21  1  0  0  0
 16 31  1  0  0  0
 17 18  1  0  0  0
 17 99  1  0  0  0
 18 19  2  0  0  0
 18100  1  0  0  0
 19 20  1  0  0  0
 19 24  1  0  0  0
 20 21  2  0  0  0
 20101  1  0  0  0
 21 23  1  0  0  0
 22 28  1  0  0  0
 22 32  2  0  0  0
 26 27  1  0  0  0
 28102  1  0  0  0
 28103  1  0  0  0
 29104  1  0  0  0
 29105  1  0  0  0
 33 34  1  0  0  0
 33 66  1  0  0  0
 33 70  2  0  0  0
 34 36  1  0  0  0
 34 59  1  0  0  0
 34106  1  0  0  0
 35 44  2  0  0  0
 35 45  1  0  0  0
 35 68  1  0  0  0
 36 56  1  0  0  0
 36107  1  0  0  0
 37 39  1  0  0  0
 37 47  1  0  0  0
 37 66  1  0  0  0
 37108  1  0  0  0
 38 43  2  0  0  0
 38 46  1  0  0  0
 38 47  1  0  0  0
 39 64  1  0  0  0
 39 67  2  0  0  0
 40 52  1  0  0  0
 40 53  2  0  0  0
 40 58  1  0  0  0
 41109  1  0  0  0
 41110  1  0  0  0
 41111  1  0  0  0
 41 48  1  0  0  0
 42 43  1  0  0  0
 42 66  1  0  0  0
 42112  1  0  0  0
 42113  1  0  0  0
 43 44  1  0  0  0
 44114  1  0  0  0
 45 46  2  0  0  0
 45115  1  0  0  0
 46116  1  0  0  0
 47117  1  0  0  0
 47118  1  0  0  0
 48 56  1  0  0  0
 48 65  1  0  0  0
 48119  1  0  0  0
 49 50  1  0  0  0
 49 53  1  0  0  0
 49 64  1  0  0  0
 49120  1  0  0  0
 50 51  1  0  0  0
 50121  1  0  0  0
 50122  1  0  0  0
 51 52  1  0  0  0
 51123  1  0  0  0
 51124  1  0  0  0
 52125  1  0  0  0
 52126  1  0  0  0
 53 54  1  0  0  0
 54 55  2  0  0  0
 54127  1  0  0  0
 55 57  1  0  0  0
 55128  1  0  0  0
 56 69  2  0  0  0
 57 58  2  0  0  0
 57129  1  0  0  0
 58130  1  0  0  0
 59 60  1  0  0  0
 59 61  1  0  0  0
 59 62  1  0  0  0
 60131  1  0  0  0
 60132  1  0  0  0
 60133  1  0  0  0
 61134  1  0  0  0
 61135  1  0  0  0
 61136  1  0  0  0
 62137  1  0  0  0
 62138  1  0  0  0
 62139  1  0  0  0
 63 65  1  0  0  0
 63140  1  0  0  0
 63141  1  0  0  0
 63142  1  0  0  0
 64143  1  0  0  0
 65144  1  0  0  0
 68 78  1  0  0  0
 71 72  2  0  0  0
 71 74  1  0  0  0
 71 85  1  0  0  0
 72 79  1  0  0  0
 72 80  1  0  0  0
 73 79  2  0  0  0
 73 81  1  0  0  0
 73 85  1  0  0  0
 74 82  1  0  0  0
 74 83  2  0  0  0
 75 77  1  0  0  0
 75 82  1  0  0  0
 75 84  2  0  0  0
 76145  1  0  0  0
 76146  1  0  0  0
 76147  1  0  0  0
 76 78  1  0  0  0
 77 78  1  0  0  0
 77148  1  0  0  0
 77149  1  0  0  0
 78150  1  0  0  0
 80151  1  0  0  0
 80152  1  0  0  0
 81153  1  0  0  0
 82154  1  0  0  0
M  ISO  4   1 100  68 101  78 101  81 100
M  END
> <chiral flag>
0

> <version>
0

> <s_m_source_file>
/data/baiqing/PycharmProjects/Reinvent-master-3.2/result/LINK_invent/BTK/process_docking_weight1_custom_product_contain_oxygen_bond_distance_aromatic_linkinvent_7_9_3/rearranged_h_0176.sdf

> <i_m_source_file_index>
97

> <r_mmod_Potential_Energy-OPLS-2005>
-181.942718505859

> <r_mmod_Stretch_Energy-OPLS-2005>
50.2796478271484

> <r_mmod_Bend_Energy-OPLS-2005>
116.742950439453

> <r_mmod_Torsional_Energy-OPLS-2005>
237.824035644531

> <r_mmod_Improper_Torsional_Energy-OPLS-2005>
6.90831279754639

> <r_mmod_Van_der_Waal_Energy-OPLS-2005>
142.44660949707

> <r_mmod_Electrostatic_Energy-OPLS-2005>
-468.167907714844

> <r_mmod_Solvation_Energy-OPLS-2005>
-286.313201904297

> <b_mmod_Minimization_Converged-OPLS-2005>
0

> <r_mmod_RMS_Derivative-OPLS-2005>
2.51955127716064

$$$$
