0
                    3D
 Structure written by MMmdl.
160169  0  0  1  0            999 V2000
  -30.6169  -14.6760   20.4550 C   0  0  0  0  0  0
  -30.4357  -12.4077   19.4464 C   0  0  0  0  0  0
  -29.5010  -12.5082   18.2205 C   0  0  0  0  0  0
  -28.0252  -12.3393   18.6353 C   0  0  0  0  0  0
  -27.6477  -13.2071   19.8648 C   0  0  2  0  0  0
  -28.7034  -13.0993   20.9883 C   0  0  0  0  0  0
  -25.2539  -13.8118   20.5735 C   0  0  0  0  0  0
  -24.1805  -13.0403   20.9223 C   0  0  0  0  0  0
  -24.6371  -11.6873   20.8762 C   0  0  0  0  0  0
  -23.9043  -10.4271   21.0408 C   0  0  0  0  0  0
  -24.3603   -9.4194   21.9182 C   0  0  0  0  0  0
  -23.6281   -8.2232   22.0749 C   0  0  0  0  0  0
  -22.4266   -8.0274   21.3533 C   0  0  0  0  0  0
  -21.9898   -9.0243   20.4635 C   0  0  0  0  0  0
  -22.7222  -10.2121   20.3046 C   0  0  0  0  0  0
  -21.6847   -6.0737   22.5274 C   0  0  0  0  0  0
  -21.4014   -6.5638   23.8207 C   0  0  0  0  0  0
  -21.3660   -5.6787   24.9167 C   0  0  0  0  0  0
  -21.6042   -4.3053   24.7213 C   0  0  0  0  0  0
  -21.8821   -3.8152   23.4334 C   0  0  0  0  0  0
  -21.9194   -4.6970   22.3391 C   0  0  0  0  0  0
  -22.7840  -13.5225   21.1864 C   0  0  0  0  0  0
  -22.1661   -4.2160   21.0967 F   0  0  0  0  0  0
  -21.5631   -3.4537   25.7724 F   0  0  0  0  0  0
  -30.0111  -13.4441   20.4067 N   0  0  0  0  0  0
  -26.2963  -12.9285   20.3369 N   0  0  0  0  0  0
  -25.9300  -11.6453   20.5797 N   0  0  0  0  0  0
  -22.0480  -12.8216   22.0412 N   0  0  0  0  0  0
  -25.4236  -15.1827   20.4145 N   0  0  0  0  0  0
  -31.8015  -14.8241   20.1476 O   0  0  0  0  0  0
  -21.6629   -6.8878   21.4233 O   0  0  0  0  0  0
  -22.3540  -14.5528   20.6691 O   0  0  0  0  0  0
  -24.6286  -31.8612   23.2049 C   0  0  0  0  0  0
  -25.9135  -32.4785   23.8373 C   0  0  1  0  0  0
  -27.2195  -27.3092   20.0915 C   0  0  0  0  0  0
  -25.5953  -33.8585   24.2299 N   0  0  0  0  0  0
  -23.4209  -30.4869   21.5509 C   0  0  2  0  0  0
  -24.8637  -28.9474   20.1115 C   0  0  0  0  0  0
  -22.7478  -29.4635   22.4976 C   0  0  0  0  0  0
  -18.0278  -28.1388   22.8490 C   0  0  0  0  0  0
  -24.1494  -36.7284   23.2635 C   0  0  0  0  0  0
  -25.9666  -30.7835   21.3814 C   0  0  0  0  0  0
  -26.0375  -29.4130   20.7172 C   0  0  0  0  0  0
  -27.2171  -28.6049   20.7012 C   0  0  0  0  0  0
  -26.0175  -26.9124   19.4542 C   0  0  0  0  0  0
  -24.8562  -27.7012   19.4749 C   0  0  0  0  0  0
  -23.6324  -29.8268   20.1657 C   0  0  0  0  0  0
  -25.4123  -36.3084   24.0324 C   0  0  1  0  0  0
  -20.5880  -28.3691   23.1286 C   0  0  2  0  0  0
  -20.6779  -26.9419   22.5407 C   0  0  0  0  0  0
  -19.5746  -26.6385   21.5222 C   0  0  0  0  0  0
  -18.1920  -26.7936   22.1623 C   0  0  0  0  0  0
  -19.1531  -28.8861   23.2879 C   0  0  0  0  0  0
  -18.9452  -30.1471   23.8890 C   0  0  0  0  0  0
  -17.6446  -30.6594   24.0558 C   0  0  0  0  0  0
  -25.9060  -34.9453   23.5112 C   0  0  0  0  0  0
  -16.5341  -29.9082   23.6339 C   0  0  0  0  0  0
  -16.7262  -28.6496   23.0370 C   0  0  0  0  0  0
  -26.4508  -31.6591   25.0745 C   0  0  0  0  0  0
  -25.3726  -31.3733   26.1460 C   0  0  0  0  0  0
  -27.0356  -30.3004   24.6231 C   0  0  0  0  0  0
  -27.6071  -32.4323   25.7514 C   0  0  0  0  0  0
  -27.5585  -37.1797   24.8460 C   0  0  0  0  0  0
  -21.4191  -29.3046   22.3694 N   0  0  0  0  0  0
  -26.4297  -37.3780   23.9403 N   0  0  0  0  0  0
  -24.6915  -31.0602   22.1014 N   0  0  0  0  0  0
  -23.4192  -28.8168   23.3053 O   0  0  0  0  0  0
  -28.3261  -26.4337   20.1330 O   0  0  0  0  0  0
  -26.5610  -34.8908   22.4664 O   0  0  0  0  0  0
  -23.5445  -32.1430   23.7357 O   0  0  0  0  0  0
  -28.9600  -19.3985   19.6938 C   0  0  0  0  0  0
  -30.8676  -17.9734   21.1378 C   0  0  0  0  0  0
  -28.9418  -17.9658   19.6888 C   0  0  0  0  0  0
  -29.8908  -20.1742   20.4262 C   0  0  0  0  0  0
  -29.8977  -17.2004   20.4428 C   0  0  0  0  0  0
  -30.8733  -19.4048   21.1306 C   0  0  0  0  0  0
  -28.8215  -22.5160   19.9631 C   0  0  0  0  0  0
  -29.0642  -23.8464   20.1423 C   0  0  0  0  0  0
  -30.3605  -23.8911   20.7781 C   0  0  0  0  0  0
  -31.0326  -25.0068   21.1039 C   0  0  0  0  0  0
  -27.9331  -17.3196   18.7990 C   0  0  0  0  0  0
  -30.8671  -22.4676   21.0081 C   0  0  0  0  0  0
  -26.5875  -18.0188   18.6353 C   0  0  0  0  0  0
  -28.0813  -25.0150   19.7602 C   0  0  0  0  0  0
  -29.8190  -21.6246   20.4228 N   0  0  0  0  0  0
  -29.7663  -15.7402   20.6323 N   0  0  0  0  0  0
  -28.1222  -16.2546   18.2092 O   0  0  0  0  0  0
  -31.8385  -20.0270   21.8502 F   0  0  0  0  0  0
  -31.4754  -12.5326   19.1409 H   0  0  0  0  0  0
  -30.3738  -11.4171   19.8998 H   0  0  0  0  0  0
  -29.7669  -11.7592   17.4736 H   0  0  0  0  0  0
  -29.6345  -13.4787   17.7388 H   0  0  0  0  0  0
  -27.8595  -11.2852   18.8612 H   0  0  0  0  0  0
  -27.3686  -12.5747   17.7964 H   0  0  0  0  0  0
  -27.6481  -14.2332   19.5157 H   0  0  0  0  0  0
  -28.7269  -12.0895   21.3994 H   0  0  0  0  0  0
  -28.4528  -13.7580   21.8216 H   0  0  0  0  0  0
  -25.2746   -9.5681   22.4758 H   0  0  0  0  0  0
  -24.0001   -7.4619   22.7454 H   0  0  0  0  0  0
  -21.0846   -8.8745   19.8924 H   0  0  0  0  0  0
  -22.3680  -10.9663   19.6156 H   0  0  0  0  0  0
  -21.1999   -7.6141   23.9715 H   0  0  0  0  0  0
  -21.1481   -6.0514   25.9068 H   0  0  0  0  0  0
  -22.0602   -2.7620   23.2821 H   0  0  0  0  0  0
  -22.4119  -11.9884   22.4799 H   0  0  0  0  0  0
  -21.1088  -13.1215   22.2605 H   0  0  0  0  0  0
  -24.6456  -15.8276   20.5006 H   0  0  0  0  0  0
  -26.2476  -15.5997   20.0094 H   0  0  0  0  0  0
  -26.7205  -32.5437   23.1117 H   0  0  0  0  0  0
  -25.0128  -33.9749   25.0464 H   0  0  0  0  0  0
  -22.7145  -31.3080   21.4112 H   0  0  0  0  0  0
  -23.3766  -35.9604   23.3302 H   0  0  0  0  0  0
  -24.3584  -36.8903   22.2048 H   0  0  0  0  0  0
  -23.7229  -37.6477   23.6654 H   0  0  0  0  0  0
  -26.1048  -31.5497   20.6176 H   0  0  0  0  0  0
  -26.8444  -30.8265   22.0148 H   0  0  0  0  0  0
  -28.1163  -28.9558   21.1877 H   0  0  0  0  0  0
  -25.9269  -25.9729   18.9318 H   0  0  0  0  0  0
  -23.9569  -27.3414   18.9928 H   0  0  0  0  0  0
  -23.7446  -30.6048   19.4097 H   0  0  0  0  0  0
  -22.7521  -29.2544   19.8676 H   0  0  0  0  0  0
  -25.1306  -36.1945   25.0815 H   0  0  0  0  0  0
  -20.9960  -28.3267   24.1415 H   0  0  0  0  0  0
  -20.5716  -26.2298   23.3608 H   0  0  0  0  0  0
  -21.6643  -26.7482   22.1173 H   0  0  0  0  0  0
  -19.6904  -25.6297   21.1261 H   0  0  0  0  0  0
  -19.6687  -27.3190   20.6753 H   0  0  0  0  0  0
  -17.4204  -26.6708   21.4015 H   0  0  0  0  0  0
  -18.0298  -26.0075   22.9008 H   0  0  0  0  0  0
  -19.7927  -30.7298   24.2247 H   0  0  0  0  0  0
  -17.4996  -31.6280   24.5143 H   0  0  0  0  0  0
  -15.5337  -30.2974   23.7679 H   0  0  0  0  0  0
  -15.8663  -28.0805   22.7109 H   0  0  0  0  0  0
  -24.5905  -30.7089   25.7771 H   0  0  0  0  0  0
  -24.8914  -32.2901   26.4877 H   0  0  0  0  0  0
  -25.8034  -30.8903   27.0241 H   0  0  0  0  0  0
  -26.2953  -29.6747   24.1237 H   0  0  0  0  0  0
  -27.4012  -29.7270   25.4761 H   0  0  0  0  0  0
  -27.8837  -30.4269   23.9496 H   0  0  0  0  0  0
  -27.2697  -33.3634   26.2074 H   0  0  0  0  0  0
  -28.3887  -32.6870   25.0345 H   0  0  0  0  0  0
  -28.0724  -31.8455   26.5441 H   0  0  0  0  0  0
  -28.2596  -38.0103   24.7534 H   0  0  0  0  0  0
  -28.1100  -36.2640   24.6277 H   0  0  0  0  0  0
  -27.2299  -37.1419   25.8860 H   0  0  0  0  0  0
  -20.9378  -29.8759   21.6892 H   0  0  0  0  0  0
  -26.0188  -38.2854   24.1414 H   0  0  0  0  0  0
  -28.2381  -19.9312   19.0945 H   0  0  0  0  0  0
  -31.6115  -17.4676   21.7347 H   0  0  0  0  0  0
  -27.9262  -22.0928   19.5275 H   0  0  0  0  0  0
  -30.6371  -25.9918   20.9051 H   0  0  0  0  0  0
  -32.0031  -24.9495   21.5738 H   0  0  0  0  0  0
  -30.9771  -22.2798   22.0770 H   0  0  0  0  0  0
  -31.8283  -22.3135   20.5141 H   0  0  0  0  0  0
  -26.3377  -18.5951   19.5264 H   0  0  0  0  0  0
  -25.7985  -17.2853   18.4730 H   0  0  0  0  0  0
  -26.6119  -18.6899   17.7774 H   0  0  0  0  0  0
  -27.1407  -24.6984   20.2125 H   0  0  0  0  0  0
  -27.9463  -24.9672   18.6786 H   0  0  0  0  0  0
  -28.8177  -15.4177   20.7408 H   0  0  0  0  0  0
  1 25  1  0  0  0
  1 30  2  0  0  0
  1 86  1  0  0  0
  2  3  1  0  0  0
  2 25  1  0  0  0
  2 89  1  0  0  0
  2 90  1  0  0  0
  3  4  1  0  0  0
  3 91  1  0  0  0
  3 92  1  0  0  0
  4  5  1  0  0  0
  4 93  1  0  0  0
  4 94  1  0  0  0
  5  6  1  0  0  0
  5 26  1  0  0  0
  5 95  1  0  0  0
  6 25  1  0  0  0
  6 96  1  0  0  0
  6 97  1  0  0  0
  7  8  2  0  0  0
  7 26  1  0  0  0
  7 29  1  0  0  0
  8  9  1  0  0  0
  8 22  1  0  0  0
  9 10  1  0  0  0
  9 27  2  0  0  0
 10 11  2  0  0  0
 10 15  1  0  0  0
 11 12  1  0  0  0
 11 98  1  0  0  0
 12 13  2  0  0  0
 12 99  1  0  0  0
 13 14  1  0  0  0
 13 31  1  0  0  0
 14 15  2  0  0  0
 14100  1  0  0  0
 15101  1  0  0  0
 16 17  2  0  0  0
 16 21  1  0  0  0
 16 31  1  0  0  0
 17 18  1  0  0  0
 17102  1  0  0  0
 18 19  2  0  0  0
 18103  1  0  0  0
 19 20  1  0  0  0
 19 24  1  0  0  0
 20 21  2  0  0  0
 20104  1  0  0  0
 21 23  1  0  0  0
 22 28  1  0  0  0
 22 32  2  0  0  0
 26 27  1  0  0  0
 28105  1  0  0  0
 28106  1  0  0  0
 29107  1  0  0  0
 29108  1  0  0  0
 33 34  1  0  0  0
 33 66  1  0  0  0
 33 70  2  0  0  0
 34 36  1  0  0  0
 34 59  1  0  0  0
 34109  1  0  0  0
 35 44  2  0  0  0
 35 45  1  0  0  0
 35 68  1  0  0  0
 36 56  1  0  0  0
 36110  1  0  0  0
 37 39  1  0  0  0
 37 47  1  0  0  0
 37 66  1  0  0  0
 37111  1  0  0  0
 38 43  2  0  0  0
 38 46  1  0  0  0
 38 47  1  0  0  0
 39 64  1  0  0  0
 39 67  2  0  0  0
 40 52  1  0  0  0
 40 53  2  0  0  0
 40 58  1  0  0  0
 41112  1  0  0  0
 41113  1  0  0  0
 41114  1  0  0  0
 41 48  1  0  0  0
 42 43  1  0  0  0
 42 66  1  0  0  0
 42115  1  0  0  0
 42116  1  0  0  0
 43 44  1  0  0  0
 44117  1  0  0  0
 45 46  2  0  0  0
 45118  1  0  0  0
 46119  1  0  0  0
 47120  1  0  0  0
 47121  1  0  0  0
 48 56  1  0  0  0
 48 65  1  0  0  0
 48122  1  0  0  0
 49 50  1  0  0  0
 49 53  1  0  0  0
 49 64  1  0  0  0
 49123  1  0  0  0
 50 51  1  0  0  0
 50124  1  0  0  0
 50125  1  0  0  0
 51 52  1  0  0  0
 51126  1  0  0  0
 51127  1  0  0  0
 52128  1  0  0  0
 52129  1  0  0  0
 53 54  1  0  0  0
 54 55  2  0  0  0
 54130  1  0  0  0
 55 57  1  0  0  0
 55131  1  0  0  0
 56 69  2  0  0  0
 57 58  2  0  0  0
 57132  1  0  0  0
 58133  1  0  0  0
 59 60  1  0  0  0
 59 61  1  0  0  0
 59 62  1  0  0  0
 60134  1  0  0  0
 60135  1  0  0  0
 60136  1  0  0  0
 61137  1  0  0  0
 61138  1  0  0  0
 61139  1  0  0  0
 62140  1  0  0  0
 62141  1  0  0  0
 62142  1  0  0  0
 63 65  1  0  0  0
 63143  1  0  0  0
 63144  1  0  0  0
 63145  1  0  0  0
 64146  1  0  0  0
 65147  1  0  0  0
 68 84  1  0  0  0
 71 73  2  0  0  0
 71 74  1  0  0  0
 71148  1  0  0  0
 72 75  2  0  0  0
 72 76  1  0  0  0
 72149  1  0  0  0
 73 75  1  0  0  0
 73 81  1  0  0  0
 74 76  2  0  0  0
 74 85  1  0  0  0
 75 86  1  0  0  0
 76 88  1  0  0  0
 77 78  2  0  0  0
 77 85  1  0  0  0
 77150  1  0  0  0
 78 79  1  0  0  0
 78 84  1  0  0  0
 79 80  2  0  0  0
 79 82  1  0  0  0
 80151  1  0  0  0
 80152  1  0  0  0
 81 83  1  0  0  0
 81 87  2  0  0  0
 82 85  1  0  0  0
 82153  1  0  0  0
 82154  1  0  0  0
 83155  1  0  0  0
 83156  1  0  0  0
 83157  1  0  0  0
 84158  1  0  0  0
 84159  1  0  0  0
 86160  1  0  0  0
M  ISO  4   1 100  68 101  84 101  86 100
M  END
> <chiral flag>
0

> <version>
0

> <s_m_source_file>
/data/baiqing/PycharmProjects/Reinvent-master-3.2/result/LINK_invent/BTK/process_docking_weight1_custom_product_contain_oxygen_bond_distance_aromatic_linkinvent_7_9_3/rearranged_h_0078.sdf

> <i_m_source_file_index>
1

> <r_mmod_Potential_Energy-OPLS-2005>
252.677444458008

> <r_mmod_Stretch_Energy-OPLS-2005>
87.2939758300781

> <r_mmod_Bend_Energy-OPLS-2005>
238.250869750977

> <r_mmod_Torsional_Energy-OPLS-2005>
247.120376586914

> <r_mmod_Improper_Torsional_Energy-OPLS-2005>
7.11781644821167

> <r_mmod_Van_der_Waal_Energy-OPLS-2005>
146.531921386719

> <r_mmod_Electrostatic_Energy-OPLS-2005>
-317.521911621094

> <r_mmod_Solvation_Energy-OPLS-2005>
-215.736557006836

> <b_mmod_Minimization_Converged-OPLS-2005>
0

> <r_mmod_RMS_Derivative-OPLS-2005>
1.75504863262177

$$$$
1
                    3D
 Structure written by MMmdl.
161169  0  0  1  0            999 V2000
  -30.7789  -14.3602   20.6605 C   0  0  0  0  0  0
  -30.3998  -12.2891   19.3766 C   0  0  0  0  0  0
  -29.4648  -12.5320   18.1785 C   0  0  0  0  0  0
  -27.9904  -12.3941   18.6008 C   0  0  0  0  0  0
  -27.6580  -13.2086   19.8798 C   0  0  2  0  0  0
  -28.7038  -12.9520   20.9856 C   0  0  0  0  0  0
  -25.2572  -13.8177   20.5714 C   0  0  0  0  0  0
  -24.1820  -13.0460   20.9173 C   0  0  0  0  0  0
  -24.6377  -11.6922   20.8744 C   0  0  0  0  0  0
  -23.9059  -10.4303   21.0407 C   0  0  0  0  0  0
  -24.3602   -9.4219   21.9193 C   0  0  0  0  0  0
  -23.6286   -8.2251   22.0758 C   0  0  0  0  0  0
  -22.4271   -8.0282   21.3543 C   0  0  0  0  0  0
  -21.9898   -9.0260   20.4649 C   0  0  0  0  0  0
  -22.7226  -10.2141   20.3067 C   0  0  0  0  0  0
  -21.6850   -6.0741   22.5284 C   0  0  0  0  0  0
  -21.4011   -6.5646   23.8219 C   0  0  0  0  0  0
  -21.3666   -5.6799   24.9181 C   0  0  0  0  0  0
  -21.6040   -4.3060   24.7225 C   0  0  0  0  0  0
  -21.8824   -3.8153   23.4346 C   0  0  0  0  0  0
  -21.9188   -4.6970   22.3402 C   0  0  0  0  0  0
  -22.7839  -13.5256   21.1828 C   0  0  0  0  0  0
  -22.1663   -4.2157   21.0980 F   0  0  0  0  0  0
  -21.5627   -3.4541   25.7737 F   0  0  0  0  0  0
  -30.0371  -13.2459   20.4293 N   0  0  0  0  0  0
  -26.3015  -12.9357   20.3442 N   0  0  0  0  0  0
  -25.9305  -11.6511   20.5799 N   0  0  0  0  0  0
  -22.0470  -12.8259   22.0381 N   0  0  0  0  0  0
  -25.4316  -15.1895   20.4129 N   0  0  0  0  0  0
  -31.8563  -14.5895   20.1053 O   0  0  0  0  0  0
  -21.6640   -6.8875   21.4243 O   0  0  0  0  0  0
  -22.3532  -14.5564   20.6663 O   0  0  0  0  0  0
  -24.6128  -31.8705   23.2176 C   0  0  0  0  0  0
  -25.9028  -32.4838   23.8456 C   0  0  1  0  0  0
  -27.2204  -27.4458   20.0755 C   0  0  0  0  0  0
  -25.5901  -33.8640   24.2376 N   0  0  0  0  0  0
  -23.3982  -30.4993   21.5590 C   0  0  2  0  0  0
  -24.8364  -28.9708   20.1165 C   0  0  0  0  0  0
  -22.7394  -29.4647   22.4993 C   0  0  0  0  0  0
  -18.0257  -28.1360   22.8478 C   0  0  0  0  0  0
  -24.1479  -36.7308   23.2638 C   0  0  0  0  0  0
  -25.9270  -30.8367   21.3694 C   0  0  0  0  0  0
  -25.9987  -29.4730   20.7138 C   0  0  0  0  0  0
  -27.1914  -28.7173   20.6932 C   0  0  0  0  0  0
  -26.0351  -26.9583   19.4745 C   0  0  0  0  0  0
  -24.8477  -27.7092   19.5002 C   0  0  0  0  0  0
  -23.6035  -29.8430   20.1698 C   0  0  0  0  0  0
  -25.4097  -36.3120   24.0352 C   0  0  1  0  0  0
  -20.5864  -28.3606   23.1302 C   0  0  2  0  0  0
  -20.6728  -26.9317   22.5486 C   0  0  0  0  0  0
  -19.5689  -26.6222   21.5323 C   0  0  0  0  0  0
  -18.1890  -26.7840   22.1746 C   0  0  0  0  0  0
  -19.1520  -28.8808   23.2876 C   0  0  0  0  0  0
  -18.9467  -30.1396   23.8911 C   0  0  0  0  0  0
  -17.6474  -30.6543   24.0577 C   0  0  0  0  0  0
  -25.9033  -34.9483   23.5161 C   0  0  0  0  0  0
  -16.5357  -29.9061   23.6318 C   0  0  0  0  0  0
  -16.7257  -28.6490   23.0323 C   0  0  0  0  0  0
  -26.4468  -31.6608   25.0773 C   0  0  0  0  0  0
  -25.3751  -31.3700   26.1533 C   0  0  0  0  0  0
  -27.0301  -30.3064   24.6123 C   0  0  0  0  0  0
  -27.6051  -32.4315   25.7533 C   0  0  0  0  0  0
  -27.5575  -37.1817   24.8475 C   0  0  0  0  0  0
  -21.4135  -29.2921   22.3649 N   0  0  0  0  0  0
  -26.4280  -37.3805   23.9426 N   0  0  0  0  0  0
  -24.6649  -31.0818   22.1074 N   0  0  0  0  0  0
  -23.4161  -28.8227   23.3068 O   0  0  0  0  0  0
  -28.4053  -26.7353   20.0828 O   0  0  0  0  0  0
  -26.5573  -34.8922   22.4710 O   0  0  0  0  0  0
  -23.5333  -32.1442   23.7591 O   0  0  0  0  0  0
  -29.4741  -16.9532   19.9573 C   0  0  0  0  0  0
  -28.4086  -16.6672   22.1309 C   0  0  0  0  0  0
  -28.6262  -18.0440   19.6875 C   0  0  0  0  0  0
  -27.5484  -17.7457   21.8501 C   0  0  0  0  0  0
  -29.3749  -16.2636   21.1893 C   0  0  0  0  0  0
  -27.6674  -18.4522   20.6351 C   0  0  0  0  0  0
  -26.4813  -22.9139   19.0785 C   0  0  0  0  0  0
  -27.8293  -24.4035   20.6738 C   0  0  0  0  0  0
  -26.6156  -20.9764   21.6244 C   0  0  0  0  0  0
  -25.0161  -23.2397   19.3497 C   0  0  0  0  0  0
  -28.4167  -25.3722   19.6228 C   0  0  0  0  0  0
  -27.4875  -22.9652   20.2388 C   0  0  1  0  0  0
  -30.2801  -15.2320   21.5426 N   0  0  0  0  0  0
  -26.9901  -22.2576   21.4323 N   0  0  0  0  0  0
  -26.1642  -20.5064   22.7954 N   0  3  0  0  0  0
  -26.8158  -22.6044   17.9330 O   0  0  0  0  0  0
  -27.6673  -24.7816   21.8431 O   0  0  0  0  0  0
  -26.6088  -19.8145   20.2283 S   0  0  0  0  0  0
  -31.4412  -12.3768   19.0632 H   0  0  0  0  0  0
  -30.2860  -11.2690   19.7457 H   0  0  0  0  0  0
  -29.6877  -11.8326   17.3721 H   0  0  0  0  0  0
  -29.6361  -13.5312   17.7741 H   0  0  0  0  0  0
  -27.7853  -11.3357   18.7656 H   0  0  0  0  0  0
  -27.3367  -12.7051   17.7857 H   0  0  0  0  0  0
  -27.7153  -14.2644   19.6152 H   0  0  0  0  0  0
  -28.6666  -11.9094   21.3050 H   0  0  0  0  0  0
  -28.4702  -13.5357   21.8762 H   0  0  0  0  0  0
  -25.2743   -9.5704   22.4765 H   0  0  0  0  0  0
  -24.0003   -7.4643   22.7470 H   0  0  0  0  0  0
  -21.0839   -8.8786   19.8937 H   0  0  0  0  0  0
  -22.3696  -10.9686   19.6175 H   0  0  0  0  0  0
  -21.2009   -7.6156   23.9727 H   0  0  0  0  0  0
  -21.1479   -6.0523   25.9081 H   0  0  0  0  0  0
  -22.0587   -2.7614   23.2847 H   0  0  0  0  0  0
  -22.4071  -11.9925   22.4788 H   0  0  0  0  0  0
  -21.1082  -13.1284   22.2566 H   0  0  0  0  0  0
  -24.6715  -15.8504   20.5260 H   0  0  0  0  0  0
  -26.3095  -15.6258   20.1629 H   0  0  0  0  0  0
  -26.7085  -32.5543   23.1211 H   0  0  0  0  0  0
  -25.0147  -33.9825   25.0585 H   0  0  0  0  0  0
  -22.6884  -31.3187   21.4319 H   0  0  0  0  0  0
  -23.3751  -35.9634   23.3318 H   0  0  0  0  0  0
  -24.3575  -36.8895   22.2049 H   0  0  0  0  0  0
  -23.7218  -37.6518   23.6631 H   0  0  0  0  0  0
  -26.0362  -31.6026   20.6000 H   0  0  0  0  0  0
  -26.8169  -30.8896   21.9859 H   0  0  0  0  0  0
  -28.0913  -29.1044   21.1512 H   0  0  0  0  0  0
  -25.9928  -26.0066   18.9716 H   0  0  0  0  0  0
  -23.9536  -27.3150   19.0358 H   0  0  0  0  0  0
  -23.7215  -30.6267   19.4206 H   0  0  0  0  0  0
  -22.7228  -29.2767   19.8618 H   0  0  0  0  0  0
  -25.1267  -36.2007   25.0846 H   0  0  0  0  0  0
  -20.9958  -28.3233   24.1416 H   0  0  0  0  0  0
  -20.5660  -26.2266   23.3744 H   0  0  0  0  0  0
  -21.6578  -26.7302   22.1249 H   0  0  0  0  0  0
  -19.6639  -27.2924   20.6781 H   0  0  0  0  0  0
  -19.6801  -25.6061   21.1495 H   0  0  0  0  0  0
  -17.4136  -26.6429   21.4210 H   0  0  0  0  0  0
  -18.0326  -26.0125   22.9298 H   0  0  0  0  0  0
  -19.7951  -30.7173   24.2319 H   0  0  0  0  0  0
  -17.5035  -31.6185   24.5254 H   0  0  0  0  0  0
  -15.5365  -30.2943   23.7666 H   0  0  0  0  0  0
  -15.8651  -28.0796   22.7039 H   0  0  0  0  0  0
  -24.5930  -30.7026   25.7894 H   0  0  0  0  0  0
  -24.8930  -32.2848   26.4997 H   0  0  0  0  0  0
  -25.8124  -30.8882   27.0288 H   0  0  0  0  0  0
  -26.2848  -29.6841   24.1156 H   0  0  0  0  0  0
  -27.4073  -29.7278   25.4567 H   0  0  0  0  0  0
  -27.8680  -30.4415   23.9278 H   0  0  0  0  0  0
  -27.2683  -33.3607   26.2147 H   0  0  0  0  0  0
  -28.3852  -32.6881   25.0351 H   0  0  0  0  0  0
  -28.0726  -31.8411   26.5428 H   0  0  0  0  0  0
  -28.2610  -38.0099   24.7511 H   0  0  0  0  0  0
  -28.1051  -36.2633   24.6310 H   0  0  0  0  0  0
  -27.2296  -37.1474   25.8880 H   0  0  0  0  0  0
  -20.9318  -29.8460   21.6705 H   0  0  0  0  0  0
  -26.0179  -38.2887   24.1435 H   0  0  0  0  0  0
  -30.2136  -16.6799   19.2175 H   0  0  0  0  0  0
  -28.3189  -16.1521   23.0765 H   0  0  0  0  0  0
  -28.7154  -18.5658   18.7463 H   0  0  0  0  0  0
  -26.8076  -18.0130   22.5853 H   0  0  0  0  0  0
  -24.8481  -23.5239   20.3869 H   0  0  0  0  0  0
  -24.3934  -22.3739   19.1225 H   0  0  0  0  0  0
  -24.6947  -24.0611   18.7112 H   0  0  0  0  0  0
  -27.9201  -25.2682   18.6584 H   0  0  0  0  0  0
  -29.4550  -25.0889   19.4512 H   0  0  0  0  0  0
  -28.4064  -22.4756   19.9192 H   0  0  0  0  0  0
  -30.9971  -15.5667   22.1698 H   0  0  0  0  0  0
  -26.9699  -22.8951   22.2182 H   0  0  0  0  0  0
  -25.7296  -19.5998   22.8514 H   0  0  0  0  0  0
  -26.1216  -21.0844   23.6211 H   0  0  0  0  0  0
  1 25  1  0  0  0
  1 30  2  0  0  0
  1 83  1  0  0  0
  2  3  1  0  0  0
  2 25  1  0  0  0
  2 89  1  0  0  0
  2 90  1  0  0  0
  3  4  1  0  0  0
  3 91  1  0  0  0
  3 92  1  0  0  0
  4  5  1  0  0  0
  4 93  1  0  0  0
  4 94  1  0  0  0
  5  6  1  0  0  0
  5 26  1  0  0  0
  5 95  1  0  0  0
  6 25  1  0  0  0
  6 96  1  0  0  0
  6 97  1  0  0  0
  7  8  2  0  0  0
  7 26  1  0  0  0
  7 29  1  0  0  0
  8  9  1  0  0  0
  8 22  1  0  0  0
  9 10  1  0  0  0
  9 27  2  0  0  0
 10 11  2  0  0  0
 10 15  1  0  0  0
 11 12  1  0  0  0
 11 98  1  0  0  0
 12 13  2  0  0  0
 12 99  1  0  0  0
 13 14  1  0  0  0
 13 31  1  0  0  0
 14 15  2  0  0  0
 14100  1  0  0  0
 15101  1  0  0  0
 16 17  2  0  0  0
 16 21  1  0  0  0
 16 31  1  0  0  0
 17 18  1  0  0  0
 17102  1  0  0  0
 18 19  2  0  0  0
 18103  1  0  0  0
 19 20  1  0  0  0
 19 24  1  0  0  0
 20 21  2  0  0  0
 20104  1  0  0  0
 21 23  1  0  0  0
 22 28  1  0  0  0
 22 32  2  0  0  0
 26 27  1  0  0  0
 28105  1  0  0  0
 28106  1  0  0  0
 29107  1  0  0  0
 29108  1  0  0  0
 33 34  1  0  0  0
 33 66  1  0  0  0
 33 70  2  0  0  0
 34 36  1  0  0  0
 34 59  1  0  0  0
 34109  1  0  0  0
 35 44  2  0  0  0
 35 45  1  0  0  0
 35 68  1  0  0  0
 36 56  1  0  0  0
 36110  1  0  0  0
 37 39  1  0  0  0
 37 47  1  0  0  0
 37 66  1  0  0  0
 37111  1  0  0  0
 38 43  2  0  0  0
 38 46  1  0  0  0
 38 47  1  0  0  0
 39 64  1  0  0  0
 39 67  2  0  0  0
 40 52  1  0  0  0
 40 53  2  0  0  0
 40 58  1  0  0  0
 41112  1  0  0  0
 41113  1  0  0  0
 41114  1  0  0  0
 41 48  1  0  0  0
 42 43  1  0  0  0
 42 66  1  0  0  0
 42115  1  0  0  0
 42116  1  0  0  0
 43 44  1  0  0  0
 44117  1  0  0  0
 45 46  2  0  0  0
 45118  1  0  0  0
 46119  1  0  0  0
 47120  1  0  0  0
 47121  1  0  0  0
 48 56  1  0  0  0
 48 65  1  0  0  0
 48122  1  0  0  0
 49 50  1  0  0  0
 49 53  1  0  0  0
 49 64  1  0  0  0
 49123  1  0  0  0
 50 51  1  0  0  0
 50124  1  0  0  0
 50125  1  0  0  0
 51 52  1  0  0  0
 51126  1  0  0  0
 51127  1  0  0  0
 52128  1  0  0  0
 52129  1  0  0  0
 53 54  1  0  0  0
 54 55  2  0  0  0
 54130  1  0  0  0
 55 57  1  0  0  0
 55131  1  0  0  0
 56 69  2  0  0  0
 57 58  2  0  0  0
 57132  1  0  0  0
 58133  1  0  0  0
 59 60  1  0  0  0
 59 61  1  0  0  0
 59 62  1  0  0  0
 60134  1  0  0  0
 60135  1  0  0  0
 60136  1  0  0  0
 61137  1  0  0  0
 61138  1  0  0  0
 61139  1  0  0  0
 62140  1  0  0  0
 62141  1  0  0  0
 62142  1  0  0  0
 63 65  1  0  0  0
 63143  1  0  0  0
 63144  1  0  0  0
 63145  1  0  0  0
 64146  1  0  0  0
 65147  1  0  0  0
 68 81  1  0  0  0
 71 73  2  0  0  0
 71 75  1  0  0  0
 71148  1  0  0  0
 72 74  1  0  0  0
 72 75  2  0  0  0
 72149  1  0  0  0
 73 76  1  0  0  0
 73150  1  0  0  0
 74 76  2  0  0  0
 74151  1  0  0  0
 75 83  1  0  0  0
 76 88  1  0  0  0
 77 80  1  0  0  0
 77 82  1  0  0  0
 77 86  2  0  0  0
 78 81  1  0  0  0
 78 82  1  0  0  0
 78 87  2  0  0  0
 79 84  1  0  0  0
 79 85  2  0  0  0
 79 88  1  0  0  0
 80152  1  0  0  0
 80153  1  0  0  0
 80154  1  0  0  0
 81155  1  0  0  0
 81156  1  0  0  0
 82 84  1  0  0  0
 82157  1  0  0  0
 83158  1  0  0  0
 84159  1  0  0  0
 85160  1  0  0  0
 85161  1  0  0  0
M  CHG  1  85   1
M  ISO  4   1 100  68 101  81 101  83 100
M  END
> <chiral flag>
0

> <version>
0

> <s_m_source_file>
/data/baiqing/PycharmProjects/Reinvent-master-3.2/result/LINK_invent/BTK/process_docking_weight1_custom_product_contain_oxygen_bond_distance_aromatic_linkinvent_7_9_3/rearranged_h_0078.sdf

> <i_m_source_file_index>
2

> <r_mmod_Potential_Energy-OPLS-2005>
-322.444244384766

> <r_mmod_Stretch_Energy-OPLS-2005>
33.7720527648926

> <r_mmod_Bend_Energy-OPLS-2005>
119.518882751465

> <r_mmod_Torsional_Energy-OPLS-2005>
286.292907714844

> <r_mmod_Improper_Torsional_Energy-OPLS-2005>
6.16488409042358

> <r_mmod_Van_der_Waal_Energy-OPLS-2005>
148.558670043945

> <r_mmod_Electrostatic_Energy-OPLS-2005>
-433.981140136719

> <r_mmod_Solvation_Energy-OPLS-2005>
-492.907043457031

> <b_mmod_Minimization_Converged-OPLS-2005>
0

> <r_mmod_RMS_Derivative-OPLS-2005>
2.71136069297791

$$$$
2
                    3D
 Structure written by MMmdl.
164173  0  0  1  0            999 V2000
  -30.6228  -14.7470   20.3747 C   0  0  0  0  0  0
  -30.4578  -12.4462   19.4405 C   0  0  0  0  0  0
  -29.5046  -12.4668   18.2203 C   0  0  0  0  0  0
  -28.0217  -12.3184   18.6360 C   0  0  0  0  0  0
  -27.6356  -13.1754   19.8705 C   0  0  2  0  0  0
  -28.7205  -13.0679   20.9630 C   0  0  0  0  0  0
  -25.2373  -13.7824   20.5655 C   0  0  0  0  0  0
  -24.1700  -13.0183   20.9296 C   0  0  0  0  0  0
  -24.6314  -11.6693   20.8889 C   0  0  0  0  0  0
  -23.8994  -10.4145   21.0493 C   0  0  0  0  0  0
  -24.3564   -9.4069   21.9252 C   0  0  0  0  0  0
  -23.6226   -8.2127   22.0781 C   0  0  0  0  0  0
  -22.4214   -8.0213   21.3554 C   0  0  0  0  0  0
  -21.9858   -9.0187   20.4655 C   0  0  0  0  0  0
  -22.7199  -10.2046   20.3092 C   0  0  0  0  0  0
  -21.6811   -6.0703   22.5292 C   0  0  0  0  0  0
  -21.3987   -6.5620   23.8224 C   0  0  0  0  0  0
  -21.3653   -5.6783   24.9192 C   0  0  0  0  0  0
  -21.6042   -4.3046   24.7249 C   0  0  0  0  0  0
  -21.8814   -3.8132   23.4372 C   0  0  0  0  0  0
  -21.9173   -4.6939   22.3422 C   0  0  0  0  0  0
  -22.7748  -13.5072   21.1900 C   0  0  0  0  0  0
  -22.1647   -4.2129   21.0999 F   0  0  0  0  0  0
  -21.5630   -3.4532   25.7763 F   0  0  0  0  0  0
  -30.0106  -13.4983   20.3804 N   0  0  0  0  0  0
  -26.2896  -12.9014   20.3508 N   0  0  0  0  0  0
  -25.9255  -11.6227   20.5993 N   0  0  0  0  0  0
  -22.0367  -12.8132   22.0473 N   0  0  0  0  0  0
  -25.3648  -15.1468   20.3671 N   0  0  0  0  0  0
  -31.8468  -14.7947   20.2289 O   0  0  0  0  0  0
  -21.6571   -6.8825   21.4246 O   0  0  0  0  0  0
  -22.3502  -14.5411   20.6745 O   0  0  0  0  0  0
  -24.6208  -31.8615   23.2035 C   0  0  0  0  0  0
  -25.9071  -32.4791   23.8362 C   0  0  1  0  0  0
  -27.2605  -27.3731   20.0963 C   0  0  0  0  0  0
  -25.5903  -33.8594   24.2295 N   0  0  0  0  0  0
  -23.4150  -30.4804   21.5442 C   0  0  2  0  0  0
  -24.8684  -28.9358   20.1093 C   0  0  0  0  0  0
  -22.7455  -29.4622   22.4958 C   0  0  0  0  0  0
  -18.0275  -28.1383   22.8496 C   0  0  0  0  0  0
  -24.1487  -36.7307   23.2637 C   0  0  0  0  0  0
  -25.9495  -30.8041   21.3693 C   0  0  0  0  0  0
  -26.0285  -29.4327   20.7154 C   0  0  0  0  0  0
  -27.2178  -28.6557   20.7130 C   0  0  0  0  0  0
  -26.0743  -26.9045   19.4858 C   0  0  0  0  0  0
  -24.8896  -27.6723   19.4925 C   0  0  0  0  0  0
  -23.6290  -29.8067   20.1606 C   0  0  0  0  0  0
  -25.4111  -36.3098   24.0331 C   0  0  1  0  0  0
  -20.5873  -28.3686   23.1295 C   0  0  2  0  0  0
  -20.6767  -26.9412   22.5416 C   0  0  0  0  0  0
  -19.5741  -26.6380   21.5221 C   0  0  0  0  0  0
  -18.1916  -26.7930   22.1626 C   0  0  0  0  0  0
  -19.1527  -28.8852   23.2889 C   0  0  0  0  0  0
  -18.9452  -30.1458   23.8900 C   0  0  0  0  0  0
  -17.6456  -30.6592   24.0561 C   0  0  0  0  0  0
  -25.9049  -34.9461   23.5119 C   0  0  0  0  0  0
  -16.5347  -29.9093   23.6328 C   0  0  0  0  0  0
  -16.7265  -28.6504   23.0360 C   0  0  0  0  0  0
  -26.4477  -31.6590   25.0721 C   0  0  0  0  0  0
  -25.3719  -31.3699   26.1454 C   0  0  0  0  0  0
  -27.0319  -30.3022   24.6145 C   0  0  0  0  0  0
  -27.6049  -32.4309   25.7484 C   0  0  0  0  0  0
  -27.5587  -37.1798   24.8457 C   0  0  0  0  0  0
  -21.4172  -29.3042   22.3703 N   0  0  0  0  0  0
  -26.4294  -37.3789   23.9413 N   0  0  0  0  0  0
  -24.6799  -31.0650   22.0968 N   0  0  0  0  0  0
  -23.4189  -28.8177   23.3041 O   0  0  0  0  0  0
  -28.4167  -26.5909   20.1730 O   0  0  0  0  0  0
  -26.5626  -34.8922   22.4691 O   0  0  0  0  0  0
  -23.5380  -32.1401   23.7381 O   0  0  0  0  0  0
  -30.1046  -21.1255   20.7889 C   0  0  0  0  0  0
  -30.8906  -21.8678   18.5983 C   0  0  0  0  0  0
  -30.5592  -19.8167   20.4398 C   0  0  0  0  0  0
  -31.1424  -19.5412   19.2371 C   0  0  0  0  0  0
  -30.2545  -22.1863   19.8361 C   0  0  0  0  0  0
  -31.3407  -20.5499   18.2674 C   0  0  0  0  0  0
  -30.4100  -18.4922   21.1282 C   0  0  0  0  0  0
  -31.3338  -18.0514   19.1681 C   0  0  0  0  0  0
  -28.9566  -24.1256   19.4270 C   0  0  0  0  0  0
  -28.5489  -16.3158   20.9105 C   0  0  0  0  0  0
  -27.4799  -17.2583   20.3467 C   0  0  0  0  0  0
  -29.4184  -16.0251   18.5594 C   0  0  0  0  0  0
  -32.1248  -21.2480   16.1043 C   0  0  0  0  0  0
  -28.7735  -25.6539   19.1140 C   0  0  0  0  0  0
  -29.8497  -16.1435   20.0727 C   0  0  2  0  0  0
  -29.9049  -23.5496   20.0957 N   0  0  0  0  0  0
  -30.6362  -17.4846   20.2031 N   0  0  0  0  0  0
  -30.0401  -18.3905   22.3016 O   0  0  0  0  0  0
  -31.9232  -17.4727   18.2492 O   0  0  0  0  0  0
  -28.4425  -15.9078   22.0660 O   0  0  0  0  0  0
  -31.9243  -20.2155   17.0629 O   0  0  0  0  0  0
  -31.4861  -12.5983   19.1075 H   0  0  0  0  0  0
  -30.4500  -11.4673   19.9218 H   0  0  0  0  0  0
  -29.7720  -11.6633   17.5327 H   0  0  0  0  0  0
  -29.6429  -13.3881   17.6571 H   0  0  0  0  0  0
  -27.8532  -11.2653   18.8649 H   0  0  0  0  0  0
  -27.3686  -12.5485   17.7930 H   0  0  0  0  0  0
  -27.5801  -14.1957   19.5465 H   0  0  0  0  0  0
  -28.7931  -12.0304   21.2931 H   0  0  0  0  0  0
  -28.4624  -13.5967   21.8730 H   0  0  0  0  0  0
  -25.2715   -9.5524   22.4821 H   0  0  0  0  0  0
  -23.9921   -7.4491   22.7480 H   0  0  0  0  0  0
  -21.0800   -8.8715   19.8936 H   0  0  0  0  0  0
  -22.3713  -10.9600   19.6187 H   0  0  0  0  0  0
  -21.1973   -7.6127   23.9727 H   0  0  0  0  0  0
  -21.1484   -6.0515   25.9094 H   0  0  0  0  0  0
  -22.0602   -2.7595   23.2885 H   0  0  0  0  0  0
  -22.3952  -11.9788   22.4877 H   0  0  0  0  0  0
  -21.0996  -13.1199   22.2662 H   0  0  0  0  0  0
  -24.5467  -15.7456   20.3977 H   0  0  0  0  0  0
  -26.1536  -15.5813   19.9158 H   0  0  0  0  0  0
  -26.7151  -32.5481   23.1130 H   0  0  0  0  0  0
  -25.0034  -33.9743   25.0425 H   0  0  0  0  0  0
  -22.7074  -31.2991   21.3988 H   0  0  0  0  0  0
  -23.3753  -35.9635   23.3285 H   0  0  0  0  0  0
  -24.3584  -36.8944   22.2057 H   0  0  0  0  0  0
  -23.7230  -37.6499   23.6669 H   0  0  0  0  0  0
  -26.0719  -31.5676   20.5999 H   0  0  0  0  0  0
  -26.8321  -30.8575   21.9946 H   0  0  0  0  0  0
  -28.1067  -29.0342   21.1985 H   0  0  0  0  0  0
  -26.0397  -25.9253   19.0315 H   0  0  0  0  0  0
  -23.9964  -27.2777   19.0277 H   0  0  0  0  0  0
  -23.7374  -30.5798   19.3993 H   0  0  0  0  0  0
  -22.7525  -29.2269   19.8661 H   0  0  0  0  0  0
  -25.1287  -36.1963   25.0824 H   0  0  0  0  0  0
  -20.9960  -28.3256   24.1418 H   0  0  0  0  0  0
  -20.5672  -26.2300   23.3615 H   0  0  0  0  0  0
  -21.6634  -26.7445   22.1207 H   0  0  0  0  0  0
  -19.6902  -25.6289   21.1252 H   0  0  0  0  0  0
  -19.6676  -27.3190   20.6749 H   0  0  0  0  0  0
  -17.4195  -26.6694   21.4017 H   0  0  0  0  0  0
  -18.0300  -26.0060   22.9006 H   0  0  0  0  0  0
  -19.7927  -30.7274   24.2268 H   0  0  0  0  0  0
  -17.5008  -31.6276   24.5153 H   0  0  0  0  0  0
  -15.5349  -30.3002   23.7635 H   0  0  0  0  0  0
  -15.8663  -28.0823   22.7080 H   0  0  0  0  0  0
  -24.5902  -30.7051   25.7770 H   0  0  0  0  0  0
  -24.8906  -32.2854   26.4903 H   0  0  0  0  0  0
  -25.8053  -30.8856   27.0214 H   0  0  0  0  0  0
  -26.2889  -29.6774   24.1185 H   0  0  0  0  0  0
  -27.4053  -29.7277   25.4633 H   0  0  0  0  0  0
  -27.8737  -30.4331   23.9340 H   0  0  0  0  0  0
  -27.2685  -33.3610   26.2074 H   0  0  0  0  0  0
  -28.3853  -32.6863   25.0303 H   0  0  0  0  0  0
  -28.0727  -31.8421   26.5386 H   0  0  0  0  0  0
  -28.2581  -38.0119   24.7550 H   0  0  0  0  0  0
  -28.1109  -36.2655   24.6230 H   0  0  0  0  0  0
  -27.2310  -37.1385   25.8857 H   0  0  0  0  0  0
  -20.9355  -29.8782   21.6925 H   0  0  0  0  0  0
  -26.0179  -38.2864   24.1427 H   0  0  0  0  0  0
  -29.6330  -21.3011   21.7464 H   0  0  0  0  0  0
  -31.0296  -22.6755   17.8949 H   0  0  0  0  0  0
  -28.2283  -23.5169   18.8827 H   0  0  0  0  0  0
  -27.8893  -18.2474   20.1486 H   0  0  0  0  0  0
  -26.6658  -17.3784   21.0610 H   0  0  0  0  0  0
  -27.0689  -16.8814   19.4117 H   0  0  0  0  0  0
  -29.1166  -16.9802   18.1272 H   0  0  0  0  0  0
  -28.5847  -15.3751   18.3444 H   0  0  0  0  0  0
  -30.2287  -15.6428   17.9377 H   0  0  0  0  0  0
  -32.6102  -20.8329   15.2211 H   0  0  0  0  0  0
  -32.7716  -22.0357   16.4945 H   0  0  0  0  0  0
  -31.1785  -21.6859   15.7827 H   0  0  0  0  0  0
  -28.1065  -25.7467   18.2576 H   0  0  0  0  0  0
  -29.7323  -26.0041   18.7302 H   0  0  0  0  0  0
  1 25  1  0  0  0
  1 30  2  0  0  0
  1 85  1  0  0  0
  2  3  1  0  0  0
  2 25  1  0  0  0
  2 92  1  0  0  0
  2 93  1  0  0  0
  3  4  1  0  0  0
  3 94  1  0  0  0
  3 95  1  0  0  0
  4  5  1  0  0  0
  4 96  1  0  0  0
  4 97  1  0  0  0
  5  6  1  0  0  0
  5 26  1  0  0  0
  5 98  1  0  0  0
  6 25  1  0  0  0
  6 99  1  0  0  0
  6100  1  0  0  0
  7  8  2  0  0  0
  7 26  1  0  0  0
  7 29  1  0  0  0
  8  9  1  0  0  0
  8 22  1  0  0  0
  9 10  1  0  0  0
  9 27  2  0  0  0
 10 11  2  0  0  0
 10 15  1  0  0  0
 11 12  1  0  0  0
 11101  1  0  0  0
 12 13  2  0  0  0
 12102  1  0  0  0
 13 14  1  0  0  0
 13 31  1  0  0  0
 14 15  2  0  0  0
 14103  1  0  0  0
 15104  1  0  0  0
 16 17  2  0  0  0
 16 21  1  0  0  0
 16 31  1  0  0  0
 17 18  1  0  0  0
 17105  1  0  0  0
 18 19  2  0  0  0
 18106  1  0  0  0
 19 20  1  0  0  0
 19 24  1  0  0  0
 20 21  2  0  0  0
 20107  1  0  0  0
 21 23  1  0  0  0
 22 28  1  0  0  0
 22 32  2  0  0  0
 26 27  1  0  0  0
 28108  1  0  0  0
 28109  1  0  0  0
 29110  1  0  0  0
 29111  1  0  0  0
 33 34  1  0  0  0
 33 66  1  0  0  0
 33 70  2  0  0  0
 34 36  1  0  0  0
 34 59  1  0  0  0
 34112  1  0  0  0
 35 44  2  0  0  0
 35 45  1  0  0  0
 35 68  1  0  0  0
 36 56  1  0  0  0
 36113  1  0  0  0
 37 39  1  0  0  0
 37 47  1  0  0  0
 37 66  1  0  0  0
 37114  1  0  0  0
 38 43  2  0  0  0
 38 46  1  0  0  0
 38 47  1  0  0  0
 39 64  1  0  0  0
 39 67  2  0  0  0
 40 52  1  0  0  0
 40 53  2  0  0  0
 40 58  1  0  0  0
 41115  1  0  0  0
 41116  1  0  0  0
 41117  1  0  0  0
 41 48  1  0  0  0
 42 43  1  0  0  0
 42 66  1  0  0  0
 42118  1  0  0  0
 42119  1  0  0  0
 43 44  1  0  0  0
 44120  1  0  0  0
 45 46  2  0  0  0
 45121  1  0  0  0
 46122  1  0  0  0
 47123  1  0  0  0
 47124  1  0  0  0
 48 56  1  0  0  0
 48 65  1  0  0  0
 48125  1  0  0  0
 49 50  1  0  0  0
 49 53  1  0  0  0
 49 64  1  0  0  0
 49126  1  0  0  0
 50 51  1  0  0  0
 50127  1  0  0  0
 50128  1  0  0  0
 51 52  1  0  0  0
 51129  1  0  0  0
 51130  1  0  0  0
 52131  1  0  0  0
 52132  1  0  0  0
 53 54  1  0  0  0
 54 55  2  0  0  0
 54133  1  0  0  0
 55 57  1  0  0  0
 55134  1  0  0  0
 56 69  2  0  0  0
 57 58  2  0  0  0
 57135  1  0  0  0
 58136  1  0  0  0
 59 60  1  0  0  0
 59 61  1  0  0  0
 59 62  1  0  0  0
 60137  1  0  0  0
 60138  1  0  0  0
 60139  1  0  0  0
 61140  1  0  0  0
 61141  1  0  0  0
 61142  1  0  0  0
 62143  1  0  0  0
 62144  1  0  0  0
 62145  1  0  0  0
 63 65  1  0  0  0
 63146  1  0  0  0
 63147  1  0  0  0
 63148  1  0  0  0
 64149  1  0  0  0
 65150  1  0  0  0
 68 84  1  0  0  0
 71 73  2  0  0  0
 71 75  1  0  0  0
 71151  1  0  0  0
 72 75  2  0  0  0
 72 76  1  0  0  0
 72152  1  0  0  0
 73 74  1  0  0  0
 73 77  1  0  0  0
 74 76  2  0  0  0
 74 78  1  0  0  0
 75 86  1  0  0  0
 76 91  1  0  0  0
 77 87  1  0  0  0
 77 88  2  0  0  0
 78 87  1  0  0  0
 78 89  2  0  0  0
 79 84  1  0  0  0
 79 86  2  0  0  0
 79153  1  0  0  0
 80 81  1  0  0  0
 80 90  2  0  0  0
 80 85  1  0  0  0
 81154  1  0  0  0
 81155  1  0  0  0
 81156  1  0  0  0
 82157  1  0  0  0
 82158  1  0  0  0
 82159  1  0  0  0
 82 85  1  0  0  0
 83 91  1  0  0  0
 83160  1  0  0  0
 83161  1  0  0  0
 83162  1  0  0  0
 84163  1  0  0  0
 84164  1  0  0  0
 85 87  1  0  0  0
M  ISO  4   1 100  68 101  84 101  85 100
M  END
> <chiral flag>
0

> <version>
0

> <s_m_source_file>
/data/baiqing/PycharmProjects/Reinvent-master-3.2/result/LINK_invent/BTK/process_docking_weight1_custom_product_contain_oxygen_bond_distance_aromatic_linkinvent_7_9_3/rearranged_h_0078.sdf

> <i_m_source_file_index>
3

> <r_mmod_Potential_Energy-OPLS-2005>
205.759979248047

> <r_mmod_Stretch_Energy-OPLS-2005>
109.047996520996

> <r_mmod_Bend_Energy-OPLS-2005>
262.926452636719

> <r_mmod_Torsional_Energy-OPLS-2005>
301.236602783203

> <r_mmod_Improper_Torsional_Energy-OPLS-2005>
22.2189807891846

> <r_mmod_Van_der_Waal_Energy-OPLS-2005>
195.550033569336

> <r_mmod_Electrostatic_Energy-OPLS-2005>
-503.538391113281

> <r_mmod_Solvation_Energy-OPLS-2005>
-245.929550170898

> <b_mmod_Minimization_Converged-OPLS-2005>
0

> <r_mmod_RMS_Derivative-OPLS-2005>
1.12583982944489

$$$$
3
                    3D
 Structure written by MMmdl.
153162  0  0  1  0            999 V2000
  -30.6043  -14.7061   20.4641 C   0  0  0  0  0  0
  -30.4451  -12.4295   19.4553 C   0  0  0  0  0  0
  -29.5101  -12.5059   18.2268 C   0  0  0  0  0  0
  -28.0351  -12.3318   18.6431 C   0  0  0  0  0  0
  -27.6471  -13.2180   19.8561 C   0  0  2  0  0  0
  -28.6989  -13.1154   20.9846 C   0  0  0  0  0  0
  -25.2503  -13.8096   20.5755 C   0  0  0  0  0  0
  -24.1792  -13.0358   20.9234 C   0  0  0  0  0  0
  -24.6392  -11.6852   20.8752 C   0  0  0  0  0  0
  -23.9065  -10.4248   21.0405 C   0  0  0  0  0  0
  -24.3615   -9.4172   21.9188 C   0  0  0  0  0  0
  -23.6283   -8.2216   22.0757 C   0  0  0  0  0  0
  -22.4266   -8.0264   21.3543 C   0  0  0  0  0  0
  -21.9902   -9.0237   20.4646 C   0  0  0  0  0  0
  -22.7237  -10.2108   20.3054 C   0  0  0  0  0  0
  -21.6845   -6.0727   22.5279 C   0  0  0  0  0  0
  -21.4008   -6.5633   23.8212 C   0  0  0  0  0  0
  -21.3658   -5.6788   24.9176 C   0  0  0  0  0  0
  -21.6045   -4.3051   24.7227 C   0  0  0  0  0  0
  -21.8820   -3.8141   23.4349 C   0  0  0  0  0  0
  -21.9190   -4.6955   22.3405 C   0  0  0  0  0  0
  -22.7817  -13.5166   21.1880 C   0  0  0  0  0  0
  -22.1659   -4.2142   21.0982 F   0  0  0  0  0  0
  -21.5633   -3.4536   25.7741 F   0  0  0  0  0  0
  -30.0070  -13.4689   20.4088 N   0  0  0  0  0  0
  -26.2958  -12.9324   20.3312 N   0  0  0  0  0  0
  -25.9323  -11.6471   20.5752 N   0  0  0  0  0  0
  -22.0454  -12.8174   22.0441 N   0  0  0  0  0  0
  -25.4042  -15.1808   20.4271 N   0  0  0  0  0  0
  -31.7892  -14.8562   20.1534 O   0  0  0  0  0  0
  -21.6625   -6.8867   21.4241 O   0  0  0  0  0  0
  -22.3507  -14.5473   20.6719 O   0  0  0  0  0  0
  -24.6281  -31.8579   23.2020 C   0  0  0  0  0  0
  -25.9119  -32.4770   23.8354 C   0  0  1  0  0  0
  -27.2274  -27.2944   20.1220 C   0  0  0  0  0  0
  -25.5926  -33.8571   24.2274 N   0  0  0  0  0  0
  -23.4243  -30.4809   21.5442 C   0  0  2  0  0  0
  -24.8742  -28.9351   20.1093 C   0  0  0  0  0  0
  -22.7489  -29.4610   22.4921 C   0  0  0  0  0  0
  -18.0290  -28.1385   22.8485 C   0  0  0  0  0  0
  -24.1490  -36.7292   23.2640 C   0  0  0  0  0  0
  -25.9682  -30.7777   21.3819 C   0  0  0  0  0  0
  -26.0423  -29.4026   20.7259 C   0  0  0  0  0  0
  -27.2197  -28.5910   20.7305 C   0  0  0  0  0  0
  -26.0436  -26.9016   19.4549 C   0  0  0  0  0  0
  -24.8776  -27.6895   19.4650 C   0  0  0  0  0  0
  -23.6424  -29.8170   20.1593 C   0  0  0  0  0  0
  -25.4115  -36.3079   24.0328 C   0  0  1  0  0  0
  -20.5892  -28.3694   23.1272 C   0  0  2  0  0  0
  -20.6777  -26.9413   22.5407 C   0  0  0  0  0  0
  -19.5752  -26.6382   21.5211 C   0  0  0  0  0  0
  -18.1934  -26.7926   22.1626 C   0  0  0  0  0  0
  -19.1543  -28.8856   23.2875 C   0  0  0  0  0  0
  -18.9465  -30.1457   23.8893 C   0  0  0  0  0  0
  -17.6465  -30.6587   24.0562 C   0  0  0  0  0  0
  -25.9051  -34.9447   23.5102 C   0  0  0  0  0  0
  -16.5355  -29.9085   23.6330 C   0  0  0  0  0  0
  -16.7277  -28.6501   23.0352 C   0  0  0  0  0  0
  -26.4497  -31.6586   25.0732 C   0  0  0  0  0  0
  -25.3724  -31.3734   26.1456 C   0  0  0  0  0  0
  -27.0345  -30.3004   24.6211 C   0  0  0  0  0  0
  -27.6051  -32.4328   25.7501 C   0  0  0  0  0  0
  -27.5578  -37.1804   24.8467 C   0  0  0  0  0  0
  -21.4200  -29.3042   22.3663 N   0  0  0  0  0  0
  -26.4294  -37.3772   23.9404 N   0  0  0  0  0  0
  -24.6920  -31.0563   22.0990 N   0  0  0  0  0  0
  -23.4198  -28.8149   23.3012 O   0  0  0  0  0  0
  -28.3227  -26.4049   20.1653 O   0  0  0  0  0  0
  -26.5622  -34.8915   22.4670 O   0  0  0  0  0  0
  -23.5436  -32.1393   23.7326 O   0  0  0  0  0  0
  -30.8227  -19.4903   20.9602 C   0  0  0  0  0  0
  -30.8904  -18.0556   21.0144 C   0  0  0  0  0  0
  -28.6924  -19.3683   19.8813 C   0  0  0  0  0  0
  -29.7070  -20.2050   20.4194 C   0  0  0  0  0  0
  -29.8498  -17.2311   20.5029 C   0  0  0  0  0  0
  -28.7677  -17.9425   19.9072 C   0  0  0  0  0  0
  -28.9531  -23.9431   20.2720 C   0  0  0  0  0  0
  -28.5418  -22.5206   20.3899 C   0  0  0  0  0  0
  -28.0753  -25.0101   20.3041 C   0  0  0  0  0  0
  -30.4468  -23.9801   20.1287 C   0  0  0  0  0  0
  -30.8688  -22.5054   20.3458 C   0  0  0  0  0  0
  -29.6436  -21.6918   20.3731 N   0  0  0  0  0  0
  -29.7506  -15.7663   20.6615 N   0  0  0  0  0  0
  -27.3766  -22.1222   20.4906 O   0  0  0  0  0  0
  -27.4960  -17.0646   19.1444 Cl  0  0  0  0  0  0
  -31.4833  -12.5680   19.1482 H   0  0  0  0  0  0
  -30.3973  -11.4432   19.9196 H   0  0  0  0  0  0
  -29.7838  -11.7429   17.4968 H   0  0  0  0  0  0
  -29.6375  -13.4671   17.7262 H   0  0  0  0  0  0
  -27.8869  -11.2807   18.8936 H   0  0  0  0  0  0
  -27.3766  -12.5378   17.7985 H   0  0  0  0  0  0
  -27.6461  -14.2427   19.4895 H   0  0  0  0  0  0
  -28.7270  -12.1047   21.3944 H   0  0  0  0  0  0
  -28.4405  -13.7703   21.8185 H   0  0  0  0  0  0
  -25.2761   -9.5646   22.4762 H   0  0  0  0  0  0
  -23.9986   -7.4606   22.7478 H   0  0  0  0  0  0
  -21.0831   -8.8760   19.8955 H   0  0  0  0  0  0
  -22.3703  -10.9653   19.6165 H   0  0  0  0  0  0
  -21.1998   -7.6141   23.9714 H   0  0  0  0  0  0
  -21.1480   -6.0519   25.9078 H   0  0  0  0  0  0
  -22.0602   -2.7603   23.2853 H   0  0  0  0  0  0
  -22.4066  -11.9839   22.4839 H   0  0  0  0  0  0
  -21.1077  -13.1214   22.2645 H   0  0  0  0  0  0
  -24.6181  -15.8123   20.5269 H   0  0  0  0  0  0
  -26.2199  -15.6364   20.0339 H   0  0  0  0  0  0
  -26.7186  -32.5434   23.1099 H   0  0  0  0  0  0
  -25.0065  -33.9714   25.0413 H   0  0  0  0  0  0
  -22.7195  -31.3024   21.4000 H   0  0  0  0  0  0
  -23.3746  -35.9632   23.3311 H   0  0  0  0  0  0
  -24.3578  -36.8904   22.2052 H   0  0  0  0  0  0
  -23.7252  -37.6501   23.6655 H   0  0  0  0  0  0
  -26.1053  -31.5387   20.6124 H   0  0  0  0  0  0
  -26.8463  -30.8263   22.0141 H   0  0  0  0  0  0
  -28.1119  -28.9396   21.2314 H   0  0  0  0  0  0
  -26.0007  -25.9575   18.9311 H   0  0  0  0  0  0
  -23.9875  -27.3306   18.9664 H   0  0  0  0  0  0
  -23.7631  -30.5945   19.4040 H   0  0  0  0  0  0
  -22.7623  -29.2475   19.8550 H   0  0  0  0  0  0
  -25.1297  -36.1932   25.0821 H   0  0  0  0  0  0
  -20.9986  -28.3271   24.1392 H   0  0  0  0  0  0
  -20.5678  -26.2304   23.3610 H   0  0  0  0  0  0
  -21.6646  -26.7439   22.1201 H   0  0  0  0  0  0
  -19.6914  -25.6292   21.1242 H   0  0  0  0  0  0
  -19.6688  -27.3191   20.6739 H   0  0  0  0  0  0
  -17.4202  -26.6669   21.4032 H   0  0  0  0  0  0
  -18.0341  -26.0070   22.9026 H   0  0  0  0  0  0
  -19.7941  -30.7273   24.2262 H   0  0  0  0  0  0
  -17.5019  -31.6267   24.5164 H   0  0  0  0  0  0
  -15.5356  -30.2986   23.7654 H   0  0  0  0  0  0
  -15.8677  -28.0818   22.7071 H   0  0  0  0  0  0
  -24.5890  -30.7095   25.7781 H   0  0  0  0  0  0
  -24.8929  -32.2907   26.4884 H   0  0  0  0  0  0
  -25.8041  -30.8903   27.0230 H   0  0  0  0  0  0
  -26.2929  -29.6751   24.1225 H   0  0  0  0  0  0
  -27.4017  -29.7265   25.4729 H   0  0  0  0  0  0
  -27.8810  -30.4279   23.9461 H   0  0  0  0  0  0
  -27.2654  -33.3626   26.2078 H   0  0  0  0  0  0
  -28.3859  -32.6896   25.0329 H   0  0  0  0  0  0
  -28.0723  -31.8459   26.5419 H   0  0  0  0  0  0
  -28.2605  -38.0091   24.7497 H   0  0  0  0  0  0
  -28.1064  -36.2622   24.6315 H   0  0  0  0  0  0
  -27.2293  -37.1480   25.8869 H   0  0  0  0  0  0
  -20.9380  -29.8768   21.6873 H   0  0  0  0  0  0
  -26.0176  -38.2850   24.1392 H   0  0  0  0  0  0
  -31.6508  -20.0452   21.3780 H   0  0  0  0  0  0
  -31.7457  -17.5927   21.4859 H   0  0  0  0  0  0
  -27.8303  -19.8168   19.4100 H   0  0  0  0  0  0
  -27.0267  -24.8021   20.4647 H   0  0  0  0  0  0
  -30.8978  -24.6515   20.8601 H   0  0  0  0  0  0
  -30.7098  -24.3250   19.1280 H   0  0  0  0  0  0
  -31.3924  -22.4009   21.2970 H   0  0  0  0  0  0
  -31.5399  -22.1646   19.5564 H   0  0  0  0  0  0
  -28.7988  -15.4498   20.7608 H   0  0  0  0  0  0
  1 25  1  0  0  0
  1 30  2  0  0  0
  1 83  1  0  0  0
  2  3  1  0  0  0
  2 25  1  0  0  0
  2 86  1  0  0  0
  2 87  1  0  0  0
  3  4  1  0  0  0
  3 88  1  0  0  0
  3 89  1  0  0  0
  4  5  1  0  0  0
  4 90  1  0  0  0
  4 91  1  0  0  0
  5  6  1  0  0  0
  5 26  1  0  0  0
  5 92  1  0  0  0
  6 25  1  0  0  0
  6 93  1  0  0  0
  6 94  1  0  0  0
  7  8  2  0  0  0
  7 26  1  0  0  0
  7 29  1  0  0  0
  8  9  1  0  0  0
  8 22  1  0  0  0
  9 10  1  0  0  0
  9 27  2  0  0  0
 10 11  2  0  0  0
 10 15  1  0  0  0
 11 12  1  0  0  0
 11 95  1  0  0  0
 12 13  2  0  0  0
 12 96  1  0  0  0
 13 14  1  0  0  0
 13 31  1  0  0  0
 14 15  2  0  0  0
 14 97  1  0  0  0
 15 98  1  0  0  0
 16 17  2  0  0  0
 16 21  1  0  0  0
 16 31  1  0  0  0
 17 18  1  0  0  0
 17 99  1  0  0  0
 18 19  2  0  0  0
 18100  1  0  0  0
 19 20  1  0  0  0
 19 24  1  0  0  0
 20 21  2  0  0  0
 20101  1  0  0  0
 21 23  1  0  0  0
 22 28  1  0  0  0
 22 32  2  0  0  0
 26 27  1  0  0  0
 28102  1  0  0  0
 28103  1  0  0  0
 29104  1  0  0  0
 29105  1  0  0  0
 33 34  1  0  0  0
 33 66  1  0  0  0
 33 70  2  0  0  0
 34 36  1  0  0  0
 34 59  1  0  0  0
 34106  1  0  0  0
 35 44  2  0  0  0
 35 45  1  0  0  0
 35 68  1  0  0  0
 36 56  1  0  0  0
 36107  1  0  0  0
 37 39  1  0  0  0
 37 47  1  0  0  0
 37 66  1  0  0  0
 37108  1  0  0  0
 38 43  2  0  0  0
 38 46  1  0  0  0
 38 47  1  0  0  0
 39 64  1  0  0  0
 39 67  2  0  0  0
 40 52  1  0  0  0
 40 53  2  0  0  0
 40 58  1  0  0  0
 41109  1  0  0  0
 41110  1  0  0  0
 41111  1  0  0  0
 41 48  1  0  0  0
 42 43  1  0  0  0
 42 66  1  0  0  0
 42112  1  0  0  0
 42113  1  0  0  0
 43 44  1  0  0  0
 44114  1  0  0  0
 45 46  2  0  0  0
 45115  1  0  0  0
 46116  1  0  0  0
 47117  1  0  0  0
 47118  1  0  0  0
 48 56  1  0  0  0
 48 65  1  0  0  0
 48119  1  0  0  0
 49 50  1  0  0  0
 49 53  1  0  0  0
 49 64  1  0  0  0
 49120  1  0  0  0
 50 51  1  0  0  0
 50121  1  0  0  0
 50122  1  0  0  0
 51 52  1  0  0  0
 51123  1  0  0  0
 51124  1  0  0  0
 52125  1  0  0  0
 52126  1  0  0  0
 53 54  1  0  0  0
 54 55  2  0  0  0
 54127  1  0  0  0
 55 57  1  0  0  0
 55128  1  0  0  0
 56 69  2  0  0  0
 57 58  2  0  0  0
 57129  1  0  0  0
 58130  1  0  0  0
 59 60  1  0  0  0
 59 61  1  0  0  0
 59 62  1  0  0  0
 60131  1  0  0  0
 60132  1  0  0  0
 60133  1  0  0  0
 61134  1  0  0  0
 61135  1  0  0  0
 61136  1  0  0  0
 62137  1  0  0  0
 62138  1  0  0  0
 62139  1  0  0  0
 63 65  1  0  0  0
 63140  1  0  0  0
 63141  1  0  0  0
 63142  1  0  0  0
 64143  1  0  0  0
 65144  1  0  0  0
 68 79  1  0  0  0
 71 72  2  0  0  0
 71 74  1  0  0  0
 71145  1  0  0  0
 72 75  1  0  0  0
 72146  1  0  0  0
 73 74  2  0  0  0
 73 76  1  0  0  0
 73147  1  0  0  0
 74 82  1  0  0  0
 75 76  2  0  0  0
 75 83  1  0  0  0
 76 85  1  0  0  0
 77 78  1  0  0  0
 77 79  2  0  0  0
 77 80  1  0  0  0
 78 82  1  0  0  0
 78 84  2  0  0  0
 79148  1  0  0  0
 80 81  1  0  0  0
 80149  1  0  0  0
 80150  1  0  0  0
 81 82  1  0  0  0
 81151  1  0  0  0
 81152  1  0  0  0
 83153  1  0  0  0
M  ISO  4   1 100  68 101  79 101  83 100
M  END
> <chiral flag>
0

> <version>
0

> <s_m_source_file>
/data/baiqing/PycharmProjects/Reinvent-master-3.2/result/LINK_invent/BTK/process_docking_weight1_custom_product_contain_oxygen_bond_distance_aromatic_linkinvent_7_9_3/rearranged_h_0078.sdf

> <i_m_source_file_index>
4

> <r_mmod_Potential_Energy-OPLS-2005>
176.681777954102

> <r_mmod_Stretch_Energy-OPLS-2005>
91.3821716308594

> <r_mmod_Bend_Energy-OPLS-2005>
167.970886230469

> <r_mmod_Torsional_Energy-OPLS-2005>
272.632537841797

> <r_mmod_Improper_Torsional_Energy-OPLS-2005>
6.36011409759521

> <r_mmod_Van_der_Waal_Energy-OPLS-2005>
141.178695678711

> <r_mmod_Electrostatic_Energy-OPLS-2005>
-367.851654052734

> <r_mmod_Solvation_Energy-OPLS-2005>
-204.863235473633

> <b_mmod_Minimization_Converged-OPLS-2005>
0

> <r_mmod_RMS_Derivative-OPLS-2005>
0.245697215199471

$$$$
4
                    3D
 Structure written by MMmdl.
159168  0  0  1  0            999 V2000
  -30.6906  -14.4693   20.5606 C   0  0  0  0  0  0
  -30.4258  -12.2985   19.4274 C   0  0  0  0  0  0
  -29.4983  -12.5030   18.2105 C   0  0  0  0  0  0
  -28.0179  -12.3670   18.6192 C   0  0  0  0  0  0
  -27.6642  -13.2046   19.8775 C   0  0  2  0  0  0
  -28.7039  -12.9762   20.9992 C   0  0  0  0  0  0
  -25.2603  -13.8159   20.5680 C   0  0  0  0  0  0
  -24.1846  -13.0440   20.9167 C   0  0  0  0  0  0
  -24.6393  -11.6904   20.8726 C   0  0  0  0  0  0
  -23.9056  -10.4293   21.0402 C   0  0  0  0  0  0
  -24.3612   -9.4211   21.9182 C   0  0  0  0  0  0
  -23.6288   -8.2246   22.0756 C   0  0  0  0  0  0
  -22.4272   -8.0280   21.3545 C   0  0  0  0  0  0
  -21.9902   -9.0254   20.4650 C   0  0  0  0  0  0
  -22.7227  -10.2134   20.3057 C   0  0  0  0  0  0
  -21.6853   -6.0734   22.5277 C   0  0  0  0  0  0
  -21.4013   -6.5640   23.8209 C   0  0  0  0  0  0
  -21.3660   -5.6793   24.9171 C   0  0  0  0  0  0
  -21.6045   -4.3055   24.7223 C   0  0  0  0  0  0
  -21.8820   -3.8145   23.4344 C   0  0  0  0  0  0
  -21.9192   -4.6961   22.3400 C   0  0  0  0  0  0
  -22.7870  -13.5244   21.1833 C   0  0  0  0  0  0
  -22.1660   -4.2148   21.0979 F   0  0  0  0  0  0
  -21.5632   -3.4539   25.7735 F   0  0  0  0  0  0
  -30.0401  -13.2784   20.4551 N   0  0  0  0  0  0
  -26.3036  -12.9322   20.3366 N   0  0  0  0  0  0
  -25.9319  -11.6484   20.5759 N   0  0  0  0  0  0
  -22.0508  -12.8243   22.0393 N   0  0  0  0  0  0
  -25.4343  -15.1878   20.4107 N   0  0  0  0  0  0
  -31.8157  -14.6580   20.0881 O   0  0  0  0  0  0
  -21.6640   -6.8874   21.4238 O   0  0  0  0  0  0
  -22.3559  -14.5554   20.6686 O   0  0  0  0  0  0
  -24.6137  -31.8681   23.2102 C   0  0  0  0  0  0
  -25.9031  -32.4825   23.8398 C   0  0  1  0  0  0
  -27.2359  -27.4428   20.1010 C   0  0  0  0  0  0
  -25.5890  -33.8623   24.2330 N   0  0  0  0  0  0
  -23.4025  -30.4905   21.5502 C   0  0  2  0  0  0
  -24.8517  -28.9572   20.1143 C   0  0  0  0  0  0
  -22.7410  -29.4654   22.4989 C   0  0  0  0  0  0
  -18.0273  -28.1374   22.8494 C   0  0  0  0  0  0
  -24.1486  -36.7320   23.2637 C   0  0  0  0  0  0
  -25.9301  -30.8371   21.3618 C   0  0  0  0  0  0
  -26.0108  -29.4716   20.7104 C   0  0  0  0  0  0
  -27.2095  -28.7219   20.7002 C   0  0  0  0  0  0
  -26.0654  -26.9420   19.4948 C   0  0  0  0  0  0
  -24.8732  -27.6910   19.5026 C   0  0  0  0  0  0
  -23.6117  -29.8216   20.1649 C   0  0  0  0  0  0
  -25.4106  -36.3115   24.0338 C   0  0  1  0  0  0
  -20.5863  -28.3660   23.1320 C   0  0  2  0  0  0
  -20.6762  -26.9397   22.5419 C   0  0  0  0  0  0
  -19.5743  -26.6385   21.5212 C   0  0  0  0  0  0
  -18.1922  -26.7921   22.1625 C   0  0  0  0  0  0
  -19.1522  -28.8833   23.2905 C   0  0  0  0  0  0
  -18.9450  -30.1440   23.8915 C   0  0  0  0  0  0
  -17.6453  -30.6582   24.0564 C   0  0  0  0  0  0
  -25.9030  -34.9478   23.5133 C   0  0  0  0  0  0
  -16.5344  -29.9085   23.6322 C   0  0  0  0  0  0
  -16.7262  -28.6500   23.0347 C   0  0  0  0  0  0
  -26.4466  -31.6599   25.0718 C   0  0  0  0  0  0
  -25.3740  -31.3705   26.1473 C   0  0  0  0  0  0
  -27.0289  -30.3043   24.6077 C   0  0  0  0  0  0
  -27.6051  -32.4310   25.7474 C   0  0  0  0  0  0
  -27.5584  -37.1810   24.8463 C   0  0  0  0  0  0
  -21.4138  -29.3030   22.3729 N   0  0  0  0  0  0
  -26.4295  -37.3796   23.9409 N   0  0  0  0  0  0
  -24.6670  -31.0788   22.0998 N   0  0  0  0  0  0
  -23.4181  -28.8197   23.3032 O   0  0  0  0  0  0
  -28.3768  -26.6736   20.1086 O   0  0  0  0  0  0
  -26.5594  -34.8927   22.4694 O   0  0  0  0  0  0
  -23.5330  -32.1426   23.7500 O   0  0  0  0  0  0
  -28.8317  -19.0330   21.1121 C   0  0  0  0  0  0
  -30.3963  -18.7454   19.2789 C   0  0  0  0  0  0
  -29.0395  -17.6858   21.4936 C   0  0  0  0  0  0
  -30.6082  -17.4022   19.6633 C   0  0  0  0  0  0
  -29.4948  -19.5733   19.9867 C   0  0  0  0  0  0
  -29.9132  -16.8429   20.7662 C   0  0  0  0  0  0
  -28.9767  -23.4198   19.7329 C   0  0  0  0  0  0
  -29.1727  -20.9204   19.4613 C   0  0  0  0  0  0
  -29.6074  -23.5920   22.0321 C   0  0  0  0  0  0
  -29.8783  -22.1666   21.5290 C   0  0  0  0  0  0
  -29.3597  -24.4607   20.7891 C   0  0  2  0  0  0
  -28.3004  -25.5703   21.0261 C   0  0  0  0  0  0
  -29.2963  -22.0791   20.1783 N   0  0  0  0  0  0
  -29.9782  -15.4589   21.1350 N   0  0  0  0  0  0
  -28.7429  -20.9511   18.1970 N   0  3  0  0  0  0
  -28.4724  -23.6869   18.6364 O   0  0  0  0  0  0
  -31.4711  -12.3950   19.1281 H   0  0  0  0  0  0
  -30.3241  -11.2859   19.8206 H   0  0  0  0  0  0
  -29.7366  -11.7788   17.4303 H   0  0  0  0  0  0
  -29.6708  -13.4884   17.7748 H   0  0  0  0  0  0
  -27.8245  -11.3110   18.8119 H   0  0  0  0  0  0
  -27.3702  -12.6459   17.7872 H   0  0  0  0  0  0
  -27.7110  -14.2536   19.5842 H   0  0  0  0  0  0
  -28.6750  -11.9383   21.3345 H   0  0  0  0  0  0
  -28.4625  -13.5695   21.8821 H   0  0  0  0  0  0
  -25.2761   -9.5688   22.4747 H   0  0  0  0  0  0
  -24.0001   -7.4642   22.7480 H   0  0  0  0  0  0
  -21.0831   -8.8769   19.8960 H   0  0  0  0  0  0
  -22.3684  -10.9671   19.6164 H   0  0  0  0  0  0
  -21.2004   -7.6147   23.9710 H   0  0  0  0  0  0
  -21.1483   -6.0524   25.9074 H   0  0  0  0  0  0
  -22.0599   -2.7607   23.2844 H   0  0  0  0  0  0
  -22.4113  -11.9901   22.4783 H   0  0  0  0  0  0
  -21.1132  -13.1282   22.2602 H   0  0  0  0  0  0
  -24.6691  -15.8441   20.5203 H   0  0  0  0  0  0
  -26.2882  -15.6259   20.0889 H   0  0  0  0  0  0
  -26.7105  -32.5547   23.1169 H   0  0  0  0  0  0
  -25.0042  -33.9788   25.0477 H   0  0  0  0  0  0
  -22.6909  -31.3068   21.4104 H   0  0  0  0  0  0
  -23.3741  -35.9661   23.3310 H   0  0  0  0  0  0
  -24.3582  -36.8921   22.2049 H   0  0  0  0  0  0
  -23.7246  -37.6533   23.6641 H   0  0  0  0  0  0
  -26.0382  -31.6030   20.5926 H   0  0  0  0  0  0
  -26.8192  -30.8934   21.9781 H   0  0  0  0  0  0
  -28.1048  -29.1123   21.1639 H   0  0  0  0  0  0
  -26.0769  -25.9690   19.0237 H   0  0  0  0  0  0
  -23.9829  -27.2891   19.0386 H   0  0  0  0  0  0
  -23.7173  -30.5962   19.4045 H   0  0  0  0  0  0
  -22.7369  -29.2391   19.8702 H   0  0  0  0  0  0
  -25.1281  -36.1984   25.0831 H   0  0  0  0  0  0
  -20.9955  -28.3224   24.1440 H   0  0  0  0  0  0
  -20.5663  -26.2268   23.3605 H   0  0  0  0  0  0
  -21.6633  -26.7440   22.1213 H   0  0  0  0  0  0
  -19.6906  -25.6300   21.1230 H   0  0  0  0  0  0
  -19.6686  -27.3204   20.6750 H   0  0  0  0  0  0
  -17.4193  -26.6670   21.4026 H   0  0  0  0  0  0
  -18.0326  -26.0057   22.9016 H   0  0  0  0  0  0
  -19.7926  -30.7249   24.2295 H   0  0  0  0  0  0
  -17.5009  -31.6264   24.5163 H   0  0  0  0  0  0
  -15.5346  -30.2995   23.7634 H   0  0  0  0  0  0
  -15.8662  -28.0825   22.7054 H   0  0  0  0  0  0
  -24.5904  -30.7061   25.7812 H   0  0  0  0  0  0
  -24.8942  -32.2864   26.4935 H   0  0  0  0  0  0
  -25.8097  -30.8862   27.0221 H   0  0  0  0  0  0
  -26.2824  -29.6812   24.1135 H   0  0  0  0  0  0
  -27.4070  -29.7267   25.4523 H   0  0  0  0  0  0
  -27.8656  -30.4366   23.9213 H   0  0  0  0  0  0
  -27.2676  -33.3594   26.2094 H   0  0  0  0  0  0
  -28.3836  -32.6896   25.0283 H   0  0  0  0  0  0
  -28.0747  -31.8407   26.5352 H   0  0  0  0  0  0
  -28.2604  -38.0105   24.7510 H   0  0  0  0  0  0
  -28.1076  -36.2637   24.6284 H   0  0  0  0  0  0
  -27.2304  -37.1455   25.8866 H   0  0  0  0  0  0
  -20.9295  -29.8757   21.6957 H   0  0  0  0  0  0
  -26.0187  -38.2876   24.1409 H   0  0  0  0  0  0
  -28.1120  -19.6277   21.6576 H   0  0  0  0  0  0
  -30.9106  -19.1290   18.4080 H   0  0  0  0  0  0
  -28.4859  -17.2941   22.3356 H   0  0  0  0  0  0
  -31.2813  -16.8098   19.0611 H   0  0  0  0  0  0
  -30.4510  -23.9698   22.6108 H   0  0  0  0  0  0
  -28.7395  -23.5906   22.6931 H   0  0  0  0  0  0
  -29.4582  -21.4394   22.2234 H   0  0  0  0  0  0
  -30.9521  -21.9795   21.4687 H   0  0  0  0  0  0
  -30.3023  -24.9132   20.4803 H   0  0  0  0  0  0
  -28.4369  -25.9820   22.0274 H   0  0  0  0  0  0
  -27.3063  -25.1183   21.0270 H   0  0  0  0  0  0
  -29.1986  -15.1305   21.6825 H   0  0  0  0  0  0
  -28.6050  -20.0949   17.6834 H   0  0  0  0  0  0
  -28.4808  -21.8397   17.7888 H   0  0  0  0  0  0
  1 25  1  0  0  0
  1 30  2  0  0  0
  1 84  1  0  0  0
  2  3  1  0  0  0
  2 25  1  0  0  0
  2 87  1  0  0  0
  2 88  1  0  0  0
  3  4  1  0  0  0
  3 89  1  0  0  0
  3 90  1  0  0  0
  4  5  1  0  0  0
  4 91  1  0  0  0
  4 92  1  0  0  0
  5  6  1  0  0  0
  5 26  1  0  0  0
  5 93  1  0  0  0
  6 25  1  0  0  0
  6 94  1  0  0  0
  6 95  1  0  0  0
  7  8  2  0  0  0
  7 26  1  0  0  0
  7 29  1  0  0  0
  8  9  1  0  0  0
  8 22  1  0  0  0
  9 10  1  0  0  0
  9 27  2  0  0  0
 10 11  2  0  0  0
 10 15  1  0  0  0
 11 12  1  0  0  0
 11 96  1  0  0  0
 12 13  2  0  0  0
 12 97  1  0  0  0
 13 14  1  0  0  0
 13 31  1  0  0  0
 14 15  2  0  0  0
 14 98  1  0  0  0
 15 99  1  0  0  0
 16 17  2  0  0  0
 16 21  1  0  0  0
 16 31  1  0  0  0
 17 18  1  0  0  0
 17100  1  0  0  0
 18 19  2  0  0  0
 18101  1  0  0  0
 19 20  1  0  0  0
 19 24  1  0  0  0
 20 21  2  0  0  0
 20102  1  0  0  0
 21 23  1  0  0  0
 22 28  1  0  0  0
 22 32  2  0  0  0
 26 27  1  0  0  0
 28103  1  0  0  0
 28104  1  0  0  0
 29105  1  0  0  0
 29106  1  0  0  0
 33 34  1  0  0  0
 33 66  1  0  0  0
 33 70  2  0  0  0
 34 36  1  0  0  0
 34 59  1  0  0  0
 34107  1  0  0  0
 35 44  2  0  0  0
 35 45  1  0  0  0
 35 68  1  0  0  0
 36 56  1  0  0  0
 36108  1  0  0  0
 37 39  1  0  0  0
 37 47  1  0  0  0
 37 66  1  0  0  0
 37109  1  0  0  0
 38 43  2  0  0  0
 38 46  1  0  0  0
 38 47  1  0  0  0
 39 64  1  0  0  0
 39 67  2  0  0  0
 40 52  1  0  0  0
 40 53  2  0  0  0
 40 58  1  0  0  0
 41110  1  0  0  0
 41111  1  0  0  0
 41112  1  0  0  0
 41 48  1  0  0  0
 42 43  1  0  0  0
 42 66  1  0  0  0
 42113  1  0  0  0
 42114  1  0  0  0
 43 44  1  0  0  0
 44115  1  0  0  0
 45 46  2  0  0  0
 45116  1  0  0  0
 46117  1  0  0  0
 47118  1  0  0  0
 47119  1  0  0  0
 48 56  1  0  0  0
 48 65  1  0  0  0
 48120  1  0  0  0
 49 50  1  0  0  0
 49 53  1  0  0  0
 49 64  1  0  0  0
 49121  1  0  0  0
 50 51  1  0  0  0
 50122  1  0  0  0
 50123  1  0  0  0
 51 52  1  0  0  0
 51124  1  0  0  0
 51125  1  0  0  0
 52126  1  0  0  0
 52127  1  0  0  0
 53 54  1  0  0  0
 54 55  2  0  0  0
 54128  1  0  0  0
 55 57  1  0  0  0
 55129  1  0  0  0
 56 69  2  0  0  0
 57 58  2  0  0  0
 57130  1  0  0  0
 58131  1  0  0  0
 59 60  1  0  0  0
 59 61  1  0  0  0
 59 62  1  0  0  0
 60132  1  0  0  0
 60133  1  0  0  0
 60134  1  0  0  0
 61135  1  0  0  0
 61136  1  0  0  0
 61137  1  0  0  0
 62138  1  0  0  0
 62139  1  0  0  0
 62140  1  0  0  0
 63 65  1  0  0  0
 63141  1  0  0  0
 63142  1  0  0  0
 63143  1  0  0  0
 64144  1  0  0  0
 65145  1  0  0  0
 68 82  1  0  0  0
 71 73  2  0  0  0
 71 75  1  0  0  0
 71146  1  0  0  0
 72 74  1  0  0  0
 72 75  2  0  0  0
 72147  1  0  0  0
 73 76  1  0  0  0
 73148  1  0  0  0
 74 76  2  0  0  0
 74149  1  0  0  0
 75 78  1  0  0  0
 76 84  1  0  0  0
 77 81  1  0  0  0
 77 83  1  0  0  0
 77 86  2  0  0  0
 78 83  1  0  0  0
 78 85  2  0  0  0
 79 80  1  0  0  0
 79 81  1  0  0  0
 79150  1  0  0  0
 79151  1  0  0  0
 80 83  1  0  0  0
 80152  1  0  0  0
 80153  1  0  0  0
 81 82  1  0  0  0
 81154  1  0  0  0
 82155  1  0  0  0
 82156  1  0  0  0
 84157  1  0  0  0
 85158  1  0  0  0
 85159  1  0  0  0
M  CHG  1  85   1
M  ISO  4   1 100  68 101  82 101  84 100
M  END
> <chiral flag>
0

> <version>
0

> <s_m_source_file>
/data/baiqing/PycharmProjects/Reinvent-master-3.2/result/LINK_invent/BTK/process_docking_weight1_custom_product_contain_oxygen_bond_distance_aromatic_linkinvent_7_9_3/rearranged_h_0078.sdf

> <i_m_source_file_index>
5

> <r_mmod_Potential_Energy-OPLS-2005>
-173.156646728516

> <r_mmod_Stretch_Energy-OPLS-2005>
39.8157501220703

> <r_mmod_Bend_Energy-OPLS-2005>
126.874069213867

> <r_mmod_Torsional_Energy-OPLS-2005>
277.125396728516

> <r_mmod_Improper_Torsional_Energy-OPLS-2005>
4.4857611656189

> <r_mmod_Van_der_Waal_Energy-OPLS-2005>
159.976196289062

> <r_mmod_Electrostatic_Energy-OPLS-2005>
-381.271759033203

> <r_mmod_Solvation_Energy-OPLS-2005>
-412.351898193359

> <b_mmod_Minimization_Converged-OPLS-2005>
0

> <r_mmod_RMS_Derivative-OPLS-2005>
0.362399101257324

$$$$
5
                    3D
 Structure written by MMmdl.
162171  0  0  1  0            999 V2000
  -30.6609  -14.5017   20.5742 C   0  0  0  0  0  0
  -30.4362  -12.3236   19.4208 C   0  0  0  0  0  0
  -29.4992  -12.5071   18.2070 C   0  0  0  0  0  0
  -28.0195  -12.3637   18.6187 C   0  0  0  0  0  0
  -27.6643  -13.2005   19.8764 C   0  0  2  0  0  0
  -28.7047  -12.9641   20.9938 C   0  0  0  0  0  0
  -25.2612  -13.8146   20.5663 C   0  0  0  0  0  0
  -24.1852  -13.0440   20.9164 C   0  0  0  0  0  0
  -24.6395  -11.6902   20.8728 C   0  0  0  0  0  0
  -23.9063  -10.4294   21.0411 C   0  0  0  0  0  0
  -24.3618   -9.4210   21.9190 C   0  0  0  0  0  0
  -23.6291   -8.2248   22.0763 C   0  0  0  0  0  0
  -22.4274   -8.0286   21.3551 C   0  0  0  0  0  0
  -21.9909   -9.0259   20.4654 C   0  0  0  0  0  0
  -22.7239  -10.2136   20.3059 C   0  0  0  0  0  0
  -21.6847   -6.0738   22.5282 C   0  0  0  0  0  0
  -21.4014   -6.5642   23.8216 C   0  0  0  0  0  0
  -21.3657   -5.6794   24.9176 C   0  0  0  0  0  0
  -21.6044   -4.3057   24.7225 C   0  0  0  0  0  0
  -21.8819   -3.8149   23.4347 C   0  0  0  0  0  0
  -21.9194   -4.6966   22.3404 C   0  0  0  0  0  0
  -22.7879  -13.5251   21.1833 C   0  0  0  0  0  0
  -22.1661   -4.2154   21.0981 F   0  0  0  0  0  0
  -21.5627   -3.4543   25.7740 F   0  0  0  0  0  0
  -30.0365  -13.2959   20.4513 N   0  0  0  0  0  0
  -26.3039  -12.9297   20.3357 N   0  0  0  0  0  0
  -25.9318  -11.6465   20.5762 N   0  0  0  0  0  0
  -22.0512  -12.8241   22.0384 N   0  0  0  0  0  0
  -25.4364  -15.1864   20.4074 N   0  0  0  0  0  0
  -31.7698  -14.7328   20.0813 O   0  0  0  0  0  0
  -21.6639   -6.8881   21.4244 O   0  0  0  0  0  0
  -22.3569  -14.5560   20.6690 O   0  0  0  0  0  0
  -24.6160  -31.8657   23.2066 C   0  0  0  0  0  0
  -25.9048  -32.4804   23.8371 C   0  0  1  0  0  0
  -27.2373  -27.4088   20.1056 C   0  0  0  0  0  0
  -25.5903  -33.8603   24.2308 N   0  0  0  0  0  0
  -23.4061  -30.4872   21.5466 C   0  0  2  0  0  0
  -24.8535  -28.9479   20.1143 C   0  0  0  0  0  0
  -22.7421  -29.4643   22.4964 C   0  0  0  0  0  0
  -18.0273  -28.1378   22.8471 C   0  0  0  0  0  0
  -24.1496  -36.7306   23.2642 C   0  0  0  0  0  0
  -25.9361  -30.8251   21.3613 C   0  0  0  0  0  0
  -26.0139  -29.4565   20.7094 C   0  0  0  0  0  0
  -27.2081  -28.6965   20.6957 C   0  0  0  0  0  0
  -26.0583  -26.9216   19.4986 C   0  0  0  0  0  0
  -24.8724  -27.6813   19.5043 C   0  0  0  0  0  0
  -23.6167  -29.8176   20.1622 C   0  0  0  0  0  0
  -25.4113  -36.3102   24.0346 C   0  0  1  0  0  0
  -20.5868  -28.3663   23.1301 C   0  0  2  0  0  0
  -20.6773  -26.9398   22.5408 C   0  0  0  0  0  0
  -19.5754  -26.6381   21.5200 C   0  0  0  0  0  0
  -18.1930  -26.7920   22.1612 C   0  0  0  0  0  0
  -19.1526  -28.8834   23.2886 C   0  0  0  0  0  0
  -18.9461  -30.1435   23.8905 C   0  0  0  0  0  0
  -17.6464  -30.6579   24.0557 C   0  0  0  0  0  0
  -25.9041  -34.9466   23.5124 C   0  0  0  0  0  0
  -16.5350  -29.9082   23.6327 C   0  0  0  0  0  0
  -16.7263  -28.6506   23.0332 C   0  0  0  0  0  0
  -26.4473  -31.6586   25.0707 C   0  0  0  0  0  0
  -25.3736  -31.3705   26.1458 C   0  0  0  0  0  0
  -27.0310  -30.3035   24.6082 C   0  0  0  0  0  0
  -27.6047  -32.4300   25.7471 C   0  0  0  0  0  0
  -27.5580  -37.1803   24.8467 C   0  0  0  0  0  0
  -21.4147  -29.3029   22.3703 N   0  0  0  0  0  0
  -26.4294  -37.3781   23.9415 N   0  0  0  0  0  0
  -24.6712  -31.0741   22.0971 N   0  0  0  0  0  0
  -23.4186  -28.8187   23.3015 O   0  0  0  0  0  0
  -28.4088  -26.6710   20.1220 O   0  0  0  0  0  0
  -26.5594  -34.8919   22.4683 O   0  0  0  0  0  0
  -23.5344  -32.1406   23.7451 O   0  0  0  0  0  0
  -30.6369  -19.0784   20.3477 C   0  0  0  0  0  0
  -30.6890  -17.6632   20.2795 C   0  0  0  0  0  0
  -29.1721  -17.5366   22.1612 C   0  0  0  0  0  0
  -29.0968  -18.9503   22.2357 C   0  0  0  0  0  0
  -29.8593  -19.7468   21.3267 C   0  0  0  0  0  0
  -29.9661  -16.8713   21.2040 C   0  0  0  0  0  0
  -29.8351  -23.4533   21.4568 C   0  0  0  0  0  0
  -30.8145  -23.1132   22.4579 C   0  0  0  0  0  0
  -29.3941  -22.1909   20.8481 C   0  0  0  0  0  0
  -31.4981  -23.9694   23.2400 C   0  0  0  0  0  0
  -29.3878  -24.7146   21.2011 C   0  0  0  0  0  0
  -28.2659  -19.5038   23.3456 C   0  0  0  0  0  0
  -30.9715  -21.6283   22.5173 C   0  0  0  0  0  0
  -27.3713  -20.6963   23.0396 C   0  0  0  0  0  0
  -28.3255  -25.2296   20.2323 C   0  0  0  0  0  0
  -30.0298  -21.1673   21.4991 N   0  0  0  0  0  0
  -29.9306  -15.4364   21.2206 N   0  0  0  0  0  0
  -28.5752  -22.0500   19.9345 O   0  0  0  0  0  0
  -28.2229  -19.0009   24.4714 O   0  0  0  0  0  0
  -31.4778  -12.4453   19.1178 H   0  0  0  0  0  0
  -30.3586  -11.3091   19.8151 H   0  0  0  0  0  0
  -29.7413  -11.7764   17.4339 H   0  0  0  0  0  0
  -29.6607  -13.4889   17.7594 H   0  0  0  0  0  0
  -27.8312  -11.3068   18.8126 H   0  0  0  0  0  0
  -27.3692  -12.6389   17.7880 H   0  0  0  0  0  0
  -27.7132  -14.2507   19.5868 H   0  0  0  0  0  0
  -28.6891  -11.9197   21.3096 H   0  0  0  0  0  0
  -28.4508  -13.5319   21.8895 H   0  0  0  0  0  0
  -25.2765   -9.5679   22.4761 H   0  0  0  0  0  0
  -24.0001   -7.4636   22.7476 H   0  0  0  0  0  0
  -21.0846   -8.8773   19.8953 H   0  0  0  0  0  0
  -22.3705  -10.9673   19.6163 H   0  0  0  0  0  0
  -21.2007   -7.6151   23.9717 H   0  0  0  0  0  0
  -21.1477   -6.0527   25.9078 H   0  0  0  0  0  0
  -22.0601   -2.7612   23.2846 H   0  0  0  0  0  0
  -22.4124  -11.9895   22.4757 H   0  0  0  0  0  0
  -21.1137  -13.1275   22.2603 H   0  0  0  0  0  0
  -24.6738  -15.8462   20.5147 H   0  0  0  0  0  0
  -26.2944  -15.6203   20.0899 H   0  0  0  0  0  0
  -26.7117  -32.5517   23.1126 H   0  0  0  0  0  0
  -25.0069  -33.9769   25.0463 H   0  0  0  0  0  0
  -22.6951  -31.3033   21.4040 H   0  0  0  0  0  0
  -23.3751  -35.9646   23.3312 H   0  0  0  0  0  0
  -24.3589  -36.8911   22.2054 H   0  0  0  0  0  0
  -23.7254  -37.6518   23.6646 H   0  0  0  0  0  0
  -26.0485  -31.5898   20.5912 H   0  0  0  0  0  0
  -26.8233  -30.8800   21.9803 H   0  0  0  0  0  0
  -28.1051  -29.0864   21.1558 H   0  0  0  0  0  0
  -26.0488  -25.9561   19.0126 H   0  0  0  0  0  0
  -23.9817  -27.2839   19.0369 H   0  0  0  0  0  0
  -23.7249  -30.5916   19.4014 H   0  0  0  0  0  0
  -22.7412  -29.2372   19.8645 H   0  0  0  0  0  0
  -25.1283  -36.1968   25.0837 H   0  0  0  0  0  0
  -20.9952  -28.3234   24.1425 H   0  0  0  0  0  0
  -20.5677  -26.2267   23.3597 H   0  0  0  0  0  0
  -21.6643  -26.7434   22.1195 H   0  0  0  0  0  0
  -19.6928  -25.6298   21.1221 H   0  0  0  0  0  0
  -19.6712  -27.3195   20.6739 H   0  0  0  0  0  0
  -17.4198  -26.6654   21.4017 H   0  0  0  0  0  0
  -18.0335  -26.0066   22.9013 H   0  0  0  0  0  0
  -19.7946  -30.7237   24.2283 H   0  0  0  0  0  0
  -17.5030  -31.6262   24.5147 H   0  0  0  0  0  0
  -15.5354  -30.2989   23.7655 H   0  0  0  0  0  0
  -15.8665  -28.0834   22.7038 H   0  0  0  0  0  0
  -24.5909  -30.7052   25.7796 H   0  0  0  0  0  0
  -24.8927  -32.2871   26.4888 H   0  0  0  0  0  0
  -25.8086  -30.8884   27.0225 H   0  0  0  0  0  0
  -26.2856  -29.6792   24.1142 H   0  0  0  0  0  0
  -27.4102  -29.7270   25.4528 H   0  0  0  0  0  0
  -27.8677  -30.4366   23.9220 H   0  0  0  0  0  0
  -27.2668  -33.3589   26.2071 H   0  0  0  0  0  0
  -28.3846  -32.6866   25.0294 H   0  0  0  0  0  0
  -28.0724  -31.8412   26.5374 H   0  0  0  0  0  0
  -28.2586  -38.0100   24.7492 H   0  0  0  0  0  0
  -28.1080  -36.2630   24.6309 H   0  0  0  0  0  0
  -27.2296  -37.1466   25.8866 H   0  0  0  0  0  0
  -20.9306  -29.8760   21.6932 H   0  0  0  0  0  0
  -26.0191  -38.2865   24.1404 H   0  0  0  0  0  0
  -31.2432  -19.6550   19.6624 H   0  0  0  0  0  0
  -31.3014  -17.2024   19.5177 H   0  0  0  0  0  0
  -28.6057  -16.9453   22.8693 H   0  0  0  0  0  0
  -31.3740  -25.0404   23.1860 H   0  0  0  0  0  0
  -32.2095  -23.6015   23.9656 H   0  0  0  0  0  0
  -29.8026  -25.5144   21.7938 H   0  0  0  0  0  0
  -30.7182  -21.2469   23.5071 H   0  0  0  0  0  0
  -31.9907  -21.3328   22.2656 H   0  0  0  0  0  0
  -27.1267  -20.7289   21.9785 H   0  0  0  0  0  0
  -27.8663  -21.6240   23.3218 H   0  0  0  0  0  0
  -26.4403  -20.6182   23.5994 H   0  0  0  0  0  0
  -27.3600  -24.9101   20.6265 H   0  0  0  0  0  0
  -28.4553  -24.7720   19.2513 H   0  0  0  0  0  0
  -29.1370  -15.0416   21.7017 H   0  0  0  0  0  0
  1 25  1  0  0  0
  1 30  2  0  0  0
  1 87  1  0  0  0
  2  3  1  0  0  0
  2 25  1  0  0  0
  2 90  1  0  0  0
  2 91  1  0  0  0
  3  4  1  0  0  0
  3 92  1  0  0  0
  3 93  1  0  0  0
  4  5  1  0  0  0
  4 94  1  0  0  0
  4 95  1  0  0  0
  5  6  1  0  0  0
  5 26  1  0  0  0
  5 96  1  0  0  0
  6 25  1  0  0  0
  6 97  1  0  0  0
  6 98  1  0  0  0
  7  8  2  0  0  0
  7 26  1  0  0  0
  7 29  1  0  0  0
  8  9  1  0  0  0
  8 22  1  0  0  0
  9 10  1  0  0  0
  9 27  2  0  0  0
 10 11  2  0  0  0
 10 15  1  0  0  0
 11 12  1  0  0  0
 11 99  1  0  0  0
 12 13  2  0  0  0
 12100  1  0  0  0
 13 14  1  0  0  0
 13 31  1  0  0  0
 14 15  2  0  0  0
 14101  1  0  0  0
 15102  1  0  0  0
 16 17  2  0  0  0
 16 21  1  0  0  0
 16 31  1  0  0  0
 17 18  1  0  0  0
 17103  1  0  0  0
 18 19  2  0  0  0
 18104  1  0  0  0
 19 20  1  0  0  0
 19 24  1  0  0  0
 20 21  2  0  0  0
 20105  1  0  0  0
 21 23  1  0  0  0
 22 28  1  0  0  0
 22 32  2  0  0  0
 26 27  1  0  0  0
 28106  1  0  0  0
 28107  1  0  0  0
 29108  1  0  0  0
 29109  1  0  0  0
 33 34  1  0  0  0
 33 66  1  0  0  0
 33 70  2  0  0  0
 34 36  1  0  0  0
 34 59  1  0  0  0
 34110  1  0  0  0
 35 44  2  0  0  0
 35 45  1  0  0  0
 35 68  1  0  0  0
 36 56  1  0  0  0
 36111  1  0  0  0
 37 39  1  0  0  0
 37 47  1  0  0  0
 37 66  1  0  0  0
 37112  1  0  0  0
 38 43  2  0  0  0
 38 46  1  0  0  0
 38 47  1  0  0  0
 39 64  1  0  0  0
 39 67  2  0  0  0
 40 52  1  0  0  0
 40 53  2  0  0  0
 40 58  1  0  0  0
 41113  1  0  0  0
 41114  1  0  0  0
 41115  1  0  0  0
 41 48  1  0  0  0
 42 43  1  0  0  0
 42 66  1  0  0  0
 42116  1  0  0  0
 42117  1  0  0  0
 43 44  1  0  0  0
 44118  1  0  0  0
 45 46  2  0  0  0
 45119  1  0  0  0
 46120  1  0  0  0
 47121  1  0  0  0
 47122  1  0  0  0
 48 56  1  0  0  0
 48 65  1  0  0  0
 48123  1  0  0  0
 49 50  1  0  0  0
 49 53  1  0  0  0
 49 64  1  0  0  0
 49124  1  0  0  0
 50 51  1  0  0  0
 50125  1  0  0  0
 50126  1  0  0  0
 51 52  1  0  0  0
 51127  1  0  0  0
 51128  1  0  0  0
 52129  1  0  0  0
 52130  1  0  0  0
 53 54  1  0  0  0
 54 55  2  0  0  0
 54131  1  0  0  0
 55 57  1  0  0  0
 55132  1  0  0  0
 56 69  2  0  0  0
 57 58  2  0  0  0
 57133  1  0  0  0
 58134  1  0  0  0
 59 60  1  0  0  0
 59 61  1  0  0  0
 59 62  1  0  0  0
 60135  1  0  0  0
 60136  1  0  0  0
 60137  1  0  0  0
 61138  1  0  0  0
 61139  1  0  0  0
 61140  1  0  0  0
 62141  1  0  0  0
 62142  1  0  0  0
 62143  1  0  0  0
 63 65  1  0  0  0
 63144  1  0  0  0
 63145  1  0  0  0
 63146  1  0  0  0
 64147  1  0  0  0
 65148  1  0  0  0
 68 85  1  0  0  0
 71 72  2  0  0  0
 71 75  1  0  0  0
 71149  1  0  0  0
 72 76  1  0  0  0
 72150  1  0  0  0
 73 74  1  0  0  0
 73 76  2  0  0  0
 73151  1  0  0  0
 74 75  2  0  0  0
 74 82  1  0  0  0
 75 86  1  0  0  0
 76 87  1  0  0  0
 77 78  1  0  0  0
 77 79  1  0  0  0
 77 81  2  0  0  0
 78 80  2  0  0  0
 78 83  1  0  0  0
 79 86  1  0  0  0
 79 88  2  0  0  0
 80152  1  0  0  0
 80153  1  0  0  0
 81 85  1  0  0  0
 81154  1  0  0  0
 82 84  1  0  0  0
 82 89  2  0  0  0
 83 86  1  0  0  0
 83155  1  0  0  0
 83156  1  0  0  0
 84157  1  0  0  0
 84158  1  0  0  0
 84159  1  0  0  0
 85160  1  0  0  0
 85161  1  0  0  0
 87162  1  0  0  0
M  ISO  4   1 100  68 101  85 101  87 100
M  END
> <chiral flag>
0

> <version>
0

> <s_m_source_file>
/data/baiqing/PycharmProjects/Reinvent-master-3.2/result/LINK_invent/BTK/process_docking_weight1_custom_product_contain_oxygen_bond_distance_aromatic_linkinvent_7_9_3/rearranged_h_0078.sdf

> <i_m_source_file_index>
6

> <r_mmod_Potential_Energy-OPLS-2005>
123.062461853027

> <r_mmod_Stretch_Energy-OPLS-2005>
47.9978561401367

> <r_mmod_Bend_Energy-OPLS-2005>
171.115356445312

> <r_mmod_Torsional_Energy-OPLS-2005>
332.227783203125

> <r_mmod_Improper_Torsional_Energy-OPLS-2005>
4.25614356994629

> <r_mmod_Van_der_Waal_Energy-OPLS-2005>
146.837997436523

> <r_mmod_Electrostatic_Energy-OPLS-2005>
-374.041351318359

> <r_mmod_Solvation_Energy-OPLS-2005>
-221.200469970703

> <b_mmod_Minimization_Converged-OPLS-2005>
0

> <r_mmod_RMS_Derivative-OPLS-2005>
1.24772989749908

$$$$
6
                    3D
 Structure written by MMmdl.
149157  0  0  1  0            999 V2000
  -30.6196  -14.8021   20.4341 C   0  0  0  0  0  0
  -30.4285  -12.4900   19.4838 C   0  0  0  0  0  0
  -29.5107  -12.5044   18.2423 C   0  0  0  0  0  0
  -28.0406  -12.3196   18.6603 C   0  0  0  0  0  0
  -27.6366  -13.2393   19.8431 C   0  0  2  0  0  0
  -28.6815  -13.2221   20.9806 C   0  0  0  0  0  0
  -25.2495  -13.8208   20.5706 C   0  0  0  0  0  0
  -24.1795  -13.0444   20.9220 C   0  0  0  0  0  0
  -24.6395  -11.6925   20.8749 C   0  0  0  0  0  0
  -23.9075  -10.4297   21.0401 C   0  0  0  0  0  0
  -24.3625   -9.4210   21.9177 C   0  0  0  0  0  0
  -23.6299   -8.2246   22.0747 C   0  0  0  0  0  0
  -22.4282   -8.0281   21.3540 C   0  0  0  0  0  0
  -21.9917   -9.0252   20.4642 C   0  0  0  0  0  0
  -22.7244  -10.2134   20.3051 C   0  0  0  0  0  0
  -21.6859   -6.0732   22.5278 C   0  0  0  0  0  0
  -21.4015   -6.5636   23.8210 C   0  0  0  0  0  0
  -21.3655   -5.6788   24.9173 C   0  0  0  0  0  0
  -21.6043   -4.3051   24.7224 C   0  0  0  0  0  0
  -21.8819   -3.8142   23.4346 C   0  0  0  0  0  0
  -21.9196   -4.6960   22.3403 C   0  0  0  0  0  0
  -22.7814  -13.5219   21.1875 C   0  0  0  0  0  0
  -22.1666   -4.2145   21.0981 F   0  0  0  0  0  0
  -21.5627   -3.4536   25.7736 F   0  0  0  0  0  0
  -29.9759  -13.5785   20.3880 N   0  0  0  0  0  0
  -26.2917  -12.9428   20.3265 N   0  0  0  0  0  0
  -25.9325  -11.6564   20.5747 N   0  0  0  0  0  0
  -22.0468  -12.8202   22.0429 N   0  0  0  0  0  0
  -25.4171  -15.1935   20.4122 N   0  0  0  0  0  0
  -31.8199  -14.8247   20.1534 O   0  0  0  0  0  0
  -21.6642   -6.8878   21.4242 O   0  0  0  0  0  0
  -22.3495  -14.5521   20.6721 O   0  0  0  0  0  0
  -24.6352  -31.8519   23.1962 C   0  0  0  0  0  0
  -25.9166  -32.4736   23.8317 C   0  0  1  0  0  0
  -27.2157  -27.2318   20.1368 C   0  0  0  0  0  0
  -25.5953  -33.8538   24.2240 N   0  0  0  0  0  0
  -23.4349  -30.4748   21.5390 C   0  0  2  0  0  0
  -24.8864  -28.9220   20.1046 C   0  0  0  0  0  0
  -22.7533  -29.4587   22.4881 C   0  0  0  0  0  0
  -18.0304  -28.1399   22.8482 C   0  0  0  0  0  0
  -24.1487  -36.7270   23.2637 C   0  0  0  0  0  0
  -25.9842  -30.7555   21.3833 C   0  0  0  0  0  0
  -26.0596  -29.3760   20.7240 C   0  0  0  0  0  0
  -27.2304  -28.5425   20.7331 C   0  0  0  0  0  0
  -26.0278  -26.8625   19.4714 C   0  0  0  0  0  0
  -24.8779  -27.6746   19.4634 C   0  0  0  0  0  0
  -23.6570  -29.8104   20.1547 C   0  0  0  0  0  0
  -25.4114  -36.3054   24.0322 C   0  0  1  0  0  0
  -20.5914  -28.3714   23.1254 C   0  0  2  0  0  0
  -20.6786  -26.9425   22.5407 C   0  0  0  0  0  0
  -19.5759  -26.6394   21.5212 C   0  0  0  0  0  0
  -18.1942  -26.7940   22.1626 C   0  0  0  0  0  0
  -19.1560  -28.8875   23.2863 C   0  0  0  0  0  0
  -18.9474  -30.1477   23.8879 C   0  0  0  0  0  0
  -17.6470  -30.6592   24.0568 C   0  0  0  0  0  0
  -25.9061  -34.9426   23.5078 C   0  0  0  0  0  0
  -16.5364  -29.9086   23.6337 C   0  0  0  0  0  0
  -16.7287  -28.6510   23.0347 C   0  0  0  0  0  0
  -26.4516  -31.6574   25.0720 C   0  0  0  0  0  0
  -25.3729  -31.3752   26.1439 C   0  0  0  0  0  0
  -27.0367  -30.2981   24.6239 C   0  0  0  0  0  0
  -27.6058  -32.4324   25.7501 C   0  0  0  0  0  0
  -27.5575  -37.1789   24.8462 C   0  0  0  0  0  0
  -21.4234  -29.3048   22.3630 N   0  0  0  0  0  0
  -26.4283  -37.3760   23.9412 N   0  0  0  0  0  0
  -24.7038  -31.0454   22.0958 N   0  0  0  0  0  0
  -23.4215  -28.8127   23.2996 O   0  0  0  0  0  0
  -28.2246  -26.2332   20.2187 O   0  0  0  0  0  0
  -26.5629  -34.8907   22.4646 O   0  0  0  0  0  0
  -23.5493  -32.1360   23.7230 O   0  0  0  0  0  0
  -31.8861  -19.1508   19.7052 C   0  0  0  0  0  0
  -31.5195  -17.8099   19.9424 C   0  0  0  0  0  0
  -30.9893  -20.2198   19.8963 C   0  0  0  0  0  0
  -29.3198  -18.5885   20.5799 C   0  0  0  0  0  0
  -30.2241  -17.4447   20.3868 C   0  0  0  0  0  0
  -29.6714  -19.9986   20.3461 C   0  0  0  0  0  0
  -28.1492  -23.6506   20.8878 C   0  0  0  0  0  0
  -27.8170  -25.0144   20.8549 C   0  0  0  0  0  0
  -29.1516  -22.5720   20.2802 C   0  0  0  0  0  0
  -29.8790  -15.9863   20.5989 N   0  0  0  0  0  0
  -28.7924  -21.1201   20.5445 O   0  0  0  0  0  0
  -31.4682  -12.6069   19.1744 H   0  0  0  0  0  0
  -30.3771  -11.5259   19.9920 H   0  0  0  0  0  0
  -29.8025  -11.7166   17.5465 H   0  0  0  0  0  0
  -29.6272  -13.4477   17.7062 H   0  0  0  0  0  0
  -27.9135  -11.2746   18.9467 H   0  0  0  0  0  0
  -27.3795  -12.4831   17.8083 H   0  0  0  0  0  0
  -27.6172  -14.2508   19.4365 H   0  0  0  0  0  0
  -28.7305  -12.2403   21.4539 H   0  0  0  0  0  0
  -28.4069  -13.9296   21.7647 H   0  0  0  0  0  0
  -25.2771   -9.5687   22.4753 H   0  0  0  0  0  0
  -24.0011   -7.4634   22.7462 H   0  0  0  0  0  0
  -21.0849   -8.8764   19.8944 H   0  0  0  0  0  0
  -22.3694  -10.9669   19.6160 H   0  0  0  0  0  0
  -21.2006   -7.6142   23.9713 H   0  0  0  0  0  0
  -21.1475   -6.0516   25.9073 H   0  0  0  0  0  0
  -22.0601   -2.7604   23.2847 H   0  0  0  0  0  0
  -22.4094  -11.9871   22.4821 H   0  0  0  0  0  0
  -21.1076  -13.1208   22.2625 H   0  0  0  0  0  0
  -24.6474  -15.8451   20.5207 H   0  0  0  0  0  0
  -26.2587  -15.6326   20.0622 H   0  0  0  0  0  0
  -26.7230  -32.5376   23.1053 H   0  0  0  0  0  0
  -25.0109  -33.9671   25.0392 H   0  0  0  0  0  0
  -22.7331  -31.2983   21.3910 H   0  0  0  0  0  0
  -23.3748  -35.9606   23.3298 H   0  0  0  0  0  0
  -24.3572  -36.8892   22.2052 H   0  0  0  0  0  0
  -23.7244  -37.6471   23.6663 H   0  0  0  0  0  0
  -26.1275  -31.5151   20.6136 H   0  0  0  0  0  0
  -26.8594  -30.8054   22.0193 H   0  0  0  0  0  0
  -28.1207  -28.8734   21.2493 H   0  0  0  0  0  0
  -25.9731  -25.8955   18.9911 H   0  0  0  0  0  0
  -23.9834  -27.3231   18.9679 H   0  0  0  0  0  0
  -23.7826  -30.5872   19.3997 H   0  0  0  0  0  0
  -22.7747  -29.2457   19.8477 H   0  0  0  0  0  0
  -25.1293  -36.1890   25.0814 H   0  0  0  0  0  0
  -21.0010  -28.3298   24.1375 H   0  0  0  0  0  0
  -20.5681  -26.2323   23.3618 H   0  0  0  0  0  0
  -21.6651  -26.7439   22.1202 H   0  0  0  0  0  0
  -19.6912  -25.6301   21.1250 H   0  0  0  0  0  0
  -19.6689  -27.3194   20.6732 H   0  0  0  0  0  0
  -17.4209  -26.6695   21.4031 H   0  0  0  0  0  0
  -18.0331  -26.0088   22.9024 H   0  0  0  0  0  0
  -19.7950  -30.7311   24.2222 H   0  0  0  0  0  0
  -17.5022  -31.6267   24.5187 H   0  0  0  0  0  0
  -15.5360  -30.2978   23.7678 H   0  0  0  0  0  0
  -15.8692  -28.0830   22.7052 H   0  0  0  0  0  0
  -24.5904  -30.7092   25.7780 H   0  0  0  0  0  0
  -24.8923  -32.2936   26.4822 H   0  0  0  0  0  0
  -25.8046  -30.8968   27.0239 H   0  0  0  0  0  0
  -26.2965  -29.6724   24.1241 H   0  0  0  0  0  0
  -27.4006  -29.7252   25.4776 H   0  0  0  0  0  0
  -27.8856  -30.4231   23.9515 H   0  0  0  0  0  0
  -27.2655  -33.3630   26.2049 H   0  0  0  0  0  0
  -28.3890  -32.6874   25.0351 H   0  0  0  0  0  0
  -28.0702  -31.8468   26.5444 H   0  0  0  0  0  0
  -28.2587  -38.0091   24.7514 H   0  0  0  0  0  0
  -28.1076  -36.2622   24.6277 H   0  0  0  0  0  0
  -27.2298  -37.1430   25.8867 H   0  0  0  0  0  0
  -20.9426  -29.8775   21.6834 H   0  0  0  0  0  0
  -26.0153  -38.2827   24.1426 H   0  0  0  0  0  0
  -32.8887  -19.3670   19.3636 H   0  0  0  0  0  0
  -32.2843  -17.0734   19.7572 H   0  0  0  0  0  0
  -31.3451  -21.2182   19.6888 H   0  0  0  0  0  0
  -28.3142  -18.3823   20.9183 H   0  0  0  0  0  0
  -27.5118  -23.1251   21.5846 H   0  0  0  0  0  0
  -26.9984  -25.2633   21.5195 H   0  0  0  0  0  0
  -30.1236  -22.7752   20.7293 H   0  0  0  0  0  0
  -29.2560  -22.7398   19.2079 H   0  0  0  0  0  0
  -28.9142  -15.8144   20.8383 H   0  0  0  0  0  0
  1 25  1  0  0  0
  1 30  2  0  0  0
  1 80  1  0  0  0
  2  3  1  0  0  0
  2 25  1  0  0  0
  2 82  1  0  0  0
  2 83  1  0  0  0
  3  4  1  0  0  0
  3 84  1  0  0  0
  3 85  1  0  0  0
  4  5  1  0  0  0
  4 86  1  0  0  0
  4 87  1  0  0  0
  5  6  1  0  0  0
  5 26  1  0  0  0
  5 88  1  0  0  0
  6 25  1  0  0  0
  6 89  1  0  0  0
  6 90  1  0  0  0
  7  8  2  0  0  0
  7 26  1  0  0  0
  7 29  1  0  0  0
  8  9  1  0  0  0
  8 22  1  0  0  0
  9 10  1  0  0  0
  9 27  2  0  0  0
 10 11  2  0  0  0
 10 15  1  0  0  0
 11 12  1  0  0  0
 11 91  1  0  0  0
 12 13  2  0  0  0
 12 92  1  0  0  0
 13 14  1  0  0  0
 13 31  1  0  0  0
 14 15  2  0  0  0
 14 93  1  0  0  0
 15 94  1  0  0  0
 16 17  2  0  0  0
 16 21  1  0  0  0
 16 31  1  0  0  0
 17 18  1  0  0  0
 17 95  1  0  0  0
 18 19  2  0  0  0
 18 96  1  0  0  0
 19 20  1  0  0  0
 19 24  1  0  0  0
 20 21  2  0  0  0
 20 97  1  0  0  0
 21 23  1  0  0  0
 22 28  1  0  0  0
 22 32  2  0  0  0
 26 27  1  0  0  0
 28 98  1  0  0  0
 28 99  1  0  0  0
 29100  1  0  0  0
 29101  1  0  0  0
 33 34  1  0  0  0
 33 66  1  0  0  0
 33 70  2  0  0  0
 34 36  1  0  0  0
 34 59  1  0  0  0
 34102  1  0  0  0
 35 44  2  0  0  0
 35 45  1  0  0  0
 35 68  1  0  0  0
 36 56  1  0  0  0
 36103  1  0  0  0
 37 39  1  0  0  0
 37 47  1  0  0  0
 37 66  1  0  0  0
 37104  1  0  0  0
 38 43  2  0  0  0
 38 46  1  0  0  0
 38 47  1  0  0  0
 39 64  1  0  0  0
 39 67  2  0  0  0
 40 52  1  0  0  0
 40 53  2  0  0  0
 40 58  1  0  0  0
 41105  1  0  0  0
 41106  1  0  0  0
 41107  1  0  0  0
 41 48  1  0  0  0
 42 43  1  0  0  0
 42 66  1  0  0  0
 42108  1  0  0  0
 42109  1  0  0  0
 43 44  1  0  0  0
 44110  1  0  0  0
 45 46  2  0  0  0
 45111  1  0  0  0
 46112  1  0  0  0
 47113  1  0  0  0
 47114  1  0  0  0
 48 56  1  0  0  0
 48 65  1  0  0  0
 48115  1  0  0  0
 49 50  1  0  0  0
 49 53  1  0  0  0
 49 64  1  0  0  0
 49116  1  0  0  0
 50 51  1  0  0  0
 50117  1  0  0  0
 50118  1  0  0  0
 51 52  1  0  0  0
 51119  1  0  0  0
 51120  1  0  0  0
 52121  1  0  0  0
 52122  1  0  0  0
 53 54  1  0  0  0
 54 55  2  0  0  0
 54123  1  0  0  0
 55 57  1  0  0  0
 55124  1  0  0  0
 56 69  2  0  0  0
 57 58  2  0  0  0
 57125  1  0  0  0
 58126  1  0  0  0
 59 60  1  0  0  0
 59 61  1  0  0  0
 59 62  1  0  0  0
 60127  1  0  0  0
 60128  1  0  0  0
 60129  1  0  0  0
 61130  1  0  0  0
 61131  1  0  0  0
 61132  1  0  0  0
 62133  1  0  0  0
 62134  1  0  0  0
 62135  1  0  0  0
 63 65  1  0  0  0
 63136  1  0  0  0
 63137  1  0  0  0
 63138  1  0  0  0
 64139  1  0  0  0
 65140  1  0  0  0
 68 78  1  0  0  0
 71 72  2  0  0  0
 71 73  1  0  0  0
 71141  1  0  0  0
 72 75  1  0  0  0
 72142  1  0  0  0
 73 76  2  0  0  0
 73143  1  0  0  0
 74 75  2  0  0  0
 74 76  1  0  0  0
 74144  1  0  0  0
 75 80  1  0  0  0
 76 81  1  0  0  0
 77 78  2  0  0  0
 77 79  1  0  0  0
 77145  1  0  0  0
 78146  1  0  0  0
 79 81  1  0  0  0
 79147  1  0  0  0
 79148  1  0  0  0
 80149  1  0  0  0
M  ISO  4   1 100  68 101  78 101  80 100
M  END
> <chiral flag>
0

> <version>
0

> <s_m_source_file>
/data/baiqing/PycharmProjects/Reinvent-master-3.2/result/LINK_invent/BTK/process_docking_weight1_custom_product_contain_oxygen_bond_distance_aromatic_linkinvent_7_9_3/rearranged_h_0078.sdf

> <i_m_source_file_index>
7

> <r_mmod_Potential_Energy-OPLS-2005>
320.242004394531

> <r_mmod_Stretch_Energy-OPLS-2005>
151.814071655273

> <r_mmod_Bend_Energy-OPLS-2005>
234.509658813477

> <r_mmod_Torsional_Energy-OPLS-2005>
220.175201416016

> <r_mmod_Improper_Torsional_Energy-OPLS-2005>
4.48681783676147

> <r_mmod_Van_der_Waal_Energy-OPLS-2005>
146.677871704102

> <r_mmod_Electrostatic_Energy-OPLS-2005>
-352.606414794922

> <r_mmod_Solvation_Energy-OPLS-2005>
-205.108306884766

> <b_mmod_Minimization_Converged-OPLS-2005>
0

> <r_mmod_RMS_Derivative-OPLS-2005>
0.874834835529327

$$$$
7
                    3D
 Structure written by MMmdl.
154163  0  0  1  0            999 V2000
  -30.5884  -14.6371   20.5391 C   0  0  0  0  0  0
  -30.4526  -12.3999   19.4452 C   0  0  0  0  0  0
  -29.5135  -12.5235   18.2228 C   0  0  0  0  0  0
  -28.0339  -12.3577   18.6293 C   0  0  0  0  0  0
  -27.6592  -13.2081   19.8723 C   0  0  2  0  0  0
  -28.7031  -13.0152   20.9958 C   0  0  0  0  0  0
  -25.2591  -13.8151   20.5689 C   0  0  0  0  0  0
  -24.1838  -13.0434   20.9175 C   0  0  0  0  0  0
  -24.6389  -11.6900   20.8726 C   0  0  0  0  0  0
  -23.9050  -10.4292   21.0402 C   0  0  0  0  0  0
  -24.3605   -9.4212   21.9180 C   0  0  0  0  0  0
  -23.6281   -8.2245   22.0755 C   0  0  0  0  0  0
  -22.4267   -8.0275   21.3540 C   0  0  0  0  0  0
  -21.9895   -9.0252   20.4651 C   0  0  0  0  0  0
  -22.7217  -10.2134   20.3059 C   0  0  0  0  0  0
  -21.6853   -6.0726   22.5275 C   0  0  0  0  0  0
  -21.4017   -6.5636   23.8207 C   0  0  0  0  0  0
  -21.3660   -5.6791   24.9168 C   0  0  0  0  0  0
  -21.6046   -4.3051   24.7223 C   0  0  0  0  0  0
  -21.8821   -3.8138   23.4346 C   0  0  0  0  0  0
  -21.9192   -4.6953   22.3402 C   0  0  0  0  0  0
  -22.7863  -13.5242   21.1835 C   0  0  0  0  0  0
  -22.1660   -4.2136   21.0980 F   0  0  0  0  0  0
  -21.5628   -3.4538   25.7736 F   0  0  0  0  0  0
  -30.0212  -13.3907   20.4498 N   0  0  0  0  0  0
  -26.3012  -12.9312   20.3330 N   0  0  0  0  0  0
  -25.9315  -11.6475   20.5741 N   0  0  0  0  0  0
  -22.0501  -12.8250   22.0401 N   0  0  0  0  0  0
  -25.4331  -15.1874   20.4141 N   0  0  0  0  0  0
  -31.7149  -14.8754   20.0906 O   0  0  0  0  0  0
  -21.6637   -6.8866   21.4236 O   0  0  0  0  0  0
  -22.3559  -14.5551   20.6678 O   0  0  0  0  0  0
  -24.6254  -31.8600   23.2029 C   0  0  0  0  0  0
  -25.9103  -32.4778   23.8356 C   0  0  1  0  0  0
  -27.2273  -27.3207   20.1152 C   0  0  0  0  0  0
  -25.5920  -33.8580   24.2280 N   0  0  0  0  0  0
  -23.4188  -30.4837   21.5455 C   0  0  2  0  0  0
  -24.8648  -28.9358   20.1155 C   0  0  0  0  0  0
  -22.7469  -29.4628   22.4941 C   0  0  0  0  0  0
  -18.0285  -28.1384   22.8488 C   0  0  0  0  0  0
  -24.1489  -36.7298   23.2636 C   0  0  0  0  0  0
  -25.9600  -30.7900   21.3749 C   0  0  0  0  0  0
  -26.0334  -29.4169   20.7181 C   0  0  0  0  0  0
  -27.2167  -28.6213   20.7070 C   0  0  0  0  0  0
  -26.0338  -26.8911   19.4905 C   0  0  0  0  0  0
  -24.8664  -27.6775   19.4951 C   0  0  0  0  0  0
  -23.6337  -29.8168   20.1618 C   0  0  0  0  0  0
  -25.4112  -36.3082   24.0327 C   0  0  1  0  0  0
  -20.5885  -28.3686   23.1285 C   0  0  2  0  0  0
  -20.6774  -26.9411   22.5406 C   0  0  0  0  0  0
  -19.5748  -26.6381   21.5211 C   0  0  0  0  0  0
  -18.1931  -26.7923   22.1631 C   0  0  0  0  0  0
  -19.1538  -28.8850   23.2882 C   0  0  0  0  0  0
  -18.9462  -30.1454   23.8897 C   0  0  0  0  0  0
  -17.6463  -30.6587   24.0565 C   0  0  0  0  0  0
  -25.9048  -34.9450   23.5101 C   0  0  0  0  0  0
  -16.5354  -29.9087   23.6330 C   0  0  0  0  0  0
  -16.7275  -28.6504   23.0351 C   0  0  0  0  0  0
  -26.4491  -31.6591   25.0727 C   0  0  0  0  0  0
  -25.3733  -31.3754   26.1468 C   0  0  0  0  0  0
  -27.0322  -30.3007   24.6189 C   0  0  0  0  0  0
  -27.6057  -32.4323   25.7488 C   0  0  0  0  0  0
  -27.5585  -37.1793   24.8457 C   0  0  0  0  0  0
  -21.4184  -29.3044   22.3683 N   0  0  0  0  0  0
  -26.4290  -37.3777   23.9414 N   0  0  0  0  0  0
  -24.6868  -31.0611   22.0980 N   0  0  0  0  0  0
  -23.4194  -28.8169   23.3020 O   0  0  0  0  0  0
  -28.3687  -26.5046   20.1274 O   0  0  0  0  0  0
  -26.5620  -34.8917   22.4670 O   0  0  0  0  0  0
  -23.5417  -32.1402   23.7354 O   0  0  0  0  0  0
  -30.3171  -18.1116   20.3607 C   0  0  0  0  0  0
  -28.5004  -17.6265   21.5776 C   0  0  0  0  0  0
  -29.5858  -17.0319   20.9902 C   0  0  0  0  0  0
  -29.5917  -19.2798   20.6177 C   0  0  0  0  0  0
  -29.8712  -22.9098   19.8975 C   0  0  0  0  0  0
  -31.1202  -22.3777   19.4035 C   0  0  0  0  0  0
  -29.1331  -21.7373   20.4219 C   0  0  0  0  0  0
  -32.1401  -23.0845   18.8821 C   0  0  0  0  0  0
  -29.5057  -24.2418   19.8319 C   0  0  0  0  0  0
  -31.1505  -20.8839   19.5622 C   0  0  0  0  0  0
  -28.2290  -25.0307   20.2281 C   0  0  0  0  0  0
  -29.8867  -20.5870   20.2356 N   0  0  0  0  0  0
  -29.7665  -15.5840   21.0850 N   0  0  0  0  0  0
  -28.0140  -21.7735   20.9425 O   0  0  0  0  0  0
  -28.4871  -18.9783   21.3609 O   0  0  0  0  0  0
  -31.4906  -12.5531   19.1435 H   0  0  0  0  0  0
  -30.4092  -11.3943   19.8656 H   0  0  0  0  0  0
  -29.7783  -11.7816   17.4685 H   0  0  0  0  0  0
  -29.6533  -13.4984   17.7529 H   0  0  0  0  0  0
  -27.8645  -11.3010   18.8399 H   0  0  0  0  0  0
  -27.3822  -12.6081   17.7916 H   0  0  0  0  0  0
  -27.6889  -14.2515   19.5575 H   0  0  0  0  0  0
  -28.7192  -11.9748   21.3238 H   0  0  0  0  0  0
  -28.4361  -13.5890   21.8846 H   0  0  0  0  0  0
  -25.2753   -9.5692   22.4747 H   0  0  0  0  0  0
  -23.9987   -7.4650   22.7488 H   0  0  0  0  0  0
  -21.0812   -8.8773   19.8973 H   0  0  0  0  0  0
  -22.3665  -10.9674   19.6172 H   0  0  0  0  0  0
  -21.2020   -7.6147   23.9706 H   0  0  0  0  0  0
  -21.1478   -6.0521   25.9070 H   0  0  0  0  0  0
  -22.0601   -2.7598   23.2849 H   0  0  0  0  0  0
  -22.4096  -11.9908   22.4800 H   0  0  0  0  0  0
  -21.1135  -13.1311   22.2625 H   0  0  0  0  0  0
  -24.6663  -15.8422   20.5251 H   0  0  0  0  0  0
  -26.2793  -15.6248   20.0726 H   0  0  0  0  0  0
  -26.7174  -32.5446   23.1107 H   0  0  0  0  0  0
  -25.0060  -33.9725   25.0422 H   0  0  0  0  0  0
  -22.7122  -31.3038   21.4017 H   0  0  0  0  0  0
  -23.3745  -35.9635   23.3284 H   0  0  0  0  0  0
  -24.3586  -36.8933   22.2054 H   0  0  0  0  0  0
  -23.7243  -37.6496   23.6669 H   0  0  0  0  0  0
  -26.0922  -31.5533   20.6068 H   0  0  0  0  0  0
  -26.8404  -30.8377   22.0045 H   0  0  0  0  0  0
  -28.1164  -28.9891   21.1803 H   0  0  0  0  0  0
  -25.9735  -25.9449   18.9767 H   0  0  0  0  0  0
  -23.9718  -27.3048   19.0151 H   0  0  0  0  0  0
  -23.7549  -30.5929   19.4056 H   0  0  0  0  0  0
  -22.7534  -29.2472   19.8583 H   0  0  0  0  0  0
  -25.1287  -36.1929   25.0818 H   0  0  0  0  0  0
  -20.9976  -28.3257   24.1406 H   0  0  0  0  0  0
  -20.5678  -26.2297   23.3604 H   0  0  0  0  0  0
  -21.6641  -26.7442   22.1198 H   0  0  0  0  0  0
  -19.6911  -25.6290   21.1241 H   0  0  0  0  0  0
  -19.6686  -27.3193   20.6741 H   0  0  0  0  0  0
  -17.4195  -26.6660   21.4040 H   0  0  0  0  0  0
  -18.0347  -26.0070   22.9038 H   0  0  0  0  0  0
  -19.7938  -30.7267   24.2268 H   0  0  0  0  0  0
  -17.5018  -31.6266   24.5168 H   0  0  0  0  0  0
  -15.5355  -30.2993   23.7647 H   0  0  0  0  0  0
  -15.8675  -28.0823   22.7066 H   0  0  0  0  0  0
  -24.5851  -30.7172   25.7798 H   0  0  0  0  0  0
  -24.9000  -32.2942   26.4939 H   0  0  0  0  0  0
  -25.8049  -30.8876   27.0216 H   0  0  0  0  0  0
  -26.2894  -29.6759   24.1215 H   0  0  0  0  0  0
  -27.4010  -29.7264   25.4698 H   0  0  0  0  0  0
  -27.8770  -30.4282   23.9417 H   0  0  0  0  0  0
  -27.2670  -33.3621   26.2070 H   0  0  0  0  0  0
  -28.3859  -32.6887   25.0309 H   0  0  0  0  0  0
  -28.0732  -31.8444   26.5397 H   0  0  0  0  0  0
  -28.2579  -38.0112   24.7525 H   0  0  0  0  0  0
  -28.1099  -36.2639   24.6248 H   0  0  0  0  0  0
  -27.2306  -37.1397   25.8860 H   0  0  0  0  0  0
  -20.9358  -29.8772   21.6901 H   0  0  0  0  0  0
  -26.0163  -38.2846   24.1430 H   0  0  0  0  0  0
  -31.2357  -18.0423   19.7962 H   0  0  0  0  0  0
  -27.6659  -17.2571   22.1590 H   0  0  0  0  0  0
  -32.1192  -24.1590   18.7782 H   0  0  0  0  0  0
  -33.0373  -22.5844   18.5446 H   0  0  0  0  0  0
  -30.2180  -24.9091   19.3747 H   0  0  0  0  0  0
  -32.0057  -20.5744   20.1649 H   0  0  0  0  0  0
  -31.1995  -20.3937   18.5885 H   0  0  0  0  0  0
  -27.9529  -24.7671   21.2497 H   0  0  0  0  0  0
  -27.4449  -24.6417   19.5833 H   0  0  0  0  0  0
  -28.9792  -15.1277   21.5210 H   0  0  0  0  0  0
  1 25  1  0  0  0
  1 30  2  0  0  0
  1 83  1  0  0  0
  2  3  1  0  0  0
  2 25  1  0  0  0
  2 86  1  0  0  0
  2 87  1  0  0  0
  3  4  1  0  0  0
  3 88  1  0  0  0
  3 89  1  0  0  0
  4  5  1  0  0  0
  4 90  1  0  0  0
  4 91  1  0  0  0
  5  6  1  0  0  0
  5 26  1  0  0  0
  5 92  1  0  0  0
  6 25  1  0  0  0
  6 93  1  0  0  0
  6 94  1  0  0  0
  7  8  2  0  0  0
  7 26  1  0  0  0
  7 29  1  0  0  0
  8  9  1  0  0  0
  8 22  1  0  0  0
  9 10  1  0  0  0
  9 27  2  0  0  0
 10 11  2  0  0  0
 10 15  1  0  0  0
 11 12  1  0  0  0
 11 95  1  0  0  0
 12 13  2  0  0  0
 12 96  1  0  0  0
 13 14  1  0  0  0
 13 31  1  0  0  0
 14 15  2  0  0  0
 14 97  1  0  0  0
 15 98  1  0  0  0
 16 17  2  0  0  0
 16 21  1  0  0  0
 16 31  1  0  0  0
 17 18  1  0  0  0
 17 99  1  0  0  0
 18 19  2  0  0  0
 18100  1  0  0  0
 19 20  1  0  0  0
 19 24  1  0  0  0
 20 21  2  0  0  0
 20101  1  0  0  0
 21 23  1  0  0  0
 22 28  1  0  0  0
 22 32  2  0  0  0
 26 27  1  0  0  0
 28102  1  0  0  0
 28103  1  0  0  0
 29104  1  0  0  0
 29105  1  0  0  0
 33 34  1  0  0  0
 33 66  1  0  0  0
 33 70  2  0  0  0
 34 36  1  0  0  0
 34 59  1  0  0  0
 34106  1  0  0  0
 35 44  2  0  0  0
 35 45  1  0  0  0
 35 68  1  0  0  0
 36 56  1  0  0  0
 36107  1  0  0  0
 37 39  1  0  0  0
 37 47  1  0  0  0
 37 66  1  0  0  0
 37108  1  0  0  0
 38 43  2  0  0  0
 38 46  1  0  0  0
 38 47  1  0  0  0
 39 64  1  0  0  0
 39 67  2  0  0  0
 40 52  1  0  0  0
 40 53  2  0  0  0
 40 58  1  0  0  0
 41109  1  0  0  0
 41110  1  0  0  0
 41111  1  0  0  0
 41 48  1  0  0  0
 42 43  1  0  0  0
 42 66  1  0  0  0
 42112  1  0  0  0
 42113  1  0  0  0
 43 44  1  0  0  0
 44114  1  0  0  0
 45 46  2  0  0  0
 45115  1  0  0  0
 46116  1  0  0  0
 47117  1  0  0  0
 47118  1  0  0  0
 48 56  1  0  0  0
 48 65  1  0  0  0
 48119  1  0  0  0
 49 50  1  0  0  0
 49 53  1  0  0  0
 49 64  1  0  0  0
 49120  1  0  0  0
 50 51  1  0  0  0
 50121  1  0  0  0
 50122  1  0  0  0
 51 52  1  0  0  0
 51123  1  0  0  0
 51124  1  0  0  0
 52125  1  0  0  0
 52126  1  0  0  0
 53 54  1  0  0  0
 54 55  2  0  0  0
 54127  1  0  0  0
 55 57  1  0  0  0
 55128  1  0  0  0
 56 69  2  0  0  0
 57 58  2  0  0  0
 57129  1  0  0  0
 58130  1  0  0  0
 59 60  1  0  0  0
 59 61  1  0  0  0
 59 62  1  0  0  0
 60131  1  0  0  0
 60132  1  0  0  0
 60133  1  0  0  0
 61134  1  0  0  0
 61135  1  0  0  0
 61136  1  0  0  0
 62137  1  0  0  0
 62138  1  0  0  0
 62139  1  0  0  0
 63 65  1  0  0  0
 63140  1  0  0  0
 63141  1  0  0  0
 63142  1  0  0  0
 64143  1  0  0  0
 65144  1  0  0  0
 68 81  1  0  0  0
 71 73  1  0  0  0
 71 74  2  0  0  0
 71145  1  0  0  0
 72 73  2  0  0  0
 72 85  1  0  0  0
 72146  1  0  0  0
 73 83  1  0  0  0
 74 82  1  0  0  0
 74 85  1  0  0  0
 75 76  1  0  0  0
 75 77  1  0  0  0
 75 79  2  0  0  0
 76 78  2  0  0  0
 76 80  1  0  0  0
 77 82  1  0  0  0
 77 84  2  0  0  0
 78147  1  0  0  0
 78148  1  0  0  0
 79 81  1  0  0  0
 79149  1  0  0  0
 80 82  1  0  0  0
 80150  1  0  0  0
 80151  1  0  0  0
 81152  1  0  0  0
 81153  1  0  0  0
 83154  1  0  0  0
M  ISO  4   1 100  68 101  81 101  83 100
M  END
> <chiral flag>
0

> <version>
0

> <s_m_source_file>
/data/baiqing/PycharmProjects/Reinvent-master-3.2/result/LINK_invent/BTK/process_docking_weight1_custom_product_contain_oxygen_bond_distance_aromatic_linkinvent_7_9_3/rearranged_h_0078.sdf

> <i_m_source_file_index>
8

> <r_mmod_Potential_Energy-OPLS-2005>
150.131927490234

> <r_mmod_Stretch_Energy-OPLS-2005>
75.6515350341797

> <r_mmod_Bend_Energy-OPLS-2005>
224.065505981445

> <r_mmod_Torsional_Energy-OPLS-2005>
248.120727539062

> <r_mmod_Improper_Torsional_Energy-OPLS-2005>
3.21090388298035

> <r_mmod_Van_der_Waal_Energy-OPLS-2005>
124.216003417969

> <r_mmod_Electrostatic_Energy-OPLS-2005>
-348.461303710938

> <r_mmod_Solvation_Energy-OPLS-2005>
-222.711471557617

> <b_mmod_Minimization_Converged-OPLS-2005>
0

> <r_mmod_RMS_Derivative-OPLS-2005>
0.901687324047089

$$$$
8
                    3D
 Structure written by MMmdl.
153162  0  0  1  0            999 V2000
  -30.5610  -14.7790   20.4633 C   0  0  0  0  0  0
  -30.4471  -12.4740   19.4775 C   0  0  0  0  0  0
  -29.5173  -12.5190   18.2418 C   0  0  0  0  0  0
  -28.0437  -12.3325   18.6538 C   0  0  0  0  0  0
  -27.6478  -13.2267   19.8584 C   0  0  2  0  0  0
  -28.6915  -13.1385   20.9945 C   0  0  0  0  0  0
  -25.2540  -13.8182   20.5691 C   0  0  0  0  0  0
  -24.1821  -13.0437   20.9200 C   0  0  0  0  0  0
  -24.6406  -11.6913   20.8749 C   0  0  0  0  0  0
  -23.9076  -10.4293   21.0407 C   0  0  0  0  0  0
  -24.3625   -9.4204   21.9184 C   0  0  0  0  0  0
  -23.6296   -8.2241   22.0756 C   0  0  0  0  0  0
  -22.4276   -8.0285   21.3544 C   0  0  0  0  0  0
  -21.9916   -9.0261   20.4649 C   0  0  0  0  0  0
  -22.7249  -10.2138   20.3056 C   0  0  0  0  0  0
  -21.6852   -6.0739   22.5278 C   0  0  0  0  0  0
  -21.4015   -6.5643   23.8210 C   0  0  0  0  0  0
  -21.3657   -5.6796   24.9173 C   0  0  0  0  0  0
  -21.6041   -4.3059   24.7222 C   0  0  0  0  0  0
  -21.8820   -3.8151   23.4344 C   0  0  0  0  0  0
  -21.9192   -4.6967   22.3402 C   0  0  0  0  0  0
  -22.7841  -13.5223   21.1855 C   0  0  0  0  0  0
  -22.1660   -4.2153   21.0979 F   0  0  0  0  0  0
  -21.5626   -3.4542   25.7733 F   0  0  0  0  0  0
  -29.9938  -13.5198   20.4261 N   0  0  0  0  0  0
  -26.2969  -12.9379   20.3305 N   0  0  0  0  0  0
  -25.9337  -11.6525   20.5764 N   0  0  0  0  0  0
  -22.0492  -12.8217   22.0420 N   0  0  0  0  0  0
  -25.4242  -15.1905   20.4098 N   0  0  0  0  0  0
  -31.7220  -14.9402   20.0718 O   0  0  0  0  0  0
  -21.6639   -6.8882   21.4239 O   0  0  0  0  0  0
  -22.3523  -14.5526   20.6699 O   0  0  0  0  0  0
  -24.6334  -31.8515   23.1948 C   0  0  0  0  0  0
  -25.9147  -32.4734   23.8304 C   0  0  1  0  0  0
  -27.2319  -27.2453   20.1186 C   0  0  0  0  0  0
  -25.5930  -33.8538   24.2229 N   0  0  0  0  0  0
  -23.4325  -30.4715   21.5381 C   0  0  2  0  0  0
  -24.8821  -28.9154   20.1042 C   0  0  0  0  0  0
  -22.7517  -29.4577   22.4898 C   0  0  0  0  0  0
  -18.0294  -28.1388   22.8484 C   0  0  0  0  0  0
  -24.1488  -36.7274   23.2640 C   0  0  0  0  0  0
  -25.9793  -30.7586   21.3768 C   0  0  0  0  0  0
  -26.0538  -29.3805   20.7144 C   0  0  0  0  0  0
  -27.2275  -28.5566   20.7127 C   0  0  0  0  0  0
  -26.0304  -26.8447   19.4936 C   0  0  0  0  0  0
  -24.8767  -27.6561   19.4827 C   0  0  0  0  0  0
  -23.6517  -29.8028   20.1546 C   0  0  0  0  0  0
  -25.4116  -36.3057   24.0322 C   0  0  1  0  0  0
  -20.5900  -28.3700   23.1265 C   0  0  2  0  0  0
  -20.6780  -26.9413   22.5411 C   0  0  0  0  0  0
  -19.5755  -26.6382   21.5216 C   0  0  0  0  0  0
  -18.1937  -26.7928   22.1628 C   0  0  0  0  0  0
  -19.1548  -28.8863   23.2867 C   0  0  0  0  0  0
  -18.9469  -30.1463   23.8887 C   0  0  0  0  0  0
  -17.6467  -30.6588   24.0563 C   0  0  0  0  0  0
  -25.9061  -34.9430   23.5083 C   0  0  0  0  0  0
  -16.5358  -29.9085   23.6331 C   0  0  0  0  0  0
  -16.7280  -28.6503   23.0352 C   0  0  0  0  0  0
  -26.4511  -31.6574   25.0708 C   0  0  0  0  0  0
  -25.3725  -31.3730   26.1420 C   0  0  0  0  0  0
  -27.0375  -30.2989   24.6218 C   0  0  0  0  0  0
  -27.6049  -32.4333   25.7487 C   0  0  0  0  0  0
  -27.5581  -37.1783   24.8461 C   0  0  0  0  0  0
  -21.4221  -29.3036   22.3646 N   0  0  0  0  0  0
  -26.4285  -37.3763   23.9416 N   0  0  0  0  0  0
  -24.7009  -31.0454   22.0931 N   0  0  0  0  0  0
  -23.4202  -28.8126   23.3018 O   0  0  0  0  0  0
  -28.3079  -26.3242   20.2463 O   0  0  0  0  0  0
  -26.5643  -34.8915   22.4659 O   0  0  0  0  0  0
  -23.5476  -32.1349   23.7226 O   0  0  0  0  0  0
  -28.8299  -19.5561   21.4629 C   0  0  0  0  0  0
  -30.0612  -19.5092   19.4683 C   0  0  0  0  0  0
  -28.9933  -18.1331   21.5971 C   0  0  0  0  0  0
  -30.2642  -18.0828   19.6008 C   0  0  0  0  0  0
  -29.3329  -20.3467   20.3839 C   0  0  0  0  0  0
  -29.7221  -17.3225   20.6782 C   0  0  0  0  0  0
  -28.7106  -23.8209   19.7852 C   0  0  0  0  0  0
  -28.7523  -22.9941   20.9992 C   0  0  0  0  0  0
  -28.4855  -25.1611   19.4322 C   0  0  0  0  0  0
  -29.0351  -22.5422   18.9613 C   0  0  0  0  0  0
  -28.5809  -25.5599   17.9672 C   0  0  0  0  0  0
  -29.1297  -21.8293   20.2528 N   0  0  0  0  0  0
  -29.7394  -15.8347   20.8454 N   0  0  0  0  0  0
  -28.5027  -23.2585   22.1575 O   0  0  0  0  0  0
  -31.4846  -12.6215   19.1730 H   0  0  0  0  0  0
  -30.4131  -11.4916   19.9516 H   0  0  0  0  0  0
  -29.8054  -11.7488   17.5249 H   0  0  0  0  0  0
  -29.6345  -13.4744   17.7284 H   0  0  0  0  0  0
  -27.9068  -11.2827   18.9153 H   0  0  0  0  0  0
  -27.3839  -12.5224   17.8062 H   0  0  0  0  0  0
  -27.6475  -14.2521   19.4879 H   0  0  0  0  0  0
  -28.7342  -12.1275   21.4021 H   0  0  0  0  0  0
  -28.4142  -13.7849   21.8281 H   0  0  0  0  0  0
  -25.2771   -9.5675   22.4759 H   0  0  0  0  0  0
  -24.0000   -7.4633   22.7480 H   0  0  0  0  0  0
  -21.0844   -8.8787   19.8957 H   0  0  0  0  0  0
  -22.3710  -10.9681   19.6169 H   0  0  0  0  0  0
  -21.2011   -7.6152   23.9716 H   0  0  0  0  0  0
  -21.1477   -6.0527   25.9076 H   0  0  0  0  0  0
  -22.0601   -2.7613   23.2843 H   0  0  0  0  0  0
  -22.4115  -11.9878   22.4798 H   0  0  0  0  0  0
  -21.1114  -13.1241   22.2635 H   0  0  0  0  0  0
  -24.6549  -15.8432   20.5125 H   0  0  0  0  0  0
  -26.2695  -15.6289   20.0667 H   0  0  0  0  0  0
  -26.7212  -32.5376   23.1041 H   0  0  0  0  0  0
  -25.0058  -33.9666   25.0361 H   0  0  0  0  0  0
  -22.7302  -31.2945   21.3897 H   0  0  0  0  0  0
  -23.3752  -35.9604   23.3295 H   0  0  0  0  0  0
  -24.3577  -36.8906   22.2056 H   0  0  0  0  0  0
  -23.7240  -37.6471   23.6673 H   0  0  0  0  0  0
  -26.1212  -31.5206   20.6092 H   0  0  0  0  0  0
  -26.8551  -30.8062   22.0125 H   0  0  0  0  0  0
  -28.1200  -28.9010   21.2157 H   0  0  0  0  0  0
  -25.9556  -25.8643   19.0469 H   0  0  0  0  0  0
  -23.9763  -27.2880   19.0101 H   0  0  0  0  0  0
  -23.7747  -30.5790   19.3985 H   0  0  0  0  0  0
  -22.7703  -29.2356   19.8503 H   0  0  0  0  0  0
  -25.1299  -36.1895   25.0813 H   0  0  0  0  0  0
  -20.9993  -28.3282   24.1386 H   0  0  0  0  0  0
  -20.5681  -26.2310   23.3619 H   0  0  0  0  0  0
  -21.6646  -26.7432   22.1205 H   0  0  0  0  0  0
  -19.6917  -25.6292   21.1248 H   0  0  0  0  0  0
  -19.6695  -27.3191   20.6745 H   0  0  0  0  0  0
  -17.4205  -26.6674   21.4031 H   0  0  0  0  0  0
  -18.0338  -26.0073   22.9030 H   0  0  0  0  0  0
  -19.7946  -30.7283   24.2249 H   0  0  0  0  0  0
  -17.5022  -31.6266   24.5171 H   0  0  0  0  0  0
  -15.5359  -30.2985   23.7661 H   0  0  0  0  0  0
  -15.8680  -28.0822   22.7069 H   0  0  0  0  0  0
  -24.5918  -30.7057   25.7751 H   0  0  0  0  0  0
  -24.8895  -32.2898   26.4806 H   0  0  0  0  0  0
  -25.8036  -30.8942   27.0219 H   0  0  0  0  0  0
  -26.2973  -29.6715   24.1235 H   0  0  0  0  0  0
  -27.4045  -29.7272   25.4752 H   0  0  0  0  0  0
  -27.8851  -30.4262   23.9479 H   0  0  0  0  0  0
  -27.2636  -33.3630   26.2050 H   0  0  0  0  0  0
  -28.3863  -32.6899   25.0323 H   0  0  0  0  0  0
  -28.0714  -31.8473   26.5415 H   0  0  0  0  0  0
  -28.2575  -38.0102   24.7539 H   0  0  0  0  0  0
  -28.1100  -36.2635   24.6247 H   0  0  0  0  0  0
  -27.2304  -37.1380   25.8863 H   0  0  0  0  0  0
  -20.9413  -29.8746   21.6835 H   0  0  0  0  0  0
  -26.0159  -38.2829   24.1442 H   0  0  0  0  0  0
  -28.2587  -20.0595   22.2302 H   0  0  0  0  0  0
  -30.5038  -19.9832   18.6039 H   0  0  0  0  0  0
  -28.5248  -17.6564   22.4469 H   0  0  0  0  0  0
  -30.8222  -17.5702   18.8295 H   0  0  0  0  0  0
  -29.9813  -22.5217   18.4185 H   0  0  0  0  0  0
  -28.2359  -22.1393   18.3368 H   0  0  0  0  0  0
  -27.6543  -25.3257   17.4434 H   0  0  0  0  0  0
  -29.3919  -25.0246   17.4728 H   0  0  0  0  0  0
  -28.7787  -26.6262   17.8557 H   0  0  0  0  0  0
  -28.9115  -15.4834   21.3031 H   0  0  0  0  0  0
  1 25  1  0  0  0
  1 30  2  0  0  0
  1 83  1  0  0  0
  2  3  1  0  0  0
  2 25  1  0  0  0
  2 85  1  0  0  0
  2 86  1  0  0  0
  3  4  1  0  0  0
  3 87  1  0  0  0
  3 88  1  0  0  0
  4  5  1  0  0  0
  4 89  1  0  0  0
  4 90  1  0  0  0
  5  6  1  0  0  0
  5 26  1  0  0  0
  5 91  1  0  0  0
  6 25  1  0  0  0
  6 92  1  0  0  0
  6 93  1  0  0  0
  7  8  2  0  0  0
  7 26  1  0  0  0
  7 29  1  0  0  0
  8  9  1  0  0  0
  8 22  1  0  0  0
  9 10  1  0  0  0
  9 27  2  0  0  0
 10 11  2  0  0  0
 10 15  1  0  0  0
 11 12  1  0  0  0
 11 94  1  0  0  0
 12 13  2  0  0  0
 12 95  1  0  0  0
 13 14  1  0  0  0
 13 31  1  0  0  0
 14 15  2  0  0  0
 14 96  1  0  0  0
 15 97  1  0  0  0
 16 17  2  0  0  0
 16 21  1  0  0  0
 16 31  1  0  0  0
 17 18  1  0  0  0
 17 98  1  0  0  0
 18 19  2  0  0  0
 18 99  1  0  0  0
 19 20  1  0  0  0
 19 24  1  0  0  0
 20 21  2  0  0  0
 20100  1  0  0  0
 21 23  1  0  0  0
 22 28  1  0  0  0
 22 32  2  0  0  0
 26 27  1  0  0  0
 28101  1  0  0  0
 28102  1  0  0  0
 29103  1  0  0  0
 29104  1  0  0  0
 33 34  1  0  0  0
 33 66  1  0  0  0
 33 70  2  0  0  0
 34 36  1  0  0  0
 34 59  1  0  0  0
 34105  1  0  0  0
 35 44  2  0  0  0
 35 45  1  0  0  0
 35 68  1  0  0  0
 36 56  1  0  0  0
 36106  1  0  0  0
 37 39  1  0  0  0
 37 47  1  0  0  0
 37 66  1  0  0  0
 37107  1  0  0  0
 38 43  2  0  0  0
 38 46  1  0  0  0
 38 47  1  0  0  0
 39 64  1  0  0  0
 39 67  2  0  0  0
 40 52  1  0  0  0
 40 53  2  0  0  0
 40 58  1  0  0  0
 41108  1  0  0  0
 41109  1  0  0  0
 41110  1  0  0  0
 41 48  1  0  0  0
 42 43  1  0  0  0
 42 66  1  0  0  0
 42111  1  0  0  0
 42112  1  0  0  0
 43 44  1  0  0  0
 44113  1  0  0  0
 45 46  2  0  0  0
 45114  1  0  0  0
 46115  1  0  0  0
 47116  1  0  0  0
 47117  1  0  0  0
 48 56  1  0  0  0
 48 65  1  0  0  0
 48118  1  0  0  0
 49 50  1  0  0  0
 49 53  1  0  0  0
 49 64  1  0  0  0
 49119  1  0  0  0
 50 51  1  0  0  0
 50120  1  0  0  0
 50121  1  0  0  0
 51 52  1  0  0  0
 51122  1  0  0  0
 51123  1  0  0  0
 52124  1  0  0  0
 52125  1  0  0  0
 53 54  1  0  0  0
 54 55  2  0  0  0
 54126  1  0  0  0
 55 57  1  0  0  0
 55127  1  0  0  0
 56 69  2  0  0  0
 57 58  2  0  0  0
 57128  1  0  0  0
 58129  1  0  0  0
 59 60  1  0  0  0
 59 61  1  0  0  0
 59 62  1  0  0  0
 60130  1  0  0  0
 60131  1  0  0  0
 60132  1  0  0  0
 61133  1  0  0  0
 61134  1  0  0  0
 61135  1  0  0  0
 62136  1  0  0  0
 62137  1  0  0  0
 62138  1  0  0  0
 63 65  1  0  0  0
 63139  1  0  0  0
 63140  1  0  0  0
 63141  1  0  0  0
 64142  1  0  0  0
 65143  1  0  0  0
 68 79  1  0  0  0
 71 73  2  0  0  0
 71 75  1  0  0  0
 71144  1  0  0  0
 72 74  1  0  0  0
 72 75  2  0  0  0
 72145  1  0  0  0
 73 76  1  0  0  0
 73146  1  0  0  0
 74 76  2  0  0  0
 74147  1  0  0  0
 75 82  1  0  0  0
 76 83  1  0  0  0
 77 78  1  0  0  0
 77 79  2  0  0  0
 77 80  1  0  0  0
 78 82  1  0  0  0
 78 84  2  0  0  0
 79 81  1  0  0  0
 80 82  1  0  0  0
 80148  1  0  0  0
 80149  1  0  0  0
 81150  1  0  0  0
 81151  1  0  0  0
 81152  1  0  0  0
 83153  1  0  0  0
M  ISO  4   1 100  68 101  79 101  83 100
M  END
> <chiral flag>
0

> <version>
0

> <s_m_source_file>
/data/baiqing/PycharmProjects/Reinvent-master-3.2/result/LINK_invent/BTK/process_docking_weight1_custom_product_contain_oxygen_bond_distance_aromatic_linkinvent_7_9_3/rearranged_h_0078.sdf

> <i_m_source_file_index>
9

> <r_mmod_Potential_Energy-OPLS-2005>
273.821990966797

> <r_mmod_Stretch_Energy-OPLS-2005>
121.812492370605

> <r_mmod_Bend_Energy-OPLS-2005>
259.293365478516

> <r_mmod_Torsional_Energy-OPLS-2005>
237.053619384766

> <r_mmod_Improper_Torsional_Energy-OPLS-2005>
4.42620372772217

> <r_mmod_Van_der_Waal_Energy-OPLS-2005>
130.200256347656

> <r_mmod_Electrostatic_Energy-OPLS-2005>
-357.091491699219

> <r_mmod_Solvation_Energy-OPLS-2005>
-224.281585693359

> <b_mmod_Minimization_Converged-OPLS-2005>
0

> <r_mmod_RMS_Derivative-OPLS-2005>
0.780097603797913

$$$$
9
                    3D
 Structure written by MMmdl.
163172  0  0  1  0            999 V2000
  -30.6260  -14.6042   20.5155 C   0  0  0  0  0  0
  -30.4500  -12.3796   19.4055 C   0  0  0  0  0  0
  -29.5149  -12.5271   18.1859 C   0  0  0  0  0  0
  -28.0360  -12.3465   18.5906 C   0  0  0  0  0  0
  -27.6561  -13.1897   19.8387 C   0  0  2  0  0  0
  -28.7109  -13.0010   20.9507 C   0  0  0  0  0  0
  -25.2619  -13.8102   20.5487 C   0  0  0  0  0  0
  -24.1846  -13.0439   20.9217 C   0  0  0  0  0  0
  -24.6352  -11.6845   20.8764 C   0  0  0  0  0  0
  -23.8969  -10.4235   21.0455 C   0  0  0  0  0  0
  -24.3505   -9.4093   21.9205 C   0  0  0  0  0  0
  -23.6159   -8.2128   22.0762 C   0  0  0  0  0  0
  -22.4148   -8.0168   21.3553 C   0  0  0  0  0  0
  -21.9790   -9.0154   20.4656 C   0  0  0  0  0  0
  -22.7151  -10.2037   20.3097 C   0  0  0  0  0  0
  -21.6803   -6.0601   22.5279 C   0  0  0  0  0  0
  -21.3989   -6.5545   23.8201 C   0  0  0  0  0  0
  -21.3707   -5.6747   24.9206 C   0  0  0  0  0  0
  -21.6082   -4.3002   24.7289 C   0  0  0  0  0  0
  -21.8799   -3.8034   23.4424 C   0  0  0  0  0  0
  -21.9117   -4.6814   22.3441 C   0  0  0  0  0  0
  -22.7883  -13.5269   21.1883 C   0  0  0  0  0  0
  -22.1592   -4.1976   21.1030 F   0  0  0  0  0  0
  -21.5668   -3.4524   25.7824 F   0  0  0  0  0  0
  -30.0152  -13.3833   20.3933 N   0  0  0  0  0  0
  -26.2976  -12.9194   20.3075 N   0  0  0  0  0  0
  -25.9249  -11.6386   20.5612 N   0  0  0  0  0  0
  -22.0376  -12.8326   22.0381 N   0  0  0  0  0  0
  -25.4429  -15.1812   20.3654 N   0  0  0  0  0  0
  -31.8049  -14.7634   20.1833 O   0  0  0  0  0  0
  -21.6573   -6.8722   21.4226 O   0  0  0  0  0  0
  -22.3617  -14.5595   20.6697 O   0  0  0  0  0  0
  -24.6259  -31.8629   23.2041 C   0  0  0  0  0  0
  -25.9147  -32.4806   23.8385 C   0  0  1  0  0  0
  -27.2516  -27.3320   20.1647 C   0  0  0  0  0  0
  -25.5940  -33.8592   24.2292 N   0  0  0  0  0  0
  -23.4199  -30.4787   21.5539 C   0  0  2  0  0  0
  -24.8798  -28.9161   20.1467 C   0  0  0  0  0  0
  -22.7473  -29.4651   22.5051 C   0  0  0  0  0  0
  -18.0225  -28.1435   22.8489 C   0  0  0  0  0  0
  -24.1468  -36.7215   23.2611 C   0  0  0  0  0  0
  -25.9548  -30.8131   21.3502 C   0  0  0  0  0  0
  -26.0512  -29.4298   20.7207 C   0  0  0  0  0  0
  -27.2491  -28.6561   20.7026 C   0  0  0  0  0  0
  -26.0504  -26.8486   19.6115 C   0  0  0  0  0  0
  -24.8732  -27.6225   19.5949 C   0  0  0  0  0  0
  -23.6406  -29.7893   20.1838 C   0  0  0  0  0  0
  -25.4082  -36.3065   24.0316 C   0  0  1  0  0  0
  -20.5818  -28.3729   23.1335 C   0  0  2  0  0  0
  -20.6709  -26.9463   22.5429 C   0  0  0  0  0  0
  -19.5727  -26.6451   21.5198 C   0  0  0  0  0  0
  -18.1889  -26.7982   22.1583 C   0  0  0  0  0  0
  -19.1477  -28.8906   23.2885 C   0  0  0  0  0  0
  -18.9394  -30.1471   23.8981 C   0  0  0  0  0  0
  -17.6416  -30.6654   24.0559 C   0  0  0  0  0  0
  -25.9028  -34.9458   23.5071 C   0  0  0  0  0  0
  -16.5306  -29.9152   23.6343 C   0  0  0  0  0  0
  -16.7217  -28.6543   23.0403 C   0  0  0  0  0  0
  -26.4624  -31.6539   25.0708 C   0  0  0  0  0  0
  -25.3855  -31.3703   26.1430 C   0  0  0  0  0  0
  -27.0371  -30.2945   24.6006 C   0  0  0  0  0  0
  -27.6238  -32.4188   25.7482 C   0  0  0  0  0  0
  -27.5538  -37.1759   24.8496 C   0  0  0  0  0  0
  -21.4182  -29.3079   22.3784 N   0  0  0  0  0  0
  -26.4265  -37.3731   23.9438 N   0  0  0  0  0  0
  -24.6881  -31.0613   22.1000 N   0  0  0  0  0  0
  -23.4200  -28.8183   23.3131 O   0  0  0  0  0  0
  -28.3658  -26.4877   20.1655 O   0  0  0  0  0  0
  -26.5610  -34.8920   22.4655 O   0  0  0  0  0  0
  -23.5436  -32.1449   23.7358 O   0  0  0  0  0  0
  -29.5972  -19.0747   18.0281 C   0  0  0  0  0  0
  -29.8244  -18.0097   18.9211 C   0  0  0  0  0  0
  -29.4847  -20.4083   18.4837 C   0  0  0  0  0  0
  -29.8815  -19.6592   20.7215 C   0  0  0  0  0  0
  -29.9324  -18.2646   20.3060 C   0  0  0  0  0  0
  -29.6098  -20.7844   19.8461 C   0  0  0  0  0  0
  -28.7697  -24.0831   20.6981 C   0  0  0  0  0  0
  -29.1962  -23.4132   19.4841 C   0  0  0  0  0  0
  -28.0993  -16.3825   22.9576 C   0  0  0  0  0  0
  -28.8923  -17.2972   22.3649 C   0  0  0  0  0  0
  -28.3952  -25.3729   21.0309 C   0  0  0  0  0  0
  -28.8852  -22.7340   21.4436 C   0  0  0  0  0  0
  -28.0897  -25.7619   22.4813 C   0  0  0  0  0  0
  -31.3561  -17.1460   22.1249 C   0  0  0  0  0  0
  -30.0226  -17.0655   21.3490 C   0  0  2  0  0  0
  -29.4837  -22.2179   20.1915 N   0  0  0  0  0  0
  -29.8099  -15.6507   20.8580 N   0  0  0  0  0  0
  -29.1589  -23.7691   18.3187 O   0  0  0  0  0  0
  -31.4934  -12.5115   19.1080 H   0  0  0  0  0  0
  -30.3815  -11.3697   19.8135 H   0  0  0  0  0  0
  -29.7878  -11.8193   17.4022 H   0  0  0  0  0  0
  -29.6455  -13.5229   17.7557 H   0  0  0  0  0  0
  -27.8627  -11.2868   18.7831 H   0  0  0  0  0  0
  -27.3910  -12.6147   17.7532 H   0  0  0  0  0  0
  -27.6822  -14.2313   19.5241 H   0  0  0  0  0  0
  -28.7339  -11.9590   21.2724 H   0  0  0  0  0  0
  -28.4745  -13.5592   21.8445 H   0  0  0  0  0  0
  -25.2672   -9.5496   22.4765 H   0  0  0  0  0  0
  -23.9852   -7.4497   22.7480 H   0  0  0  0  0  0
  -21.0732   -8.8661   19.8956 H   0  0  0  0  0  0
  -22.3628  -10.9537   19.6155 H   0  0  0  0  0  0
  -21.2006   -7.6062   23.9659 H   0  0  0  0  0  0
  -21.1622   -6.0517   25.9104 H   0  0  0  0  0  0
  -22.0546   -2.7481   23.3021 H   0  0  0  0  0  0
  -22.3839  -11.9939   22.4845 H   0  0  0  0  0  0
  -21.0954  -13.1370   22.2413 H   0  0  0  0  0  0
  -24.7334  -15.8699   20.5931 H   0  0  0  0  0  0
  -26.2582  -15.6083   19.9344 H   0  0  0  0  0  0
  -26.7255  -32.5576   23.1152 H   0  0  0  0  0  0
  -25.0171  -33.9746   25.0519 H   0  0  0  0  0  0
  -22.7144  -31.2955   21.3936 H   0  0  0  0  0  0
  -23.3733  -35.9547   23.3405 H   0  0  0  0  0  0
  -24.3558  -36.8734   22.2005 H   0  0  0  0  0  0
  -23.7185  -37.6427   23.6599 H   0  0  0  0  0  0
  -26.0219  -31.5599   20.5567 H   0  0  0  0  0  0
  -26.8582  -30.9177   21.9403 H   0  0  0  0  0  0
  -28.1667  -29.0582   21.1105 H   0  0  0  0  0  0
  -26.0217  -25.8352   19.2256 H   0  0  0  0  0  0
  -23.9512  -27.2012   19.2160 H   0  0  0  0  0  0
  -23.7541  -30.5594   19.4226 H   0  0  0  0  0  0
  -22.7650  -29.2081   19.8847 H   0  0  0  0  0  0
  -25.1216  -36.1944   25.0795 H   0  0  0  0  0  0
  -20.9758  -28.3349   24.1500 H   0  0  0  0  0  0
  -20.5576  -26.2355   23.3592 H   0  0  0  0  0  0
  -21.6587  -26.7518   22.1245 H   0  0  0  0  0  0
  -19.6921  -25.6368   21.1214 H   0  0  0  0  0  0
  -19.6713  -27.3256   20.6759 H   0  0  0  0  0  0
  -17.4086  -26.6695   21.4030 H   0  0  0  0  0  0
  -18.0383  -26.0118   22.9020 H   0  0  0  0  0  0
  -19.7889  -30.7186   24.2477 H   0  0  0  0  0  0
  -17.5012  -31.6368   24.5086 H   0  0  0  0  0  0
  -15.5325  -30.3091   23.7670 H   0  0  0  0  0  0
  -15.8599  -28.0881   22.7200 H   0  0  0  0  0  0
  -24.6106  -30.6919   25.7832 H   0  0  0  0  0  0
  -24.8908  -32.2850   26.4710 H   0  0  0  0  0  0
  -25.8155  -30.9067   27.0289 H   0  0  0  0  0  0
  -26.2974  -29.6853   24.0730 H   0  0  0  0  0  0
  -27.3877  -29.7007   25.4468 H   0  0  0  0  0  0
  -27.8965  -30.4287   23.9386 H   0  0  0  0  0  0
  -27.2987  -33.3527   26.2056 H   0  0  0  0  0  0
  -28.4097  -32.6596   25.0326 H   0  0  0  0  0  0
  -28.0836  -31.8221   26.5364 H   0  0  0  0  0  0
  -28.2564  -38.0024   24.7387 H   0  0  0  0  0  0
  -28.0984  -36.2522   24.6485 H   0  0  0  0  0  0
  -27.2251  -37.1571   25.8895 H   0  0  0  0  0  0
  -20.9430  -29.8662   21.6816 H   0  0  0  0  0  0
  -26.0172  -38.2806   24.1486 H   0  0  0  0  0  0
  -29.4909  -18.8625   16.9734 H   0  0  0  0  0  0
  -29.8983  -17.0046   18.5253 H   0  0  0  0  0  0
  -29.2897  -21.1585   17.7279 H   0  0  0  0  0  0
  -30.0559  -19.8665   21.7669 H   0  0  0  0  0  0
  -27.3016  -16.6881   23.6221 H   0  0  0  0  0  0
  -28.1964  -15.3230   22.8188 H   0  0  0  0  0  0
  -28.7015  -18.3252   22.6345 H   0  0  0  0  0  0
  -27.9488  -22.2241   21.6701 H   0  0  0  0  0  0
  -29.5465  -22.7105   22.3117 H   0  0  0  0  0  0
  -28.3179  -24.9537   23.1803 H   0  0  0  0  0  0
  -27.0428  -26.0371   22.6243 H   0  0  0  0  0  0
  -28.6872  -26.6238   22.7819 H   0  0  0  0  0  0
  -31.4330  -18.0736   22.6893 H   0  0  0  0  0  0
  -32.2229  -17.0992   21.4619 H   0  0  0  0  0  0
  -31.4389  -16.3288   22.8472 H   0  0  0  0  0  0
  -28.8466  -15.3715   20.9587 H   0  0  0  0  0  0
  1 25  1  0  0  0
  1 30  2  0  0  0
  1 87  1  0  0  0
  2  3  1  0  0  0
  2 25  1  0  0  0
  2 89  1  0  0  0
  2 90  1  0  0  0
  3  4  1  0  0  0
  3 91  1  0  0  0
  3 92  1  0  0  0
  4  5  1  0  0  0
  4 93  1  0  0  0
  4 94  1  0  0  0
  5  6  1  0  0  0
  5 26  1  0  0  0
  5 95  1  0  0  0
  6 25  1  0  0  0
  6 96  1  0  0  0
  6 97  1  0  0  0
  7  8  2  0  0  0
  7 26  1  0  0  0
  7 29  1  0  0  0
  8  9  1  0  0  0
  8 22  1  0  0  0
  9 10  1  0  0  0
  9 27  2  0  0  0
 10 11  2  0  0  0
 10 15  1  0  0  0
 11 12  1  0  0  0
 11 98  1  0  0  0
 12 13  2  0  0  0
 12 99  1  0  0  0
 13 14  1  0  0  0
 13 31  1  0  0  0
 14 15  2  0  0  0
 14100  1  0  0  0
 15101  1  0  0  0
 16 17  2  0  0  0
 16 21  1  0  0  0
 16 31  1  0  0  0
 17 18  1  0  0  0
 17102  1  0  0  0
 18 19  2  0  0  0
 18103  1  0  0  0
 19 20  1  0  0  0
 19 24  1  0  0  0
 20 21  2  0  0  0
 20104  1  0  0  0
 21 23  1  0  0  0
 22 28  1  0  0  0
 22 32  2  0  0  0
 26 27  1  0  0  0
 28105  1  0  0  0
 28106  1  0  0  0
 29107  1  0  0  0
 29108  1  0  0  0
 33 34  1  0  0  0
 33 66  1  0  0  0
 33 70  2  0  0  0
 34 36  1  0  0  0
 34 59  1  0  0  0
 34109  1  0  0  0
 35 44  2  0  0  0
 35 45  1  0  0  0
 35 68  1  0  0  0
 36 56  1  0  0  0
 36110  1  0  0  0
 37 39  1  0  0  0
 37 47  1  0  0  0
 37 66  1  0  0  0
 37111  1  0  0  0
 38 43  2  0  0  0
 38 46  1  0  0  0
 38 47  1  0  0  0
 39 64  1  0  0  0
 39 67  2  0  0  0
 40 52  1  0  0  0
 40 53  2  0  0  0
 40 58  1  0  0  0
 41112  1  0  0  0
 41113  1  0  0  0
 41114  1  0  0  0
 41 48  1  0  0  0
 42 43  1  0  0  0
 42 66  1  0  0  0
 42115  1  0  0  0
 42116  1  0  0  0
 43 44  1  0  0  0
 44117  1  0  0  0
 45 46  2  0  0  0
 45118  1  0  0  0
 46119  1  0  0  0
 47120  1  0  0  0
 47121  1  0  0  0
 48 56  1  0  0  0
 48 65  1  0  0  0
 48122  1  0  0  0
 49 50  1  0  0  0
 49 53  1  0  0  0
 49 64  1  0  0  0
 49123  1  0  0  0
 50 51  1  0  0  0
 50124  1  0  0  0
 50125  1  0  0  0
 51 52  1  0  0  0
 51126  1  0  0  0
 51127  1  0  0  0
 52128  1  0  0  0
 52129  1  0  0  0
 53 54  1  0  0  0
 54 55  2  0  0  0
 54130  1  0  0  0
 55 57  1  0  0  0
 55131  1  0  0  0
 56 69  2  0  0  0
 57 58  2  0  0  0
 57132  1  0  0  0
 58133  1  0  0  0
 59 60  1  0  0  0
 59 61  1  0  0  0
 59 62  1  0  0  0
 60134  1  0  0  0
 60135  1  0  0  0
 60136  1  0  0  0
 61137  1  0  0  0
 61138  1  0  0  0
 61139  1  0  0  0
 62140  1  0  0  0
 62141  1  0  0  0
 62142  1  0  0  0
 63 65  1  0  0  0
 63143  1  0  0  0
 63144  1  0  0  0
 63145  1  0  0  0
 64146  1  0  0  0
 65147  1  0  0  0
 68 81  1  0  0  0
 71 72  2  0  0  0
 71 73  1  0  0  0
 71148  1  0  0  0
 72 75  1  0  0  0
 72149  1  0  0  0
 73 76  2  0  0  0
 73150  1  0  0  0
 74 75  2  0  0  0
 74 76  1  0  0  0
 74151  1  0  0  0
 75 85  1  0  0  0
 76 86  1  0  0  0
 77 78  1  0  0  0
 77 81  2  0  0  0
 77 82  1  0  0  0
 78 86  1  0  0  0
 78 88  2  0  0  0
 79 80  2  0  0  0
 79152  1  0  0  0
 79153  1  0  0  0
 80154  1  0  0  0
 80 85  1  0  0  0
 81 83  1  0  0  0
 82 86  1  0  0  0
 82155  1  0  0  0
 82156  1  0  0  0
 83157  1  0  0  0
 83158  1  0  0  0
 83159  1  0  0  0
 84160  1  0  0  0
 84161  1  0  0  0
 84162  1  0  0  0
 84 85  1  0  0  0
 85 87  1  0  0  0
 87163  1  0  0  0
M  ISO  4   1 100  68 101  81 101  87 100
M  END
> <chiral flag>
0

> <version>
0

> <s_m_source_file>
/data/baiqing/PycharmProjects/Reinvent-master-3.2/result/LINK_invent/BTK/process_docking_weight1_custom_product_contain_oxygen_bond_distance_aromatic_linkinvent_7_9_3/rearranged_h_0078.sdf

> <i_m_source_file_index>
10

> <r_mmod_Potential_Energy-OPLS-2005>
109.228904724121

> <r_mmod_Stretch_Energy-OPLS-2005>
92.4795684814453

> <r_mmod_Bend_Energy-OPLS-2005>
222.781265258789

> <r_mmod_Torsional_Energy-OPLS-2005>
233.041015625

> <r_mmod_Improper_Torsional_Energy-OPLS-2005>
7.81951665878296

> <r_mmod_Van_der_Waal_Energy-OPLS-2005>
134.155181884766

> <r_mmod_Electrostatic_Energy-OPLS-2005>
-410.961212158203

> <r_mmod_Solvation_Energy-OPLS-2005>
-215.506591796875

> <b_mmod_Minimization_Converged-OPLS-2005>
0

> <r_mmod_RMS_Derivative-OPLS-2005>
11.2566108703613

$$$$
10
                    3D
 Structure written by MMmdl.
157166  0  0  1  0            999 V2000
  -30.6670  -14.5006   20.5484 C   0  0  0  0  0  0
  -30.4304  -12.3161   19.4197 C   0  0  0  0  0  0
  -29.4965  -12.5000   18.2036 C   0  0  0  0  0  0
  -28.0175  -12.3560   18.6177 C   0  0  0  0  0  0
  -27.6603  -13.2005   19.8699 C   0  0  2  0  0  0
  -28.7026  -12.9821   20.9894 C   0  0  0  0  0  0
  -25.2588  -13.8138   20.5653 C   0  0  0  0  0  0
  -24.1843  -13.0432   20.9189 C   0  0  0  0  0  0
  -24.6384  -11.6895   20.8742 C   0  0  0  0  0  0
  -23.9047  -10.4288   21.0410 C   0  0  0  0  0  0
  -24.3606   -9.4208   21.9183 C   0  0  0  0  0  0
  -23.6290   -8.2240   22.0752 C   0  0  0  0  0  0
  -22.4270   -8.0276   21.3546 C   0  0  0  0  0  0
  -21.9902   -9.0247   20.4646 C   0  0  0  0  0  0
  -22.7225  -10.2127   20.3059 C   0  0  0  0  0  0
  -21.6848   -6.0735   22.5282 C   0  0  0  0  0  0
  -21.4008   -6.5641   23.8217 C   0  0  0  0  0  0
  -21.3662   -5.6794   24.9180 C   0  0  0  0  0  0
  -21.6047   -4.3057   24.7227 C   0  0  0  0  0  0
  -21.8820   -3.8147   23.4349 C   0  0  0  0  0  0
  -21.9193   -4.6964   22.3406 C   0  0  0  0  0  0
  -22.7870  -13.5242   21.1858 C   0  0  0  0  0  0
  -22.1663   -4.2152   21.0983 F   0  0  0  0  0  0
  -21.5631   -3.4542   25.7738 F   0  0  0  0  0  0
  -30.0320  -13.3005   20.4374 N   0  0  0  0  0  0
  -26.3014  -12.9296   20.3332 N   0  0  0  0  0  0
  -25.9306  -11.6464   20.5752 N   0  0  0  0  0  0
  -22.0503  -12.8231   22.0408 N   0  0  0  0  0  0
  -25.4312  -15.1847   20.3992 N   0  0  0  0  0  0
  -31.8105  -14.6894   20.1229 O   0  0  0  0  0  0
  -21.6638   -6.8873   21.4241 O   0  0  0  0  0  0
  -22.3565  -14.5557   20.6717 O   0  0  0  0  0  0
  -24.6164  -31.8650   23.2064 C   0  0  0  0  0  0
  -25.9054  -32.4806   23.8359 C   0  0  1  0  0  0
  -27.2358  -27.4158   20.1088 C   0  0  0  0  0  0
  -25.5904  -33.8605   24.2302 N   0  0  0  0  0  0
  -23.4053  -30.4883   21.5460 C   0  0  2  0  0  0
  -24.8524  -28.9481   20.1141 C   0  0  0  0  0  0
  -22.7424  -29.4650   22.4962 C   0  0  0  0  0  0
  -18.0275  -28.1387   22.8484 C   0  0  0  0  0  0
  -24.1493  -36.7308   23.2640 C   0  0  0  0  0  0
  -25.9335  -30.8288   21.3580 C   0  0  0  0  0  0
  -26.0118  -29.4607   20.7078 C   0  0  0  0  0  0
  -27.2068  -28.7036   20.6961 C   0  0  0  0  0  0
  -26.0584  -26.9194   19.5079 C   0  0  0  0  0  0
  -24.8713  -27.6788   19.5097 C   0  0  0  0  0  0
  -23.6137  -29.8164   20.1615 C   0  0  0  0  0  0
  -25.4104  -36.3098   24.0344 C   0  0  1  0  0  0
  -20.5872  -28.3667   23.1317 C   0  0  2  0  0  0
  -20.6764  -26.9401   22.5423 C   0  0  0  0  0  0
  -19.5746  -26.6388   21.5219 C   0  0  0  0  0  0
  -18.1919  -26.7933   22.1618 C   0  0  0  0  0  0
  -19.1528  -28.8837   23.2903 C   0  0  0  0  0  0
  -18.9458  -30.1443   23.8916 C   0  0  0  0  0  0
  -17.6463  -30.6587   24.0568 C   0  0  0  0  0  0
  -25.9035  -34.9469   23.5122 C   0  0  0  0  0  0
  -16.5351  -29.9094   23.6335 C   0  0  0  0  0  0
  -16.7263  -28.6518   23.0337 C   0  0  0  0  0  0
  -26.4474  -31.6585   25.0692 C   0  0  0  0  0  0
  -25.3755  -31.3693   26.1452 C   0  0  0  0  0  0
  -27.0295  -30.3032   24.6054 C   0  0  0  0  0  0
  -27.6044  -32.4296   25.7466 C   0  0  0  0  0  0
  -27.5580  -37.1798   24.8465 C   0  0  0  0  0  0
  -21.4146  -29.3036   22.3717 N   0  0  0  0  0  0
  -26.4291  -37.3789   23.9417 N   0  0  0  0  0  0
  -24.6703  -31.0744   22.0965 N   0  0  0  0  0  0
  -23.4198  -28.8194   23.3007 O   0  0  0  0  0  0
  -28.4089  -26.6843   20.1214 O   0  0  0  0  0  0
  -26.5600  -34.8924   22.4684 O   0  0  0  0  0  0
  -23.5351  -32.1384   23.7465 O   0  0  0  0  0  0
  -29.0014  -19.1550   20.8543 C   0  0  0  0  0  0
  -31.4022  -18.9721   21.0877 C   0  0  0  0  0  0
  -28.9072  -17.7423   20.8370 C   0  0  0  0  0  0
  -31.3107  -17.5621   21.0571 C   0  0  0  0  0  0
  -30.2530  -19.8036   21.0021 C   0  0  0  0  0  0
  -30.0557  -16.9235   20.9444 C   0  0  0  0  0  0
  -30.0531  -23.5176   21.2684 C   0  0  0  0  0  0
  -31.2396  -23.2156   22.0210 C   0  0  0  0  0  0
  -29.5353  -22.2413   20.7579 C   0  0  0  0  0  0
  -31.9421  -24.0623   22.7961 C   0  0  0  0  0  0
  -29.5423  -24.7668   21.0871 C   0  0  0  0  0  0
  -31.5573  -21.7661   21.8696 C   0  0  0  0  0  0
  -28.3214  -25.2552   20.3117 C   0  0  0  0  0  0
  -30.3881  -21.2406   21.1559 N   0  0  0  0  0  0
  -29.8794  -15.5016   21.0030 N   0  0  0  0  0  0
  -28.5129  -22.0887   20.0820 O   0  0  0  0  0  0
  -31.4733  -12.4287   19.1166 H   0  0  0  0  0  0
  -30.3439  -11.3041   19.8188 H   0  0  0  0  0  0
  -29.7380  -11.7694   17.4305 H   0  0  0  0  0  0
  -29.6587  -13.4822   17.7563 H   0  0  0  0  0  0
  -27.8344  -11.3001   18.8207 H   0  0  0  0  0  0
  -27.3651  -12.6210   17.7841 H   0  0  0  0  0  0
  -27.7024  -14.2467   19.5675 H   0  0  0  0  0  0
  -28.6837  -11.9447   21.3248 H   0  0  0  0  0  0
  -28.4614  -13.5743   21.8741 H   0  0  0  0  0  0
  -25.2752   -9.5689   22.4757 H   0  0  0  0  0  0
  -24.0010   -7.4626   22.7462 H   0  0  0  0  0  0
  -21.0842   -8.8760   19.8943 H   0  0  0  0  0  0
  -22.3686  -10.9667   19.6171 H   0  0  0  0  0  0
  -21.1993   -7.6145   23.9722 H   0  0  0  0  0  0
  -21.1485   -6.0521   25.9083 H   0  0  0  0  0  0
  -22.0596   -2.7611   23.2849 H   0  0  0  0  0  0
  -22.4109  -11.9891   22.4801 H   0  0  0  0  0  0
  -21.1117  -13.1254   22.2601 H   0  0  0  0  0  0
  -24.6543  -15.8327   20.4768 H   0  0  0  0  0  0
  -26.2635  -15.6098   20.0119 H   0  0  0  0  0  0
  -26.7126  -32.5527   23.1118 H   0  0  0  0  0  0
  -25.0058  -33.9741   25.0452 H   0  0  0  0  0  0
  -22.6958  -31.3065   21.4024 H   0  0  0  0  0  0
  -23.3751  -35.9650   23.3303 H   0  0  0  0  0  0
  -24.3585  -36.8919   22.2055 H   0  0  0  0  0  0
  -23.7253  -37.6520   23.6648 H   0  0  0  0  0  0
  -26.0402  -31.5924   20.5866 H   0  0  0  0  0  0
  -26.8239  -30.8878   21.9725 H   0  0  0  0  0  0
  -28.1043  -29.0961   21.1530 H   0  0  0  0  0  0
  -26.0522  -25.9482   19.0337 H   0  0  0  0  0  0
  -23.9805  -27.2792   19.0475 H   0  0  0  0  0  0
  -23.7241  -30.5879   19.3987 H   0  0  0  0  0  0
  -22.7382  -29.2368   19.8635 H   0  0  0  0  0  0
  -25.1283  -36.1946   25.0838 H   0  0  0  0  0  0
  -20.9952  -28.3226   24.1445 H   0  0  0  0  0  0
  -20.5661  -26.2271   23.3603 H   0  0  0  0  0  0
  -21.6627  -26.7432   22.1216 H   0  0  0  0  0  0
  -19.6910  -25.6310   21.1222 H   0  0  0  0  0  0
  -19.6697  -27.3209   20.6765 H   0  0  0  0  0  0
  -17.4190  -26.6696   21.4013 H   0  0  0  0  0  0
  -18.0307  -26.0081   22.9014 H   0  0  0  0  0  0
  -19.7944  -30.7253   24.2283 H   0  0  0  0  0  0
  -17.5027  -31.6266   24.5161 H   0  0  0  0  0  0
  -15.5353  -30.2997   23.7658 H   0  0  0  0  0  0
  -15.8668  -28.0847   22.7028 H   0  0  0  0  0  0
  -24.5935  -30.7024   25.7802 H   0  0  0  0  0  0
  -24.8939  -32.2853   26.4891 H   0  0  0  0  0  0
  -25.8126  -30.8880   27.0209 H   0  0  0  0  0  0
  -26.2816  -29.6798   24.1138 H   0  0  0  0  0  0
  -27.4115  -29.7256   25.4481 H   0  0  0  0  0  0
  -27.8634  -30.4356   23.9153 H   0  0  0  0  0  0
  -27.2655  -33.3588   26.2048 H   0  0  0  0  0  0
  -28.3860  -32.6850   25.0302 H   0  0  0  0  0  0
  -28.0704  -31.8417   26.5381 H   0  0  0  0  0  0
  -28.2583  -38.0108   24.7501 H   0  0  0  0  0  0
  -28.1082  -36.2628   24.6287 H   0  0  0  0  0  0
  -27.2296  -37.1449   25.8871 H   0  0  0  0  0  0
  -20.9297  -29.8771   21.6959 H   0  0  0  0  0  0
  -26.0178  -38.2866   24.1428 H   0  0  0  0  0  0
  -28.0861  -19.7254   20.7971 H   0  0  0  0  0  0
  -32.3881  -19.3987   21.2013 H   0  0  0  0  0  0
  -27.9282  -17.2915   20.7547 H   0  0  0  0  0  0
  -32.2178  -16.9829   21.1561 H   0  0  0  0  0  0
  -31.6779  -25.1021   22.9150 H   0  0  0  0  0  0
  -32.8076  -23.7148   23.3428 H   0  0  0  0  0  0
  -30.0602  -25.5822   21.5680 H   0  0  0  0  0  0
  -31.6803  -21.2871   22.8421 H   0  0  0  0  0  0
  -32.4707  -21.6492   21.2850 H   0  0  0  0  0  0
  -27.4352  -24.9911   20.8927 H   0  0  0  0  0  0
  -28.2541  -24.7502   19.3479 H   0  0  0  0  0  0
  -28.9552  -15.1920   21.2597 H   0  0  0  0  0  0
  1 25  1  0  0  0
  1 30  2  0  0  0
  1 85  1  0  0  0
  2  3  1  0  0  0
  2 25  1  0  0  0
  2 87  1  0  0  0
  2 88  1  0  0  0
  3  4  1  0  0  0
  3 89  1  0  0  0
  3 90  1  0  0  0
  4  5  1  0  0  0
  4 91  1  0  0  0
  4 92  1  0  0  0
  5  6  1  0  0  0
  5 26  1  0  0  0
  5 93  1  0  0  0
  6 25  1  0  0  0
  6 94  1  0  0  0
  6 95  1  0  0  0
  7  8  2  0  0  0
  7 26  1  0  0  0
  7 29  1  0  0  0
  8  9  1  0  0  0
  8 22  1  0  0  0
  9 10  1  0  0  0
  9 27  2  0  0  0
 10 11  2  0  0  0
 10 15  1  0  0  0
 11 12  1  0  0  0
 11 96  1  0  0  0
 12 13  2  0  0  0
 12 97  1  0  0  0
 13 14  1  0  0  0
 13 31  1  0  0  0
 14 15  2  0  0  0
 14 98  1  0  0  0
 15 99  1  0  0  0
 16 17  2  0  0  0
 16 21  1  0  0  0
 16 31  1  0  0  0
 17 18  1  0  0  0
 17100  1  0  0  0
 18 19  2  0  0  0
 18101  1  0  0  0
 19 20  1  0  0  0
 19 24  1  0  0  0
 20 21  2  0  0  0
 20102  1  0  0  0
 21 23  1  0  0  0
 22 28  1  0  0  0
 22 32  2  0  0  0
 26 27  1  0  0  0
 28103  1  0  0  0
 28104  1  0  0  0
 29105  1  0  0  0
 29106  1  0  0  0
 33 34  1  0  0  0
 33 66  1  0  0  0
 33 70  2  0  0  0
 34 36  1  0  0  0
 34 59  1  0  0  0
 34107  1  0  0  0
 35 44  2  0  0  0
 35 45  1  0  0  0
 35 68  1  0  0  0
 36 56  1  0  0  0
 36108  1  0  0  0
 37 39  1  0  0  0
 37 47  1  0  0  0
 37 66  1  0  0  0
 37109  1  0  0  0
 38 43  2  0  0  0
 38 46  1  0  0  0
 38 47  1  0  0  0
 39 64  1  0  0  0
 39 67  2  0  0  0
 40 52  1  0  0  0
 40 53  2  0  0  0
 40 58  1  0  0  0
 41110  1  0  0  0
 41111  1  0  0  0
 41112  1  0  0  0
 41 48  1  0  0  0
 42 43  1  0  0  0
 42 66  1  0  0  0
 42113  1  0  0  0
 42114  1  0  0  0
 43 44  1  0  0  0
 44115  1  0  0  0
 45 46  2  0  0  0
 45116  1  0  0  0
 46117  1  0  0  0
 47118  1  0  0  0
 47119  1  0  0  0
 48 56  1  0  0  0
 48 65  1  0  0  0
 48120  1  0  0  0
 49 50  1  0  0  0
 49 53  1  0  0  0
 49 64  1  0  0  0
 49121  1  0  0  0
 50 51  1  0  0  0
 50122  1  0  0  0
 50123  1  0  0  0
 51 52  1  0  0  0
 51124  1  0  0  0
 51125  1  0  0  0
 52126  1  0  0  0
 52127  1  0  0  0
 53 54  1  0  0  0
 54 55  2  0  0  0
 54128  1  0  0  0
 55 57  1  0  0  0
 55129  1  0  0  0
 56 69  2  0  0  0
 57 58  2  0  0  0
 57130  1  0  0  0
 58131  1  0  0  0
 59 60  1  0  0  0
 59 61  1  0  0  0
 59 62  1  0  0  0
 60132  1  0  0  0
 60133  1  0  0  0
 60134  1  0  0  0
 61135  1  0  0  0
 61136  1  0  0  0
 61137  1  0  0  0
 62138  1  0  0  0
 62139  1  0  0  0
 62140  1  0  0  0
 63 65  1  0  0  0
 63141  1  0  0  0
 63142  1  0  0  0
 63143  1  0  0  0
 64144  1  0  0  0
 65145  1  0  0  0
 68 83  1  0  0  0
 71 73  2  0  0  0
 71 75  1  0  0  0
 71146  1  0  0  0
 72 74  1  0  0  0
 72 75  2  0  0  0
 72147  1  0  0  0
 73 76  1  0  0  0
 73148  1  0  0  0
 74 76  2  0  0  0
 74149  1  0  0  0
 75 84  1  0  0  0
 76 85  1  0  0  0
 77 78  1  0  0  0
 77 79  1  0  0  0
 77 81  2  0  0  0
 78 80  2  0  0  0
 78 82  1  0  0  0
 79 84  1  0  0  0
 79 86  2  0  0  0
 80150  1  0  0  0
 80151  1  0  0  0
 81 83  1  0  0  0
 81152  1  0  0  0
 82 84  1  0  0  0
 82153  1  0  0  0
 82154  1  0  0  0
 83155  1  0  0  0
 83156  1  0  0  0
 85157  1  0  0  0
M  ISO  4   1 100  68 101  83 101  85 100
M  END
> <chiral flag>
0

> <version>
0

> <s_m_source_file>
/data/baiqing/PycharmProjects/Reinvent-master-3.2/result/LINK_invent/BTK/process_docking_weight1_custom_product_contain_oxygen_bond_distance_aromatic_linkinvent_7_9_3/rearranged_h_0078.sdf

> <i_m_source_file_index>
11

> <r_mmod_Potential_Energy-OPLS-2005>
94.7981109619141

> <r_mmod_Stretch_Energy-OPLS-2005>
47.2026710510254

> <r_mmod_Bend_Energy-OPLS-2005>
163.196960449219

> <r_mmod_Torsional_Energy-OPLS-2005>
269.272705078125

> <r_mmod_Improper_Torsional_Energy-OPLS-2005>
4.94090747833252

> <r_mmod_Van_der_Waal_Energy-OPLS-2005>
156.493789672852

> <r_mmod_Electrostatic_Energy-OPLS-2005>
-351.026519775391

> <r_mmod_Solvation_Energy-OPLS-2005>
-211.220092773438

> <b_mmod_Minimization_Converged-OPLS-2005>
0

> <r_mmod_RMS_Derivative-OPLS-2005>
1.59436249732971

$$$$
11
                    3D
 Structure written by MMmdl.
158166  0  0  1  0            999 V2000
  -30.6899  -14.4994   20.5939 C   0  0  0  0  0  0
  -30.4298  -12.3304   19.4309 C   0  0  0  0  0  0
  -29.5009  -12.5132   18.2116 C   0  0  0  0  0  0
  -28.0228  -12.3564   18.6232 C   0  0  0  0  0  0
  -27.6605  -13.2037   19.8730 C   0  0  2  0  0  0
  -28.6996  -12.9915   20.9979 C   0  0  0  0  0  0
  -25.2578  -13.8139   20.5659 C   0  0  0  0  0  0
  -24.1840  -13.0431   20.9186 C   0  0  0  0  0  0
  -24.6378  -11.6895   20.8731 C   0  0  0  0  0  0
  -23.9046  -10.4285   21.0401 C   0  0  0  0  0  0
  -24.3609   -9.4204   21.9184 C   0  0  0  0  0  0
  -23.6293   -8.2244   22.0757 C   0  0  0  0  0  0
  -22.4271   -8.0279   21.3552 C   0  0  0  0  0  0
  -21.9909   -9.0241   20.4641 C   0  0  0  0  0  0
  -22.7225  -10.2125   20.3054 C   0  0  0  0  0  0
  -21.6848   -6.0735   22.5284 C   0  0  0  0  0  0
  -21.4004   -6.5640   23.8214 C   0  0  0  0  0  0
  -21.3658   -5.6800   24.9182 C   0  0  0  0  0  0
  -21.6046   -4.3067   24.7225 C   0  0  0  0  0  0
  -21.8822   -3.8154   23.4351 C   0  0  0  0  0  0
  -21.9184   -4.6967   22.3408 C   0  0  0  0  0  0
  -22.7860  -13.5229   21.1846 C   0  0  0  0  0  0
  -22.1659   -4.2158   21.0985 F   0  0  0  0  0  0
  -21.5626   -3.4554   25.7735 F   0  0  0  0  0  0
  -30.0312  -13.3133   20.4530 N   0  0  0  0  0  0
  -26.3006  -12.9302   20.3326 N   0  0  0  0  0  0
  -25.9302  -11.6468   20.5751 N   0  0  0  0  0  0
  -22.0496  -12.8222   22.0388 N   0  0  0  0  0  0
  -25.4316  -15.1859   20.4067 N   0  0  0  0  0  0
  -31.8122  -14.6918   20.1175 O   0  0  0  0  0  0
  -21.6634   -6.8876   21.4250 O   0  0  0  0  0  0
  -22.3565  -14.5552   20.6698 O   0  0  0  0  0  0
  -24.6145  -31.8697   23.2078 C   0  0  0  0  0  0
  -25.9045  -32.4829   23.8390 C   0  0  1  0  0  0
  -27.2464  -27.4287   20.1117 C   0  0  0  0  0  0
  -25.5913  -33.8628   24.2341 N   0  0  0  0  0  0
  -23.4058  -30.4874   21.5499 C   0  0  2  0  0  0
  -24.8560  -28.9436   20.1259 C   0  0  0  0  0  0
  -22.7422  -29.4655   22.5017 C   0  0  0  0  0  0
  -18.0284  -28.1350   22.8500 C   0  0  0  0  0  0
  -24.1482  -36.7296   23.2647 C   0  0  0  0  0  0
  -25.9341  -30.8297   21.3647 C   0  0  0  0  0  0
  -26.0145  -29.4584   20.7226 C   0  0  0  0  0  0
  -27.2133  -28.7065   20.7169 C   0  0  0  0  0  0
  -26.0750  -26.9274   19.5100 C   0  0  0  0  0  0
  -24.8792  -27.6735   19.5202 C   0  0  0  0  0  0
  -23.6170  -29.8120   20.1691 C   0  0  0  0  0  0
  -25.4106  -36.3111   24.0349 C   0  0  1  0  0  0
  -20.5874  -28.3644   23.1311 C   0  0  2  0  0  0
  -20.6761  -26.9376   22.5421 C   0  0  0  0  0  0
  -19.5731  -26.6377   21.5221 C   0  0  0  0  0  0
  -18.1912  -26.7912   22.1618 C   0  0  0  0  0  0
  -19.1534  -28.8819   23.2901 C   0  0  0  0  0  0
  -18.9458  -30.1440   23.8889 C   0  0  0  0  0  0
  -17.6461  -30.6569   24.0556 C   0  0  0  0  0  0
  -25.9048  -34.9480   23.5145 C   0  0  0  0  0  0
  -16.5355  -29.9057   23.6327 C   0  0  0  0  0  0
  -16.7277  -28.6472   23.0354 C   0  0  0  0  0  0
  -26.4464  -31.6582   25.0710 C   0  0  0  0  0  0
  -25.3728  -31.3684   26.1457 C   0  0  0  0  0  0
  -27.0303  -30.3027   24.6075 C   0  0  0  0  0  0
  -27.6055  -32.4283   25.7465 C   0  0  0  0  0  0
  -27.5589  -37.1796   24.8468 C   0  0  0  0  0  0
  -21.4154  -29.3019   22.3729 N   0  0  0  0  0  0
  -26.4295  -37.3799   23.9419 N   0  0  0  0  0  0
  -24.6698  -31.0769   22.0998 N   0  0  0  0  0  0
  -23.4185  -28.8237   23.3103 O   0  0  0  0  0  0
  -28.4057  -26.6896   20.0258 O   0  0  0  0  0  0
  -26.5599  -34.8929   22.4702 O   0  0  0  0  0  0
  -23.5323  -32.1473   23.7439 O   0  0  0  0  0  0
  -29.3060  -19.1850   21.4036 C   0  0  0  0  0  0
  -31.7045  -18.8507   21.5312 C   0  0  0  0  0  0
  -29.1280  -17.7868   21.2593 C   0  0  0  0  0  0
  -31.5264  -17.4515   21.3880 C   0  0  0  0  0  0
  -30.5974  -19.7377   21.5499 C   0  0  0  0  0  0
  -30.2299  -16.8962   21.2523 C   0  0  0  0  0  0
  -30.7968  -21.1911   21.7817 C   0  0  0  0  0  0
  -28.9737  -24.3808   20.7178 C   0  0  0  0  0  0
  -31.4869  -24.1603   20.6058 C   0  0  0  0  0  0
  -28.7118  -25.8476   21.1519 C   0  0  0  0  0  0
  -30.2096  -23.6457   21.3113 C   0  0  2  0  0  0
  -29.9688  -15.4857   21.1723 N   0  0  0  0  0  0
  -30.0813  -22.1614   21.1624 N   0  0  0  0  0  0
  -31.7315  -21.5659   22.6580 N   0  3  0  0  0  0
  -28.2157  -23.8205   19.9181 O   0  0  0  0  0  0
  -31.4741  -12.4384   19.1347 H   0  0  0  0  0  0
  -30.3411  -11.3205   19.8325 H   0  0  0  0  0  0
  -29.7520  -11.7897   17.4342 H   0  0  0  0  0  0
  -29.6535  -13.5010   17.7733 H   0  0  0  0  0  0
  -27.8490  -11.2989   18.8308 H   0  0  0  0  0  0
  -27.3689  -12.6121   17.7887 H   0  0  0  0  0  0
  -27.7025  -14.2503   19.5700 H   0  0  0  0  0  0
  -28.6828  -11.9520   21.3319 H   0  0  0  0  0  0
  -28.4496  -13.5822   21.8802 H   0  0  0  0  0  0
  -25.2757   -9.5683   22.4757 H   0  0  0  0  0  0
  -23.9997   -7.4636   22.7487 H   0  0  0  0  0  0
  -21.0843   -8.8749   19.8943 H   0  0  0  0  0  0
  -22.3682  -10.9663   19.6165 H   0  0  0  0  0  0
  -21.2004   -7.6143   23.9722 H   0  0  0  0  0  0
  -21.1474   -6.0529   25.9082 H   0  0  0  0  0  0
  -22.0601   -2.7615   23.2849 H   0  0  0  0  0  0
  -22.4116  -11.9874   22.4750 H   0  0  0  0  0  0
  -21.1118  -13.1243   22.2597 H   0  0  0  0  0  0
  -24.6592  -15.8364   20.4984 H   0  0  0  0  0  0
  -26.2714  -15.6171   20.0421 H   0  0  0  0  0  0
  -26.7129  -32.5543   23.1169 H   0  0  0  0  0  0
  -25.0101  -33.9808   25.0507 H   0  0  0  0  0  0
  -22.6957  -31.3034   21.4029 H   0  0  0  0  0  0
  -23.3756  -35.9621   23.3323 H   0  0  0  0  0  0
  -24.3584  -36.8879   22.2056 H   0  0  0  0  0  0
  -23.7199  -37.6500   23.6628 H   0  0  0  0  0  0
  -26.0445  -31.5900   20.5904 H   0  0  0  0  0  0
  -26.8236  -30.8905   21.9805 H   0  0  0  0  0  0
  -28.1109  -29.1101   21.1640 H   0  0  0  0  0  0
  -26.0918  -25.9596   19.0306 H   0  0  0  0  0  0
  -23.9884  -27.2662   19.0608 H   0  0  0  0  0  0
  -23.7268  -30.5840   19.4076 H   0  0  0  0  0  0
  -22.7416  -29.2314   19.8729 H   0  0  0  0  0  0
  -25.1273  -36.1995   25.0845 H   0  0  0  0  0  0
  -20.9969  -28.3196   24.1422 H   0  0  0  0  0  0
  -20.5648  -26.2268   23.3619 H   0  0  0  0  0  0
  -21.6626  -26.7394   22.1212 H   0  0  0  0  0  0
  -19.6902  -25.6298   21.1222 H   0  0  0  0  0  0
  -19.6660  -27.3220   20.6779 H   0  0  0  0  0  0
  -17.4199  -26.6703   21.3998 H   0  0  0  0  0  0
  -18.0263  -26.0032   22.8972 H   0  0  0  0  0  0
  -19.7942  -30.7266   24.2229 H   0  0  0  0  0  0
  -17.5011  -31.6242   24.5157 H   0  0  0  0  0  0
  -15.5356  -30.2942   23.7658 H   0  0  0  0  0  0
  -15.8680  -28.0798   22.7041 H   0  0  0  0  0  0
  -24.5927  -30.6997   25.7794 H   0  0  0  0  0  0
  -24.8887  -32.2833   26.4878 H   0  0  0  0  0  0
  -25.8090  -30.8882   27.0225 H   0  0  0  0  0  0
  -26.2852  -29.6773   24.1144 H   0  0  0  0  0  0
  -27.4104  -29.7258   25.4517 H   0  0  0  0  0  0
  -27.8660  -30.4359   23.9205 H   0  0  0  0  0  0
  -27.2724  -33.3605   26.2035 H   0  0  0  0  0  0
  -28.3870  -32.6801   25.0287 H   0  0  0  0  0  0
  -28.0709  -31.8396   26.5378 H   0  0  0  0  0  0
  -28.2594  -38.0103   24.7544 H   0  0  0  0  0  0
  -28.1096  -36.2638   24.6262 H   0  0  0  0  0  0
  -27.2320  -37.1410   25.8875 H   0  0  0  0  0  0
  -20.9341  -29.8737   21.6925 H   0  0  0  0  0  0
  -26.0190  -38.2878   24.1435 H   0  0  0  0  0  0
  -28.4368  -19.8282   21.4278 H   0  0  0  0  0  0
  -32.7097  -19.2353   21.6428 H   0  0  0  0  0  0
  -28.1207  -17.4048   21.1610 H   0  0  0  0  0  0
  -32.3993  -16.8134   21.4089 H   0  0  0  0  0  0
  -31.4117  -25.2088   20.3130 H   0  0  0  0  0  0
  -31.7047  -23.5925   19.7005 H   0  0  0  0  0  0
  -32.3557  -24.0828   21.2600 H   0  0  0  0  0  0
  -29.5996  -26.2397   21.6485 H   0  0  0  0  0  0
  -27.9057  -25.8636   21.8870 H   0  0  0  0  0  0
  -30.2611  -23.8978   22.3720 H   0  0  0  0  0  0
  -29.0451  -15.1998   21.4544 H   0  0  0  0  0  0
  -29.3796  -21.8637   20.4938 H   0  0  0  0  0  0
  -32.2464  -20.8605   23.1614 H   0  0  0  0  0  0
  -31.9079  -22.5349   22.8573 H   0  0  0  0  0  0
  1 25  1  0  0  0
  1 30  2  0  0  0
  1 82  1  0  0  0
  2  3  1  0  0  0
  2 25  1  0  0  0
  2 86  1  0  0  0
  2 87  1  0  0  0
  3  4  1  0  0  0
  3 88  1  0  0  0
  3 89  1  0  0  0
  4  5  1  0  0  0
  4 90  1  0  0  0
  4 91  1  0  0  0
  5  6  1  0  0  0
  5 26  1  0  0  0
  5 92  1  0  0  0
  6 25  1  0  0  0
  6 93  1  0  0  0
  6 94  1  0  0  0
  7  8  2  0  0  0
  7 26  1  0  0  0
  7 29  1  0  0  0
  8  9  1  0  0  0
  8 22  1  0  0  0
  9 10  1  0  0  0
  9 27  2  0  0  0
 10 11  2  0  0  0
 10 15  1  0  0  0
 11 12  1  0  0  0
 11 95  1  0  0  0
 12 13  2  0  0  0
 12 96  1  0  0  0
 13 14  1  0  0  0
 13 31  1  0  0  0
 14 15  2  0  0  0
 14 97  1  0  0  0
 15 98  1  0  0  0
 16 17  2  0  0  0
 16 21  1  0  0  0
 16 31  1  0  0  0
 17 18  1  0  0  0
 17 99  1  0  0  0
 18 19  2  0  0  0
 18100  1  0  0  0
 19 20  1  0  0  0
 19 24  1  0  0  0
 20 21  2  0  0  0
 20101  1  0  0  0
 21 23  1  0  0  0
 22 28  1  0  0  0
 22 32  2  0  0  0
 26 27  1  0  0  0
 28102  1  0  0  0
 28103  1  0  0  0
 29104  1  0  0  0
 29105  1  0  0  0
 33 34  1  0  0  0
 33 66  1  0  0  0
 33 70  2  0  0  0
 34 36  1  0  0  0
 34 59  1  0  0  0
 34106  1  0  0  0
 35 44  2  0  0  0
 35 45  1  0  0  0
 35 68  1  0  0  0
 36 56  1  0  0  0
 36107  1  0  0  0
 37 39  1  0  0  0
 37 47  1  0  0  0
 37 66  1  0  0  0
 37108  1  0  0  0
 38 43  2  0  0  0
 38 46  1  0  0  0
 38 47  1  0  0  0
 39 64  1  0  0  0
 39 67  2  0  0  0
 40 52  1  0  0  0
 40 53  2  0  0  0
 40 58  1  0  0  0
 41109  1  0  0  0
 41110  1  0  0  0
 41111  1  0  0  0
 41 48  1  0  0  0
 42 43  1  0  0  0
 42 66  1  0  0  0
 42112  1  0  0  0
 42113  1  0  0  0
 43 44  1  0  0  0
 44114  1  0  0  0
 45 46  2  0  0  0
 45115  1  0  0  0
 46116  1  0  0  0
 47117  1  0  0  0
 47118  1  0  0  0
 48 56  1  0  0  0
 48 65  1  0  0  0
 48119  1  0  0  0
 49 50  1  0  0  0
 49 53  1  0  0  0
 49 64  1  0  0  0
 49120  1  0  0  0
 50 51  1  0  0  0
 50121  1  0  0  0
 50122  1  0  0  0
 51 52  1  0  0  0
 51123  1  0  0  0
 51124  1  0  0  0
 52125  1  0  0  0
 52126  1  0  0  0
 53 54  1  0  0  0
 54 55  2  0  0  0
 54127  1  0  0  0
 55 57  1  0  0  0
 55128  1  0  0  0
 56 69  2  0  0  0
 57 58  2  0  0  0
 57129  1  0  0  0
 58130  1  0  0  0
 59 60  1  0  0  0
 59 61  1  0  0  0
 59 62  1  0  0  0
 60131  1  0  0  0
 60132  1  0  0  0
 60133  1  0  0  0
 61134  1  0  0  0
 61135  1  0  0  0
 61136  1  0  0  0
 62137  1  0  0  0
 62138  1  0  0  0
 62139  1  0  0  0
 63 65  1  0  0  0
 63140  1  0  0  0
 63141  1  0  0  0
 63142  1  0  0  0
 64143  1  0  0  0
 65144  1  0  0  0
 68 80  1  0  0  0
 71 73  2  0  0  0
 71 75  1  0  0  0
 71145  1  0  0  0
 72 74  1  0  0  0
 72 75  2  0  0  0
 72146  1  0  0  0
 73 76  1  0  0  0
 73147  1  0  0  0
 74 76  2  0  0  0
 74148  1  0  0  0
 75 77  1  0  0  0
 76 82  1  0  0  0
 77 83  1  0  0  0
 77 84  2  0  0  0
 78 80  1  0  0  0
 78 81  1  0  0  0
 78 85  2  0  0  0
 79149  1  0  0  0
 79150  1  0  0  0
 79151  1  0  0  0
 79 81  1  0  0  0
 80152  1  0  0  0
 80153  1  0  0  0
 81 83  1  0  0  0
 81154  1  0  0  0
 82155  1  0  0  0
 83156  1  0  0  0
 84157  1  0  0  0
 84158  1  0  0  0
M  CHG  1  84   1
M  ISO  4   1 100  68 101  80 101  82 100
M  END
> <chiral flag>
0

> <version>
0

> <s_m_source_file>
/data/baiqing/PycharmProjects/Reinvent-master-3.2/result/LINK_invent/BTK/process_docking_weight1_custom_product_contain_oxygen_bond_distance_aromatic_linkinvent_7_9_3/rearranged_h_0078.sdf

> <i_m_source_file_index>
12

> <r_mmod_Potential_Energy-OPLS-2005>
-260.112579345703

> <r_mmod_Stretch_Energy-OPLS-2005>
43.7545013427734

> <r_mmod_Bend_Energy-OPLS-2005>
98.2605209350586

> <r_mmod_Torsional_Energy-OPLS-2005>
244.671127319336

> <r_mmod_Improper_Torsional_Energy-OPLS-2005>
3.86209917068481

> <r_mmod_Van_der_Waal_Energy-OPLS-2005>
148.647598266602

> <r_mmod_Electrostatic_Energy-OPLS-2005>
-377.046447753906

> <r_mmod_Solvation_Energy-OPLS-2005>
-435.539031982422

> <b_mmod_Minimization_Converged-OPLS-2005>
0

> <r_mmod_RMS_Derivative-OPLS-2005>
2.39303827285767

$$$$
12
                    3D
 Structure written by MMmdl.
159168  0  0  1  0            999 V2000
  -30.6806  -14.6329   20.5617 C   0  0  0  0  0  0
  -30.4267  -12.4135   19.4492 C   0  0  0  0  0  0
  -29.4929  -12.5268   18.2226 C   0  0  0  0  0  0
  -28.0183  -12.3598   18.6325 C   0  0  0  0  0  0
  -27.6512  -13.2224   19.8663 C   0  0  2  0  0  0
  -28.6947  -13.0643   20.9936 C   0  0  0  0  0  0
  -25.2524  -13.8179   20.5655 C   0  0  0  0  0  0
  -24.1799  -13.0441   20.9151 C   0  0  0  0  0  0
  -24.6390  -11.6913   20.8763 C   0  0  0  0  0  0
  -23.9059  -10.4298   21.0412 C   0  0  0  0  0  0
  -24.3595   -9.4210   21.9213 C   0  0  0  0  0  0
  -23.6265   -8.2248   22.0785 C   0  0  0  0  0  0
  -22.4264   -8.0283   21.3552 C   0  0  0  0  0  0
  -21.9887   -9.0260   20.4663 C   0  0  0  0  0  0
  -22.7212  -10.2145   20.3079 C   0  0  0  0  0  0
  -21.6858   -6.0735   22.5246 C   0  0  0  0  0  0
  -21.4012   -6.5641   23.8178 C   0  0  0  0  0  0
  -21.3667   -5.6792   24.9141 C   0  0  0  0  0  0
  -21.6035   -4.3056   24.7196 C   0  0  0  0  0  0
  -21.8819   -3.8137   23.4328 C   0  0  0  0  0  0
  -21.9180   -4.6951   22.3377 C   0  0  0  0  0  0
  -22.7823  -13.5253   21.1786 C   0  0  0  0  0  0
  -22.1655   -4.2137   21.0957 F   0  0  0  0  0  0
  -21.5627   -3.4542   25.7724 F   0  0  0  0  0  0
  -30.0137  -13.4286   20.4474 N   0  0  0  0  0  0
  -26.2966  -12.9381   20.3323 N   0  0  0  0  0  0
  -25.9327  -11.6532   20.5781 N   0  0  0  0  0  0
  -22.0460  -12.8290   22.0370 N   0  0  0  0  0  0
  -25.4151  -15.1896   20.3994 N   0  0  0  0  0  0
  -31.7643  -14.7982   19.9973 O   0  0  0  0  0  0
  -21.6634   -6.8872   21.4220 O   0  0  0  0  0  0
  -22.3513  -14.5538   20.6592 O   0  0  0  0  0  0
  -24.6257  -31.8615   23.2033 C   0  0  0  0  0  0
  -25.9104  -32.4795   23.8366 C   0  0  1  0  0  0
  -27.2195  -27.3316   20.1351 C   0  0  0  0  0  0
  -25.5889  -33.8584   24.2275 N   0  0  0  0  0  0
  -23.4185  -30.4849   21.5445 C   0  0  2  0  0  0
  -24.8668  -28.9421   20.1076 C   0  0  0  0  0  0
  -22.7474  -29.4623   22.4941 C   0  0  0  0  0  0
  -18.0289  -28.1411   22.8495 C   0  0  0  0  0  0
  -24.1489  -36.7303   23.2649 C   0  0  0  0  0  0
  -25.9577  -30.7998   21.3690 C   0  0  0  0  0  0
  -26.0342  -29.4266   20.7145 C   0  0  0  0  0  0
  -27.2190  -28.6336   20.7169 C   0  0  0  0  0  0
  -26.0406  -26.8934   19.5015 C   0  0  0  0  0  0
  -24.8733  -27.6802   19.4907 C   0  0  0  0  0  0
  -23.6327  -29.8187   20.1593 C   0  0  0  0  0  0
  -25.4107  -36.3098   24.0343 C   0  0  1  0  0  0
  -20.5877  -28.3694   23.1300 C   0  0  2  0  0  0
  -20.6804  -26.9420   22.5430 C   0  0  0  0  0  0
  -19.5771  -26.6381   21.5258 C   0  0  0  0  0  0
  -18.1931  -26.7951   22.1629 C   0  0  0  0  0  0
  -19.1545  -28.8873   23.2886 C   0  0  0  0  0  0
  -18.9452  -30.1460   23.8932 C   0  0  0  0  0  0
  -17.6460  -30.6610   24.0565 C   0  0  0  0  0  0
  -25.9043  -34.9470   23.5128 C   0  0  0  0  0  0
  -16.5349  -29.9115   23.6343 C   0  0  0  0  0  0
  -16.7270  -28.6530   23.0361 C   0  0  0  0  0  0
  -26.4471  -31.6602   25.0730 C   0  0  0  0  0  0
  -25.3662  -31.3695   26.1426 C   0  0  0  0  0  0
  -27.0349  -30.3066   24.6129 C   0  0  0  0  0  0
  -27.6057  -32.4317   25.7465 C   0  0  0  0  0  0
  -27.5572  -37.1795   24.8460 C   0  0  0  0  0  0
  -21.4186  -29.3047   22.3691 N   0  0  0  0  0  0
  -26.4284  -37.3796   23.9411 N   0  0  0  0  0  0
  -24.6849  -31.0656   22.0959 N   0  0  0  0  0  0
  -23.4211  -28.8141   23.2985 O   0  0  0  0  0  0
  -28.3098  -26.4582   20.1607 O   0  0  0  0  0  0
  -26.5632  -34.8948   22.4701 O   0  0  0  0  0  0
  -23.5412  -32.1354   23.7381 O   0  0  0  0  0  0
  -28.4368  -19.3255   21.1835 C   0  0  0  0  0  0
  -29.1947  -23.5713   19.0891 C   0  0  0  0  0  0
  -30.4911  -19.3870   19.9765 C   0  0  0  0  0  0
  -28.6322  -17.9318   21.4685 C   0  0  0  0  0  0
  -29.8016  -17.2125   21.0172 C   0  0  0  0  0  0
  -28.6202  -23.8305   20.3677 C   0  0  0  0  0  0
  -29.3610  -20.1106   20.4434 C   0  0  0  0  0  0
  -30.7051  -18.0004   20.2420 C   0  0  0  0  0  0
  -29.5078  -22.2368   18.9992 C   0  0  0  0  0  0
  -28.6234  -22.5772   20.9834 C   0  0  0  0  0  0
  -26.9585  -17.8254   23.3430 C   0  0  0  0  0  0
  -27.6107  -17.2691   22.3085 C   0  0  0  0  0  0
  -30.1146  -15.7620   21.5033 C   0  0  0  0  0  0
  -28.1027  -25.2072   20.9207 C   0  0  0  0  0  0
  -29.9588  -15.4773   22.7350 N   0  0  0  0  0  0
  -29.1681  -21.5501   20.1684 N   0  0  0  0  0  0
  -30.0617  -21.5880   17.9348 O   0  0  0  0  0  0
  -28.1889  -22.2687   22.2398 O   0  0  0  0  0  0
  -31.8549  -17.4583   19.7740 F   0  0  0  0  0  0
  -31.4647  -12.5292   19.1355 H   0  0  0  0  0  0
  -30.3644  -11.4147   19.8871 H   0  0  0  0  0  0
  -29.7542  -11.7751   17.4779 H   0  0  0  0  0  0
  -29.6294  -13.4951   17.7409 H   0  0  0  0  0  0
  -27.8503  -11.3049   18.8522 H   0  0  0  0  0  0
  -27.3611  -12.6030   17.7971 H   0  0  0  0  0  0
  -27.6715  -14.2605   19.5371 H   0  0  0  0  0  0
  -28.7122  -12.0303   21.3454 H   0  0  0  0  0  0
  -28.4063  -13.6572   21.8575 H   0  0  0  0  0  0
  -25.2748   -9.5695   22.4792 H   0  0  0  0  0  0
  -23.9946   -7.4666   22.7548 H   0  0  0  0  0  0
  -21.0795   -8.8779   19.9001 H   0  0  0  0  0  0
  -22.3655  -10.9680   19.6196 H   0  0  0  0  0  0
  -21.2024   -7.6150   23.9667 H   0  0  0  0  0  0
  -21.1478   -6.0540   25.9041 H   0  0  0  0  0  0
  -22.0589   -2.7601   23.2811 H   0  0  0  0  0  0
  -22.4080  -11.9989   22.4813 H   0  0  0  0  0  0
  -21.1087  -13.1357   22.2577 H   0  0  0  0  0  0
  -24.6378  -15.8321   20.5036 H   0  0  0  0  0  0
  -26.2553  -15.6359   20.0547 H   0  0  0  0  0  0
  -26.7149  -32.5480   23.1095 H   0  0  0  0  0  0
  -25.0045  -33.9721   25.0421 H   0  0  0  0  0  0
  -22.7113  -31.3029   21.3964 H   0  0  0  0  0  0
  -23.3809  -35.9593   23.3311 H   0  0  0  0  0  0
  -24.3569  -36.8933   22.2064 H   0  0  0  0  0  0
  -23.7199  -37.6480   23.6661 H   0  0  0  0  0  0
  -26.0845  -31.5634   20.5994 H   0  0  0  0  0  0
  -26.8437  -30.8541   21.9928 H   0  0  0  0  0  0
  -28.1153  -28.9998   21.1976 H   0  0  0  0  0  0
  -26.0174  -25.9189   19.0304 H   0  0  0  0  0  0
  -23.9785  -27.3021   19.0156 H   0  0  0  0  0  0
  -23.7447  -30.5958   19.4041 H   0  0  0  0  0  0
  -22.7538  -29.2450   19.8560 H   0  0  0  0  0  0
  -25.1293  -36.1972   25.0842 H   0  0  0  0  0  0
  -20.9915  -28.3280   24.1428 H   0  0  0  0  0  0
  -20.5771  -26.2307   23.3640 H   0  0  0  0  0  0
  -21.6640  -26.7488   22.1166 H   0  0  0  0  0  0
  -19.6963  -25.6299   21.1264 H   0  0  0  0  0  0
  -19.6739  -27.3208   20.6806 H   0  0  0  0  0  0
  -17.4202  -26.6744   21.3999 H   0  0  0  0  0  0
  -18.0290  -26.0075   22.9004 H   0  0  0  0  0  0
  -19.7926  -30.7258   24.2332 H   0  0  0  0  0  0
  -17.5018  -31.6295   24.5156 H   0  0  0  0  0  0
  -15.5352  -30.3037   23.7670 H   0  0  0  0  0  0
  -15.8652  -28.0848   22.7092 H   0  0  0  0  0  0
  -24.5907  -30.6962   25.7726 H   0  0  0  0  0  0
  -24.8746  -32.2824   26.4788 H   0  0  0  0  0  0
  -25.7966  -30.8909   27.0235 H   0  0  0  0  0  0
  -26.2921  -29.6788   24.1182 H   0  0  0  0  0  0
  -27.4155  -29.7331   25.4602 H   0  0  0  0  0  0
  -27.8729  -30.4462   23.9303 H   0  0  0  0  0  0
  -27.2732  -33.3676   26.1959 H   0  0  0  0  0  0
  -28.3888  -32.6754   25.0267 H   0  0  0  0  0  0
  -28.0694  -31.8461   26.5415 H   0  0  0  0  0  0
  -28.2580  -38.0112   24.7533 H   0  0  0  0  0  0
  -28.1088  -36.2630   24.6257 H   0  0  0  0  0  0
  -27.2285  -37.1389   25.8869 H   0  0  0  0  0  0
  -20.9392  -29.8753   21.6865 H   0  0  0  0  0  0
  -26.0206  -38.2892   24.1420 H   0  0  0  0  0  0
  -27.5396  -19.8080   21.5458 H   0  0  0  0  0  0
  -29.3564  -24.3073   18.3145 H   0  0  0  0  0  0
  -31.2456  -19.9106   19.4070 H   0  0  0  0  0  0
  -26.2236  -17.2563   23.8969 H   0  0  0  0  0  0
  -27.1459  -18.8394   23.6683 H   0  0  0  0  0  0
  -27.3570  -16.2508   22.0483 H   0  0  0  0  0  0
  -28.5970  -25.3578   21.8793 H   0  0  0  0  0  0
  -27.0491  -25.0726   21.1710 H   0  0  0  0  0  0
  -29.6150  -16.2817   23.2488 H   0  0  0  0  0  0
  -30.2834  -22.2380   17.2742 H   0  0  0  0  0  0
  -27.8189  -23.0572   22.6228 H   0  0  0  0  0  0
  1 25  1  0  0  0
  1 30  2  0  0  0
  1 83  1  0  0  0
  2  3  1  0  0  0
  2 25  1  0  0  0
  2 90  1  0  0  0
  2 91  1  0  0  0
  3  4  1  0  0  0
  3 92  1  0  0  0
  3 93  1  0  0  0
  4  5  1  0  0  0
  4 94  1  0  0  0
  4 95  1  0  0  0
  5  6  1  0  0  0
  5 26  1  0  0  0
  5 96  1  0  0  0
  6 25  1  0  0  0
  6 97  1  0  0  0
  6 98  1  0  0  0
  7  8  2  0  0  0
  7 26  1  0  0  0
  7 29  1  0  0  0
  8  9  1  0  0  0
  8 22  1  0  0  0
  9 10  1  0  0  0
  9 27  2  0  0  0
 10 11  2  0  0  0
 10 15  1  0  0  0
 11 12  1  0  0  0
 11 99  1  0  0  0
 12 13  2  0  0  0
 12100  1  0  0  0
 13 14  1  0  0  0
 13 31  1  0  0  0
 14 15  2  0  0  0
 14101  1  0  0  0
 15102  1  0  0  0
 16 17  2  0  0  0
 16 21  1  0  0  0
 16 31  1  0  0  0
 17 18  1  0  0  0
 17103  1  0  0  0
 18 19  2  0  0  0
 18104  1  0  0  0
 19 20  1  0  0  0
 19 24  1  0  0  0
 20 21  2  0  0  0
 20105  1  0  0  0
 21 23  1  0  0  0
 22 28  1  0  0  0
 22 32  2  0  0  0
 26 27  1  0  0  0
 28106  1  0  0  0
 28107  1  0  0  0
 29108  1  0  0  0
 29109  1  0  0  0
 33 34  1  0  0  0
 33 66  1  0  0  0
 33 70  2  0  0  0
 34 36  1  0  0  0
 34 59  1  0  0  0
 34110  1  0  0  0
 35 44  2  0  0  0
 35 45  1  0  0  0
 35 68  1  0  0  0
 36 56  1  0  0  0
 36111  1  0  0  0
 37 39  1  0  0  0
 37 47  1  0  0  0
 37 66  1  0  0  0
 37112  1  0  0  0
 38 43  2  0  0  0
 38 46  1  0  0  0
 38 47  1  0  0  0
 39 64  1  0  0  0
 39 67  2  0  0  0
 40 52  1  0  0  0
 40 53  2  0  0  0
 40 58  1  0  0  0
 41113  1  0  0  0
 41114  1  0  0  0
 41115  1  0  0  0
 41 48  1  0  0  0
 42 43  1  0  0  0
 42 66  1  0  0  0
 42116  1  0  0  0
 42117  1  0  0  0
 43 44  1  0  0  0
 44118  1  0  0  0
 45 46  2  0  0  0
 45119  1  0  0  0
 46120  1  0  0  0
 47121  1  0  0  0
 47122  1  0  0  0
 48 56  1  0  0  0
 48 65  1  0  0  0
 48123  1  0  0  0
 49 50  1  0  0  0
 49 53  1  0  0  0
 49 64  1  0  0  0
 49124  1  0  0  0
 50 51  1  0  0  0
 50125  1  0  0  0
 50126  1  0  0  0
 51 52  1  0  0  0
 51127  1  0  0  0
 51128  1  0  0  0
 52129  1  0  0  0
 52130  1  0  0  0
 53 54  1  0  0  0
 54 55  2  0  0  0
 54131  1  0  0  0
 55 57  1  0  0  0
 55132  1  0  0  0
 56 69  2  0  0  0
 57 58  2  0  0  0
 57133  1  0  0  0
 58134  1  0  0  0
 59 60  1  0  0  0
 59 61  1  0  0  0
 59 62  1  0  0  0
 60135  1  0  0  0
 60136  1  0  0  0
 60137  1  0  0  0
 61138  1  0  0  0
 61139  1  0  0  0
 61140  1  0  0  0
 62141  1  0  0  0
 62142  1  0  0  0
 62143  1  0  0  0
 63 65  1  0  0  0
 63144  1  0  0  0
 63145  1  0  0  0
 63146  1  0  0  0
 64147  1  0  0  0
 65148  1  0  0  0
 68 84  1  0  0  0
 71 74  2  0  0  0
 71 77  1  0  0  0
 71149  1  0  0  0
 72 76  1  0  0  0
 72 79  2  0  0  0
 72150  1  0  0  0
 73 77  2  0  0  0
 73 78  1  0  0  0
 73151  1  0  0  0
 74 75  1  0  0  0
 74 82  1  0  0  0
 75 78  2  0  0  0
 75 83  1  0  0  0
 76 80  2  0  0  0
 76 84  1  0  0  0
 77 86  1  0  0  0
 78 89  1  0  0  0
 79 86  1  0  0  0
 79 87  1  0  0  0
 80 86  1  0  0  0
 80 88  1  0  0  0
 81 82  2  0  0  0
 81152  1  0  0  0
 81153  1  0  0  0
 82154  1  0  0  0
 83 85  2  0  0  0
 84155  1  0  0  0
 84156  1  0  0  0
 85157  1  0  0  0
 87158  1  0  0  0
 88159  1  0  0  0
M  ISO  4   1 100  68 101  83 100  84 101
M  END
> <chiral flag>
0

> <version>
0

> <s_m_source_file>
/data/baiqing/PycharmProjects/Reinvent-master-3.2/result/LINK_invent/BTK/process_docking_weight1_custom_product_contain_oxygen_bond_distance_aromatic_linkinvent_7_9_3/rearranged_h_0078.sdf

> <i_m_source_file_index>
13

> <r_mmod_Potential_Energy-OPLS-2005>
272.775817871094

> <r_mmod_Stretch_Energy-OPLS-2005>
97.5938034057617

> <r_mmod_Bend_Energy-OPLS-2005>
147.652587890625

> <r_mmod_Torsional_Energy-OPLS-2005>
260.918060302734

> <r_mmod_Improper_Torsional_Energy-OPLS-2005>
3.63417458534241

> <r_mmod_Van_der_Waal_Energy-OPLS-2005>
147.706253051758

> <r_mmod_Electrostatic_Energy-OPLS-2005>
-213.230651855469

> <r_mmod_Solvation_Energy-OPLS-2005>
-216.88362121582

> <b_mmod_Minimization_Converged-OPLS-2005>
0

> <r_mmod_RMS_Derivative-OPLS-2005>
4.36989307403564

$$$$
13
                    3D
 Structure written by MMmdl.
161170  0  0  1  0            999 V2000
  -30.7519  -14.3693   20.6361 C   0  0  0  0  0  0
  -30.4160  -12.2693   19.4009 C   0  0  0  0  0  0
  -29.4863  -12.5173   18.1969 C   0  0  0  0  0  0
  -28.0070  -12.3881   18.6079 C   0  0  0  0  0  0
  -27.6678  -13.2029   19.8844 C   0  0  2  0  0  0
  -28.7064  -12.9342   20.9971 C   0  0  0  0  0  0
  -25.2558  -13.8145   20.5607 C   0  0  0  0  0  0
  -24.1809  -13.0430   20.9094 C   0  0  0  0  0  0
  -24.6380  -11.6901   20.8710 C   0  0  0  0  0  0
  -23.9056  -10.4293   21.0395 C   0  0  0  0  0  0
  -24.3618   -9.4218   21.9178 C   0  0  0  0  0  0
  -23.6297   -8.2255   22.0763 C   0  0  0  0  0  0
  -22.4281   -8.0284   21.3548 C   0  0  0  0  0  0
  -21.9912   -9.0252   20.4645 C   0  0  0  0  0  0
  -22.7233  -10.2128   20.3045 C   0  0  0  0  0  0
  -21.6852   -6.0735   22.5279 C   0  0  0  0  0  0
  -21.4012   -6.5639   23.8211 C   0  0  0  0  0  0
  -21.3665   -5.6794   24.9179 C   0  0  0  0  0  0
  -21.6049   -4.3057   24.7230 C   0  0  0  0  0  0
  -21.8815   -3.8144   23.4349 C   0  0  0  0  0  0
  -21.9196   -4.6963   22.3401 C   0  0  0  0  0  0
  -22.7841  -13.5232   21.1800 C   0  0  0  0  0  0
  -22.1667   -4.2146   21.0978 F   0  0  0  0  0  0
  -21.5645   -3.4542   25.7750 F   0  0  0  0  0  0
  -30.0528  -13.2183   20.4623 N   0  0  0  0  0  0
  -26.3045  -12.9330   20.3412 N   0  0  0  0  0  0
  -25.9317  -11.6489   20.5778 N   0  0  0  0  0  0
  -22.0494  -12.8231   22.0376 N   0  0  0  0  0  0
  -25.4258  -15.1846   20.4002 N   0  0  0  0  0  0
  -31.8158  -14.6115   20.0570 O   0  0  0  0  0  0
  -21.6649   -6.8879   21.4244 O   0  0  0  0  0  0
  -22.3519  -14.5552   20.6679 O   0  0  0  0  0  0
  -24.6079  -31.8716   23.2137 C   0  0  0  0  0  0
  -25.8996  -32.4844   23.8420 C   0  0  1  0  0  0
  -27.2446  -27.4929   20.0946 C   0  0  0  0  0  0
  -25.5875  -33.8644   24.2350 N   0  0  0  0  0  0
  -23.3932  -30.4933   21.5529 C   0  0  2  0  0  0
  -24.8401  -28.9581   20.1230 C   0  0  0  0  0  0
  -22.7373  -29.4675   22.5029 C   0  0  0  0  0  0
  -18.0263  -28.1389   22.8511 C   0  0  0  0  0  0
  -24.1491  -36.7324   23.2646 C   0  0  0  0  0  0
  -25.9141  -30.8563   21.3555 C   0  0  0  0  0  0
  -25.9945  -29.4910   20.7108 C   0  0  0  0  0  0
  -27.2001  -28.7654   20.6914 C   0  0  0  0  0  0
  -26.0769  -26.9513   19.5148 C   0  0  0  0  0  0
  -24.8721  -27.6831   19.5268 C   0  0  0  0  0  0
  -23.5980  -29.8185   20.1691 C   0  0  0  0  0  0
  -25.4111  -36.3126   24.0348 C   0  0  1  0  0  0
  -20.5847  -28.3661   23.1353 C   0  0  2  0  0  0
  -20.6748  -26.9402   22.5441 C   0  0  0  0  0  0
  -19.5729  -26.6396   21.5230 C   0  0  0  0  0  0
  -18.1903  -26.7944   22.1628 C   0  0  0  0  0  0
  -19.1511  -28.8843   23.2928 C   0  0  0  0  0  0
  -18.9440  -30.1453   23.8934 C   0  0  0  0  0  0
  -17.6446  -30.6596   24.0586 C   0  0  0  0  0  0
  -25.9038  -34.9491   23.5149 C   0  0  0  0  0  0
  -16.5339  -29.9106   23.6331 C   0  0  0  0  0  0
  -16.7254  -28.6518   23.0359 C   0  0  0  0  0  0
  -26.4452  -31.6620   25.0733 C   0  0  0  0  0  0
  -25.3733  -31.3680   26.1487 C   0  0  0  0  0  0
  -27.0305  -30.3088   24.6074 C   0  0  0  0  0  0
  -27.6032  -32.4339   25.7496 C   0  0  0  0  0  0
  -27.5588  -37.1822   24.8470 C   0  0  0  0  0  0
  -21.4109  -29.3027   22.3765 N   0  0  0  0  0  0
  -26.4300  -37.3807   23.9411 N   0  0  0  0  0  0
  -24.6566  -31.0870   22.1004 N   0  0  0  0  0  0
  -23.4170  -28.8230   23.3058 O   0  0  0  0  0  0
  -28.4481  -26.8452   20.0331 O   0  0  0  0  0  0
  -26.5606  -34.8932   22.4711 O   0  0  0  0  0  0
  -23.5289  -32.1436   23.7572 O   0  0  0  0  0  0
  -30.9208  -18.7692   20.4206 C   0  0  0  0  0  0
  -31.1491  -17.4407   20.8233 C   0  0  0  0  0  0
  -28.5364  -18.4699   20.7547 C   0  0  0  0  0  0
  -29.6088  -19.3087   20.3520 C   0  0  0  0  0  0
  -30.0595  -16.6136   21.1599 C   0  0  0  0  0  0
  -28.7629  -17.1444   21.1578 C   0  0  0  0  0  0
  -30.1316  -22.6634   18.6295 C   0  0  0  0  0  0
  -29.1655  -23.4063   19.4151 C   0  0  0  0  0  0
  -30.7189  -23.2011   17.5457 C   0  0  0  0  0  0
  -29.4082  -24.6806   19.7758 C   0  0  0  0  0  0
  -27.9225  -22.6679   19.8763 C   0  0  0  0  0  0
  -30.4403  -21.2398   19.0524 C   0  0  0  0  0  0
  -28.0232  -21.1400   19.7185 C   0  0  0  0  0  0
  -28.5050  -25.5571   20.6146 C   0  0  0  0  0  0
  -29.3949  -20.6357   19.8949 N   0  0  0  0  0  0
  -30.1928  -15.2447   21.4762 N   0  0  0  0  0  0
  -27.7222  -16.3529   21.5085 F   0  0  0  0  0  0
  -31.4596  -12.3623   19.0941 H   0  0  0  0  0  0
  -30.3070  -11.2469   19.7660 H   0  0  0  0  0  0
  -29.7140  -11.8136   17.3952 H   0  0  0  0  0  0
  -29.6668  -13.5135   17.7889 H   0  0  0  0  0  0
  -27.7967  -11.3310   18.7743 H   0  0  0  0  0  0
  -27.3612  -12.6988   17.7862 H   0  0  0  0  0  0
  -27.7267  -14.2582   19.6163 H   0  0  0  0  0  0
  -28.6598  -11.8889   21.3073 H   0  0  0  0  0  0
  -28.4604  -13.5039   21.8930 H   0  0  0  0  0  0
  -25.2766   -9.5723   22.4743 H   0  0  0  0  0  0
  -24.0027   -7.4665   22.7493 H   0  0  0  0  0  0
  -21.0850   -8.8749   19.8951 H   0  0  0  0  0  0
  -22.3685  -10.9663   19.6153 H   0  0  0  0  0  0
  -21.1987   -7.6144   23.9715 H   0  0  0  0  0  0
  -21.1502   -6.0527   25.9087 H   0  0  0  0  0  0
  -22.0588   -2.7604   23.2852 H   0  0  0  0  0  0
  -22.4097  -11.9867   22.4729 H   0  0  0  0  0  0
  -21.1134  -13.1290   22.2629 H   0  0  0  0  0  0
  -24.6808  -15.8497   20.5698 H   0  0  0  0  0  0
  -26.3397  -15.6210   20.3445 H   0  0  0  0  0  0
  -26.7076  -32.5592   23.1209 H   0  0  0  0  0  0
  -25.0020  -33.9819   25.0491 H   0  0  0  0  0  0
  -22.6788  -31.3072   21.4145 H   0  0  0  0  0  0
  -23.3753  -35.9657   23.3321 H   0  0  0  0  0  0
  -24.3578  -36.8928   22.2052 H   0  0  0  0  0  0
  -23.7244  -37.6534   23.6662 H   0  0  0  0  0  0
  -26.0113  -31.6213   20.5838 H   0  0  0  0  0  0
  -26.8073  -30.9176   21.9650 H   0  0  0  0  0  0
  -28.0973  -29.1818   21.1281 H   0  0  0  0  0  0
  -26.1032  -25.9810   19.0392 H   0  0  0  0  0  0
  -23.9846  -27.2654   19.0716 H   0  0  0  0  0  0
  -23.6988  -30.5897   19.4047 H   0  0  0  0  0  0
  -22.7252  -29.2305   19.8793 H   0  0  0  0  0  0
  -25.1282  -36.2010   25.0843 H   0  0  0  0  0  0
  -20.9941  -28.3233   24.1473 H   0  0  0  0  0  0
  -20.5656  -26.2267   23.3622 H   0  0  0  0  0  0
  -21.6622  -26.7452   22.1242 H   0  0  0  0  0  0
  -19.6889  -25.6315   21.1236 H   0  0  0  0  0  0
  -19.6674  -27.3222   20.6777 H   0  0  0  0  0  0
  -17.4182  -26.6733   21.4013 H   0  0  0  0  0  0
  -18.0268  -26.0072   22.9007 H   0  0  0  0  0  0
  -19.7913  -30.7262   24.2313 H   0  0  0  0  0  0
  -17.5004  -31.6272   24.5194 H   0  0  0  0  0  0
  -15.5342  -30.3028   23.7627 H   0  0  0  0  0  0
  -15.8656  -28.0851   22.7059 H   0  0  0  0  0  0
  -24.5952  -30.6971   25.7837 H   0  0  0  0  0  0
  -24.8858  -32.2803   26.4930 H   0  0  0  0  0  0
  -25.8103  -30.8886   27.0252 H   0  0  0  0  0  0
  -26.2843  -29.6836   24.1159 H   0  0  0  0  0  0
  -27.4142  -29.7337   25.4513 H   0  0  0  0  0  0
  -27.8639  -30.4451   23.9176 H   0  0  0  0  0  0
  -27.2648  -33.3617   26.2124 H   0  0  0  0  0  0
  -28.3808  -32.6932   25.0301 H   0  0  0  0  0  0
  -28.0747  -31.8442   26.5368 H   0  0  0  0  0  0
  -28.2616  -38.0110   24.7521 H   0  0  0  0  0  0
  -28.1072  -36.2644   24.6304 H   0  0  0  0  0  0
  -27.2305  -37.1490   25.8873 H   0  0  0  0  0  0
  -20.9270  -29.8741   21.6980 H   0  0  0  0  0  0
  -26.0198  -38.2887   24.1430 H   0  0  0  0  0  0
  -31.7928  -19.3461   20.1564 H   0  0  0  0  0  0
  -32.1599  -17.0589   20.8420 H   0  0  0  0  0  0
  -27.5074  -18.7835   20.7478 H   0  0  0  0  0  0
  -30.4967  -24.2077   17.2202 H   0  0  0  0  0  0
  -31.4300  -22.6389   16.9570 H   0  0  0  0  0  0
  -30.3327  -25.1502   19.4707 H   0  0  0  0  0  0
  -27.0426  -23.0501   19.3563 H   0  0  0  0  0  0
  -27.7808  -22.8782   20.9373 H   0  0  0  0  0  0
  -31.3809  -21.2952   19.6003 H   0  0  0  0  0  0
  -30.6067  -20.6230   18.1671 H   0  0  0  0  0  0
  -27.6828  -20.8538   18.7214 H   0  0  0  0  0  0
  -27.3104  -20.7220   20.4251 H   0  0  0  0  0  0
  -28.9452  -25.6497   21.6077 H   0  0  0  0  0  0
  -27.5193  -25.1122   20.7519 H   0  0  0  0  0  0
  -29.3897  -14.8641   21.9539 H   0  0  0  0  0  0
  1 25  1  0  0  0
  1 30  2  0  0  0
  1 86  1  0  0  0
  2  3  1  0  0  0
  2 25  1  0  0  0
  2 88  1  0  0  0
  2 89  1  0  0  0
  3  4  1  0  0  0
  3 90  1  0  0  0
  3 91  1  0  0  0
  4  5  1  0  0  0
  4 92  1  0  0  0
  4 93  1  0  0  0
  5  6  1  0  0  0
  5 26  1  0  0  0
  5 94  1  0  0  0
  6 25  1  0  0  0
  6 95  1  0  0  0
  6 96  1  0  0  0
  7  8  2  0  0  0
  7 26  1  0  0  0
  7 29  1  0  0  0
  8  9  1  0  0  0
  8 22  1  0  0  0
  9 10  1  0  0  0
  9 27  2  0  0  0
 10 11  2  0  0  0
 10 15  1  0  0  0
 11 12  1  0  0  0
 11 97  1  0  0  0
 12 13  2  0  0  0
 12 98  1  0  0  0
 13 14  1  0  0  0
 13 31  1  0  0  0
 14 15  2  0  0  0
 14 99  1  0  0  0
 15100  1  0  0  0
 16 17  2  0  0  0
 16 21  1  0  0  0
 16 31  1  0  0  0
 17 18  1  0  0  0
 17101  1  0  0  0
 18 19  2  0  0  0
 18102  1  0  0  0
 19 20  1  0  0  0
 19 24  1  0  0  0
 20 21  2  0  0  0
 20103  1  0  0  0
 21 23  1  0  0  0
 22 28  1  0  0  0
 22 32  2  0  0  0
 26 27  1  0  0  0
 28104  1  0  0  0
 28105  1  0  0  0
 29106  1  0  0  0
 29107  1  0  0  0
 33 34  1  0  0  0
 33 66  1  0  0  0
 33 70  2  0  0  0
 34 36  1  0  0  0
 34 59  1  0  0  0
 34108  1  0  0  0
 35 44  2  0  0  0
 35 45  1  0  0  0
 35 68  1  0  0  0
 36 56  1  0  0  0
 36109  1  0  0  0
 37 39  1  0  0  0
 37 47  1  0  0  0
 37 66  1  0  0  0
 37110  1  0  0  0
 38 43  2  0  0  0
 38 46  1  0  0  0
 38 47  1  0  0  0
 39 64  1  0  0  0
 39 67  2  0  0  0
 40 52  1  0  0  0
 40 53  2  0  0  0
 40 58  1  0  0  0
 41111  1  0  0  0
 41112  1  0  0  0
 41113  1  0  0  0
 41 48  1  0  0  0
 42 43  1  0  0  0
 42 66  1  0  0  0
 42114  1  0  0  0
 42115  1  0  0  0
 43 44  1  0  0  0
 44116  1  0  0  0
 45 46  2  0  0  0
 45117  1  0  0  0
 46118  1  0  0  0
 47119  1  0  0  0
 47120  1  0  0  0
 48 56  1  0  0  0
 48 65  1  0  0  0
 48121  1  0  0  0
 49 50  1  0  0  0
 49 53  1  0  0  0
 49 64  1  0  0  0
 49122  1  0  0  0
 50 51  1  0  0  0
 50123  1  0  0  0
 50124  1  0  0  0
 51 52  1  0  0  0
 51125  1  0  0  0
 51126  1  0  0  0
 52127  1  0  0  0
 52128  1  0  0  0
 53 54  1  0  0  0
 54 55  2  0  0  0
 54129  1  0  0  0
 55 57  1  0  0  0
 55130  1  0  0  0
 56 69  2  0  0  0
 57 58  2  0  0  0
 57131  1  0  0  0
 58132  1  0  0  0
 59 60  1  0  0  0
 59 61  1  0  0  0
 59 62  1  0  0  0
 60133  1  0  0  0
 60134  1  0  0  0
 60135  1  0  0  0
 61136  1  0  0  0
 61137  1  0  0  0
 61138  1  0  0  0
 62139  1  0  0  0
 62140  1  0  0  0
 62141  1  0  0  0
 63 65  1  0  0  0
 63142  1  0  0  0
 63143  1  0  0  0
 63144  1  0  0  0
 64145  1  0  0  0
 65146  1  0  0  0
 68 84  1  0  0  0
 71 72  2  0  0  0
 71 74  1  0  0  0
 71147  1  0  0  0
 72 75  1  0  0  0
 72148  1  0  0  0
 73 74  2  0  0  0
 73 76  1  0  0  0
 73149  1  0  0  0
 74 85  1  0  0  0
 75 76  2  0  0  0
 75 86  1  0  0  0
 76 87  1  0  0  0
 77 78  1  0  0  0
 77 79  2  0  0  0
 77 82  1  0  0  0
 78 80  2  0  0  0
 78 81  1  0  0  0
 79150  1  0  0  0
 79151  1  0  0  0
 80 84  1  0  0  0
 80152  1  0  0  0
 81 83  1  0  0  0
 81153  1  0  0  0
 81154  1  0  0  0
 82 85  1  0  0  0
 82155  1  0  0  0
 82156  1  0  0  0
 83 85  1  0  0  0
 83157  1  0  0  0
 83158  1  0  0  0
 84159  1  0  0  0
 84160  1  0  0  0
 86161  1  0  0  0
M  ISO  4   1 100  68 101  84 101  86 100
M  END
> <chiral flag>
0

> <version>
0

> <s_m_source_file>
/data/baiqing/PycharmProjects/Reinvent-master-3.2/result/LINK_invent/BTK/process_docking_weight1_custom_product_contain_oxygen_bond_distance_aromatic_linkinvent_7_9_3/rearranged_h_0078.sdf

> <i_m_source_file_index>
14

> <r_mmod_Potential_Energy-OPLS-2005>
-49.1445617675781

> <r_mmod_Stretch_Energy-OPLS-2005>
33.9106216430664

> <r_mmod_Bend_Energy-OPLS-2005>
113.296951293945

> <r_mmod_Torsional_Energy-OPLS-2005>
259.740325927734

> <r_mmod_Improper_Torsional_Energy-OPLS-2005>
7.91135597229004

> <r_mmod_Van_der_Waal_Energy-OPLS-2005>
184.935638427734

> <r_mmod_Electrostatic_Energy-OPLS-2005>
-447.162017822266

> <r_mmod_Solvation_Energy-OPLS-2005>
-209.33772277832

> <b_mmod_Minimization_Converged-OPLS-2005>
0

> <r_mmod_RMS_Derivative-OPLS-2005>
1.34901583194733

$$$$
14
                    3D
 Structure written by MMmdl.
156165  0  0  1  0            999 V2000
  -30.5124  -14.9077   20.4402 C   0  0  0  0  0  0
  -30.4550  -12.5589   19.4918 C   0  0  0  0  0  0
  -29.5277  -12.5326   18.2526 C   0  0  0  0  0  0
  -28.0567  -12.3234   18.6654 C   0  0  0  0  0  0
  -27.6398  -13.2365   19.8475 C   0  0  2  0  0  0
  -28.6834  -13.2097   20.9860 C   0  0  0  0  0  0
  -25.2504  -13.8189   20.5683 C   0  0  0  0  0  0
  -24.1805  -13.0433   20.9217 C   0  0  0  0  0  0
  -24.6400  -11.6912   20.8746 C   0  0  0  0  0  0
  -23.9074  -10.4288   21.0404 C   0  0  0  0  0  0
  -24.3621   -9.4205   21.9184 C   0  0  0  0  0  0
  -23.6292   -8.2242   22.0757 C   0  0  0  0  0  0
  -22.4273   -8.0279   21.3545 C   0  0  0  0  0  0
  -21.9910   -9.0256   20.4649 C   0  0  0  0  0  0
  -22.7243  -10.2133   20.3054 C   0  0  0  0  0  0
  -21.6853   -6.0731   22.5276 C   0  0  0  0  0  0
  -21.4019   -6.5637   23.8211 C   0  0  0  0  0  0
  -21.3661   -5.6790   24.9173 C   0  0  0  0  0  0
  -21.6045   -4.3052   24.7224 C   0  0  0  0  0  0
  -21.8820   -3.8142   23.4347 C   0  0  0  0  0  0
  -21.9193   -4.6958   22.3402 C   0  0  0  0  0  0
  -22.7823  -13.5217   21.1868 C   0  0  0  0  0  0
  -22.1660   -4.2143   21.0978 F   0  0  0  0  0  0
  -21.5625   -3.4538   25.7740 F   0  0  0  0  0  0
  -29.9693  -13.6274   20.4061 N   0  0  0  0  0  0
  -26.2930  -12.9400   20.3248 N   0  0  0  0  0  0
  -25.9331  -11.6542   20.5733 N   0  0  0  0  0  0
  -22.0463  -12.8216   22.0424 N   0  0  0  0  0  0
  -25.4176  -15.1913   20.4066 N   0  0  0  0  0  0
  -31.6976  -15.0518   20.1188 O   0  0  0  0  0  0
  -21.6638   -6.8875   21.4238 O   0  0  0  0  0  0
  -22.3512  -14.5520   20.6705 O   0  0  0  0  0  0
  -24.6423  -31.8457   23.1894 C   0  0  0  0  0  0
  -25.9202  -32.4701   23.8282 C   0  0  1  0  0  0
  -27.2204  -27.1555   20.1441 C   0  0  0  0  0  0
  -25.5954  -33.8505   24.2199 N   0  0  0  0  0  0
  -23.4448  -30.4664   21.5352 C   0  0  2  0  0  0
  -24.8937  -28.8957   20.1121 C   0  0  0  0  0  0
  -22.7564  -29.4562   22.4871 C   0  0  0  0  0  0
  -18.0305  -28.1393   22.8485 C   0  0  0  0  0  0
  -24.1491  -36.7262   23.2644 C   0  0  0  0  0  0
  -26.0001  -30.7260   21.3849 C   0  0  0  0  0  0
  -26.0718  -29.3388   20.7261 C   0  0  0  0  0  0
  -27.2373  -28.4861   20.7228 C   0  0  0  0  0  0
  -26.0132  -26.8085   19.4968 C   0  0  0  0  0  0
  -24.8762  -27.6435   19.4822 C   0  0  0  0  0  0
  -23.6698  -29.7962   20.1546 C   0  0  0  0  0  0
  -25.4121  -36.3035   24.0319 C   0  0  1  0  0  0
  -20.5918  -28.3721   23.1243 C   0  0  2  0  0  0
  -20.6788  -26.9427   22.5407 C   0  0  0  0  0  0
  -19.5757  -26.6383   21.5217 C   0  0  0  0  0  0
  -18.1940  -26.7933   22.1630 C   0  0  0  0  0  0
  -19.1562  -28.8875   23.2857 C   0  0  0  0  0  0
  -18.9476  -30.1471   23.8881 C   0  0  0  0  0  0
  -17.6472  -30.6591   24.0560 C   0  0  0  0  0  0
  -25.9072  -34.9409   23.5068 C   0  0  0  0  0  0
  -16.5364  -29.9084   23.6333 C   0  0  0  0  0  0
  -16.7290  -28.6501   23.0360 C   0  0  0  0  0  0
  -26.4524  -31.6563   25.0717 C   0  0  0  0  0  0
  -25.3711  -31.3751   26.1417 C   0  0  0  0  0  0
  -27.0380  -30.2957   24.6287 C   0  0  0  0  0  0
  -27.6056  -32.4326   25.7502 C   0  0  0  0  0  0
  -27.5576  -37.1790   24.8466 C   0  0  0  0  0  0
  -21.4256  -29.3051   22.3618 N   0  0  0  0  0  0
  -26.4284  -37.3747   23.9409 N   0  0  0  0  0  0
  -24.7156  -31.0334   22.0916 N   0  0  0  0  0  0
  -23.4220  -28.8106   23.3011 O   0  0  0  0  0  0
  -28.2856  -26.1878   20.1968 O   0  0  0  0  0  0
  -26.5659  -34.8908   22.4647 O   0  0  0  0  0  0
  -23.5547  -32.1325   23.7128 O   0  0  0  0  0  0
  -28.0169  -19.5356   20.9106 C   0  0  0  0  0  0
  -30.2356  -19.9641   20.2532 C   0  0  0  0  0  0
  -28.2807  -18.1179   20.9112 C   0  0  0  0  0  0
  -30.5067  -18.5196   20.2508 C   0  0  0  0  0  0
  -28.9672  -20.5600   20.6003 C   0  0  0  0  0  0
  -29.5359  -17.5093   20.5972 C   0  0  0  0  0  0
  -30.0539  -23.8042   21.4172 C   0  0  0  0  0  0
  -29.6652  -23.1025   22.6282 C   0  0  0  0  0  0
  -31.1238  -24.6104   21.3102 C   0  0  0  0  0  0
  -28.5342  -22.1451   22.2834 C   0  0  0  0  0  0
  -29.0849  -23.3849   20.3375 C   0  0  2  0  0  0
  -27.9962  -24.6620   20.1850 C   0  0  0  0  0  0
  -28.5829  -21.9850   20.8195 N   0  0  0  0  0  0
  -29.6285  -15.9837   20.6812 N   0  0  0  0  0  0
  -30.1518  -23.2206   23.7565 O   0  0  0  0  0  0
  -31.4871  -12.7310   19.1819 H   0  0  0  0  0  0
  -30.4534  -11.5929   19.9986 H   0  0  0  0  0  0
  -29.8398  -11.7473   17.5630 H   0  0  0  0  0  0
  -29.6229  -13.4723   17.7062 H   0  0  0  0  0  0
  -27.9402  -11.2779   18.9527 H   0  0  0  0  0  0
  -27.3967  -12.4801   17.8113 H   0  0  0  0  0  0
  -27.6188  -14.2490   19.4442 H   0  0  0  0  0  0
  -28.7578  -12.2132   21.4241 H   0  0  0  0  0  0
  -28.3863  -13.8745   21.7983 H   0  0  0  0  0  0
  -25.2766   -9.5681   22.4762 H   0  0  0  0  0  0
  -23.9998   -7.4635   22.7480 H   0  0  0  0  0  0
  -21.0840   -8.8779   19.8959 H   0  0  0  0  0  0
  -22.3701  -10.9673   19.6163 H   0  0  0  0  0  0
  -21.2017   -7.6146   23.9714 H   0  0  0  0  0  0
  -21.1480   -6.0520   25.9077 H   0  0  0  0  0  0
  -22.0597   -2.7603   23.2848 H   0  0  0  0  0  0
  -22.4078  -11.9890   22.4836 H   0  0  0  0  0  0
  -21.1080  -13.1250   22.2615 H   0  0  0  0  0  0
  -24.6357  -15.8319   20.4893 H   0  0  0  0  0  0
  -26.2343  -15.6196   19.9915 H   0  0  0  0  0  0
  -26.7271  -32.5314   23.1016 H   0  0  0  0  0  0
  -25.0070  -33.9613   25.0327 H   0  0  0  0  0  0
  -22.7464  -31.2918   21.3821 H   0  0  0  0  0  0
  -23.3751  -35.9595   23.3294 H   0  0  0  0  0  0
  -24.3580  -36.8906   22.2062 H   0  0  0  0  0  0
  -23.7247  -37.6456   23.6687 H   0  0  0  0  0  0
  -26.1546  -31.4816   20.6134 H   0  0  0  0  0  0
  -26.8708  -30.7753   22.0269 H   0  0  0  0  0  0
  -28.1371  -28.8228   21.2177 H   0  0  0  0  0  0
  -25.9099  -25.8559   19.0020 H   0  0  0  0  0  0
  -23.9768  -27.2995   18.9901 H   0  0  0  0  0  0
  -23.8064  -30.5704   19.3986 H   0  0  0  0  0  0
  -22.7844  -29.2382   19.8444 H   0  0  0  0  0  0
  -25.1308  -36.1862   25.0810 H   0  0  0  0  0  0
  -21.0013  -28.3306   24.1362 H   0  0  0  0  0  0
  -20.5686  -26.2333   23.3625 H   0  0  0  0  0  0
  -21.6653  -26.7434   22.1202 H   0  0  0  0  0  0
  -19.6916  -25.6289   21.1258 H   0  0  0  0  0  0
  -19.6684  -27.3184   20.6738 H   0  0  0  0  0  0
  -17.4210  -26.6690   21.4031 H   0  0  0  0  0  0
  -18.0333  -26.0075   22.9025 H   0  0  0  0  0  0
  -19.7949  -30.7293   24.2247 H   0  0  0  0  0  0
  -17.5021  -31.6267   24.5167 H   0  0  0  0  0  0
  -15.5363  -30.2977   23.7657 H   0  0  0  0  0  0
  -15.8693  -28.0806   22.7089 H   0  0  0  0  0  0
  -24.5885  -30.7107   25.7737 H   0  0  0  0  0  0
  -24.8908  -32.2934   26.4804 H   0  0  0  0  0  0
  -25.7997  -30.8944   27.0219 H   0  0  0  0  0  0
  -26.2991  -29.6687   24.1284 H   0  0  0  0  0  0
  -27.3982  -29.7248   25.4856 H   0  0  0  0  0  0
  -27.8907  -30.4191   23.9605 H   0  0  0  0  0  0
  -27.2655  -33.3643   26.2033 H   0  0  0  0  0  0
  -28.3893  -32.6861   25.0350 H   0  0  0  0  0  0
  -28.0695  -31.8481   26.5456 H   0  0  0  0  0  0
  -28.2587  -38.0092   24.7507 H   0  0  0  0  0  0
  -28.1079  -36.2622   24.6293 H   0  0  0  0  0  0
  -27.2298  -37.1440   25.8870 H   0  0  0  0  0  0
  -20.9466  -29.8765   21.6799 H   0  0  0  0  0  0
  -26.0151  -38.2818   24.1399 H   0  0  0  0  0  0
  -27.0228  -19.8452   21.2009 H   0  0  0  0  0  0
  -31.0551  -20.6272   20.0164 H   0  0  0  0  0  0
  -27.4583  -17.4743   21.1897 H   0  0  0  0  0  0
  -31.5039  -18.1950   19.9896 H   0  0  0  0  0  0
  -31.7623  -24.8165   22.1575 H   0  0  0  0  0  0
  -31.3714  -25.0800   20.3697 H   0  0  0  0  0  0
  -27.5823  -22.5827   22.5853 H   0  0  0  0  0  0
  -28.6663  -21.2175   22.8436 H   0  0  0  0  0  0
  -29.6379  -23.2666   19.4044 H   0  0  0  0  0  0
  -27.2547  -24.5266   20.9730 H   0  0  0  0  0  0
  -27.4638  -24.4474   19.2600 H   0  0  0  0  0  0
  -28.7418  -15.5855   20.9486 H   0  0  0  0  0  0
  1 25  1  0  0  0
  1 30  2  0  0  0
  1 84  1  0  0  0
  2  3  1  0  0  0
  2 25  1  0  0  0
  2 86  1  0  0  0
  2 87  1  0  0  0
  3  4  1  0  0  0
  3 88  1  0  0  0
  3 89  1  0  0  0
  4  5  1  0  0  0
  4 90  1  0  0  0
  4 91  1  0  0  0
  5  6  1  0  0  0
  5 26  1  0  0  0
  5 92  1  0  0  0
  6 25  1  0  0  0
  6 93  1  0  0  0
  6 94  1  0  0  0
  7  8  2  0  0  0
  7 26  1  0  0  0
  7 29  1  0  0  0
  8  9  1  0  0  0
  8 22  1  0  0  0
  9 10  1  0  0  0
  9 27  2  0  0  0
 10 11  2  0  0  0
 10 15  1  0  0  0
 11 12  1  0  0  0
 11 95  1  0  0  0
 12 13  2  0  0  0
 12 96  1  0  0  0
 13 14  1  0  0  0
 13 31  1  0  0  0
 14 15  2  0  0  0
 14 97  1  0  0  0
 15 98  1  0  0  0
 16 17  2  0  0  0
 16 21  1  0  0  0
 16 31  1  0  0  0
 17 18  1  0  0  0
 17 99  1  0  0  0
 18 19  2  0  0  0
 18100  1  0  0  0
 19 20  1  0  0  0
 19 24  1  0  0  0
 20 21  2  0  0  0
 20101  1  0  0  0
 21 23  1  0  0  0
 22 28  1  0  0  0
 22 32  2  0  0  0
 26 27  1  0  0  0
 28102  1  0  0  0
 28103  1  0  0  0
 29104  1  0  0  0
 29105  1  0  0  0
 33 34  1  0  0  0
 33 66  1  0  0  0
 33 70  2  0  0  0
 34 36  1  0  0  0
 34 59  1  0  0  0
 34106  1  0  0  0
 35 44  2  0  0  0
 35 45  1  0  0  0
 35 68  1  0  0  0
 36 56  1  0  0  0
 36107  1  0  0  0
 37 39  1  0  0  0
 37 47  1  0  0  0
 37 66  1  0  0  0
 37108  1  0  0  0
 38 43  2  0  0  0
 38 46  1  0  0  0
 38 47  1  0  0  0
 39 64  1  0  0  0
 39 67  2  0  0  0
 40 52  1  0  0  0
 40 53  2  0  0  0
 40 58  1  0  0  0
 41109  1  0  0  0
 41110  1  0  0  0
 41111  1  0  0  0
 41 48  1  0  0  0
 42 43  1  0  0  0
 42 66  1  0  0  0
 42112  1  0  0  0
 42113  1  0  0  0
 43 44  1  0  0  0
 44114  1  0  0  0
 45 46  2  0  0  0
 45115  1  0  0  0
 46116  1  0  0  0
 47117  1  0  0  0
 47118  1  0  0  0
 48 56  1  0  0  0
 48 65  1  0  0  0
 48119  1  0  0  0
 49 50  1  0  0  0
 49 53  1  0  0  0
 49 64  1  0  0  0
 49120  1  0  0  0
 50 51  1  0  0  0
 50121  1  0  0  0
 50122  1  0  0  0
 51 52  1  0  0  0
 51123  1  0  0  0
 51124  1  0  0  0
 52125  1  0  0  0
 52126  1  0  0  0
 53 54  1  0  0  0
 54 55  2  0  0  0
 54127  1  0  0  0
 55 57  1  0  0  0
 55128  1  0  0  0
 56 69  2  0  0  0
 57 58  2  0  0  0
 57129  1  0  0  0
 58130  1  0  0  0
 59 60  1  0  0  0
 59 61  1  0  0  0
 59 62  1  0  0  0
 60131  1  0  0  0
 60132  1  0  0  0
 60133  1  0  0  0
 61134  1  0  0  0
 61135  1  0  0  0
 61136  1  0  0  0
 62137  1  0  0  0
 62138  1  0  0  0
 62139  1  0  0  0
 63 65  1  0  0  0
 63140  1  0  0  0
 63141  1  0  0  0
 63142  1  0  0  0
 64143  1  0  0  0
 65144  1  0  0  0
 68 82  1  0  0  0
 71 73  2  0  0  0
 71 75  1  0  0  0
 71145  1  0  0  0
 72 74  1  0  0  0
 72 75  2  0  0  0
 72146  1  0  0  0
 73 76  1  0  0  0
 73147  1  0  0  0
 74 76  2  0  0  0
 74148  1  0  0  0
 75 83  1  0  0  0
 76 84  1  0  0  0
 77 78  1  0  0  0
 77 79  2  0  0  0
 77 81  1  0  0  0
 78 80  1  0  0  0
 78 85  2  0  0  0
 79149  1  0  0  0
 79150  1  0  0  0
 80 83  1  0  0  0
 80151  1  0  0  0
 80152  1  0  0  0
 81 82  1  0  0  0
 81 83  1  0  0  0
 81153  1  0  0  0
 82154  1  0  0  0
 82155  1  0  0  0
 84156  1  0  0  0
M  ISO  4   1 100  68 101  82 101  84 100
M  END
> <chiral flag>
0

> <version>
0

> <s_m_source_file>
/data/baiqing/PycharmProjects/Reinvent-master-3.2/result/LINK_invent/BTK/process_docking_weight1_custom_product_contain_oxygen_bond_distance_aromatic_linkinvent_7_9_3/rearranged_h_0078.sdf

> <i_m_source_file_index>
15

> <r_mmod_Potential_Energy-OPLS-2005>
485.55419921875

> <r_mmod_Stretch_Energy-OPLS-2005>
216.790054321289

> <r_mmod_Bend_Energy-OPLS-2005>
330.561584472656

> <r_mmod_Torsional_Energy-OPLS-2005>
237.503265380859

> <r_mmod_Improper_Torsional_Energy-OPLS-2005>
10.1084718704224

> <r_mmod_Van_der_Waal_Energy-OPLS-2005>
128.438293457031

> <r_mmod_Electrostatic_Energy-OPLS-2005>
-371.213775634766

> <r_mmod_Solvation_Energy-OPLS-2005>
-236.0224609375

> <b_mmod_Minimization_Converged-OPLS-2005>
0

> <r_mmod_RMS_Derivative-OPLS-2005>
0.669421434402466

$$$$
15
                    3D
 Structure written by MMmdl.
153161  0  0  1  0            999 V2000
  -30.6005  -14.6842   20.4880 C   0  0  0  0  0  0
  -30.4431  -12.4179   19.4596 C   0  0  0  0  0  0
  -29.5115  -12.5101   18.2296 C   0  0  0  0  0  0
  -28.0345  -12.3430   18.6409 C   0  0  0  0  0  0
  -27.6516  -13.2196   19.8631 C   0  0  2  0  0  0
  -28.6972  -13.0903   20.9936 C   0  0  0  0  0  0
  -25.2544  -13.8167   20.5684 C   0  0  0  0  0  0
  -24.1812  -13.0426   20.9166 C   0  0  0  0  0  0
  -24.6394  -11.6903   20.8727 C   0  0  0  0  0  0
  -23.9062  -10.4288   21.0398 C   0  0  0  0  0  0
  -24.3615   -9.4207   21.9179 C   0  0  0  0  0  0
  -23.6290   -8.2243   22.0751 C   0  0  0  0  0  0
  -22.4272   -8.0280   21.3542 C   0  0  0  0  0  0
  -21.9905   -9.0253   20.4644 C   0  0  0  0  0  0
  -22.7233  -10.2131   20.3051 C   0  0  0  0  0  0
  -21.6855   -6.0733   22.5278 C   0  0  0  0  0  0
  -21.4015   -6.5638   23.8210 C   0  0  0  0  0  0
  -21.3659   -5.6790   24.9172 C   0  0  0  0  0  0
  -21.6045   -4.3052   24.7224 C   0  0  0  0  0  0
  -21.8820   -3.8143   23.4346 C   0  0  0  0  0  0
  -21.9193   -4.6960   22.3401 C   0  0  0  0  0  0
  -22.7837  -13.5221   21.1842 C   0  0  0  0  0  0
  -22.1661   -4.2145   21.0980 F   0  0  0  0  0  0
  -21.5628   -3.4537   25.7737 F   0  0  0  0  0  0
  -30.0083  -13.4460   20.4281 N   0  0  0  0  0  0
  -26.2984  -12.9359   20.3330 N   0  0  0  0  0  0
  -25.9328  -11.6509   20.5762 N   0  0  0  0  0  0
  -22.0489  -12.8217   22.0410 N   0  0  0  0  0  0
  -25.4228  -15.1892   20.4153 N   0  0  0  0  0  0
  -31.7668  -14.8468   20.1162 O   0  0  0  0  0  0
  -21.6639   -6.8875   21.4239 O   0  0  0  0  0  0
  -22.3515  -14.5528   20.6697 O   0  0  0  0  0  0
  -24.6271  -31.8579   23.2010 C   0  0  0  0  0  0
  -25.9111  -32.4769   23.8347 C   0  0  1  0  0  0
  -27.2264  -27.3011   20.1278 C   0  0  0  0  0  0
  -25.5918  -33.8571   24.2269 N   0  0  0  0  0  0
  -23.4228  -30.4797   21.5433 C   0  0  2  0  0  0
  -24.8718  -28.9292   20.1129 C   0  0  0  0  0  0
  -22.7482  -29.4609   22.4928 C   0  0  0  0  0  0
  -18.0289  -28.1386   22.8485 C   0  0  0  0  0  0
  -24.1488  -36.7293   23.2641 C   0  0  0  0  0  0
  -25.9647  -30.7818   21.3767 C   0  0  0  0  0  0
  -26.0396  -29.4059   20.7229 C   0  0  0  0  0  0
  -27.2201  -28.6019   20.7234 C   0  0  0  0  0  0
  -26.0400  -26.8827   19.4866 C   0  0  0  0  0  0
  -24.8737  -27.6727   19.4862 C   0  0  0  0  0  0
  -23.6401  -29.8118   20.1597 C   0  0  0  0  0  0
  -25.4113  -36.3079   24.0329 C   0  0  1  0  0  0
  -20.5889  -28.3690   23.1279 C   0  0  2  0  0  0
  -20.6776  -26.9410   22.5412 C   0  0  0  0  0  0
  -19.5752  -26.6382   21.5213 C   0  0  0  0  0  0
  -18.1933  -26.7928   22.1625 C   0  0  0  0  0  0
  -19.1541  -28.8855   23.2878 C   0  0  0  0  0  0
  -18.9463  -30.1457   23.8895 C   0  0  0  0  0  0
  -17.6462  -30.6586   24.0564 C   0  0  0  0  0  0
  -25.9050  -34.9447   23.5102 C   0  0  0  0  0  0
  -16.5353  -29.9084   23.6331 C   0  0  0  0  0  0
  -16.7276  -28.6503   23.0351 C   0  0  0  0  0  0
  -26.4490  -31.6588   25.0726 C   0  0  0  0  0  0
  -25.3720  -31.3737   26.1452 C   0  0  0  0  0  0
  -27.0337  -30.3008   24.6198 C   0  0  0  0  0  0
  -27.6046  -32.4329   25.7495 C   0  0  0  0  0  0
  -27.5578  -37.1802   24.8464 C   0  0  0  0  0  0
  -21.4194  -29.3038   22.3669 N   0  0  0  0  0  0
  -26.4291  -37.3773   23.9406 N   0  0  0  0  0  0
  -24.6902  -31.0571   22.0972 N   0  0  0  0  0  0
  -23.4194  -28.8155   23.3021 O   0  0  0  0  0  0
  -28.3360  -26.4376   20.1441 O   0  0  0  0  0  0
  -26.5622  -34.8917   22.4671 O   0  0  0  0  0  0
  -23.5429  -32.1386   23.7323 O   0  0  0  0  0  0
  -30.8947  -19.3911   20.1824 C   0  0  0  0  0  0
  -30.9449  -17.9608   20.2440 C   0  0  0  0  0  0
  -28.6359  -19.3812   20.9701 C   0  0  0  0  0  0
  -29.7503  -20.1678   20.5577 C   0  0  0  0  0  0
  -29.8359  -17.1944   20.6880 C   0  0  0  0  0  0
  -28.6818  -17.9514   21.0332 C   0  0  0  0  0  0
  -28.1488  -25.0491   20.3747 C   0  0  0  0  0  0
  -29.0612  -24.0477   20.1205 C   0  0  0  0  0  0
  -28.7695  -22.5740   20.3646 C   0  0  0  0  0  0
  -31.1218  -22.1760   21.0245 C   0  0  0  0  0  0
  -29.7706  -15.7289   20.8198 N   0  0  0  0  0  0
  -29.8120  -21.6622   20.5904 N   0  0  0  0  0  0
  -27.6026  -22.1717   20.3410 O   0  0  0  0  0  0
  -30.2279  -24.4333   19.5814 O   0  0  0  0  0  0
  -27.5817  -17.2807   21.4523 F   0  0  0  0  0  0
  -31.4827  -12.5533   19.1563 H   0  0  0  0  0  0
  -30.3903  -11.4261   19.9115 H   0  0  0  0  0  0
  -29.7820  -11.7509   17.4944 H   0  0  0  0  0  0
  -29.6477  -13.4743   17.7372 H   0  0  0  0  0  0
  -27.8764  -11.2905   18.8788 H   0  0  0  0  0  0
  -27.3799  -12.5644   17.7973 H   0  0  0  0  0  0
  -27.6622  -14.2521   19.5133 H   0  0  0  0  0  0
  -28.7189  -12.0712   21.3827 H   0  0  0  0  0  0
  -28.4370  -13.7260   21.8413 H   0  0  0  0  0  0
  -25.2763   -9.5684   22.4749 H   0  0  0  0  0  0
  -23.9999   -7.4637   22.7473 H   0  0  0  0  0  0
  -21.0833   -8.8772   19.8953 H   0  0  0  0  0  0
  -22.3691  -10.9669   19.6159 H   0  0  0  0  0  0
  -21.2009   -7.6146   23.9713 H   0  0  0  0  0  0
  -21.1479   -6.0520   25.9074 H   0  0  0  0  0  0
  -22.0600   -2.7605   23.2848 H   0  0  0  0  0  0
  -22.4112  -11.9883   22.4798 H   0  0  0  0  0  0
  -21.1111  -13.1248   22.2628 H   0  0  0  0  0  0
  -24.6628  -15.8428   20.5661 H   0  0  0  0  0  0
  -26.2964  -15.6509   20.1958 H   0  0  0  0  0  0
  -26.7178  -32.5436   23.1095 H   0  0  0  0  0  0
  -25.0051  -33.9712   25.0404 H   0  0  0  0  0  0
  -22.7176  -31.3005   21.3978 H   0  0  0  0  0  0
  -23.3746  -35.9630   23.3307 H   0  0  0  0  0  0
  -24.3577  -36.8911   22.2055 H   0  0  0  0  0  0
  -23.7247  -37.6498   23.6661 H   0  0  0  0  0  0
  -26.0984  -31.5423   20.6061 H   0  0  0  0  0  0
  -26.8442  -30.8325   22.0071 H   0  0  0  0  0  0
  -28.1174  -28.9613   21.2075 H   0  0  0  0  0  0
  -26.0053  -25.9213   18.9941 H   0  0  0  0  0  0
  -23.9802  -27.3030   19.0020 H   0  0  0  0  0  0
  -23.7612  -30.5874   19.4025 H   0  0  0  0  0  0
  -22.7600  -29.2418   19.8567 H   0  0  0  0  0  0
  -25.1295  -36.1931   25.0822 H   0  0  0  0  0  0
  -20.9982  -28.3269   24.1400 H   0  0  0  0  0  0
  -20.5676  -26.2299   23.3613 H   0  0  0  0  0  0
  -21.6645  -26.7437   22.1207 H   0  0  0  0  0  0
  -19.6914  -25.6292   21.1243 H   0  0  0  0  0  0
  -19.6692  -27.3193   20.6744 H   0  0  0  0  0  0
  -17.4201  -26.6673   21.4029 H   0  0  0  0  0  0
  -18.0334  -26.0072   22.9024 H   0  0  0  0  0  0
  -19.7938  -30.7275   24.2263 H   0  0  0  0  0  0
  -17.5016  -31.6266   24.5165 H   0  0  0  0  0  0
  -15.5353  -30.2985   23.7657 H   0  0  0  0  0  0
  -15.8677  -28.0823   22.7064 H   0  0  0  0  0  0
  -24.5886  -30.7096   25.7782 H   0  0  0  0  0  0
  -24.8922  -32.2910   26.4877 H   0  0  0  0  0  0
  -25.8038  -30.8911   27.0229 H   0  0  0  0  0  0
  -26.2920  -29.6757   24.1213 H   0  0  0  0  0  0
  -27.4014  -29.7268   25.4714 H   0  0  0  0  0  0
  -27.8797  -30.4287   23.9442 H   0  0  0  0  0  0
  -27.2650  -33.3626   26.2073 H   0  0  0  0  0  0
  -28.3852  -32.6898   25.0321 H   0  0  0  0  0  0
  -28.0720  -31.8459   26.5410 H   0  0  0  0  0  0
  -28.2600  -38.0094   24.7502 H   0  0  0  0  0  0
  -28.1070  -36.2625   24.6299 H   0  0  0  0  0  0
  -27.2296  -37.1463   25.8868 H   0  0  0  0  0  0
  -20.9374  -29.8753   21.6871 H   0  0  0  0  0  0
  -26.0173  -38.2849   24.1401 H   0  0  0  0  0  0
  -31.7878  -19.8980   19.8446 H   0  0  0  0  0  0
  -31.8587  -17.4625   19.9540 H   0  0  0  0  0  0
  -27.7248  -19.8641   21.2892 H   0  0  0  0  0  0
  -27.1750  -24.8329   20.7961 H   0  0  0  0  0  0
  -31.6446  -21.4612   21.6605 H   0  0  0  0  0  0
  -31.0359  -23.0777   21.6323 H   0  0  0  0  0  0
  -31.7601  -22.3883   20.1666 H   0  0  0  0  0  0
  -28.8664  -15.4125   21.1359 H   0  0  0  0  0  0
  -30.1879  -25.3775   19.4946 H   0  0  0  0  0  0
  1 25  1  0  0  0
  1 30  2  0  0  0
  1 81  1  0  0  0
  2  3  1  0  0  0
  2 25  1  0  0  0
  2 86  1  0  0  0
  2 87  1  0  0  0
  3  4  1  0  0  0
  3 88  1  0  0  0
  3 89  1  0  0  0
  4  5  1  0  0  0
  4 90  1  0  0  0
  4 91  1  0  0  0
  5  6  1  0  0  0
  5 26  1  0  0  0
  5 92  1  0  0  0
  6 25  1  0  0  0
  6 93  1  0  0  0
  6 94  1  0  0  0
  7  8  2  0  0  0
  7 26  1  0  0  0
  7 29  1  0  0  0
  8  9  1  0  0  0
  8 22  1  0  0  0
  9 10  1  0  0  0
  9 27  2  0  0  0
 10 11  2  0  0  0
 10 15  1  0  0  0
 11 12  1  0  0  0
 11 95  1  0  0  0
 12 13  2  0  0  0
 12 96  1  0  0  0
 13 14  1  0  0  0
 13 31  1  0  0  0
 14 15  2  0  0  0
 14 97  1  0  0  0
 15 98  1  0  0  0
 16 17  2  0  0  0
 16 21  1  0  0  0
 16 31  1  0  0  0
 17 18  1  0  0  0
 17 99  1  0  0  0
 18 19  2  0  0  0
 18100  1  0  0  0
 19 20  1  0  0  0
 19 24  1  0  0  0
 20 21  2  0  0  0
 20101  1  0  0  0
 21 23  1  0  0  0
 22 28  1  0  0  0
 22 32  2  0  0  0
 26 27  1  0  0  0
 28102  1  0  0  0
 28103  1  0  0  0
 29104  1  0  0  0
 29105  1  0  0  0
 33 34  1  0  0  0
 33 66  1  0  0  0
 33 70  2  0  0  0
 34 36  1  0  0  0
 34 59  1  0  0  0
 34106  1  0  0  0
 35 44  2  0  0  0
 35 45  1  0  0  0
 35 68  1  0  0  0
 36 56  1  0  0  0
 36107  1  0  0  0
 37 39  1  0  0  0
 37 47  1  0  0  0
 37 66  1  0  0  0
 37108  1  0  0  0
 38 43  2  0  0  0
 38 46  1  0  0  0
 38 47  1  0  0  0
 39 64  1  0  0  0
 39 67  2  0  0  0
 40 52  1  0  0  0
 40 53  2  0  0  0
 40 58  1  0  0  0
 41109  1  0  0  0
 41110  1  0  0  0
 41111  1  0  0  0
 41 48  1  0  0  0
 42 43  1  0  0  0
 42 66  1  0  0  0
 42112  1  0  0  0
 42113  1  0  0  0
 43 44  1  0  0  0
 44114  1  0  0  0
 45 46  2  0  0  0
 45115  1  0  0  0
 46116  1  0  0  0
 47117  1  0  0  0
 47118  1  0  0  0
 48 56  1  0  0  0
 48 65  1  0  0  0
 48119  1  0  0  0
 49 50  1  0  0  0
 49 53  1  0  0  0
 49 64  1  0  0  0
 49120  1  0  0  0
 50 51  1  0  0  0
 50121  1  0  0  0
 50122  1  0  0  0
 51 52  1  0  0  0
 51123  1  0  0  0
 51124  1  0  0  0
 52125  1  0  0  0
 52126  1  0  0  0
 53 54  1  0  0  0
 54 55  2  0  0  0
 54127  1  0  0  0
 55 57  1  0  0  0
 55128  1  0  0  0
 56 69  2  0  0  0
 57 58  2  0  0  0
 57129  1  0  0  0
 58130  1  0  0  0
 59 60  1  0  0  0
 59 61  1  0  0  0
 59 62  1  0  0  0
 60131  1  0  0  0
 60132  1  0  0  0
 60133  1  0  0  0
 61134  1  0  0  0
 61135  1  0  0  0
 61136  1  0  0  0
 62137  1  0  0  0
 62138  1  0  0  0
 62139  1  0  0  0
 63 65  1  0  0  0
 63140  1  0  0  0
 63141  1  0  0  0
 63142  1  0  0  0
 64143  1  0  0  0
 65144  1  0  0  0
 68 77  1  0  0  0
 71 72  2  0  0  0
 71 74  1  0  0  0
 71145  1  0  0  0
 72 75  1  0  0  0
 72146  1  0  0  0
 73 74  2  0  0  0
 73 76  1  0  0  0
 73147  1  0  0  0
 74 82  1  0  0  0
 75 76  2  0  0  0
 75 81  1  0  0  0
 76 85  1  0  0  0
 77 78  2  0  0  0
 77148  1  0  0  0
 78 79  1  0  0  0
 78 84  1  0  0  0
 79 82  1  0  0  0
 79 83  2  0  0  0
 80 82  1  0  0  0
 80149  1  0  0  0
 80150  1  0  0  0
 80151  1  0  0  0
 81152  1  0  0  0
 84153  1  0  0  0
M  ISO  4   1 100  68 101  77 101  81 100
M  END
> <chiral flag>
0

> <version>
0

> <s_m_source_file>
/data/baiqing/PycharmProjects/Reinvent-master-3.2/result/LINK_invent/BTK/process_docking_weight1_custom_product_contain_oxygen_bond_distance_aromatic_linkinvent_7_9_3/rearranged_h_0078.sdf

> <i_m_source_file_index>
16

> <r_mmod_Potential_Energy-OPLS-2005>
156.932968139648

> <r_mmod_Stretch_Energy-OPLS-2005>
102.070457458496

> <r_mmod_Bend_Energy-OPLS-2005>
154.435913085938

> <r_mmod_Torsional_Energy-OPLS-2005>
253.014251708984

> <r_mmod_Improper_Torsional_Energy-OPLS-2005>
4.38769769668579

> <r_mmod_Van_der_Waal_Energy-OPLS-2005>
161.518737792969

> <r_mmod_Electrostatic_Energy-OPLS-2005>
-376.497802734375

> <r_mmod_Solvation_Energy-OPLS-2005>
-202.126388549805

> <b_mmod_Minimization_Converged-OPLS-2005>
0

> <r_mmod_RMS_Derivative-OPLS-2005>
0.306729912757874

$$$$
16
                    3D
 Structure written by MMmdl.
150158  0  0  1  0            999 V2000
  -30.6073  -14.6759   20.4867 C   0  0  0  0  0  0
  -30.4404  -12.4121   19.4590 C   0  0  0  0  0  0
  -29.5105  -12.5076   18.2283 C   0  0  0  0  0  0
  -28.0337  -12.3402   18.6395 C   0  0  0  0  0  0
  -27.6509  -13.2181   19.8604 C   0  0  2  0  0  0
  -28.6959  -13.0919   20.9921 C   0  0  0  0  0  0
  -25.2554  -13.8172   20.5681 C   0  0  0  0  0  0
  -24.1826  -13.0437   20.9199 C   0  0  0  0  0  0
  -24.6395  -11.6908   20.8745 C   0  0  0  0  0  0
  -23.9063  -10.4291   21.0408 C   0  0  0  0  0  0
  -24.3615   -9.4206   21.9185 C   0  0  0  0  0  0
  -23.6290   -8.2242   22.0754 C   0  0  0  0  0  0
  -22.4273   -8.0281   21.3543 C   0  0  0  0  0  0
  -21.9907   -9.0255   20.4647 C   0  0  0  0  0  0
  -22.7236  -10.2135   20.3058 C   0  0  0  0  0  0
  -21.6853   -6.0735   22.5278 C   0  0  0  0  0  0
  -21.4015   -6.5639   23.8211 C   0  0  0  0  0  0
  -21.3659   -5.6791   24.9173 C   0  0  0  0  0  0
  -21.6043   -4.3053   24.7224 C   0  0  0  0  0  0
  -21.8820   -3.8145   23.4345 C   0  0  0  0  0  0
  -21.9193   -4.6962   22.3401 C   0  0  0  0  0  0
  -22.7849  -13.5230   21.1857 C   0  0  0  0  0  0
  -22.1661   -4.2148   21.0979 F   0  0  0  0  0  0
  -21.5627   -3.4538   25.7737 F   0  0  0  0  0  0
  -30.0073  -13.4424   20.4256 N   0  0  0  0  0  0
  -26.2977  -12.9352   20.3302 N   0  0  0  0  0  0
  -25.9324  -11.6509   20.5756 N   0  0  0  0  0  0
  -22.0488  -12.8226   22.0414 N   0  0  0  0  0  0
  -25.4263  -15.1894   20.4076 N   0  0  0  0  0  0
  -31.7782  -14.8259   20.1250 O   0  0  0  0  0  0
  -21.6639   -6.8878   21.4240 O   0  0  0  0  0  0
  -22.3536  -14.5535   20.6701 O   0  0  0  0  0  0
  -24.6278  -31.8584   23.2013 C   0  0  0  0  0  0
  -25.9118  -32.4771   23.8346 C   0  0  1  0  0  0
  -27.2231  -27.3016   20.1185 C   0  0  0  0  0  0
  -25.5926  -33.8572   24.2272 N   0  0  0  0  0  0
  -23.4223  -30.4822   21.5443 C   0  0  2  0  0  0
  -24.8687  -28.9356   20.1108 C   0  0  0  0  0  0
  -22.7483  -29.4618   22.4928 C   0  0  0  0  0  0
  -18.0288  -28.1385   22.8487 C   0  0  0  0  0  0
  -24.1489  -36.7292   23.2639 C   0  0  0  0  0  0
  -25.9654  -30.7840   21.3750 C   0  0  0  0  0  0
  -26.0392  -29.4105   20.7158 C   0  0  0  0  0  0
  -27.2195  -28.6060   20.7082 C   0  0  0  0  0  0
  -26.0274  -26.8846   19.4887 C   0  0  0  0  0  0
  -24.8660  -27.6790   19.4878 C   0  0  0  0  0  0
  -23.6378  -29.8177   20.1597 C   0  0  0  0  0  0
  -25.4114  -36.3079   24.0328 C   0  0  1  0  0  0
  -20.5890  -28.3691   23.1278 C   0  0  2  0  0  0
  -20.6777  -26.9413   22.5408 C   0  0  0  0  0  0
  -19.5750  -26.6383   21.5212 C   0  0  0  0  0  0
  -18.1932  -26.7926   22.1627 C   0  0  0  0  0  0
  -19.1541  -28.8855   23.2878 C   0  0  0  0  0  0
  -18.9463  -30.1456   23.8895 C   0  0  0  0  0  0
  -17.6462  -30.6587   24.0563 C   0  0  0  0  0  0
  -25.9052  -34.9448   23.5101 C   0  0  0  0  0  0
  -16.5354  -29.9085   23.6329 C   0  0  0  0  0  0
  -16.7275  -28.6502   23.0352 C   0  0  0  0  0  0
  -26.4496  -31.6586   25.0724 C   0  0  0  0  0  0
  -25.3725  -31.3732   26.1449 C   0  0  0  0  0  0
  -27.0342  -30.3007   24.6191 C   0  0  0  0  0  0
  -27.6050  -32.4327   25.7496 C   0  0  0  0  0  0
  -27.5580  -37.1800   24.8464 C   0  0  0  0  0  0
  -21.4194  -29.3044   22.3671 N   0  0  0  0  0  0
  -26.4291  -37.3774   23.9409 N   0  0  0  0  0  0
  -24.6908  -31.0583   22.0970 N   0  0  0  0  0  0
  -23.4200  -28.8156   23.3011 O   0  0  0  0  0  0
  -28.3348  -26.4395   20.1725 O   0  0  0  0  0  0
  -26.5623  -34.8918   22.4669 O   0  0  0  0  0  0
  -23.5437  -32.1389   23.7332 O   0  0  0  0  0  0
  -31.1099  -19.3271   20.2361 C   0  0  0  0  0  0
  -31.0704  -17.9001   20.2919 C   0  0  0  0  0  0
  -28.7697  -18.0345   20.9505 C   0  0  0  0  0  0
  -29.9949  -20.1667   20.5435 C   0  0  0  0  0  0
  -29.8960  -17.2003   20.6702 C   0  0  0  0  0  0
  -28.8079  -19.4686   20.8935 C   0  0  0  0  0  0
  -30.1958  -21.7061   20.6431 C   0  0  0  0  0  0
  -29.3162  -24.0311   20.4225 C   0  0  0  0  0  0
  -28.1042  -24.9693   20.0272 C   0  0  0  0  0  0
  -29.7797  -15.7339   20.7933 N   0  0  0  0  0  0
  -29.2164  -22.6442   20.3736 N   0  0  0  0  0  0
  -31.3438  -22.0519   20.9504 O   0  0  0  0  0  0
  -30.3494  -24.6164   20.7710 O   0  0  0  0  0  0
  -27.6910  -20.1689   21.2097 F   0  0  0  0  0  0
  -31.4808  -12.5426   19.1564 H   0  0  0  0  0  0
  -30.3827  -11.4208   19.9113 H   0  0  0  0  0  0
  -29.7808  -11.7502   17.4914 H   0  0  0  0  0  0
  -29.6471  -13.4731   17.7383 H   0  0  0  0  0  0
  -27.8761  -11.2879   18.8788 H   0  0  0  0  0  0
  -27.3790  -12.5603   17.7955 H   0  0  0  0  0  0
  -27.6625  -14.2496   19.5082 H   0  0  0  0  0  0
  -28.7156  -12.0745   21.3858 H   0  0  0  0  0  0
  -28.4373  -13.7328   21.8364 H   0  0  0  0  0  0
  -25.2763   -9.5681   22.4758 H   0  0  0  0  0  0
  -23.9999   -7.4634   22.7474 H   0  0  0  0  0  0
  -21.0837   -8.8776   19.8955 H   0  0  0  0  0  0
  -22.3695  -10.9675   19.6167 H   0  0  0  0  0  0
  -21.2011   -7.6148   23.9714 H   0  0  0  0  0  0
  -21.1479   -6.0522   25.9075 H   0  0  0  0  0  0
  -22.0600   -2.7608   23.2847 H   0  0  0  0  0  0
  -22.4102  -11.9889   22.4806 H   0  0  0  0  0  0
  -21.1107  -13.1258   22.2618 H   0  0  0  0  0  0
  -24.6530  -15.8386   20.5038 H   0  0  0  0  0  0
  -26.2597  -15.6224   20.0316 H   0  0  0  0  0  0
  -26.7186  -32.5435   23.1094 H   0  0  0  0  0  0
  -25.0067  -33.9712   25.0411 H   0  0  0  0  0  0
  -22.7169  -31.3033   21.4010 H   0  0  0  0  0  0
  -23.3749  -35.9626   23.3300 H   0  0  0  0  0  0
  -24.3580  -36.8916   22.2054 H   0  0  0  0  0  0
  -23.7244  -37.6494   23.6663 H   0  0  0  0  0  0
  -26.0999  -31.5475   20.6075 H   0  0  0  0  0  0
  -26.8447  -30.8316   22.0059 H   0  0  0  0  0  0
  -28.1168  -28.9655   21.1922 H   0  0  0  0  0  0
  -25.9582  -25.9260   18.9974 H   0  0  0  0  0  0
  -23.9692  -27.3102   19.0088 H   0  0  0  0  0  0
  -23.7586  -30.5946   19.4038 H   0  0  0  0  0  0
  -22.7570  -29.2489   19.8562 H   0  0  0  0  0  0
  -25.1294  -36.1930   25.0820 H   0  0  0  0  0  0
  -20.9983  -28.3267   24.1398 H   0  0  0  0  0  0
  -20.5679  -26.2301   23.3608 H   0  0  0  0  0  0
  -21.6645  -26.7440   22.1200 H   0  0  0  0  0  0
  -19.6911  -25.6294   21.1242 H   0  0  0  0  0  0
  -19.6685  -27.3193   20.6742 H   0  0  0  0  0  0
  -17.4198  -26.6670   21.4034 H   0  0  0  0  0  0
  -18.0337  -26.0071   22.9027 H   0  0  0  0  0  0
  -19.7938  -30.7274   24.2263 H   0  0  0  0  0  0
  -17.5016  -31.6266   24.5165 H   0  0  0  0  0  0
  -15.5354  -30.2987   23.7653 H   0  0  0  0  0  0
  -15.8676  -28.0820   22.7069 H   0  0  0  0  0  0
  -24.5891  -30.7092   25.7776 H   0  0  0  0  0  0
  -24.8930  -32.2904   26.4878 H   0  0  0  0  0  0
  -25.8044  -30.8900   27.0222 H   0  0  0  0  0  0
  -26.2922  -29.6756   24.1210 H   0  0  0  0  0  0
  -27.4029  -29.7266   25.4701 H   0  0  0  0  0  0
  -27.8795  -30.4289   23.9426 H   0  0  0  0  0  0
  -27.2653  -33.3625   26.2072 H   0  0  0  0  0  0
  -28.3861  -32.6892   25.0326 H   0  0  0  0  0  0
  -28.0718  -31.8457   26.5416 H   0  0  0  0  0  0
  -28.2592  -38.0102   24.7515 H   0  0  0  0  0  0
  -28.1081  -36.2634   24.6281 H   0  0  0  0  0  0
  -27.2298  -37.1439   25.8867 H   0  0  0  0  0  0
  -20.9373  -29.8771   21.6885 H   0  0  0  0  0  0
  -26.0171  -38.2848   24.1412 H   0  0  0  0  0  0
  -32.0518  -19.7909   19.9783 H   0  0  0  0  0  0
  -31.9744  -17.3550   20.0595 H   0  0  0  0  0  0
  -27.8370  -17.5735   21.2409 H   0  0  0  0  0  0
  -27.2515  -24.6708   20.6384 H   0  0  0  0  0  0
  -27.8559  -24.7465   18.9893 H   0  0  0  0  0  0
  -28.8671  -15.4162   21.0815 H   0  0  0  0  0  0
  -28.3198  -22.2658   20.1088 H   0  0  0  0  0  0
  1 25  1  0  0  0
  1 30  2  0  0  0
  1 80  1  0  0  0
  2  3  1  0  0  0
  2 25  1  0  0  0
  2 85  1  0  0  0
  2 86  1  0  0  0
  3  4  1  0  0  0
  3 87  1  0  0  0
  3 88  1  0  0  0
  4  5  1  0  0  0
  4 89  1  0  0  0
  4 90  1  0  0  0
  5  6  1  0  0  0
  5 26  1  0  0  0
  5 91  1  0  0  0
  6 25  1  0  0  0
  6 92  1  0  0  0
  6 93  1  0  0  0
  7  8  2  0  0  0
  7 26  1  0  0  0
  7 29  1  0  0  0
  8  9  1  0  0  0
  8 22  1  0  0  0
  9 10  1  0  0  0
  9 27  2  0  0  0
 10 11  2  0  0  0
 10 15  1  0  0  0
 11 12  1  0  0  0
 11 94  1  0  0  0
 12 13  2  0  0  0
 12 95  1  0  0  0
 13 14  1  0  0  0
 13 31  1  0  0  0
 14 15  2  0  0  0
 14 96  1  0  0  0
 15 97  1  0  0  0
 16 17  2  0  0  0
 16 21  1  0  0  0
 16 31  1  0  0  0
 17 18  1  0  0  0
 17 98  1  0  0  0
 18 19  2  0  0  0
 18 99  1  0  0  0
 19 20  1  0  0  0
 19 24  1  0  0  0
 20 21  2  0  0  0
 20100  1  0  0  0
 21 23  1  0  0  0
 22 28  1  0  0  0
 22 32  2  0  0  0
 26 27  1  0  0  0
 28101  1  0  0  0
 28102  1  0  0  0
 29103  1  0  0  0
 29104  1  0  0  0
 33 34  1  0  0  0
 33 66  1  0  0  0
 33 70  2  0  0  0
 34 36  1  0  0  0
 34 59  1  0  0  0
 34105  1  0  0  0
 35 44  2  0  0  0
 35 45  1  0  0  0
 35 68  1  0  0  0
 36 56  1  0  0  0
 36106  1  0  0  0
 37 39  1  0  0  0
 37 47  1  0  0  0
 37 66  1  0  0  0
 37107  1  0  0  0
 38 43  2  0  0  0
 38 46  1  0  0  0
 38 47  1  0  0  0
 39 64  1  0  0  0
 39 67  2  0  0  0
 40 52  1  0  0  0
 40 53  2  0  0  0
 40 58  1  0  0  0
 41108  1  0  0  0
 41109  1  0  0  0
 41110  1  0  0  0
 41 48  1  0  0  0
 42 43  1  0  0  0
 42 66  1  0  0  0
 42111  1  0  0  0
 42112  1  0  0  0
 43 44  1  0  0  0
 44113  1  0  0  0
 45 46  2  0  0  0
 45114  1  0  0  0
 46115  1  0  0  0
 47116  1  0  0  0
 47117  1  0  0  0
 48 56  1  0  0  0
 48 65  1  0  0  0
 48118  1  0  0  0
 49 50  1  0  0  0
 49 53  1  0  0  0
 49 64  1  0  0  0
 49119  1  0  0  0
 50 51  1  0  0  0
 50120  1  0  0  0
 50121  1  0  0  0
 51 52  1  0  0  0
 51122  1  0  0  0
 51123  1  0  0  0
 52124  1  0  0  0
 52125  1  0  0  0
 53 54  1  0  0  0
 54 55  2  0  0  0
 54126  1  0  0  0
 55 57  1  0  0  0
 55127  1  0  0  0
 56 69  2  0  0  0
 57 58  2  0  0  0
 57128  1  0  0  0
 58129  1  0  0  0
 59 60  1  0  0  0
 59 61  1  0  0  0
 59 62  1  0  0  0
 60130  1  0  0  0
 60131  1  0  0  0
 60132  1  0  0  0
 61133  1  0  0  0
 61134  1  0  0  0
 61135  1  0  0  0
 62136  1  0  0  0
 62137  1  0  0  0
 62138  1  0  0  0
 63 65  1  0  0  0
 63139  1  0  0  0
 63140  1  0  0  0
 63141  1  0  0  0
 64142  1  0  0  0
 65143  1  0  0  0
 68 79  1  0  0  0
 71 72  2  0  0  0
 71 74  1  0  0  0
 71144  1  0  0  0
 72 75  1  0  0  0
 72145  1  0  0  0
 73 75  2  0  0  0
 73 76  1  0  0  0
 73146  1  0  0  0
 74 76  2  0  0  0
 74 77  1  0  0  0
 75 80  1  0  0  0
 76 84  1  0  0  0
 77 81  1  0  0  0
 77 82  2  0  0  0
 78 79  1  0  0  0
 78 81  1  0  0  0
 78 83  2  0  0  0
 79147  1  0  0  0
 79148  1  0  0  0
 80149  1  0  0  0
 81150  1  0  0  0
M  ISO  4   1 100  68 101  79 101  80 100
M  END
> <chiral flag>
0

> <version>
0

> <s_m_source_file>
/data/baiqing/PycharmProjects/Reinvent-master-3.2/result/LINK_invent/BTK/process_docking_weight1_custom_product_contain_oxygen_bond_distance_aromatic_linkinvent_7_9_3/rearranged_h_0078.sdf

> <i_m_source_file_index>
17

> <r_mmod_Potential_Energy-OPLS-2005>
-25.2279872894287

> <r_mmod_Stretch_Energy-OPLS-2005>
93.0222396850586

> <r_mmod_Bend_Energy-OPLS-2005>
149.318771362305

> <r_mmod_Torsional_Energy-OPLS-2005>
218.844543457031

> <r_mmod_Improper_Torsional_Energy-OPLS-2005>
5.19262266159058

> <r_mmod_Van_der_Waal_Energy-OPLS-2005>
153.32763671875

> <r_mmod_Electrostatic_Energy-OPLS-2005>
-423.644866943359

> <r_mmod_Solvation_Energy-OPLS-2005>
-280.388793945312

> <b_mmod_Minimization_Converged-OPLS-2005>
0

> <r_mmod_RMS_Derivative-OPLS-2005>
0.22262866795063

$$$$
17
                    3D
 Structure written by MMmdl.
164173  0  0  1  0            999 V2000
  -30.6239  -14.6193   20.5842 C   0  0  0  0  0  0
  -30.4453  -12.4015   19.4490 C   0  0  0  0  0  0
  -29.5096  -12.5372   18.2262 C   0  0  0  0  0  0
  -28.0326  -12.3670   18.6338 C   0  0  0  0  0  0
  -27.6621  -13.2139   19.8795 C   0  0  2  0  0  0
  -28.7036  -13.0213   21.0053 C   0  0  0  0  0  0
  -25.2539  -13.8102   20.5555 C   0  0  0  0  0  0
  -24.1822  -13.0400   20.9144 C   0  0  0  0  0  0
  -24.6406  -11.6881   20.8745 C   0  0  0  0  0  0
  -23.9067  -10.4277   21.0415 C   0  0  0  0  0  0
  -24.3616   -9.4193   21.9192 C   0  0  0  0  0  0
  -23.6288   -8.2232   22.0760 C   0  0  0  0  0  0
  -22.4270   -8.0276   21.3547 C   0  0  0  0  0  0
  -21.9906   -9.0249   20.4649 C   0  0  0  0  0  0
  -22.7239  -10.2126   20.3061 C   0  0  0  0  0  0
  -21.6850   -6.0731   22.5280 C   0  0  0  0  0  0
  -21.4012   -6.5637   23.8212 C   0  0  0  0  0  0
  -21.3659   -5.6791   24.9176 C   0  0  0  0  0  0
  -21.6046   -4.3054   24.7225 C   0  0  0  0  0  0
  -21.8821   -3.8145   23.4347 C   0  0  0  0  0  0
  -21.9192   -4.6961   22.3403 C   0  0  0  0  0  0
  -22.7852  -13.5218   21.1821 C   0  0  0  0  0  0
  -22.1658   -4.2147   21.0980 F   0  0  0  0  0  0
  -21.5629   -3.4538   25.7736 F   0  0  0  0  0  0
  -30.0283  -13.3869   20.4697 N   0  0  0  0  0  0
  -26.3032  -12.9319   20.3377 N   0  0  0  0  0  0
  -25.9352  -11.6477   20.5814 N   0  0  0  0  0  0
  -22.0500  -12.8229   22.0399 N   0  0  0  0  0  0
  -25.4145  -15.1770   20.3738 N   0  0  0  0  0  0
  -31.6852  -14.8816   20.0090 O   0  0  0  0  0  0
  -21.6634   -6.8874   21.4242 O   0  0  0  0  0  0
  -22.3536  -14.5527   20.6678 O   0  0  0  0  0  0
  -24.6243  -31.8597   23.2019 C   0  0  0  0  0  0
  -25.9093  -32.4779   23.8350 C   0  0  1  0  0  0
  -27.2359  -27.3313   20.1255 C   0  0  0  0  0  0
  -25.5911  -33.8579   24.2280 N   0  0  0  0  0  0
  -23.4186  -30.4803   21.5440 C   0  0  2  0  0  0
  -24.8681  -28.9308   20.1157 C   0  0  0  0  0  0
  -22.7464  -29.4616   22.4947 C   0  0  0  0  0  0
  -18.0281  -28.1381   22.8487 C   0  0  0  0  0  0
  -24.1488  -36.7298   23.2640 C   0  0  0  0  0  0
  -25.9567  -30.7950   21.3702 C   0  0  0  0  0  0
  -26.0340  -29.4208   20.7176 C   0  0  0  0  0  0
  -27.2212  -28.6334   20.7095 C   0  0  0  0  0  0
  -26.0498  -26.8876   19.5001 C   0  0  0  0  0  0
  -24.8769  -27.6689   19.4983 C   0  0  0  0  0  0
  -23.6340  -29.8088   20.1614 C   0  0  0  0  0  0
  -25.4113  -36.3086   24.0332 C   0  0  1  0  0  0
  -20.5879  -28.3681   23.1291 C   0  0  2  0  0  0
  -20.6770  -26.9406   22.5413 C   0  0  0  0  0  0
  -19.5749  -26.6383   21.5211 C   0  0  0  0  0  0
  -18.1928  -26.7926   22.1621 C   0  0  0  0  0  0
  -19.1533  -28.8849   23.2884 C   0  0  0  0  0  0
  -18.9457  -30.1452   23.8899 C   0  0  0  0  0  0
  -17.6457  -30.6586   24.0561 C   0  0  0  0  0  0
  -25.9046  -34.9452   23.5109 C   0  0  0  0  0  0
  -16.5348  -29.9084   23.6328 C   0  0  0  0  0  0
  -16.7269  -28.6500   23.0351 C   0  0  0  0  0  0
  -26.4489  -31.6585   25.0715 C   0  0  0  0  0  0
  -25.3732  -31.3715   26.1448 C   0  0  0  0  0  0
  -27.0330  -30.3013   24.6155 C   0  0  0  0  0  0
  -27.6051  -32.4317   25.7486 C   0  0  0  0  0  0
  -27.5580  -37.1804   24.8465 C   0  0  0  0  0  0
  -21.4178  -29.3037   22.3689 N   0  0  0  0  0  0
  -26.4293  -37.3779   23.9407 N   0  0  0  0  0  0
  -24.6851  -31.0614   22.0962 N   0  0  0  0  0  0
  -23.4190  -28.8162   23.3030 O   0  0  0  0  0  0
  -28.3781  -26.5213   20.1343 O   0  0  0  0  0  0
  -26.5615  -34.8920   22.4676 O   0  0  0  0  0  0
  -23.5410  -32.1385   23.7357 O   0  0  0  0  0  0
  -28.0237  -16.7266   21.8255 C   0  0  0  0  0  0
  -29.7457  -18.0201   20.7058 C   0  0  0  0  0  0
  -27.5466  -19.0365   21.1623 C   0  0  0  0  0  0
  -27.1550  -17.8292   21.7867 C   0  0  0  0  0  0
  -28.8918  -19.1990   20.6986 C   0  0  0  0  0  0
  -29.3044  -16.7552   21.2456 C   0  0  0  0  0  0
  -29.4196  -22.7925   19.6404 C   0  0  0  0  0  0
  -30.1867  -22.0539   18.6651 C   0  0  0  0  0  0
  -29.0218  -21.7883   20.6469 C   0  0  0  0  0  0
  -30.8407  -22.5729   17.6103 C   0  0  0  0  0  0
  -26.1621  -20.5765   19.7576 C   0  0  0  0  0  0
  -26.4769  -20.0356   20.9470 C   0  0  0  0  0  0
  -29.1080  -24.1372   19.5648 C   0  0  0  0  0  0
  -30.1763  -20.5842   18.9959 C   0  0  0  0  0  0
  -25.7714  -17.6781   22.4088 C   0  0  0  0  0  0
  -28.2516  -25.0811   20.4536 C   0  0  0  0  0  0
  -29.3400  -20.5128   20.1924 N   0  0  0  0  0  0
  -30.0267  -15.4987   21.4389 N   0  0  0  0  0  0
  -28.5193  -22.0461   21.7459 O   0  0  0  0  0  0
  -31.4845  -12.5428   19.1470 H   0  0  0  0  0  0
  -30.3929  -11.3923   19.8605 H   0  0  0  0  0  0
  -29.7753  -11.8020   17.4652 H   0  0  0  0  0  0
  -29.6499  -13.5168   17.7660 H   0  0  0  0  0  0
  -27.8653  -11.3097   18.8424 H   0  0  0  0  0  0
  -27.3782  -12.6183   17.7983 H   0  0  0  0  0  0
  -27.6958  -14.2598   19.5735 H   0  0  0  0  0  0
  -28.7135  -11.9817   21.3370 H   0  0  0  0  0  0
  -28.4279  -13.5977   21.8876 H   0  0  0  0  0  0
  -25.2763   -9.5668   22.4765 H   0  0  0  0  0  0
  -23.9997   -7.4623   22.7481 H   0  0  0  0  0  0
  -21.0837   -8.8766   19.8955 H   0  0  0  0  0  0
  -22.3701  -10.9663   19.6167 H   0  0  0  0  0  0
  -21.2003   -7.6145   23.9715 H   0  0  0  0  0  0
  -21.1480   -6.0520   25.9078 H   0  0  0  0  0  0
  -22.0603   -2.7608   23.2845 H   0  0  0  0  0  0
  -22.4103  -11.9879   22.4771 H   0  0  0  0  0  0
  -21.1130  -13.1276   22.2622 H   0  0  0  0  0  0
  -24.6413  -15.8240   20.4722 H   0  0  0  0  0  0
  -26.2766  -15.6292   20.0979 H   0  0  0  0  0  0
  -26.7161  -32.5458   23.1102 H   0  0  0  0  0  0
  -25.0059  -33.9723   25.0425 H   0  0  0  0  0  0
  -22.7122  -31.2999   21.3979 H   0  0  0  0  0  0
  -23.3747  -35.9633   23.3309 H   0  0  0  0  0  0
  -24.3580  -36.8911   22.2053 H   0  0  0  0  0  0
  -23.7243  -37.6505   23.6656 H   0  0  0  0  0  0
  -26.0823  -31.5564   20.5993 H   0  0  0  0  0  0
  -26.8389  -30.8485   21.9964 H   0  0  0  0  0  0
  -28.1195  -29.0087   21.1794 H   0  0  0  0  0  0
  -26.0218  -25.9281   19.0039 H   0  0  0  0  0  0
  -23.9847  -27.2899   19.0188 H   0  0  0  0  0  0
  -23.7505  -30.5815   19.4007 H   0  0  0  0  0  0
  -22.7559  -29.2335   19.8622 H   0  0  0  0  0  0
  -25.1293  -36.1943   25.0825 H   0  0  0  0  0  0
  -20.9969  -28.3252   24.1412 H   0  0  0  0  0  0
  -20.5667  -26.2288   23.3611 H   0  0  0  0  0  0
  -21.6639  -26.7436   22.1208 H   0  0  0  0  0  0
  -19.6910  -25.6294   21.1241 H   0  0  0  0  0  0
  -19.6691  -27.3193   20.6743 H   0  0  0  0  0  0
  -17.4198  -26.6670   21.4025 H   0  0  0  0  0  0
  -18.0330  -26.0067   22.9018 H   0  0  0  0  0  0
  -19.7934  -30.7265   24.2270 H   0  0  0  0  0  0
  -17.5014  -31.6268   24.5159 H   0  0  0  0  0  0
  -15.5350  -30.2987   23.7655 H   0  0  0  0  0  0
  -15.8667  -28.0822   22.7068 H   0  0  0  0  0  0
  -24.5909  -30.7060   25.7781 H   0  0  0  0  0  0
  -24.8919  -32.2876   26.4881 H   0  0  0  0  0  0
  -25.8065  -30.8891   27.0218 H   0  0  0  0  0  0
  -26.2897  -29.6764   24.1191 H   0  0  0  0  0  0
  -27.4049  -29.7267   25.4649 H   0  0  0  0  0  0
  -27.8756  -30.4308   23.9359 H   0  0  0  0  0  0
  -27.2663  -33.3614   26.2070 H   0  0  0  0  0  0
  -28.3859  -32.6881   25.0313 H   0  0  0  0  0  0
  -28.0721  -31.8437   26.5397 H   0  0  0  0  0  0
  -28.2600  -38.0099   24.7508 H   0  0  0  0  0  0
  -28.1073  -36.2629   24.6296 H   0  0  0  0  0  0
  -27.2297  -37.1460   25.8868 H   0  0  0  0  0  0
  -20.9354  -29.8758   21.6898 H   0  0  0  0  0  0
  -26.0178  -38.2856   24.1404 H   0  0  0  0  0  0
  -27.6736  -15.8202   22.2995 H   0  0  0  0  0  0
  -30.7551  -18.0965   20.3282 H   0  0  0  0  0  0
  -30.8495  -23.6301   17.3905 H   0  0  0  0  0  0
  -31.3937  -21.9322   16.9379 H   0  0  0  0  0  0
  -25.3734  -21.3104   19.6728 H   0  0  0  0  0  0
  -26.6833  -20.2959   18.8533 H   0  0  0  0  0  0
  -25.9271  -20.3545   21.8217 H   0  0  0  0  0  0
  -29.4842  -24.6690   18.7056 H   0  0  0  0  0  0
  -31.1859  -20.2264   19.2005 H   0  0  0  0  0  0
  -29.7433  -20.0025   18.1812 H   0  0  0  0  0  0
  -25.6319  -16.6925   22.8531 H   0  0  0  0  0  0
  -24.9904  -17.8161   21.6607 H   0  0  0  0  0  0
  -25.6241  -18.4136   23.2000 H   0  0  0  0  0  0
  -28.5619  -24.9420   21.4896 H   0  0  0  0  0  0
  -27.2203  -24.7328   20.4122 H   0  0  0  0  0  0
  -29.5354  -14.9345   22.1151 H   0  0  0  0  0  0
  1 25  1  0  0  0
  1 30  2  0  0  0
  1 88  1  0  0  0
  2  3  1  0  0  0
  2 25  1  0  0  0
  2 90  1  0  0  0
  2 91  1  0  0  0
  3  4  1  0  0  0
  3 92  1  0  0  0
  3 93  1  0  0  0
  4  5  1  0  0  0
  4 94  1  0  0  0
  4 95  1  0  0  0
  5  6  1  0  0  0
  5 26  1  0  0  0
  5 96  1  0  0  0
  6 25  1  0  0  0
  6 97  1  0  0  0
  6 98  1  0  0  0
  7  8  2  0  0  0
  7 26  1  0  0  0
  7 29  1  0  0  0
  8  9  1  0  0  0
  8 22  1  0  0  0
  9 10  1  0  0  0
  9 27  2  0  0  0
 10 11  2  0  0  0
 10 15  1  0  0  0
 11 12  1  0  0  0
 11 99  1  0  0  0
 12 13  2  0  0  0
 12100  1  0  0  0
 13 14  1  0  0  0
 13 31  1  0  0  0
 14 15  2  0  0  0
 14101  1  0  0  0
 15102  1  0  0  0
 16 17  2  0  0  0
 16 21  1  0  0  0
 16 31  1  0  0  0
 17 18  1  0  0  0
 17103  1  0  0  0
 18 19  2  0  0  0
 18104  1  0  0  0
 19 20  1  0  0  0
 19 24  1  0  0  0
 20 21  2  0  0  0
 20105  1  0  0  0
 21 23  1  0  0  0
 22 28  1  0  0  0
 22 32  2  0  0  0
 26 27  1  0  0  0
 28106  1  0  0  0
 28107  1  0  0  0
 29108  1  0  0  0
 29109  1  0  0  0
 33 34  1  0  0  0
 33 66  1  0  0  0
 33 70  2  0  0  0
 34 36  1  0  0  0
 34 59  1  0  0  0
 34110  1  0  0  0
 35 44  2  0  0  0
 35 45  1  0  0  0
 35 68  1  0  0  0
 36 56  1  0  0  0
 36111  1  0  0  0
 37 39  1  0  0  0
 37 47  1  0  0  0
 37 66  1  0  0  0
 37112  1  0  0  0
 38 43  2  0  0  0
 38 46  1  0  0  0
 38 47  1  0  0  0
 39 64  1  0  0  0
 39 67  2  0  0  0
 40 52  1  0  0  0
 40 53  2  0  0  0
 40 58  1  0  0  0
 41113  1  0  0  0
 41114  1  0  0  0
 41115  1  0  0  0
 41 48  1  0  0  0
 42 43  1  0  0  0
 42 66  1  0  0  0
 42116  1  0  0  0
 42117  1  0  0  0
 43 44  1  0  0  0
 44118  1  0  0  0
 45 46  2  0  0  0
 45119  1  0  0  0
 46120  1  0  0  0
 47121  1  0  0  0
 47122  1  0  0  0
 48 56  1  0  0  0
 48 65  1  0  0  0
 48123  1  0  0  0
 49 50  1  0  0  0
 49 53  1  0  0  0
 49 64  1  0  0  0
 49124  1  0  0  0
 50 51  1  0  0  0
 50125  1  0  0  0
 50126  1  0  0  0
 51 52  1  0  0  0
 51127  1  0  0  0
 51128  1  0  0  0
 52129  1  0  0  0
 52130  1  0  0  0
 53 54  1  0  0  0
 54 55  2  0  0  0
 54131  1  0  0  0
 55 57  1  0  0  0
 55132  1  0  0  0
 56 69  2  0  0  0
 57 58  2  0  0  0
 57133  1  0  0  0
 58134  1  0  0  0
 59 60  1  0  0  0
 59 61  1  0  0  0
 59 62  1  0  0  0
 60135  1  0  0  0
 60136  1  0  0  0
 60137  1  0  0  0
 61138  1  0  0  0
 61139  1  0  0  0
 61140  1  0  0  0
 62141  1  0  0  0
 62142  1  0  0  0
 62143  1  0  0  0
 63 65  1  0  0  0
 63144  1  0  0  0
 63145  1  0  0  0
 63146  1  0  0  0
 64147  1  0  0  0
 65148  1  0  0  0
 68 86  1  0  0  0
 71 74  2  0  0  0
 71 76  1  0  0  0
 71149  1  0  0  0
 72 75  1  0  0  0
 72 76  2  0  0  0
 72150  1  0  0  0
 73 74  1  0  0  0
 73 75  2  0  0  0
 73 82  1  0  0  0
 74 85  1  0  0  0
 75 87  1  0  0  0
 76 88  1  0  0  0
 77 78  1  0  0  0
 77 79  1  0  0  0
 77 83  2  0  0  0
 78 80  2  0  0  0
 78 84  1  0  0  0
 79 87  1  0  0  0
 79 89  2  0  0  0
 80151  1  0  0  0
 80152  1  0  0  0
 81 82  2  0  0  0
 81153  1  0  0  0
 81154  1  0  0  0
 82155  1  0  0  0
 83 86  1  0  0  0
 83156  1  0  0  0
 84 87  1  0  0  0
 84157  1  0  0  0
 84158  1  0  0  0
 85159  1  0  0  0
 85160  1  0  0  0
 85161  1  0  0  0
 86162  1  0  0  0
 86163  1  0  0  0
 88164  1  0  0  0
M  ISO  4   1 100  68 101  86 101  88 100
M  END
> <chiral flag>
0

> <version>
0

> <s_m_source_file>
/data/baiqing/PycharmProjects/Reinvent-master-3.2/result/LINK_invent/BTK/process_docking_weight1_custom_product_contain_oxygen_bond_distance_aromatic_linkinvent_7_9_3/rearranged_h_0078.sdf

> <i_m_source_file_index>
18

> <r_mmod_Potential_Energy-OPLS-2005>
257.980834960938

> <r_mmod_Stretch_Energy-OPLS-2005>
87.4190673828125

> <r_mmod_Bend_Energy-OPLS-2005>
212.376251220703

> <r_mmod_Torsional_Energy-OPLS-2005>
339.781372070312

> <r_mmod_Improper_Torsional_Energy-OPLS-2005>
7.50765514373779

> <r_mmod_Van_der_Waal_Energy-OPLS-2005>
143.351303100586

> <r_mmod_Electrostatic_Energy-OPLS-2005>
-364.763854980469

> <r_mmod_Solvation_Energy-OPLS-2005>
-209.734237670898

> <b_mmod_Minimization_Converged-OPLS-2005>
0

> <r_mmod_RMS_Derivative-OPLS-2005>
0.484179198741913

$$$$
18
                    3D
 Structure written by MMmdl.
164173  0  0  1  0            999 V2000
  -30.7028  -14.4689   20.4789 C   0  0  0  0  0  0
  -30.4172  -12.2721   19.4457 C   0  0  0  0  0  0
  -29.5017  -12.4649   18.2182 C   0  0  0  0  0  0
  -28.0183  -12.3484   18.6234 C   0  0  0  0  0  0
  -27.6586  -13.2033   19.8687 C   0  0  2  0  0  0
  -28.7021  -13.0263   20.9985 C   0  0  0  0  0  0
  -25.2584  -13.8151   20.5673 C   0  0  0  0  0  0
  -24.1837  -13.0435   20.9183 C   0  0  0  0  0  0
  -24.6387  -11.6901   20.8744 C   0  0  0  0  0  0
  -23.9052  -10.4291   21.0411 C   0  0  0  0  0  0
  -24.3608   -9.4207   21.9186 C   0  0  0  0  0  0
  -23.6289   -8.2241   22.0753 C   0  0  0  0  0  0
  -22.4271   -8.0278   21.3542 C   0  0  0  0  0  0
  -21.9903   -9.0251   20.4646 C   0  0  0  0  0  0
  -22.7228  -10.2132   20.3057 C   0  0  0  0  0  0
  -21.6851   -6.0732   22.5279 C   0  0  0  0  0  0
  -21.4010   -6.5636   23.8212 C   0  0  0  0  0  0
  -21.3658   -5.6789   24.9175 C   0  0  0  0  0  0
  -21.6046   -4.3053   24.7227 C   0  0  0  0  0  0
  -21.8821   -3.8142   23.4349 C   0  0  0  0  0  0
  -21.9194   -4.6958   22.3405 C   0  0  0  0  0  0
  -22.7862  -13.5239   21.1843 C   0  0  0  0  0  0
  -22.1663   -4.2142   21.0982 F   0  0  0  0  0  0
  -21.5631   -3.4536   25.7741 F   0  0  0  0  0  0
  -30.0363  -13.2870   20.4384 N   0  0  0  0  0  0
  -26.3011  -12.9310   20.3343 N   0  0  0  0  0  0
  -25.9311  -11.6479   20.5775 N   0  0  0  0  0  0
  -22.0493  -12.8239   22.0398 N   0  0  0  0  0  0
  -25.4298  -15.1870   20.4068 N   0  0  0  0  0  0
  -31.8844  -14.5837   20.1489 O   0  0  0  0  0  0
  -21.6637   -6.8874   21.4240 O   0  0  0  0  0  0
  -22.3554  -14.5547   20.6690 O   0  0  0  0  0  0
  -24.6138  -31.8703   23.2124 C   0  0  0  0  0  0
  -25.9040  -32.4832   23.8411 C   0  0  1  0  0  0
  -27.2275  -27.4416   20.0932 C   0  0  0  0  0  0
  -25.5907  -33.8630   24.2344 N   0  0  0  0  0  0
  -23.3999  -30.4967   21.5534 C   0  0  2  0  0  0
  -24.8439  -28.9701   20.1115 C   0  0  0  0  0  0
  -22.7403  -29.4674   22.4995 C   0  0  0  0  0  0
  -18.0270  -28.1374   22.8494 C   0  0  0  0  0  0
  -24.1484  -36.7311   23.2631 C   0  0  0  0  0  0
  -25.9295  -30.8382   21.3657 C   0  0  0  0  0  0
  -26.0049  -29.4754   20.7095 C   0  0  0  0  0  0
  -27.1988  -28.7187   20.6981 C   0  0  0  0  0  0
  -26.0478  -26.9614   19.4729 C   0  0  0  0  0  0
  -24.8604  -27.7124   19.4895 C   0  0  0  0  0  0
  -23.6059  -29.8347   20.1657 C   0  0  0  0  0  0
  -25.4101  -36.3117   24.0343 C   0  0  1  0  0  0
  -20.5861  -28.3659   23.1320 C   0  0  2  0  0  0
  -20.6761  -26.9398   22.5417 C   0  0  0  0  0  0
  -19.5741  -26.6385   21.5211 C   0  0  0  0  0  0
  -18.1919  -26.7922   22.1621 C   0  0  0  0  0  0
  -19.1519  -28.8833   23.2906 C   0  0  0  0  0  0
  -18.9448  -30.1440   23.8916 C   0  0  0  0  0  0
  -17.6449  -30.6581   24.0564 C   0  0  0  0  0  0
  -25.9038  -34.9482   23.5139 C   0  0  0  0  0  0
  -16.5341  -29.9083   23.6325 C   0  0  0  0  0  0
  -16.7260  -28.6499   23.0350 C   0  0  0  0  0  0
  -26.4469  -31.6600   25.0730 C   0  0  0  0  0  0
  -25.3738  -31.3699   26.1479 C   0  0  0  0  0  0
  -27.0290  -30.3043   24.6092 C   0  0  0  0  0  0
  -27.6057  -32.4308   25.7483 C   0  0  0  0  0  0
  -27.5594  -37.1787   24.8448 C   0  0  0  0  0  0
  -21.4134  -29.3031   22.3729 N   0  0  0  0  0  0
  -26.4278  -37.3812   23.9437 N   0  0  0  0  0  0
  -24.6660  -31.0820   22.1021 N   0  0  0  0  0  0
  -23.4185  -28.8215   23.3028 O   0  0  0  0  0  0
  -28.3935  -26.7005   20.1363 O   0  0  0  0  0  0
  -26.5593  -34.8932   22.4696 O   0  0  0  0  0  0
  -23.5335  -32.1450   23.7528 O   0  0  0  0  0  0
  -29.0155  -18.7655   20.6243 C   0  0  0  0  0  0
  -29.0746  -20.1414   20.9329 C   0  0  0  0  0  0
  -31.4685  -20.1295   20.5540 C   0  0  0  0  0  0
  -30.1742  -18.0755   20.2044 C   0  0  0  0  0  0
  -30.2935  -20.8571   20.8583 C   0  0  0  0  0  0
  -31.4100  -18.7630   20.2159 C   0  0  0  0  0  0
  -29.3187  -23.1066   20.5505 C   0  0  0  0  0  0
  -29.3658  -24.4532   20.5939 C   0  0  0  0  0  0
  -31.3895  -24.2451   22.0856 C   0  0  0  0  0  0
  -31.9325  -24.6168   23.2559 C   0  0  0  0  0  0
  -30.5204  -25.1903   21.2618 C   0  0  0  0  0  0
  -31.5690  -22.8400   21.5239 C   0  0  0  0  0  0
  -28.9740  -16.6132   18.5148 C   0  0  0  0  0  0
  -28.2517  -25.2825   19.9679 C   0  0  0  0  0  0
  -30.0783  -16.6757   19.5883 C   0  0  2  0  0  0
  -30.3109  -22.2615   21.0409 N   0  0  0  0  0  0
  -29.9047  -15.5516   20.5263 N   0  0  0  0  0  0
  -32.5507  -18.1341   19.8421 F   0  0  0  0  0  0
  -31.4661  -12.3437   19.1514 H   0  0  0  0  0  0
  -30.2938  -11.2730   19.8665 H   0  0  0  0  0  0
  -29.7367  -11.7203   17.4565 H   0  0  0  0  0  0
  -29.6907  -13.4355   17.7598 H   0  0  0  0  0  0
  -27.8182  -11.2963   18.8288 H   0  0  0  0  0  0
  -27.3768  -12.6190   17.7839 H   0  0  0  0  0  0
  -27.6848  -14.2412   19.5432 H   0  0  0  0  0  0
  -28.6655  -12.0120   21.3990 H   0  0  0  0  0  0
  -28.4858  -13.6897   21.8377 H   0  0  0  0  0  0
  -25.2755   -9.5684   22.4758 H   0  0  0  0  0  0
  -23.9998   -7.4633   22.7474 H   0  0  0  0  0  0
  -21.0832   -8.8774   19.8956 H   0  0  0  0  0  0
  -22.3690  -10.9671   19.6167 H   0  0  0  0  0  0
  -21.1995   -7.6145   23.9714 H   0  0  0  0  0  0
  -21.1479   -6.0519   25.9078 H   0  0  0  0  0  0
  -22.0599   -2.7604   23.2851 H   0  0  0  0  0  0
  -22.4093  -11.9897   22.4792 H   0  0  0  0  0  0
  -21.1118  -13.1283   22.2603 H   0  0  0  0  0  0
  -24.6584  -15.8381   20.5058 H   0  0  0  0  0  0
  -26.2752  -15.6257   20.0675 H   0  0  0  0  0  0
  -26.7112  -32.5550   23.1178 H   0  0  0  0  0  0
  -25.0075  -33.9795   25.0501 H   0  0  0  0  0  0
  -22.6881  -31.3137   21.4186 H   0  0  0  0  0  0
  -23.3767  -35.9619   23.3253 H   0  0  0  0  0  0
  -24.3600  -36.8963   22.2055 H   0  0  0  0  0  0
  -23.7197  -37.6490   23.6665 H   0  0  0  0  0  0
  -26.0439  -31.6068   20.6000 H   0  0  0  0  0  0
  -26.8171  -30.8872   21.9847 H   0  0  0  0  0  0
  -28.0928  -29.1027   21.1695 H   0  0  0  0  0  0
  -26.0193  -26.0074   18.9670 H   0  0  0  0  0  0
  -23.9703  -27.3212   19.0159 H   0  0  0  0  0  0
  -23.7111  -30.6124   19.4083 H   0  0  0  0  0  0
  -22.7299  -29.2545   19.8703 H   0  0  0  0  0  0
  -25.1264  -36.1976   25.0831 H   0  0  0  0  0  0
  -20.9954  -28.3219   24.1441 H   0  0  0  0  0  0
  -20.5669  -26.2265   23.3600 H   0  0  0  0  0  0
  -21.6631  -26.7447   22.1205 H   0  0  0  0  0  0
  -19.6904  -25.6301   21.1230 H   0  0  0  0  0  0
  -19.6685  -27.3204   20.6750 H   0  0  0  0  0  0
  -17.4194  -26.6678   21.4018 H   0  0  0  0  0  0
  -18.0316  -26.0057   22.9007 H   0  0  0  0  0  0
  -19.7924  -30.7246   24.2299 H   0  0  0  0  0  0
  -17.5008  -31.6266   24.5157 H   0  0  0  0  0  0
  -15.5343  -30.2991   23.7642 H   0  0  0  0  0  0
  -15.8657  -28.0825   22.7058 H   0  0  0  0  0  0
  -24.5914  -30.7043   25.7813 H   0  0  0  0  0  0
  -24.8921  -32.2850   26.4935 H   0  0  0  0  0  0
  -25.8094  -30.8864   27.0232 H   0  0  0  0  0  0
  -26.2825  -29.6816   24.1147 H   0  0  0  0  0  0
  -27.4062  -29.7267   25.4541 H   0  0  0  0  0  0
  -27.8663  -30.4362   23.9234 H   0  0  0  0  0  0
  -27.2690  -33.3598   26.2095 H   0  0  0  0  0  0
  -28.3844  -32.6881   25.0290 H   0  0  0  0  0  0
  -28.0748  -31.8407   26.5367 H   0  0  0  0  0  0
  -28.2546  -38.0152   24.7614 H   0  0  0  0  0  0
  -28.1158  -36.2696   24.6113 H   0  0  0  0  0  0
  -27.2342  -37.1235   25.8851 H   0  0  0  0  0  0
  -20.9287  -29.8757   21.6959 H   0  0  0  0  0  0
  -26.0167  -38.2875   24.1507 H   0  0  0  0  0  0
  -28.0582  -18.2654   20.6411 H   0  0  0  0  0  0
  -28.1592  -20.6514   21.1975 H   0  0  0  0  0  0
  -32.4288  -20.6174   20.4935 H   0  0  0  0  0  0
  -28.4957  -22.6020   20.0612 H   0  0  0  0  0  0
  -31.7864  -25.6108   23.6533 H   0  0  0  0  0  0
  -32.5333  -23.9329   23.8385 H   0  0  0  0  0  0
  -30.1342  -25.9849   21.9018 H   0  0  0  0  0  0
  -31.1274  -25.6594   20.4872 H   0  0  0  0  0  0
  -32.0201  -22.1997   22.2841 H   0  0  0  0  0  0
  -32.2719  -22.9007   20.6918 H   0  0  0  0  0  0
  -29.1164  -17.3932   17.7656 H   0  0  0  0  0  0
  -27.9761  -16.7388   18.9337 H   0  0  0  0  0  0
  -28.9879  -15.6609   17.9858 H   0  0  0  0  0  0
  -27.3309  -24.9217   20.4301 H   0  0  0  0  0  0
  -28.2009  -25.0507   18.9030 H   0  0  0  0  0  0
  -31.0026  -16.5400   19.0239 H   0  0  0  0  0  0
  -28.9681  -15.3889   20.8606 H   0  0  0  0  0  0
  1 25  1  0  0  0
  1 30  2  0  0  0
  1 87  1  0  0  0
  2  3  1  0  0  0
  2 25  1  0  0  0
  2 89  1  0  0  0
  2 90  1  0  0  0
  3  4  1  0  0  0
  3 91  1  0  0  0
  3 92  1  0  0  0
  4  5  1  0  0  0
  4 93  1  0  0  0
  4 94  1  0  0  0
  5  6  1  0  0  0
  5 26  1  0  0  0
  5 95  1  0  0  0
  6 25  1  0  0  0
  6 96  1  0  0  0
  6 97  1  0  0  0
  7  8  2  0  0  0
  7 26  1  0  0  0
  7 29  1  0  0  0
  8  9  1  0  0  0
  8 22  1  0  0  0
  9 10  1  0  0  0
  9 27  2  0  0  0
 10 11  2  0  0  0
 10 15  1  0  0  0
 11 12  1  0  0  0
 11 98  1  0  0  0
 12 13  2  0  0  0
 12 99  1  0  0  0
 13 14  1  0  0  0
 13 31  1  0  0  0
 14 15  2  0  0  0
 14100  1  0  0  0
 15101  1  0  0  0
 16 17  2  0  0  0
 16 21  1  0  0  0
 16 31  1  0  0  0
 17 18  1  0  0  0
 17102  1  0  0  0
 18 19  2  0  0  0
 18103  1  0  0  0
 19 20  1  0  0  0
 19 24  1  0  0  0
 20 21  2  0  0  0
 20104  1  0  0  0
 21 23  1  0  0  0
 22 28  1  0  0  0
 22 32  2  0  0  0
 26 27  1  0  0  0
 28105  1  0  0  0
 28106  1  0  0  0
 29107  1  0  0  0
 29108  1  0  0  0
 33 34  1  0  0  0
 33 66  1  0  0  0
 33 70  2  0  0  0
 34 36  1  0  0  0
 34 59  1  0  0  0
 34109  1  0  0  0
 35 44  2  0  0  0
 35 45  1  0  0  0
 35 68  1  0  0  0
 36 56  1  0  0  0
 36110  1  0  0  0
 37 39  1  0  0  0
 37 47  1  0  0  0
 37 66  1  0  0  0
 37111  1  0  0  0
 38 43  2  0  0  0
 38 46  1  0  0  0
 38 47  1  0  0  0
 39 64  1  0  0  0
 39 67  2  0  0  0
 40 52  1  0  0  0
 40 53  2  0  0  0
 40 58  1  0  0  0
 41112  1  0  0  0
 41113  1  0  0  0
 41114  1  0  0  0
 41 48  1  0  0  0
 42 43  1  0  0  0
 42 66  1  0  0  0
 42115  1  0  0  0
 42116  1  0  0  0
 43 44  1  0  0  0
 44117  1  0  0  0
 45 46  2  0  0  0
 45118  1  0  0  0
 46119  1  0  0  0
 47120  1  0  0  0
 47121  1  0  0  0
 48 56  1  0  0  0
 48 65  1  0  0  0
 48122  1  0  0  0
 49 50  1  0  0  0
 49 53  1  0  0  0
 49 64  1  0  0  0
 49123  1  0  0  0
 50 51  1  0  0  0
 50124  1  0  0  0
 50125  1  0  0  0
 51 52  1  0  0  0
 51126  1  0  0  0
 51127  1  0  0  0
 52128  1  0  0  0
 52129  1  0  0  0
 53 54  1  0  0  0
 54 55  2  0  0  0
 54130  1  0  0  0
 55 57  1  0  0  0
 55131  1  0  0  0
 56 69  2  0  0  0
 57 58  2  0  0  0
 57132  1  0  0  0
 58133  1  0  0  0
 59 60  1  0  0  0
 59 61  1  0  0  0
 59 62  1  0  0  0
 60134  1  0  0  0
 60135  1  0  0  0
 60136  1  0  0  0
 61137  1  0  0  0
 61138  1  0  0  0
 61139  1  0  0  0
 62140  1  0  0  0
 62141  1  0  0  0
 62142  1  0  0  0
 63 65  1  0  0  0
 63143  1  0  0  0
 63144  1  0  0  0
 63145  1  0  0  0
 64146  1  0  0  0
 65147  1  0  0  0
 68 84  1  0  0  0
 71 72  2  0  0  0
 71 74  1  0  0  0
 71148  1  0  0  0
 72 75  1  0  0  0
 72149  1  0  0  0
 73 75  2  0  0  0
 73 76  1  0  0  0
 73150  1  0  0  0
 74 76  2  0  0  0
 74 85  1  0  0  0
 75 86  1  0  0  0
 76 88  1  0  0  0
 77 78  2  0  0  0
 77 86  1  0  0  0
 77151  1  0  0  0
 78 81  1  0  0  0
 78 84  1  0  0  0
 79 80  2  0  0  0
 79 81  1  0  0  0
 79 82  1  0  0  0
 80152  1  0  0  0
 80153  1  0  0  0
 81154  1  0  0  0
 81155  1  0  0  0
 82 86  1  0  0  0
 82156  1  0  0  0
 82157  1  0  0  0
 83158  1  0  0  0
 83159  1  0  0  0
 83160  1  0  0  0
 83 85  1  0  0  0
 84161  1  0  0  0
 84162  1  0  0  0
 85 87  1  0  0  0
 85163  1  0  0  0
 87164  1  0  0  0
M  ISO  4   1 100  68 101  84 101  87 100
M  END
> <chiral flag>
0

> <version>
0

> <s_m_source_file>
/data/baiqing/PycharmProjects/Reinvent-master-3.2/result/LINK_invent/BTK/process_docking_weight1_custom_product_contain_oxygen_bond_distance_aromatic_linkinvent_7_9_3/rearranged_h_0078.sdf

> <i_m_source_file_index>
19

> <r_mmod_Potential_Energy-OPLS-2005>
-10.2554559707642

> <r_mmod_Stretch_Energy-OPLS-2005>
37.2475318908691

> <r_mmod_Bend_Energy-OPLS-2005>
96.5536956787109

> <r_mmod_Torsional_Energy-OPLS-2005>
229.992553710938

> <r_mmod_Improper_Torsional_Energy-OPLS-2005>
13.8064031600952

> <r_mmod_Van_der_Waal_Energy-OPLS-2005>
175.226791381836

> <r_mmod_Electrostatic_Energy-OPLS-2005>
-369.066040039062

> <r_mmod_Solvation_Energy-OPLS-2005>
-212.98388671875

> <b_mmod_Minimization_Converged-OPLS-2005>
0

> <r_mmod_RMS_Derivative-OPLS-2005>
0.496371179819107

$$$$
19
                    3D
 Structure written by MMmdl.
161170  0  0  1  0            999 V2000
  -30.6517  -14.5361   20.5402 C   0  0  0  0  0  0
  -30.4349  -12.3362   19.4324 C   0  0  0  0  0  0
  -29.5013  -12.5056   18.2135 C   0  0  0  0  0  0
  -28.0226  -12.3554   18.6249 C   0  0  0  0  0  0
  -27.6600  -13.2032   19.8729 C   0  0  2  0  0  0
  -28.7030  -12.9994   20.9958 C   0  0  0  0  0  0
  -25.2585  -13.8144   20.5682 C   0  0  0  0  0  0
  -24.1835  -13.0426   20.9174 C   0  0  0  0  0  0
  -24.6386  -11.6893   20.8730 C   0  0  0  0  0  0
  -23.9051  -10.4284   21.0402 C   0  0  0  0  0  0
  -24.3607   -9.4202   21.9182 C   0  0  0  0  0  0
  -23.6283   -8.2239   22.0752 C   0  0  0  0  0  0
  -22.4266   -8.0275   21.3542 C   0  0  0  0  0  0
  -21.9896   -9.0249   20.4645 C   0  0  0  0  0  0
  -22.7223  -10.2129   20.3053 C   0  0  0  0  0  0
  -21.6850   -6.0730   22.5277 C   0  0  0  0  0  0
  -21.4013   -6.5637   23.8211 C   0  0  0  0  0  0
  -21.3658   -5.6790   24.9172 C   0  0  0  0  0  0
  -21.6045   -4.3052   24.7224 C   0  0  0  0  0  0
  -21.8821   -3.8143   23.4346 C   0  0  0  0  0  0
  -21.9192   -4.6958   22.3401 C   0  0  0  0  0  0
  -22.7861  -13.5234   21.1841 C   0  0  0  0  0  0
  -22.1662   -4.2145   21.0979 F   0  0  0  0  0  0
  -21.5626   -3.4538   25.7737 F   0  0  0  0  0  0
  -30.0304  -13.3254   20.4452 N   0  0  0  0  0  0
  -26.3015  -12.9305   20.3353 N   0  0  0  0  0  0
  -25.9311  -11.6471   20.5760 N   0  0  0  0  0  0
  -22.0501  -12.8233   22.0404 N   0  0  0  0  0  0
  -25.4304  -15.1865   20.4119 N   0  0  0  0  0  0
  -31.7910  -14.7366   20.1076 O   0  0  0  0  0  0
  -21.6633   -6.8871   21.4238 O   0  0  0  0  0  0
  -22.3553  -14.5544   20.6692 O   0  0  0  0  0  0
  -24.6180  -31.8647   23.2066 C   0  0  0  0  0  0
  -25.9059  -32.4804   23.8373 C   0  0  1  0  0  0
  -27.2344  -27.3900   20.1078 C   0  0  0  0  0  0
  -25.5902  -33.8603   24.2305 N   0  0  0  0  0  0
  -23.4078  -30.4872   21.5480 C   0  0  2  0  0  0
  -24.8537  -28.9449   20.1163 C   0  0  0  0  0  0
  -22.7427  -29.4643   22.4975 C   0  0  0  0  0  0
  -18.0276  -28.1378   22.8491 C   0  0  0  0  0  0
  -24.1486  -36.7308   23.2639 C   0  0  0  0  0  0
  -25.9401  -30.8169   21.3657 C   0  0  0  0  0  0
  -26.0155  -29.4472   20.7141 C   0  0  0  0  0  0
  -27.2066  -28.6792   20.7015 C   0  0  0  0  0  0
  -26.0532  -26.9176   19.4912 C   0  0  0  0  0  0
  -24.8699  -27.6819   19.5004 C   0  0  0  0  0  0
  -23.6182  -29.8172   20.1637 C   0  0  0  0  0  0
  -25.4109  -36.3101   24.0334 C   0  0  1  0  0  0
  -20.5868  -28.3668   23.1309 C   0  0  2  0  0  0
  -20.6765  -26.9401   22.5416 C   0  0  0  0  0  0
  -19.5744  -26.6384   21.5212 C   0  0  0  0  0  0
  -18.1923  -26.7922   22.1625 C   0  0  0  0  0  0
  -19.1526  -28.8841   23.2896 C   0  0  0  0  0  0
  -18.9453  -30.1445   23.8909 C   0  0  0  0  0  0
  -17.6455  -30.6582   24.0566 C   0  0  0  0  0  0
  -25.9039  -34.9466   23.5120 C   0  0  0  0  0  0
  -16.5347  -29.9085   23.6324 C   0  0  0  0  0  0
  -16.7265  -28.6502   23.0347 C   0  0  0  0  0  0
  -26.4475  -31.6595   25.0716 C   0  0  0  0  0  0
  -25.3736  -31.3711   26.1463 C   0  0  0  0  0  0
  -27.0308  -30.3034   24.6113 C   0  0  0  0  0  0
  -27.6049  -32.4318   25.7477 C   0  0  0  0  0  0
  -27.5579  -37.1808   24.8465 C   0  0  0  0  0  0
  -21.4152  -29.3032   22.3714 N   0  0  0  0  0  0
  -26.4294  -37.3787   23.9406 N   0  0  0  0  0  0
  -24.6738  -31.0716   22.0981 N   0  0  0  0  0  0
  -23.4184  -28.8190   23.3033 O   0  0  0  0  0  0
  -28.4138  -26.6572   20.1161 O   0  0  0  0  0  0
  -26.5608  -34.8923   22.4685 O   0  0  0  0  0  0
  -23.5364  -32.1415   23.7440 O   0  0  0  0  0  0
  -28.7494  -18.6638   19.2582 C   0  0  0  0  0  0
  -28.8332  -17.3216   19.6950 C   0  0  0  0  0  0
  -30.7497  -17.8880   21.0678 C   0  0  0  0  0  0
  -29.6640  -19.6444   19.7140 C   0  0  0  0  0  0
  -29.8523  -16.9040   20.5807 C   0  0  0  0  0  0
  -30.6580  -19.2420   20.6418 C   0  0  0  0  0  0
  -30.9075  -23.1782   17.9121 C   0  0  0  0  0  0
  -29.8672  -23.3563   18.9357 C   0  0  0  0  0  0
  -30.8788  -21.9378   17.1522 C   0  0  0  0  0  0
  -29.4608  -22.1451   19.7084 C   0  0  0  0  0  0
  -31.9020  -24.0832   17.7677 C   0  0  0  0  0  0
  -31.6828  -21.6807   16.1020 C   0  0  0  0  0  0
  -29.4140  -24.6251   19.1822 C   0  0  0  0  0  0
  -29.9003  -20.8871   17.6222 C   0  0  0  0  0  0
  -28.3956  -25.2024   20.1656 C   0  0  0  0  0  0
  -29.6964  -20.9415   19.0792 N   0  0  0  0  0  0
  -29.8768  -15.5361   21.0231 N   0  0  0  0  0  0
  -28.9511  -22.1949   20.8330 O   0  0  0  0  0  0
  -31.5725  -20.1406   21.0806 F   0  0  0  0  0  0
  -31.4773  -12.4543   19.1309 H   0  0  0  0  0  0
  -30.3556  -11.3276   19.8412 H   0  0  0  0  0  0
  -29.7498  -11.7725   17.4451 H   0  0  0  0  0  0
  -29.6581  -13.4867   17.7618 H   0  0  0  0  0  0
  -27.8440  -11.2996   18.8322 H   0  0  0  0  0  0
  -27.3701  -12.6144   17.7902 H   0  0  0  0  0  0
  -27.6964  -14.2466   19.5624 H   0  0  0  0  0  0
  -28.6925  -11.9636   21.3388 H   0  0  0  0  0  0
  -28.4564  -13.5965   21.8749 H   0  0  0  0  0  0
  -25.2754   -9.5676   22.4753 H   0  0  0  0  0  0
  -23.9992   -7.4630   22.7472 H   0  0  0  0  0  0
  -21.0825   -8.8767   19.8956 H   0  0  0  0  0  0
  -22.3681  -10.9666   19.6161 H   0  0  0  0  0  0
  -21.2008   -7.6145   23.9713 H   0  0  0  0  0  0
  -21.1479   -6.0520   25.9076 H   0  0  0  0  0  0
  -22.0602   -2.7604   23.2848 H   0  0  0  0  0  0
  -22.4109  -11.9892   22.4790 H   0  0  0  0  0  0
  -21.1123  -13.1271   22.2617 H   0  0  0  0  0  0
  -24.6640  -15.8406   20.5281 H   0  0  0  0  0  0
  -26.2841  -15.6301   20.1017 H   0  0  0  0  0  0
  -26.7128  -32.5501   23.1130 H   0  0  0  0  0  0
  -25.0049  -33.9758   25.0449 H   0  0  0  0  0  0
  -22.6983  -31.3049   21.4063 H   0  0  0  0  0  0
  -23.3740  -35.9651   23.3317 H   0  0  0  0  0  0
  -24.3577  -36.8907   22.2050 H   0  0  0  0  0  0
  -23.7250  -37.6522   23.6644 H   0  0  0  0  0  0
  -26.0582  -31.5804   20.5954 H   0  0  0  0  0  0
  -26.8261  -30.8702   21.9866 H   0  0  0  0  0  0
  -28.1044  -29.0665   21.1631 H   0  0  0  0  0  0
  -26.0282  -25.9671   18.9799 H   0  0  0  0  0  0
  -23.9795  -27.2944   19.0245 H   0  0  0  0  0  0
  -23.7306  -30.5909   19.4033 H   0  0  0  0  0  0
  -22.7408  -29.2399   19.8668 H   0  0  0  0  0  0
  -25.1286  -36.1964   25.0828 H   0  0  0  0  0  0
  -20.9961  -28.3235   24.1429 H   0  0  0  0  0  0
  -20.5664  -26.2277   23.3605 H   0  0  0  0  0  0
  -21.6636  -26.7438   22.1211 H   0  0  0  0  0  0
  -19.6905  -25.6298   21.1232 H   0  0  0  0  0  0
  -19.6682  -27.3202   20.6748 H   0  0  0  0  0  0
  -17.4192  -26.6669   21.4029 H   0  0  0  0  0  0
  -18.0328  -26.0063   22.9020 H   0  0  0  0  0  0
  -19.7931  -30.7258   24.2283 H   0  0  0  0  0  0
  -17.5011  -31.6263   24.5167 H   0  0  0  0  0  0
  -15.5348  -30.2992   23.7640 H   0  0  0  0  0  0
  -15.8665  -28.0827   22.7053 H   0  0  0  0  0  0
  -24.5904  -30.7064   25.7799 H   0  0  0  0  0  0
  -24.8935  -32.2872   26.4915 H   0  0  0  0  0  0
  -25.8085  -30.8874   27.0219 H   0  0  0  0  0  0
  -26.2859  -29.6793   24.1164 H   0  0  0  0  0  0
  -27.4067  -29.7274   25.4578 H   0  0  0  0  0  0
  -27.8698  -30.4345   23.9275 H   0  0  0  0  0  0
  -27.2669  -33.3607   26.2081 H   0  0  0  0  0  0
  -28.3843  -32.6897   25.0294 H   0  0  0  0  0  0
  -28.0737  -31.8429   26.5370 H   0  0  0  0  0  0
  -28.2607  -38.0094   24.7501 H   0  0  0  0  0  0
  -28.1064  -36.2626   24.6305 H   0  0  0  0  0  0
  -27.2297  -37.1475   25.8869 H   0  0  0  0  0  0
  -20.9318  -29.8756   21.6934 H   0  0  0  0  0  0
  -26.0182  -38.2866   24.1400 H   0  0  0  0  0  0
  -27.9918  -18.9301   18.5347 H   0  0  0  0  0  0
  -28.1189  -16.6074   19.3118 H   0  0  0  0  0  0
  -31.5260  -17.6101   21.7654 H   0  0  0  0  0  0
  -31.9523  -24.9731   18.3782 H   0  0  0  0  0  0
  -32.7094  -23.9623   17.0628 H   0  0  0  0  0  0
  -32.4028  -22.3867   15.7183 H   0  0  0  0  0  0
  -31.6245  -20.7345   15.5829 H   0  0  0  0  0  0
  -29.7984  -25.4074   18.5454 H   0  0  0  0  0  0
  -30.2590  -19.9023   17.3172 H   0  0  0  0  0  0
  -28.9440  -21.0435   17.1210 H   0  0  0  0  0  0
  -28.6759  -24.9004   21.1749 H   0  0  0  0  0  0
  -27.4240  -24.7512   19.9758 H   0  0  0  0  0  0
  -28.9919  -15.1875   21.3597 H   0  0  0  0  0  0
  1 25  1  0  0  0
  1 30  2  0  0  0
  1 87  1  0  0  0
  2  3  1  0  0  0
  2 25  1  0  0  0
  2 90  1  0  0  0
  2 91  1  0  0  0
  3  4  1  0  0  0
  3 92  1  0  0  0
  3 93  1  0  0  0
  4  5  1  0  0  0
  4 94  1  0  0  0
  4 95  1  0  0  0
  5  6  1  0  0  0
  5 26  1  0  0  0
  5 96  1  0  0  0
  6 25  1  0  0  0
  6 97  1  0  0  0
  6 98  1  0  0  0
  7  8  2  0  0  0
  7 26  1  0  0  0
  7 29  1  0  0  0
  8  9  1  0  0  0
  8 22  1  0  0  0
  9 10  1  0  0  0
  9 27  2  0  0  0
 10 11  2  0  0  0
 10 15  1  0  0  0
 11 12  1  0  0  0
 11 99  1  0  0  0
 12 13  2  0  0  0
 12100  1  0  0  0
 13 14  1  0  0  0
 13 31  1  0  0  0
 14 15  2  0  0  0
 14101  1  0  0  0
 15102  1  0  0  0
 16 17  2  0  0  0
 16 21  1  0  0  0
 16 31  1  0  0  0
 17 18  1  0  0  0
 17103  1  0  0  0
 18 19  2  0  0  0
 18104  1  0  0  0
 19 20  1  0  0  0
 19 24  1  0  0  0
 20 21  2  0  0  0
 20105  1  0  0  0
 21 23  1  0  0  0
 22 28  1  0  0  0
 22 32  2  0  0  0
 26 27  1  0  0  0
 28106  1  0  0  0
 28107  1  0  0  0
 29108  1  0  0  0
 29109  1  0  0  0
 33 34  1  0  0  0
 33 66  1  0  0  0
 33 70  2  0  0  0
 34 36  1  0  0  0
 34 59  1  0  0  0
 34110  1  0  0  0
 35 44  2  0  0  0
 35 45  1  0  0  0
 35 68  1  0  0  0
 36 56  1  0  0  0
 36111  1  0  0  0
 37 39  1  0  0  0
 37 47  1  0  0  0
 37 66  1  0  0  0
 37112  1  0  0  0
 38 43  2  0  0  0
 38 46  1  0  0  0
 38 47  1  0  0  0
 39 64  1  0  0  0
 39 67  2  0  0  0
 40 52  1  0  0  0
 40 53  2  0  0  0
 40 58  1  0  0  0
 41113  1  0  0  0
 41114  1  0  0  0
 41115  1  0  0  0
 41 48  1  0  0  0
 42 43  1  0  0  0
 42 66  1  0  0  0
 42116  1  0  0  0
 42117  1  0  0  0
 43 44  1  0  0  0
 44118  1  0  0  0
 45 46  2  0  0  0
 45119  1  0  0  0
 46120  1  0  0  0
 47121  1  0  0  0
 47122  1  0  0  0
 48 56  1  0  0  0
 48 65  1  0  0  0
 48123  1  0  0  0
 49 50  1  0  0  0
 49 53  1  0  0  0
 49 64  1  0  0  0
 49124  1  0  0  0
 50 51  1  0  0  0
 50125  1  0  0  0
 50126  1  0  0  0
 51 52  1  0  0  0
 51127  1  0  0  0
 51128  1  0  0  0
 52129  1  0  0  0
 52130  1  0  0  0
 53 54  1  0  0  0
 54 55  2  0  0  0
 54131  1  0  0  0
 55 57  1  0  0  0
 55132  1  0  0  0
 56 69  2  0  0  0
 57 58  2  0  0  0
 57133  1  0  0  0
 58134  1  0  0  0
 59 60  1  0  0  0
 59 61  1  0  0  0
 59 62  1  0  0  0
 60135  1  0  0  0
 60136  1  0  0  0
 60137  1  0  0  0
 61138  1  0  0  0
 61139  1  0  0  0
 61140  1  0  0  0
 62141  1  0  0  0
 62142  1  0  0  0
 62143  1  0  0  0
 63 65  1  0  0  0
 63144  1  0  0  0
 63145  1  0  0  0
 63146  1  0  0  0
 64147  1  0  0  0
 65148  1  0  0  0
 68 85  1  0  0  0
 71 72  2  0  0  0
 71 74  1  0  0  0
 71149  1  0  0  0
 72 75  1  0  0  0
 72150  1  0  0  0
 73 75  2  0  0  0
 73 76  1  0  0  0
 73151  1  0  0  0
 74 76  2  0  0  0
 74 86  1  0  0  0
 75 87  1  0  0  0
 76 89  1  0  0  0
 77 78  1  0  0  0
 77 79  1  0  0  0
 77 81  2  0  0  0
 78 80  1  0  0  0
 78 83  2  0  0  0
 79 82  2  0  0  0
 79 84  1  0  0  0
 80 86  1  0  0  0
 80 88  2  0  0  0
 81152  1  0  0  0
 81153  1  0  0  0
 82154  1  0  0  0
 82155  1  0  0  0
 83 85  1  0  0  0
 83156  1  0  0  0
 84 86  1  0  0  0
 84157  1  0  0  0
 84158  1  0  0  0
 85159  1  0  0  0
 85160  1  0  0  0
 87161  1  0  0  0
M  ISO  4   1 100  68 101  85 101  87 100
M  END
> <chiral flag>
0

> <version>
0

> <s_m_source_file>
/data/baiqing/PycharmProjects/Reinvent-master-3.2/result/LINK_invent/BTK/process_docking_weight1_custom_product_contain_oxygen_bond_distance_aromatic_linkinvent_7_9_3/rearranged_h_0078.sdf

> <i_m_source_file_index>
20

> <r_mmod_Potential_Energy-OPLS-2005>
153.344848632812

> <r_mmod_Stretch_Energy-OPLS-2005>
56.2936019897461

> <r_mmod_Bend_Energy-OPLS-2005>
133.241729736328

> <r_mmod_Torsional_Energy-OPLS-2005>
350.295806884766

> <r_mmod_Improper_Torsional_Energy-OPLS-2005>
6.97626638412476

> <r_mmod_Van_der_Waal_Energy-OPLS-2005>
176.498428344727

> <r_mmod_Electrostatic_Energy-OPLS-2005>
-371.360168457031

> <r_mmod_Solvation_Energy-OPLS-2005>
-219.141021728516

> <b_mmod_Minimization_Converged-OPLS-2005>
0

> <r_mmod_RMS_Derivative-OPLS-2005>
0.390762239694595

$$$$
20
                    3D
 Structure written by MMmdl.
158167  0  0  1  0            999 V2000
  -30.6786  -14.6282   20.4114 C   0  0  0  0  0  0
  -30.4129  -12.3641   19.4578 C   0  0  0  0  0  0
  -29.4971  -12.4765   18.2222 C   0  0  0  0  0  0
  -28.0223  -12.3280   18.6418 C   0  0  0  0  0  0
  -27.6465  -13.2237   19.8535 C   0  0  2  0  0  0
  -28.6956  -13.1427   20.9856 C   0  0  0  0  0  0
  -25.2565  -13.8191   20.5733 C   0  0  0  0  0  0
  -24.1818  -13.0436   20.9231 C   0  0  0  0  0  0
  -24.6384  -11.6928   20.8758 C   0  0  0  0  0  0
  -23.9061  -10.4297   21.0438 C   0  0  0  0  0  0
  -24.3618   -9.4211   21.9203 C   0  0  0  0  0  0
  -23.6290   -8.2242   22.0772 C   0  0  0  0  0  0
  -22.4280   -8.0283   21.3554 C   0  0  0  0  0  0
  -21.9927   -9.0263   20.4660 C   0  0  0  0  0  0
  -22.7256  -10.2140   20.3072 C   0  0  0  0  0  0
  -21.6860   -6.0734   22.5270 C   0  0  0  0  0  0
  -21.4019   -6.5633   23.8208 C   0  0  0  0  0  0
  -21.3667   -5.6784   24.9171 C   0  0  0  0  0  0
  -21.6048   -4.3048   24.7218 C   0  0  0  0  0  0
  -21.8814   -3.8140   23.4341 C   0  0  0  0  0  0
  -21.9193   -4.6956   22.3397 C   0  0  0  0  0  0
  -22.7849  -13.5258   21.1901 C   0  0  0  0  0  0
  -22.1662   -4.2135   21.0976 F   0  0  0  0  0  0
  -21.5640   -3.4546   25.7740 F   0  0  0  0  0  0
  -30.0082  -13.4325   20.3966 N   0  0  0  0  0  0
  -26.2952  -12.9367   20.3311 N   0  0  0  0  0  0
  -25.9317  -11.6538   20.5796 N   0  0  0  0  0  0
  -22.0453  -12.8194   22.0414 N   0  0  0  0  0  0
  -25.4292  -15.1898   20.4237 N   0  0  0  0  0  0
  -31.8739  -14.6585   20.1148 O   0  0  0  0  0  0
  -21.6648   -6.8872   21.4241 O   0  0  0  0  0  0
  -22.3512  -14.5554   20.6766 O   0  0  0  0  0  0
  -24.6226  -31.8630   23.2039 C   0  0  0  0  0  0
  -25.9077  -32.4818   23.8377 C   0  0  1  0  0  0
  -27.2125  -27.3559   20.1091 C   0  0  0  0  0  0
  -25.5878  -33.8628   24.2316 N   0  0  0  0  0  0
  -23.4099  -30.4921   21.5460 C   0  0  2  0  0  0
  -24.8471  -28.9432   20.1027 C   0  0  0  0  0  0
  -22.7469  -29.4668   22.4905 C   0  0  0  0  0  0
  -18.0337  -28.1277   22.8480 C   0  0  0  0  0  0
  -24.1469  -36.7308   23.2649 C   0  0  0  0  0  0
  -25.9417  -30.7979   21.3674 C   0  0  0  0  0  0
  -26.0084  -29.4260   20.7172 C   0  0  0  0  0  0
  -27.1858  -28.6326   20.7322 C   0  0  0  0  0  0
  -26.0356  -26.9081   19.4690 C   0  0  0  0  0  0
  -24.8609  -27.6869   19.4721 C   0  0  0  0  0  0
  -23.6118  -29.8212   20.1600 C   0  0  0  0  0  0
  -25.4105  -36.3118   24.0348 C   0  0  1  0  0  0
  -20.5914  -28.3689   23.1062 C   0  0  2  0  0  0
  -20.6957  -26.9425   22.5103 C   0  0  0  0  0  0
  -19.5766  -26.6162   21.5144 C   0  0  0  0  0  0
  -18.1946  -26.7813   22.1606 C   0  0  0  0  0  0
  -19.1593  -28.8813   23.2709 C   0  0  0  0  0  0
  -18.9534  -30.1493   23.8557 C   0  0  0  0  0  0
  -17.6556  -30.6598   24.0325 C   0  0  0  0  0  0
  -25.9042  -34.9471   23.5146 C   0  0  0  0  0  0
  -16.5439  -29.8949   23.6400 C   0  0  0  0  0  0
  -16.7343  -28.6330   23.0498 C   0  0  0  0  0  0
  -26.4475  -31.6606   25.0730 C   0  0  0  0  0  0
  -25.3720  -31.3674   26.1473 C   0  0  0  0  0  0
  -27.0307  -30.3054   24.6102 C   0  0  0  0  0  0
  -27.6074  -32.4325   25.7471 C   0  0  0  0  0  0
  -27.5578  -37.1813   24.8472 C   0  0  0  0  0  0
  -21.4183  -29.3178   22.3649 N   0  0  0  0  0  0
  -26.4286  -37.3816   23.9426 N   0  0  0  0  0  0
  -24.6761  -31.0695   22.0968 N   0  0  0  0  0  0
  -23.4189  -28.8150   23.2947 O   0  0  0  0  0  0
  -28.3480  -26.5544   20.1830 O   0  0  0  0  0  0
  -26.5645  -34.8943   22.4742 O   0  0  0  0  0  0
  -23.5417  -32.1430   23.7383 O   0  0  0  0  0  0
  -28.2448  -19.3690   22.7223 C   0  0  0  0  0  0
  -28.0875  -20.5307   21.9463 C   0  0  0  0  0  0
  -29.3091  -19.4401   20.1405 C   0  0  0  0  0  0
  -27.7528  -23.2658   18.3037 C   0  0  0  0  0  0
  -28.7964  -23.1519   20.2606 C   0  0  0  0  0  0
  -29.4733  -18.2326   20.9125 C   0  0  0  0  0  0
  -28.9529  -18.2443   22.2430 C   0  0  0  0  0  0
  -28.3902  -24.0704   19.2975 C   0  0  0  0  0  0
  -28.6334  -20.6027   20.6493 C   0  0  0  0  0  0
  -27.7609  -21.9578   18.7005 C   0  0  0  0  0  0
  -30.3377  -17.0766   20.3832 C   0  0  0  0  0  0
  -29.1655  -17.1376   23.2718 C   0  0  0  0  0  0
  -28.6529  -25.6021   19.1281 C   0  0  0  0  0  0
  -28.4350  -21.8340   19.9001 N   0  0  0  0  0  0
  -29.9368  -15.7726   20.5642 N   0  0  0  0  0  0
  -31.3754  -17.3952   19.7868 O   0  0  0  0  0  0
  -27.2066  -20.8784   18.0854 O   0  0  0  0  0  0
  -31.4588  -12.4342   19.1652 H   0  0  0  0  0  0
  -30.3044  -11.3830   19.9221 H   0  0  0  0  0  0
  -29.7556  -11.7060   17.4943 H   0  0  0  0  0  0
  -29.6450  -13.4350   17.7203 H   0  0  0  0  0  0
  -27.8738  -11.2753   18.8952 H   0  0  0  0  0  0
  -27.3629  -12.5297   17.8006 H   0  0  0  0  0  0
  -27.6461  -14.2479   19.4779 H   0  0  0  0  0  0
  -28.6944  -12.1570   21.4579 H   0  0  0  0  0  0
  -28.4485  -13.8592   21.7718 H   0  0  0  0  0  0
  -25.2788   -9.5659   22.4770 H   0  0  0  0  0  0
  -24.0010   -7.4615   22.7485 H   0  0  0  0  0  0
  -21.0871   -8.8784   19.8940 H   0  0  0  0  0  0
  -22.3748  -10.9680   19.6155 H   0  0  0  0  0  0
  -21.2005   -7.6146   23.9692 H   0  0  0  0  0  0
  -21.1512   -6.0535   25.9068 H   0  0  0  0  0  0
  -22.0586   -2.7609   23.2851 H   0  0  0  0  0  0
  -22.4124  -11.9859   22.4756 H   0  0  0  0  0  0
  -21.1047  -13.1204   22.2641 H   0  0  0  0  0  0
  -24.6710  -15.8482   20.5642 H   0  0  0  0  0  0
  -26.2869  -15.6384   20.1302 H   0  0  0  0  0  0
  -26.7138  -32.5518   23.1134 H   0  0  0  0  0  0
  -24.9942  -33.9769   25.0403 H   0  0  0  0  0  0
  -22.7057  -31.3167   21.4066 H   0  0  0  0  0  0
  -23.3737  -35.9625   23.3310 H   0  0  0  0  0  0
  -24.3538  -36.8933   22.2048 H   0  0  0  0  0  0
  -23.7182  -37.6513   23.6666 H   0  0  0  0  0  0
  -26.0656  -31.5481   20.5853 H   0  0  0  0  0  0
  -26.8312  -30.8601   21.9846 H   0  0  0  0  0  0
  -28.0671  -28.9940   21.2410 H   0  0  0  0  0  0
  -26.0045  -25.9412   18.9848 H   0  0  0  0  0  0
  -23.9689  -27.3178   18.9856 H   0  0  0  0  0  0
  -23.7152  -30.5916   19.3926 H   0  0  0  0  0  0
  -22.7338  -29.2370   19.8753 H   0  0  0  0  0  0
  -25.1261  -36.1994   25.0835 H   0  0  0  0  0  0
  -20.9896  -28.3207   24.1222 H   0  0  0  0  0  0
  -20.6147  -26.2363   23.3344 H   0  0  0  0  0  0
  -21.6799  -26.7524   22.0668 H   0  0  0  0  0  0
  -19.6740  -27.2731   20.6499 H   0  0  0  0  0  0
  -19.6841  -25.5997   21.1410 H   0  0  0  0  0  0
  -17.4151  -26.6473   21.4051 H   0  0  0  0  0  0
  -18.0235  -26.0017   22.9054 H   0  0  0  0  0  0
  -19.8029  -30.7477   24.1552 H   0  0  0  0  0  0
  -17.5182  -31.6382   24.4717 H   0  0  0  0  0  0
  -15.5432  -30.2750   23.7913 H   0  0  0  0  0  0
  -15.8757  -28.0448   22.7446 H   0  0  0  0  0  0
  -24.5940  -30.6993   25.7772 H   0  0  0  0  0  0
  -24.8866  -32.2801   26.4939 H   0  0  0  0  0  0
  -25.8083  -30.8832   27.0225 H   0  0  0  0  0  0
  -26.2854  -29.6846   24.1139 H   0  0  0  0  0  0
  -27.4062  -29.7272   25.4551 H   0  0  0  0  0  0
  -27.8699  -30.4391   23.9281 H   0  0  0  0  0  0
  -27.2742  -33.3652   26.2052 H   0  0  0  0  0  0
  -28.3871  -32.6855   25.0265 H   0  0  0  0  0  0
  -28.0777  -31.8447   26.5370 H   0  0  0  0  0  0
  -28.2617  -38.0090   24.7538 H   0  0  0  0  0  0
  -28.1054  -36.2637   24.6277 H   0  0  0  0  0  0
  -27.2310  -37.1445   25.8879 H   0  0  0  0  0  0
  -20.9372  -29.9188   21.7099 H   0  0  0  0  0  0
  -26.0176  -38.2907   24.1440 H   0  0  0  0  0  0
  -27.8476  -19.3540   23.7280 H   0  0  0  0  0  0
  -27.5432  -21.3726   22.3594 H   0  0  0  0  0  0
  -29.7306  -19.4875   19.1444 H   0  0  0  0  0  0
  -27.3303  -23.6206   17.3760 H   0  0  0  0  0  0
  -29.3410  -23.3220   21.1790 H   0  0  0  0  0  0
  -29.6244  -17.5791   24.1606 H   0  0  0  0  0  0
  -28.2081  -16.7006   23.5612 H   0  0  0  0  0  0
  -29.8379  -16.3371   22.9821 H   0  0  0  0  0  0
  -28.2226  -25.9500   18.1883 H   0  0  0  0  0  0
  -29.7264  -25.6957   18.9755 H   0  0  0  0  0  0
  -28.9878  -15.6523   20.8679 H   0  0  0  0  0  0
  -26.5010  -21.1945   17.5312 H   0  0  0  0  0  0
  1 25  1  0  0  0
  1 30  2  0  0  0
  1 85  1  0  0  0
  2  3  1  0  0  0
  2 25  1  0  0  0
  2 88  1  0  0  0
  2 89  1  0  0  0
  3  4  1  0  0  0
  3 90  1  0  0  0
  3 91  1  0  0  0
  4  5  1  0  0  0
  4 92  1  0  0  0
  4 93  1  0  0  0
  5  6  1  0  0  0
  5 26  1  0  0  0
  5 94  1  0  0  0
  6 25  1  0  0  0
  6 95  1  0  0  0
  6 96  1  0  0  0
  7  8  2  0  0  0
  7 26  1  0  0  0
  7 29  1  0  0  0
  8  9  1  0  0  0
  8 22  1  0  0  0
  9 10  1  0  0  0
  9 27  2  0  0  0
 10 11  2  0  0  0
 10 15  1  0  0  0
 11 12  1  0  0  0
 11 97  1  0  0  0
 12 13  2  0  0  0
 12 98  1  0  0  0
 13 14  1  0  0  0
 13 31  1  0  0  0
 14 15  2  0  0  0
 14 99  1  0  0  0
 15100  1  0  0  0
 16 17  2  0  0  0
 16 21  1  0  0  0
 16 31  1  0  0  0
 17 18  1  0  0  0
 17101  1  0  0  0
 18 19  2  0  0  0
 18102  1  0  0  0
 19 20  1  0  0  0
 19 24  1  0  0  0
 20 21  2  0  0  0
 20103  1  0  0  0
 21 23  1  0  0  0
 22 28  1  0  0  0
 22 32  2  0  0  0
 26 27  1  0  0  0
 28104  1  0  0  0
 28105  1  0  0  0
 29106  1  0  0  0
 29107  1  0  0  0
 33 34  1  0  0  0
 33 66  1  0  0  0
 33 70  2  0  0  0
 34 36  1  0  0  0
 34 59  1  0  0  0
 34108  1  0  0  0
 35 44  2  0  0  0
 35 45  1  0  0  0
 35 68  1  0  0  0
 36 56  1  0  0  0
 36109  1  0  0  0
 37 39  1  0  0  0
 37 47  1  0  0  0
 37 66  1  0  0  0
 37110  1  0  0  0
 38 43  2  0  0  0
 38 46  1  0  0  0
 38 47  1  0  0  0
 39 64  1  0  0  0
 39 67  2  0  0  0
 40 52  1  0  0  0
 40 53  2  0  0  0
 40 58  1  0  0  0
 41111  1  0  0  0
 41112  1  0  0  0
 41113  1  0  0  0
 41 48  1  0  0  0
 42 43  1  0  0  0
 42 66  1  0  0  0
 42114  1  0  0  0
 42115  1  0  0  0
 43 44  1  0  0  0
 44116  1  0  0  0
 45 46  2  0  0  0
 45117  1  0  0  0
 46118  1  0  0  0
 47119  1  0  0  0
 47120  1  0  0  0
 48 56  1  0  0  0
 48 65  1  0  0  0
 48121  1  0  0  0
 49 50  1  0  0  0
 49 53  1  0  0  0
 49 64  1  0  0  0
 49122  1  0  0  0
 50 51  1  0  0  0
 50123  1  0  0  0
 50124  1  0  0  0
 51 52  1  0  0  0
 51125  1  0  0  0
 51126  1  0  0  0
 52127  1  0  0  0
 52128  1  0  0  0
 53 54  1  0  0  0
 54 55  2  0  0  0
 54129  1  0  0  0
 55 57  1  0  0  0
 55130  1  0  0  0
 56 69  2  0  0  0
 57 58  2  0  0  0
 57131  1  0  0  0
 58132  1  0  0  0
 59 60  1  0  0  0
 59 61  1  0  0  0
 59 62  1  0  0  0
 60133  1  0  0  0
 60134  1  0  0  0
 60135  1  0  0  0
 61136  1  0  0  0
 61137  1  0  0  0
 61138  1  0  0  0
 62139  1  0  0  0
 62140  1  0  0  0
 62141  1  0  0  0
 63 65  1  0  0  0
 63142  1  0  0  0
 63143  1  0  0  0
 63144  1  0  0  0
 64145  1  0  0  0
 65146  1  0  0  0
 68 83  1  0  0  0
 71 72  2  0  0  0
 71 77  1  0  0  0
 71147  1  0  0  0
 72 79  1  0  0  0
 72148  1  0  0  0
 73 76  1  0  0  0
 73 79  2  0  0  0
 73149  1  0  0  0
 74 78  1  0  0  0
 74 80  2  0  0  0
 74150  1  0  0  0
 75 78  2  0  0  0
 75 84  1  0  0  0
 75151  1  0  0  0
 76 77  2  0  0  0
 76 81  1  0  0  0
 77 82  1  0  0  0
 78 83  1  0  0  0
 79 84  1  0  0  0
 80 84  1  0  0  0
 80 87  1  0  0  0
 81 85  1  0  0  0
 81 86  2  0  0  0
 82152  1  0  0  0
 82153  1  0  0  0
 82154  1  0  0  0
 83155  1  0  0  0
 83156  1  0  0  0
 85157  1  0  0  0
 87158  1  0  0  0
M  ISO  4   1 100  68 101  83 101  85 100
M  END
> <chiral flag>
0

> <version>
0

> <s_m_source_file>
/data/baiqing/PycharmProjects/Reinvent-master-3.2/result/LINK_invent/BTK/process_docking_weight1_custom_product_contain_oxygen_bond_distance_aromatic_linkinvent_7_9_3/rearranged_h_0078.sdf

> <i_m_source_file_index>
21

> <r_mmod_Potential_Energy-OPLS-2005>
-8.07551574707031

> <r_mmod_Stretch_Energy-OPLS-2005>
67.3266372680664

> <r_mmod_Bend_Energy-OPLS-2005>
141.541564941406

> <r_mmod_Torsional_Energy-OPLS-2005>
253.754058837891

> <r_mmod_Improper_Torsional_Energy-OPLS-2005>
6.13542795181274

> <r_mmod_Van_der_Waal_Energy-OPLS-2005>
144.906265258789

> <r_mmod_Electrostatic_Energy-OPLS-2005>
-432.333557128906

> <r_mmod_Solvation_Energy-OPLS-2005>
-236.579086303711

> <b_mmod_Minimization_Converged-OPLS-2005>
0

> <r_mmod_RMS_Derivative-OPLS-2005>
8.39326763153076

$$$$
21
                    3D
 Structure written by MMmdl.
164173  0  0  1  0            999 V2000
  -30.7169  -14.4618   20.5151 C   0  0  0  0  0  0
  -30.4186  -12.2680   19.4326 C   0  0  0  0  0  0
  -29.4990  -12.4139   18.2054 C   0  0  0  0  0  0
  -28.0061  -12.3585   18.6092 C   0  0  0  0  0  0
  -27.6527  -13.1941   19.8745 C   0  0  2  0  0  0
  -28.7042  -12.9959   20.9843 C   0  0  0  0  0  0
  -25.2564  -13.8112   20.5714 C   0  0  0  0  0  0
  -24.1806  -13.0411   20.9200 C   0  0  0  0  0  0
  -24.6345  -11.6879   20.8770 C   0  0  0  0  0  0
  -23.9011  -10.4276   21.0419 C   0  0  0  0  0  0
  -24.3586   -9.4197   21.9189 C   0  0  0  0  0  0
  -23.6289   -8.2220   22.0751 C   0  0  0  0  0  0
  -22.4267   -8.0263   21.3547 C   0  0  0  0  0  0
  -21.9894   -9.0222   20.4636 C   0  0  0  0  0  0
  -22.7195  -10.2113   20.3052 C   0  0  0  0  0  0
  -21.6838   -6.0735   22.5291 C   0  0  0  0  0  0
  -21.4001   -6.5642   23.8223 C   0  0  0  0  0  0
  -21.3655   -5.6793   24.9186 C   0  0  0  0  0  0
  -21.6045   -4.3056   24.7229 C   0  0  0  0  0  0
  -21.8815   -3.8149   23.4351 C   0  0  0  0  0  0
  -21.9183   -4.6964   22.3408 C   0  0  0  0  0  0
  -22.7831  -13.5230   21.1869 C   0  0  0  0  0  0
  -22.1654   -4.2154   21.0985 F   0  0  0  0  0  0
  -21.5641   -3.4538   25.7744 F   0  0  0  0  0  0
  -30.0253  -13.2935   20.4069 N   0  0  0  0  0  0
  -26.2979  -12.9242   20.3419 N   0  0  0  0  0  0
  -25.9268  -11.6423   20.5830 N   0  0  0  0  0  0
  -22.0454  -12.8224   22.0411 N   0  0  0  0  0  0
  -25.4314  -15.1831   20.4137 N   0  0  0  0  0  0
  -31.8868  -14.5827   20.1410 O   0  0  0  0  0  0
  -21.6625   -6.8870   21.4246 O   0  0  0  0  0  0
  -22.3540  -14.5543   20.6722 O   0  0  0  0  0  0
  -24.6122  -31.8697   23.2120 C   0  0  0  0  0  0
  -25.9024  -32.4833   23.8406 C   0  0  1  0  0  0
  -27.2366  -27.4609   20.0858 C   0  0  0  0  0  0
  -25.5892  -33.8633   24.2337 N   0  0  0  0  0  0
  -23.3983  -30.4924   21.5541 C   0  0  2  0  0  0
  -24.8414  -28.9606   20.1162 C   0  0  0  0  0  0
  -22.7402  -29.4654   22.5026 C   0  0  0  0  0  0
  -18.0267  -28.1373   22.8503 C   0  0  0  0  0  0
  -24.1485  -36.7324   23.2636 C   0  0  0  0  0  0
  -25.9231  -30.8431   21.3592 C   0  0  0  0  0  0
  -25.9999  -29.4789   20.7071 C   0  0  0  0  0  0
  -27.1985  -28.7359   20.6883 C   0  0  0  0  0  0
  -26.0600  -26.9501   19.4891 C   0  0  0  0  0  0
  -24.8653  -27.6939   19.5056 C   0  0  0  0  0  0
  -23.6024  -29.8242   20.1682 C   0  0  0  0  0  0
  -25.4107  -36.3125   24.0338 C   0  0  1  0  0  0
  -20.5853  -28.3652   23.1351 C   0  0  2  0  0  0
  -20.6760  -26.9394   22.5437 C   0  0  0  0  0  0
  -19.5732  -26.6382   21.5235 C   0  0  0  0  0  0
  -18.1908  -26.7921   22.1634 C   0  0  0  0  0  0
  -19.1513  -28.8828   23.2923 C   0  0  0  0  0  0
  -18.9436  -30.1438   23.8927 C   0  0  0  0  0  0
  -17.6437  -30.6578   24.0565 C   0  0  0  0  0  0
  -25.9033  -34.9488   23.5134 C   0  0  0  0  0  0
  -16.5334  -29.9081   23.6318 C   0  0  0  0  0  0
  -16.7254  -28.6499   23.0342 C   0  0  0  0  0  0
  -26.4458  -31.6601   25.0720 C   0  0  0  0  0  0
  -25.3733  -31.3696   26.1473 C   0  0  0  0  0  0
  -27.0269  -30.3049   24.6052 C   0  0  0  0  0  0
  -27.6042  -32.4309   25.7477 C   0  0  0  0  0  0
  -27.5584  -37.1819   24.8461 C   0  0  0  0  0  0
  -21.4130  -29.3027   22.3770 N   0  0  0  0  0  0
  -26.4298  -37.3807   23.9405 N   0  0  0  0  0  0
  -24.6630  -31.0814   22.1011 N   0  0  0  0  0  0
  -23.4187  -28.8193   23.3054 O   0  0  0  0  0  0
  -28.4302  -26.7767   20.0950 O   0  0  0  0  0  0
  -26.5598  -34.8931   22.4697 O   0  0  0  0  0  0
  -23.5325  -32.1443   23.7532 O   0  0  0  0  0  0
  -29.1257  -17.0683   17.3958 C   0  0  0  0  0  0
  -29.5468  -18.3947   17.5594 C   0  0  0  0  0  0
  -29.2705  -16.1563   18.4521 C   0  0  0  0  0  0
  -30.2450  -17.8897   19.8488 C   0  0  0  0  0  0
  -30.1112  -18.8168   18.7831 C   0  0  0  0  0  0
  -29.8190  -16.5437   19.6982 C   0  0  0  0  0  0
  -31.1719  -22.8614   18.6382 C   0  0  0  0  0  0
  -31.4295  -20.6123   17.8811 C   0  0  0  0  0  0
  -30.3416  -22.4655   19.6303 C   0  0  0  0  0  0
  -31.7627  -21.9024   17.7335 C   0  0  0  0  0  0
  -30.0064  -21.0357   19.8043 C   0  0  0  0  0  0
  -28.9135  -16.9186   22.5080 C   0  0  0  0  0  0
  -29.7102  -15.9151   22.0962 C   0  0  0  0  0  0
  -29.6982  -24.7926   20.5367 C   0  0  0  0  0  0
  -28.3918  -25.3592   19.9616 C   0  0  0  0  0  0
  -30.5490  -20.1715   18.8899 N   0  0  0  0  0  0
  -29.7199  -23.3340   20.5219 N   0  0  0  0  0  0
  -29.9821  -15.5757   20.7560 N   0  0  0  0  0  0
  -29.2679  -20.6571   20.7236 O   0  0  0  0  0  0
  -32.6016  -22.2814   16.7627 O   0  0  0  0  0  0
  -31.4650  -12.3470   19.1338 H   0  0  0  0  0  0
  -30.3111  -11.2758   19.8740 H   0  0  0  0  0  0
  -29.7112  -11.6102   17.4987 H   0  0  0  0  0  0
  -29.7338  -13.3279   17.6656 H   0  0  0  0  0  0
  -27.7683  -11.3106   18.7950 H   0  0  0  0  0  0
  -27.3776  -12.6599   17.7701 H   0  0  0  0  0  0
  -27.6672  -14.2406   19.5984 H   0  0  0  0  0  0
  -28.6835  -11.9686   21.3510 H   0  0  0  0  0  0
  -28.4741  -13.6191   21.8471 H   0  0  0  0  0  0
  -25.2730   -9.5689   22.4763 H   0  0  0  0  0  0
  -24.0004   -7.4612   22.7461 H   0  0  0  0  0  0
  -21.0833   -8.8706   19.8951 H   0  0  0  0  0  0
  -22.3639  -10.9640   19.6162 H   0  0  0  0  0  0
  -21.1983   -7.6149   23.9730 H   0  0  0  0  0  0
  -21.1492   -6.0524   25.9090 H   0  0  0  0  0  0
  -22.0601   -2.7615   23.2839 H   0  0  0  0  0  0
  -22.4054  -11.9882   22.4800 H   0  0  0  0  0  0
  -21.1062  -13.1251   22.2588 H   0  0  0  0  0  0
  -24.6745  -15.8464   20.5386 H   0  0  0  0  0  0
  -26.3052  -15.6225   20.1501 H   0  0  0  0  0  0
  -26.7100  -32.5545   23.1180 H   0  0  0  0  0  0
  -25.0050  -33.9798   25.0485 H   0  0  0  0  0  0
  -22.6862  -31.3086   21.4180 H   0  0  0  0  0  0
  -23.3746  -35.9657   23.3304 H   0  0  0  0  0  0
  -24.3589  -36.8933   22.2051 H   0  0  0  0  0  0
  -23.7231  -37.6529   23.6647 H   0  0  0  0  0  0
  -26.0279  -31.6087   20.5893 H   0  0  0  0  0  0
  -26.8150  -30.8998   21.9713 H   0  0  0  0  0  0
  -28.0954  -29.1346   21.1412 H   0  0  0  0  0  0
  -26.0528  -25.9882   18.9969 H   0  0  0  0  0  0
  -23.9749  -27.2916   19.0420 H   0  0  0  0  0  0
  -23.7082  -30.5989   19.4083 H   0  0  0  0  0  0
  -22.7271  -29.2424   19.8735 H   0  0  0  0  0  0
  -25.1284  -36.2003   25.0835 H   0  0  0  0  0  0
  -20.9943  -28.3207   24.1474 H   0  0  0  0  0  0
  -20.5684  -26.2256   23.3619 H   0  0  0  0  0  0
  -21.6626  -26.7451   22.1211 H   0  0  0  0  0  0
  -19.6894  -25.6303   21.1239 H   0  0  0  0  0  0
  -19.6674  -27.3213   20.6782 H   0  0  0  0  0  0
  -17.4197  -26.6696   21.4019 H   0  0  0  0  0  0
  -18.0282  -26.0053   22.9012 H   0  0  0  0  0  0
  -19.7913  -30.7245   24.2313 H   0  0  0  0  0  0
  -17.4989  -31.6261   24.5155 H   0  0  0  0  0  0
  -15.5332  -30.2983   23.7625 H   0  0  0  0  0  0
  -15.8659  -28.0822   22.7033 H   0  0  0  0  0  0
  -24.5897  -30.7054   25.7808 H   0  0  0  0  0  0
  -24.8928  -32.2847   26.4948 H   0  0  0  0  0  0
  -25.8088  -30.8844   27.0217 H   0  0  0  0  0  0
  -26.2788  -29.6837   24.1106 H   0  0  0  0  0  0
  -27.4060  -29.7254   25.4482 H   0  0  0  0  0  0
  -27.8619  -30.4380   23.9168 H   0  0  0  0  0  0
  -27.2667  -33.3602   26.2075 H   0  0  0  0  0  0
  -28.3837  -32.6876   25.0292 H   0  0  0  0  0  0
  -28.0721  -31.8414   26.5374 H   0  0  0  0  0  0
  -28.2610  -38.0111   24.7514 H   0  0  0  0  0  0
  -28.1076  -36.2647   24.6282 H   0  0  0  0  0  0
  -27.2309  -37.1455   25.8866 H   0  0  0  0  0  0
  -20.9297  -29.8760   21.7004 H   0  0  0  0  0  0
  -26.0194  -38.2893   24.1393 H   0  0  0  0  0  0
  -28.6951  -16.7485   16.4566 H   0  0  0  0  0  0
  -29.4317  -19.0903   16.7387 H   0  0  0  0  0  0
  -28.9471  -15.1509   18.2710 H   0  0  0  0  0  0
  -30.6974  -18.2094   20.7771 H   0  0  0  0  0  0
  -31.3977  -23.9082   18.4974 H   0  0  0  0  0  0
  -31.8203  -19.8270   17.2483 H   0  0  0  0  0  0
  -28.7663  -17.1050   23.5625 H   0  0  0  0  0  0
  -28.3912  -17.5680   21.8199 H   0  0  0  0  0  0
  -30.2064  -15.2789   22.8200 H   0  0  0  0  0  0
  -29.8008  -25.1182   21.5722 H   0  0  0  0  0  0
  -30.5519  -25.2140   20.0071 H   0  0  0  0  0  0
  -27.5477  -24.9374   20.5105 H   0  0  0  0  0  0
  -28.2827  -25.0849   18.9113 H   0  0  0  0  0  0
  -29.1203  -22.8797   21.2081 H   0  0  0  0  0  0
  -32.6935  -23.2258   16.8062 H   0  0  0  0  0  0
  1 25  1  0  0  0
  1 30  2  0  0  0
  1 88  1  0  0  0
  2  3  1  0  0  0
  2 25  1  0  0  0
  2 91  1  0  0  0
  2 92  1  0  0  0
  3  4  1  0  0  0
  3 93  1  0  0  0
  3 94  1  0  0  0
  4  5  1  0  0  0
  4 95  1  0  0  0
  4 96  1  0  0  0
  5  6  1  0  0  0
  5 26  1  0  0  0
  5 97  1  0  0  0
  6 25  1  0  0  0
  6 98  1  0  0  0
  6 99  1  0  0  0
  7  8  2  0  0  0
  7 26  1  0  0  0
  7 29  1  0  0  0
  8  9  1  0  0  0
  8 22  1  0  0  0
  9 10  1  0  0  0
  9 27  2  0  0  0
 10 11  2  0  0  0
 10 15  1  0  0  0
 11 12  1  0  0  0
 11100  1  0  0  0
 12 13  2  0  0  0
 12101  1  0  0  0
 13 14  1  0  0  0
 13 31  1  0  0  0
 14 15  2  0  0  0
 14102  1  0  0  0
 15103  1  0  0  0
 16 17  2  0  0  0
 16 21  1  0  0  0
 16 31  1  0  0  0
 17 18  1  0  0  0
 17104  1  0  0  0
 18 19  2  0  0  0
 18105  1  0  0  0
 19 20  1  0  0  0
 19 24  1  0  0  0
 20 21  2  0  0  0
 20106  1  0  0  0
 21 23  1  0  0  0
 22 28  1  0  0  0
 22 32  2  0  0  0
 26 27  1  0  0  0
 28107  1  0  0  0
 28108  1  0  0  0
 29109  1  0  0  0
 29110  1  0  0  0
 33 34  1  0  0  0
 33 66  1  0  0  0
 33 70  2  0  0  0
 34 36  1  0  0  0
 34 59  1  0  0  0
 34111  1  0  0  0
 35 44  2  0  0  0
 35 45  1  0  0  0
 35 68  1  0  0  0
 36 56  1  0  0  0
 36112  1  0  0  0
 37 39  1  0  0  0
 37 47  1  0  0  0
 37 66  1  0  0  0
 37113  1  0  0  0
 38 43  2  0  0  0
 38 46  1  0  0  0
 38 47  1  0  0  0
 39 64  1  0  0  0
 39 67  2  0  0  0
 40 52  1  0  0  0
 40 53  2  0  0  0
 40 58  1  0  0  0
 41114  1  0  0  0
 41115  1  0  0  0
 41116  1  0  0  0
 41 48  1  0  0  0
 42 43  1  0  0  0
 42 66  1  0  0  0
 42117  1  0  0  0
 42118  1  0  0  0
 43 44  1  0  0  0
 44119  1  0  0  0
 45 46  2  0  0  0
 45120  1  0  0  0
 46121  1  0  0  0
 47122  1  0  0  0
 47123  1  0  0  0
 48 56  1  0  0  0
 48 65  1  0  0  0
 48124  1  0  0  0
 49 50  1  0  0  0
 49 53  1  0  0  0
 49 64  1  0  0  0
 49125  1  0  0  0
 50 51  1  0  0  0
 50126  1  0  0  0
 50127  1  0  0  0
 51 52  1  0  0  0
 51128  1  0  0  0
 51129  1  0  0  0
 52130  1  0  0  0
 52131  1  0  0  0
 53 54  1  0  0  0
 54 55  2  0  0  0
 54132  1  0  0  0
 55 57  1  0  0  0
 55133  1  0  0  0
 56 69  2  0  0  0
 57 58  2  0  0  0
 57134  1  0  0  0
 58135  1  0  0  0
 59 60  1  0  0  0
 59 61  1  0  0  0
 59 62  1  0  0  0
 60136  1  0  0  0
 60137  1  0  0  0
 60138  1  0  0  0
 61139  1  0  0  0
 61140  1  0  0  0
 61141  1  0  0  0
 62142  1  0  0  0
 62143  1  0  0  0
 62144  1  0  0  0
 63 65  1  0  0  0
 63145  1  0  0  0
 63146  1  0  0  0
 63147  1  0  0  0
 64148  1  0  0  0
 65149  1  0  0  0
 68 85  1  0  0  0
 71 72  2  0  0  0
 71 73  1  0  0  0
 71150  1  0  0  0
 72 75  1  0  0  0
 72151  1  0  0  0
 73 76  2  0  0  0
 73152  1  0  0  0
 74 75  2  0  0  0
 74 76  1  0  0  0
 74153  1  0  0  0
 75 86  1  0  0  0
 76 88  1  0  0  0
 77 79  2  0  0  0
 77 80  1  0  0  0
 77154  1  0  0  0
 78 80  2  0  0  0
 78 86  1  0  0  0
 78155  1  0  0  0
 79 81  1  0  0  0
 79 87  1  0  0  0
 80 90  1  0  0  0
 81 86  1  0  0  0
 81 89  2  0  0  0
 82 83  2  0  0  0
 82156  1  0  0  0
 82157  1  0  0  0
 83 88  1  0  0  0
 83158  1  0  0  0
 84 85  1  0  0  0
 84 87  1  0  0  0
 84159  1  0  0  0
 84160  1  0  0  0
 85161  1  0  0  0
 85162  1  0  0  0
 87163  1  0  0  0
 90164  1  0  0  0
M  ISO  4   1 100  68 101  85 101  88 100
M  END
> <chiral flag>
0

> <version>
0

> <s_m_source_file>
/data/baiqing/PycharmProjects/Reinvent-master-3.2/result/LINK_invent/BTK/process_docking_weight1_custom_product_contain_oxygen_bond_distance_aromatic_linkinvent_7_9_3/rearranged_h_0078.sdf

> <i_m_source_file_index>
22

> <r_mmod_Potential_Energy-OPLS-2005>
278.189147949219

> <r_mmod_Stretch_Energy-OPLS-2005>
43.7598915100098

> <r_mmod_Bend_Energy-OPLS-2005>
110.616836547852

> <r_mmod_Torsional_Energy-OPLS-2005>
334.009094238281

> <r_mmod_Improper_Torsional_Energy-OPLS-2005>
8.2281379699707

> <r_mmod_Van_der_Waal_Energy-OPLS-2005>
192.385681152344

> <r_mmod_Electrostatic_Energy-OPLS-2005>
-200.658752441406

> <r_mmod_Solvation_Energy-OPLS-2005>
-226.670745849609

> <b_mmod_Minimization_Converged-OPLS-2005>
0

> <r_mmod_RMS_Derivative-OPLS-2005>
1.52646780014038

$$$$
22
                    3D
 Structure written by MMmdl.
160170  0  0  1  0            999 V2000
  -30.7514  -14.3845   20.6745 C   0  0  0  0  0  0
  -30.4274  -12.2909   19.4070 C   0  0  0  0  0  0
  -29.5010  -12.5328   18.2009 C   0  0  0  0  0  0
  -28.0236  -12.3829   18.6110 C   0  0  0  0  0  0
  -27.6722  -13.2006   19.8812 C   0  0  2  0  0  0
  -28.7074  -12.9400   20.9990 C   0  0  0  0  0  0
  -25.2627  -13.8171   20.5647 C   0  0  0  0  0  0
  -24.1850  -13.0462   20.9141 C   0  0  0  0  0  0
  -24.6395  -11.6919   20.8698 C   0  0  0  0  0  0
  -23.9059  -10.4315   21.0380 C   0  0  0  0  0  0
  -24.3612   -9.4231   21.9163 C   0  0  0  0  0  0
  -23.6280   -8.2277   22.0752 C   0  0  0  0  0  0
  -22.4253   -8.0316   21.3559 C   0  0  0  0  0  0
  -21.9889   -9.0273   20.4657 C   0  0  0  0  0  0
  -22.7229  -10.2151   20.3039 C   0  0  0  0  0  0
  -21.6868   -6.0722   22.5272 C   0  0  0  0  0  0
  -21.4020   -6.5610   23.8201 C   0  0  0  0  0  0
  -21.3655   -5.6759   24.9153 C   0  0  0  0  0  0
  -21.6040   -4.3017   24.7212 C   0  0  0  0  0  0
  -21.8833   -3.8120   23.4329 C   0  0  0  0  0  0
  -21.9208   -4.6942   22.3390 C   0  0  0  0  0  0
  -22.7876  -13.5264   21.1816 C   0  0  0  0  0  0
  -22.1684   -4.2137   21.0959 F   0  0  0  0  0  0
  -21.5619   -3.4507   25.7730 F   0  0  0  0  0  0
  -30.0556  -13.2353   20.4721 N   0  0  0  0  0  0
  -26.3058  -12.9321   20.3332 N   0  0  0  0  0  0
  -25.9324  -11.6487   20.5716 N   0  0  0  0  0  0
  -22.0481  -12.8300   22.0371 N   0  0  0  0  0  0
  -25.4388  -15.1890   20.4095 N   0  0  0  0  0  0
  -31.7913  -14.6616   20.0658 O   0  0  0  0  0  0
  -21.6645   -6.8887   21.4243 O   0  0  0  0  0  0
  -22.3580  -14.5577   20.6658 O   0  0  0  0  0  0
  -24.6199  -31.8704   23.2118 C   0  0  0  0  0  0
  -25.9093  -32.4837   23.8437 C   0  0  1  0  0  0
  -27.2241  -27.4376   20.0782 C   0  0  0  0  0  0
  -25.5936  -33.8632   24.2370 N   0  0  0  0  0  0
  -23.4053  -30.4983   21.5525 C   0  0  2  0  0  0
  -24.8467  -28.9707   20.1165 C   0  0  0  0  0  0
  -22.7428  -29.4680   22.4973 C   0  0  0  0  0  0
  -18.0275  -28.1390   22.8472 C   0  0  0  0  0  0
  -24.1451  -36.7286   23.2601 C   0  0  0  0  0  0
  -25.9381  -30.8384   21.3643 C   0  0  0  0  0  0
  -26.0110  -29.4753   20.7058 C   0  0  0  0  0  0
  -27.2055  -28.7179   20.6798 C   0  0  0  0  0  0
  -26.0299  -26.9447   19.4966 C   0  0  0  0  0  0
  -24.8479  -27.7038   19.5143 C   0  0  0  0  0  0
  -23.6131  -29.8398   20.1652 C   0  0  0  0  0  0
  -25.4044  -36.3100   24.0343 C   0  0  1  0  0  0
  -20.5866  -28.3672   23.1296 C   0  0  2  0  0  0
  -20.6772  -26.9404   22.5402 C   0  0  0  0  0  0
  -19.5755  -26.6377   21.5198 C   0  0  0  0  0  0
  -18.1922  -26.7943   22.1594 C   0  0  0  0  0  0
  -19.1534  -28.8842   23.2878 C   0  0  0  0  0  0
  -18.9460  -30.1438   23.8919 C   0  0  0  0  0  0
  -17.6464  -30.6591   24.0571 C   0  0  0  0  0  0
  -25.9023  -34.9478   23.5150 C   0  0  0  0  0  0
  -16.5352  -29.9096   23.6334 C   0  0  0  0  0  0
  -16.7271  -28.6503   23.0368 C   0  0  0  0  0  0
  -26.4490  -31.6628   25.0780 C   0  0  0  0  0  0
  -25.3747  -31.3830   26.1540 C   0  0  0  0  0  0
  -27.0276  -30.3042   24.6201 C   0  0  0  0  0  0
  -27.6122  -32.4298   25.7507 C   0  0  0  0  0  0
  -27.5609  -37.1685   24.8374 C   0  0  0  0  0  0
  -21.4154  -29.3043   22.3701 N   0  0  0  0  0  0
  -26.4194  -37.3838   23.9522 N   0  0  0  0  0  0
  -24.6720  -31.0845   22.1002 N   0  0  0  0  0  0
  -23.4195  -28.8210   23.3001 O   0  0  0  0  0  0
  -28.3944  -26.7025   20.0730 O   0  0  0  0  0  0
  -26.5579  -34.8944   22.4708 O   0  0  0  0  0  0
  -23.5392  -32.1458   23.7513 O   0  0  0  0  0  0
  -28.9151  -18.6389   21.1168 C   0  0  0  0  0  0
  -31.3402  -18.7710   21.2530 C   0  0  0  0  0  0
  -28.9715  -17.2568   21.3772 C   0  0  0  0  0  0
  -31.4024  -17.3810   21.4877 C   0  0  0  0  0  0
  -30.1013  -19.3995   21.0046 C   0  0  0  0  0  0
  -30.2182  -16.6102   21.4958 C   0  0  0  0  0  0
  -29.5562  -24.5311   20.0983 C   0  0  0  0  0  0
  -30.0574  -23.3711   19.6247 C   0  0  0  0  0  0
  -30.2771  -24.3851   21.3556 C   0  0  0  0  0  0
  -29.5307  -22.2946   18.7053 C   0  0  0  0  0  0
  -29.0775  -21.0834   19.5462 C   0  0  0  0  0  0
  -30.4770  -21.7747   21.5405 C   0  0  0  0  0  0
  -30.9321  -23.0716   20.8406 C   0  0  1  0  0  0
  -28.2677  -25.2892   19.8452 C   0  0  0  0  0  0
  -30.0664  -20.7409   20.5771 N   0  0  0  0  0  0
  -30.2322  -15.2000   21.6086 N   0  0  0  0  0  0
  -30.2809  -25.0572   22.3896 O   0  0  0  0  0  0
  -31.4718  -12.3903   19.1075 H   0  0  0  0  0  0
  -30.3182  -11.2667   19.7693 H   0  0  0  0  0  0
  -29.7406  -11.8350   17.3975 H   0  0  0  0  0  0
  -29.6752  -13.5334   17.7995 H   0  0  0  0  0  0
  -27.8365  -11.3234   18.7892 H   0  0  0  0  0  0
  -27.3751  -12.6722   17.7838 H   0  0  0  0  0  0
  -27.7333  -14.2544   19.6109 H   0  0  0  0  0  0
  -28.6712  -11.8953   21.3122 H   0  0  0  0  0  0
  -28.4499  -13.5090   21.8930 H   0  0  0  0  0  0
  -25.2766   -9.5700   22.4725 H   0  0  0  0  0  0
  -23.9998   -7.4663   22.7457 H   0  0  0  0  0  0
  -21.0815   -8.8789   19.8957 H   0  0  0  0  0  0
  -22.3693  -10.9675   19.6128 H   0  0  0  0  0  0
  -21.2013   -7.6123   23.9711 H   0  0  0  0  0  0
  -21.1451   -6.0471   25.9056 H   0  0  0  0  0  0
  -22.0622   -2.7583   23.2844 H   0  0  0  0  0  0
  -22.4017  -11.9924   22.4752 H   0  0  0  0  0  0
  -21.1124  -13.1412   22.2570 H   0  0  0  0  0  0
  -24.6810  -15.8566   20.5142 H   0  0  0  0  0  0
  -26.2929  -15.6151   20.0735 H   0  0  0  0  0  0
  -26.7181  -32.5552   23.1222 H   0  0  0  0  0  0
  -25.0113  -33.9796   25.0540 H   0  0  0  0  0  0
  -22.6947  -31.3156   21.4151 H   0  0  0  0  0  0
  -23.3794  -35.9522   23.3074 H   0  0  0  0  0  0
  -24.3629  -36.9101   22.2064 H   0  0  0  0  0  0
  -23.7071  -37.6371   23.6738 H   0  0  0  0  0  0
  -26.0623  -31.6070   20.6003 H   0  0  0  0  0  0
  -26.8224  -30.8842   21.9880 H   0  0  0  0  0  0
  -28.1098  -29.1083   21.1279 H   0  0  0  0  0  0
  -25.9799  -25.9790   19.0180 H   0  0  0  0  0  0
  -23.9499  -27.3071   19.0631 H   0  0  0  0  0  0
  -23.7334  -30.6185   19.4114 H   0  0  0  0  0  0
  -22.7349  -29.2693   19.8581 H   0  0  0  0  0  0
  -25.1163  -36.1921   25.0820 H   0  0  0  0  0  0
  -20.9957  -28.3254   24.1418 H   0  0  0  0  0  0
  -20.5657  -26.2278   23.3584 H   0  0  0  0  0  0
  -21.6663  -26.7446   22.1219 H   0  0  0  0  0  0
  -19.6914  -25.6290   21.1218 H   0  0  0  0  0  0
  -19.6695  -27.3187   20.6731 H   0  0  0  0  0  0
  -17.4190  -26.6696   21.3997 H   0  0  0  0  0  0
  -18.0306  -26.0077   22.8979 H   0  0  0  0  0  0
  -19.7937  -30.7233   24.2320 H   0  0  0  0  0  0
  -17.5033  -31.6280   24.5147 H   0  0  0  0  0  0
  -15.5362  -30.3013   23.7651 H   0  0  0  0  0  0
  -15.8658  -28.0812   22.7129 H   0  0  0  0  0  0
  -24.5860  -30.7226   25.7920 H   0  0  0  0  0  0
  -24.9016  -32.3034   26.4987 H   0  0  0  0  0  0
  -25.8069  -30.8995   27.0310 H   0  0  0  0  0  0
  -26.2819  -29.6820   24.1235 H   0  0  0  0  0  0
  -27.3973  -29.7297   25.4709 H   0  0  0  0  0  0
  -27.8710  -30.4313   23.9409 H   0  0  0  0  0  0
  -27.2835  -33.3633   26.2096 H   0  0  0  0  0  0
  -28.3938  -32.6773   25.0309 H   0  0  0  0  0  0
  -28.0773  -31.8391   26.5415 H   0  0  0  0  0  0
  -28.2335  -38.0260   24.7933 H   0  0  0  0  0  0
  -28.1394  -36.2892   24.5508 H   0  0  0  0  0  0
  -27.2469  -37.0499   25.8759 H   0  0  0  0  0  0
  -20.9307  -29.8765   21.6934 H   0  0  0  0  0  0
  -26.0060  -38.2815   24.1887 H   0  0  0  0  0  0
  -27.9482  -19.0974   20.9727 H   0  0  0  0  0  0
  -32.2597  -19.3374   21.2019 H   0  0  0  0  0  0
  -28.0510  -16.6929   21.4218 H   0  0  0  0  0  0
  -32.3666  -16.9084   21.6222 H   0  0  0  0  0  0
  -30.3601  -21.9909   18.0646 H   0  0  0  0  0  0
  -28.7378  -22.6643   18.0533 H   0  0  0  0  0  0
  -28.8941  -20.2298   18.8900 H   0  0  0  0  0  0
  -28.1281  -21.3167   20.0319 H   0  0  0  0  0  0
  -29.6270  -21.9737   22.1959 H   0  0  0  0  0  0
  -31.2700  -21.4062   22.1913 H   0  0  0  0  0  0
  -32.0062  -23.1297   20.6657 H   0  0  0  0  0  0
  -27.5053  -24.8607   20.5004 H   0  0  0  0  0  0
  -27.9692  -25.0978   18.8120 H   0  0  0  0  0  0
  -29.4348  -14.7961   22.0751 H   0  0  0  0  0  0
  1 25  1  0  0  0
  1 30  2  0  0  0
  1 86  1  0  0  0
  2  3  1  0  0  0
  2 25  1  0  0  0
  2 88  1  0  0  0
  2 89  1  0  0  0
  3  4  1  0  0  0
  3 90  1  0  0  0
  3 91  1  0  0  0
  4  5  1  0  0  0
  4 92  1  0  0  0
  4 93  1  0  0  0
  5  6  1  0  0  0
  5 26  1  0  0  0
  5 94  1  0  0  0
  6 25  1  0  0  0
  6 95  1  0  0  0
  6 96  1  0  0  0
  7  8  2  0  0  0
  7 26  1  0  0  0
  7 29  1  0  0  0
  8  9  1  0  0  0
  8 22  1  0  0  0
  9 10  1  0  0  0
  9 27  2  0  0  0
 10 11  2  0  0  0
 10 15  1  0  0  0
 11 12  1  0  0  0
 11 97  1  0  0  0
 12 13  2  0  0  0
 12 98  1  0  0  0
 13 14  1  0  0  0
 13 31  1  0  0  0
 14 15  2  0  0  0
 14 99  1  0  0  0
 15100  1  0  0  0
 16 17  2  0  0  0
 16 21  1  0  0  0
 16 31  1  0  0  0
 17 18  1  0  0  0
 17101  1  0  0  0
 18 19  2  0  0  0
 18102  1  0  0  0
 19 20  1  0  0  0
 19 24  1  0  0  0
 20 21  2  0  0  0
 20103  1  0  0  0
 21 23  1  0  0  0
 22 28  1  0  0  0
 22 32  2  0  0  0
 26 27  1  0  0  0
 28104  1  0  0  0
 28105  1  0  0  0
 29106  1  0  0  0
 29107  1  0  0  0
 33 34  1  0  0  0
 33 66  1  0  0  0
 33 70  2  0  0  0
 34 36  1  0  0  0
 34 59  1  0  0  0
 34108  1  0  0  0
 35 44  2  0  0  0
 35 45  1  0  0  0
 35 68  1  0  0  0
 36 56  1  0  0  0
 36109  1  0  0  0
 37 39  1  0  0  0
 37 47  1  0  0  0
 37 66  1  0  0  0
 37110  1  0  0  0
 38 43  2  0  0  0
 38 46  1  0  0  0
 38 47  1  0  0  0
 39 64  1  0  0  0
 39 67  2  0  0  0
 40 52  1  0  0  0
 40 53  2  0  0  0
 40 58  1  0  0  0
 41111  1  0  0  0
 41112  1  0  0  0
 41113  1  0  0  0
 41 48  1  0  0  0
 42 43  1  0  0  0
 42 66  1  0  0  0
 42114  1  0  0  0
 42115  1  0  0  0
 43 44  1  0  0  0
 44116  1  0  0  0
 45 46  2  0  0  0
 45117  1  0  0  0
 46118  1  0  0  0
 47119  1  0  0  0
 47120  1  0  0  0
 48 56  1  0  0  0
 48 65  1  0  0  0
 48121  1  0  0  0
 49 50  1  0  0  0
 49 53  1  0  0  0
 49 64  1  0  0  0
 49122  1  0  0  0
 50 51  1  0  0  0
 50123  1  0  0  0
 50124  1  0  0  0
 51 52  1  0  0  0
 51125  1  0  0  0
 51126  1  0  0  0
 52127  1  0  0  0
 52128  1  0  0  0
 53 54  1  0  0  0
 54 55  2  0  0  0
 54129  1  0  0  0
 55 57  1  0  0  0
 55130  1  0  0  0
 56 69  2  0  0  0
 57 58  2  0  0  0
 57131  1  0  0  0
 58132  1  0  0  0
 59 60  1  0  0  0
 59 61  1  0  0  0
 59 62  1  0  0  0
 60133  1  0  0  0
 60134  1  0  0  0
 60135  1  0  0  0
 61136  1  0  0  0
 61137  1  0  0  0
 61138  1  0  0  0
 62139  1  0  0  0
 62140  1  0  0  0
 62141  1  0  0  0
 63 65  1  0  0  0
 63142  1  0  0  0
 63143  1  0  0  0
 63144  1  0  0  0
 64145  1  0  0  0
 65146  1  0  0  0
 68 84  1  0  0  0
 71 73  2  0  0  0
 71 75  1  0  0  0
 71147  1  0  0  0
 72 74  1  0  0  0
 72 75  2  0  0  0
 72148  1  0  0  0
 73 76  1  0  0  0
 73149  1  0  0  0
 74 76  2  0  0  0
 74150  1  0  0  0
 75 85  1  0  0  0
 76 86  1  0  0  0
 77 78  2  0  0  0
 77 79  1  0  0  0
 77 84  1  0  0  0
 78 80  1  0  0  0
 78 83  1  0  0  0
 79 83  1  0  0  0
 79 87  2  0  0  0
 80 81  1  0  0  0
 80151  1  0  0  0
 80152  1  0  0  0
 81 85  1  0  0  0
 81153  1  0  0  0
 81154  1  0  0  0
 82 85  1  0  0  0
 82155  1  0  0  0
 82156  1  0  0  0
 82 83  1  0  0  0
 83157  1  0  0  0
 84158  1  0  0  0
 84159  1  0  0  0
 86160  1  0  0  0
M  ISO  4   1 100  68 101  84 101  86 100
M  END
> <chiral flag>
0

> <version>
0

> <s_m_source_file>
/data/baiqing/PycharmProjects/Reinvent-master-3.2/result/LINK_invent/BTK/process_docking_weight1_custom_product_contain_oxygen_bond_distance_aromatic_linkinvent_7_9_3/rearranged_h_0078.sdf

> <i_m_source_file_index>
23

> <r_mmod_Potential_Energy-OPLS-2005>
60.512321472168

> <r_mmod_Stretch_Energy-OPLS-2005>
36.5020484924316

> <r_mmod_Bend_Energy-OPLS-2005>
152.750091552734

> <r_mmod_Torsional_Energy-OPLS-2005>
276.520935058594

> <r_mmod_Improper_Torsional_Energy-OPLS-2005>
11.9251937866211

> <r_mmod_Van_der_Waal_Energy-OPLS-2005>
159.809585571289

> <r_mmod_Electrostatic_Energy-OPLS-2005>
-348.335723876953

> <r_mmod_Solvation_Energy-OPLS-2005>
-238.256790161133

> <b_mmod_Minimization_Converged-OPLS-2005>
0

> <r_mmod_RMS_Derivative-OPLS-2005>
3.30955719947815

$$$$
23
                    3D
 Structure written by MMmdl.
151159  0  0  1  0            999 V2000
  -30.5964  -14.7735   20.4311 C   0  0  0  0  0  0
  -30.4310  -12.4666   19.4845 C   0  0  0  0  0  0
  -29.5123  -12.5208   18.2422 C   0  0  0  0  0  0
  -28.0394  -12.3392   18.6536 C   0  0  0  0  0  0
  -27.6437  -13.2385   19.8547 C   0  0  2  0  0  0
  -28.6873  -13.1781   20.9935 C   0  0  0  0  0  0
  -25.2515  -13.8217   20.5690 C   0  0  0  0  0  0
  -24.1811  -13.0451   20.9187 C   0  0  0  0  0  0
  -24.6414  -11.6931   20.8744 C   0  0  0  0  0  0
  -23.9093  -10.4303   21.0407 C   0  0  0  0  0  0
  -24.3644   -9.4213   21.9183 C   0  0  0  0  0  0
  -23.6317   -8.2246   22.0763 C   0  0  0  0  0  0
  -22.4298   -8.0288   21.3547 C   0  0  0  0  0  0
  -21.9929   -9.0262   20.4655 C   0  0  0  0  0  0
  -22.7264  -10.2141   20.3054 C   0  0  0  0  0  0
  -21.6854   -6.0741   22.5277 C   0  0  0  0  0  0
  -21.4017   -6.5643   23.8207 C   0  0  0  0  0  0
  -21.3662   -5.6797   24.9169 C   0  0  0  0  0  0
  -21.6044   -4.3060   24.7219 C   0  0  0  0  0  0
  -21.8819   -3.8150   23.4340 C   0  0  0  0  0  0
  -21.9195   -4.6964   22.3400 C   0  0  0  0  0  0
  -22.7825  -13.5222   21.1841 C   0  0  0  0  0  0
  -22.1657   -4.2150   21.0976 F   0  0  0  0  0  0
  -21.5639   -3.4545   25.7731 F   0  0  0  0  0  0
  -29.9908  -13.5323   20.4193 N   0  0  0  0  0  0
  -26.2955  -12.9438   20.3299 N   0  0  0  0  0  0
  -25.9352  -11.6572   20.5762 N   0  0  0  0  0  0
  -22.0475  -12.8220   22.0409 N   0  0  0  0  0  0
  -25.4227  -15.1944   20.4123 N   0  0  0  0  0  0
  -31.7696  -14.8724   20.0604 O   0  0  0  0  0  0
  -21.6655   -6.8889   21.4241 O   0  0  0  0  0  0
  -22.3498  -14.5516   20.6677 O   0  0  0  0  0  0
  -24.6328  -31.8544   23.1994 C   0  0  0  0  0  0
  -25.9151  -32.4750   23.8334 C   0  0  1  0  0  0
  -27.2090  -27.2336   20.1270 C   0  0  0  0  0  0
  -25.5947  -33.8556   24.2254 N   0  0  0  0  0  0
  -23.4307  -30.4796   21.5422 C   0  0  2  0  0  0
  -24.8772  -28.9294   20.1069 C   0  0  0  0  0  0
  -22.7504  -29.4607   22.4888 C   0  0  0  0  0  0
  -18.0297  -28.1398   22.8465 C   0  0  0  0  0  0
  -24.1496  -36.7282   23.2634 C   0  0  0  0  0  0
  -25.9806  -30.7547   21.3889 C   0  0  0  0  0  0
  -26.0503  -29.3771   20.7275 C   0  0  0  0  0  0
  -27.2170  -28.5399   20.7341 C   0  0  0  0  0  0
  -26.0199  -26.8829   19.4454 C   0  0  0  0  0  0
  -24.8693  -27.6907   19.4547 C   0  0  0  0  0  0
  -23.6500  -29.8195   20.1572 C   0  0  0  0  0  0
  -25.4124  -36.3069   24.0322 C   0  0  1  0  0  0
  -20.5897  -28.3715   23.1244 C   0  0  2  0  0  0
  -20.6791  -26.9431   22.5390 C   0  0  0  0  0  0
  -19.5776  -26.6387   21.5190 C   0  0  0  0  0  0
  -18.1956  -26.7942   22.1603 C   0  0  0  0  0  0
  -19.1549  -28.8869   23.2854 C   0  0  0  0  0  0
  -18.9471  -30.1465   23.8880 C   0  0  0  0  0  0
  -17.6472  -30.6596   24.0558 C   0  0  0  0  0  0
  -25.9062  -34.9438   23.5086 C   0  0  0  0  0  0
  -16.5360  -29.9089   23.6334 C   0  0  0  0  0  0
  -16.7285  -28.6510   23.0347 C   0  0  0  0  0  0
  -26.4512  -31.6586   25.0732 C   0  0  0  0  0  0
  -25.3718  -31.3733   26.1430 C   0  0  0  0  0  0
  -27.0351  -30.2993   24.6255 C   0  0  0  0  0  0
  -27.6081  -32.4315   25.7501 C   0  0  0  0  0  0
  -27.5594  -37.1790   24.8459 C   0  0  0  0  0  0
  -21.4208  -29.3061   22.3627 N   0  0  0  0  0  0
  -26.4297  -37.3772   23.9407 N   0  0  0  0  0  0
  -24.7003  -31.0478   22.0991 N   0  0  0  0  0  0
  -23.4187  -28.8129   23.2989 O   0  0  0  0  0  0
  -28.2708  -26.2881   20.2175 O   0  0  0  0  0  0
  -26.5633  -34.8916   22.4654 O   0  0  0  0  0  0
  -23.5473  -32.1379   23.7267 O   0  0  0  0  0  0
  -29.7886  -19.8038   18.6889 C   0  0  0  0  0  0
  -29.5429  -18.5375   20.7572 C   0  0  0  0  0  0
  -30.1334  -17.3645   18.7108 C   0  0  0  0  0  0
  -29.5164  -19.8325   20.0719 C   0  0  0  0  0  0
  -30.0846  -18.5983   18.0193 C   0  0  0  0  0  0
  -29.8676  -17.2712   20.0996 C   0  0  0  0  0  0
  -28.8105  -23.5849   20.4721 C   0  0  0  0  0  0
  -29.3313  -21.2290   20.7552 C   0  0  0  0  0  0
  -27.9851  -24.8345   19.8792 C   0  0  0  0  0  0
  -28.7379  -22.3310   20.0409 N   0  0  0  0  0  0
  -30.3446  -18.6382   16.6497 N   0  0  0  0  0  0
  -29.8443  -15.9113   20.7258 N   0  0  0  0  0  0
  -29.7075  -21.3069   21.9256 O   0  0  0  0  0  0
  -31.4736  -12.5814   19.1840 H   0  0  0  0  0  0
  -30.3682  -11.4880   19.9635 H   0  0  0  0  0  0
  -29.7987  -11.7503   17.5251 H   0  0  0  0  0  0
  -29.6353  -13.4764   17.7288 H   0  0  0  0  0  0
  -27.9008  -11.2905   18.9183 H   0  0  0  0  0  0
  -27.3800  -12.5286   17.8056 H   0  0  0  0  0  0
  -27.6380  -14.2611   19.4757 H   0  0  0  0  0  0
  -28.7236  -12.1811   21.4365 H   0  0  0  0  0  0
  -28.4192  -13.8615   21.7999 H   0  0  0  0  0  0
  -25.2781   -9.5686   22.4761 H   0  0  0  0  0  0
  -24.0018   -7.4644   22.7494 H   0  0  0  0  0  0
  -21.0843   -8.8787   19.8979 H   0  0  0  0  0  0
  -22.3715  -10.9679   19.6168 H   0  0  0  0  0  0
  -21.2005   -7.6153   23.9705 H   0  0  0  0  0  0
  -21.1486   -6.0530   25.9071 H   0  0  0  0  0  0
  -22.0599   -2.7610   23.2835 H   0  0  0  0  0  0
  -22.4090  -11.9890   22.4808 H   0  0  0  0  0  0
  -21.1096  -13.1250   22.2622 H   0  0  0  0  0  0
  -24.6606  -15.8534   20.5319 H   0  0  0  0  0  0
  -26.2770  -15.6320   20.0911 H   0  0  0  0  0  0
  -26.7209  -32.5387   23.1062 H   0  0  0  0  0  0
  -25.0099  -33.9692   25.0403 H   0  0  0  0  0  0
  -22.7302  -31.3043   21.3979 H   0  0  0  0  0  0
  -23.3772  -35.9598   23.3269 H   0  0  0  0  0  0
  -24.3596  -36.8933   22.2055 H   0  0  0  0  0  0
  -23.7232  -37.6465   23.6677 H   0  0  0  0  0  0
  -26.1290  -31.5156   20.6212 H   0  0  0  0  0  0
  -26.8550  -30.7980   22.0267 H   0  0  0  0  0  0
  -28.1057  -28.8695   21.2537 H   0  0  0  0  0  0
  -25.9327  -25.9542   18.9036 H   0  0  0  0  0  0
  -23.9783  -27.3466   18.9474 H   0  0  0  0  0  0
  -23.7782  -30.5984   19.4050 H   0  0  0  0  0  0
  -22.7671  -29.2565   19.8494 H   0  0  0  0  0  0
  -25.1307  -36.1916   25.0816 H   0  0  0  0  0  0
  -20.9996  -28.3307   24.1359 H   0  0  0  0  0  0
  -20.5675  -26.2330   23.3593 H   0  0  0  0  0  0
  -21.6665  -26.7453   22.1193 H   0  0  0  0  0  0
  -19.6943  -25.6286   21.1247 H   0  0  0  0  0  0
  -19.6732  -27.3167   20.6697 H   0  0  0  0  0  0
  -17.4218  -26.6656   21.4018 H   0  0  0  0  0  0
  -18.0389  -26.0093   22.9015 H   0  0  0  0  0  0
  -19.7946  -30.7284   24.2247 H   0  0  0  0  0  0
  -17.5028  -31.6278   24.5162 H   0  0  0  0  0  0
  -15.5361  -30.2988   23.7677 H   0  0  0  0  0  0
  -15.8683  -28.0828   22.7072 H   0  0  0  0  0  0
  -24.5911  -30.7077   25.7734 H   0  0  0  0  0  0
  -24.8873  -32.2882   26.4847 H   0  0  0  0  0  0
  -25.8000  -30.8902   27.0218 H   0  0  0  0  0  0
  -26.2930  -29.6736   24.1277 H   0  0  0  0  0  0
  -27.3999  -29.7286   25.4806 H   0  0  0  0  0  0
  -27.8841  -30.4252   23.9530 H   0  0  0  0  0  0
  -27.2731  -33.3640   26.2062 H   0  0  0  0  0  0
  -28.3903  -32.6827   25.0323 H   0  0  0  0  0  0
  -28.0737  -31.8433   26.5421 H   0  0  0  0  0  0
  -28.2581  -38.0118   24.7544 H   0  0  0  0  0  0
  -28.1118  -36.2646   24.6239 H   0  0  0  0  0  0
  -27.2308  -37.1385   25.8859 H   0  0  0  0  0  0
  -20.9386  -29.8789   21.6839 H   0  0  0  0  0  0
  -26.0176  -38.2841   24.1425 H   0  0  0  0  0  0
  -29.7919  -20.7334   18.1348 H   0  0  0  0  0  0
  -29.3321  -18.5262   21.8179 H   0  0  0  0  0  0
  -30.3598  -16.4671   18.1498 H   0  0  0  0  0  0
  -29.4354  -23.8597   21.3259 H   0  0  0  0  0  0
  -26.9657  -24.6119   20.1923 H   0  0  0  0  0  0
  -27.9958  -24.7449   18.7925 H   0  0  0  0  0  0
  -30.0878  -19.4621   16.1133 H   0  0  0  0  0  0
  -30.3374  -17.7824   16.1029 H   0  0  0  0  0  0
  -29.0264  -15.7228   21.2869 H   0  0  0  0  0  0
  1 25  1  0  0  0
  1 30  2  0  0  0
  1 82  1  0  0  0
  2  3  1  0  0  0
  2 25  1  0  0  0
  2 84  1  0  0  0
  2 85  1  0  0  0
  3  4  1  0  0  0
  3 86  1  0  0  0
  3 87  1  0  0  0
  4  5  1  0  0  0
  4 88  1  0  0  0
  4 89  1  0  0  0
  5  6  1  0  0  0
  5 26  1  0  0  0
  5 90  1  0  0  0
  6 25  1  0  0  0
  6 91  1  0  0  0
  6 92  1  0  0  0
  7  8  2  0  0  0
  7 26  1  0  0  0
  7 29  1  0  0  0
  8  9  1  0  0  0
  8 22  1  0  0  0
  9 10  1  0  0  0
  9 27  2  0  0  0
 10 11  2  0  0  0
 10 15  1  0  0  0
 11 12  1  0  0  0
 11 93  1  0  0  0
 12 13  2  0  0  0
 12 94  1  0  0  0
 13 14  1  0  0  0
 13 31  1  0  0  0
 14 15  2  0  0  0
 14 95  1  0  0  0
 15 96  1  0  0  0
 16 17  2  0  0  0
 16 21  1  0  0  0
 16 31  1  0  0  0
 17 18  1  0  0  0
 17 97  1  0  0  0
 18 19  2  0  0  0
 18 98  1  0  0  0
 19 20  1  0  0  0
 19 24  1  0  0  0
 20 21  2  0  0  0
 20 99  1  0  0  0
 21 23  1  0  0  0
 22 28  1  0  0  0
 22 32  2  0  0  0
 26 27  1  0  0  0
 28100  1  0  0  0
 28101  1  0  0  0
 29102  1  0  0  0
 29103  1  0  0  0
 33 34  1  0  0  0
 33 66  1  0  0  0
 33 70  2  0  0  0
 34 36  1  0  0  0
 34 59  1  0  0  0
 34104  1  0  0  0
 35 44  2  0  0  0
 35 45  1  0  0  0
 35 68  1  0  0  0
 36 56  1  0  0  0
 36105  1  0  0  0
 37 39  1  0  0  0
 37 47  1  0  0  0
 37 66  1  0  0  0
 37106  1  0  0  0
 38 43  2  0  0  0
 38 46  1  0  0  0
 38 47  1  0  0  0
 39 64  1  0  0  0
 39 67  2  0  0  0
 40 52  1  0  0  0
 40 53  2  0  0  0
 40 58  1  0  0  0
 41107  1  0  0  0
 41108  1  0  0  0
 41109  1  0  0  0
 41 48  1  0  0  0
 42 43  1  0  0  0
 42 66  1  0  0  0
 42110  1  0  0  0
 42111  1  0  0  0
 43 44  1  0  0  0
 44112  1  0  0  0
 45 46  2  0  0  0
 45113  1  0  0  0
 46114  1  0  0  0
 47115  1  0  0  0
 47116  1  0  0  0
 48 56  1  0  0  0
 48 65  1  0  0  0
 48117  1  0  0  0
 49 50  1  0  0  0
 49 53  1  0  0  0
 49 64  1  0  0  0
 49118  1  0  0  0
 50 51  1  0  0  0
 50119  1  0  0  0
 50120  1  0  0  0
 51 52  1  0  0  0
 51121  1  0  0  0
 51122  1  0  0  0
 52123  1  0  0  0
 52124  1  0  0  0
 53 54  1  0  0  0
 54 55  2  0  0  0
 54125  1  0  0  0
 55 57  1  0  0  0
 55126  1  0  0  0
 56 69  2  0  0  0
 57 58  2  0  0  0
 57127  1  0  0  0
 58128  1  0  0  0
 59 60  1  0  0  0
 59 61  1  0  0  0
 59 62  1  0  0  0
 60129  1  0  0  0
 60130  1  0  0  0
 60131  1  0  0  0
 61132  1  0  0  0
 61133  1  0  0  0
 61134  1  0  0  0
 62135  1  0  0  0
 62136  1  0  0  0
 62137  1  0  0  0
 63 65  1  0  0  0
 63138  1  0  0  0
 63139  1  0  0  0
 63140  1  0  0  0
 64141  1  0  0  0
 65142  1  0  0  0
 68 79  1  0  0  0
 71 74  2  0  0  0
 71 75  1  0  0  0
 71143  1  0  0  0
 72 74  1  0  0  0
 72 76  2  0  0  0
 72144  1  0  0  0
 73 75  2  0  0  0
 73 76  1  0  0  0
 73145  1  0  0  0
 74 78  1  0  0  0
 75 81  1  0  0  0
 76 82  1  0  0  0
 77 79  1  0  0  0
 77 80  2  0  0  0
 77146  1  0  0  0
 78 80  1  0  0  0
 78 83  2  0  0  0
 79147  1  0  0  0
 79148  1  0  0  0
 81149  1  0  0  0
 81150  1  0  0  0
 82151  1  0  0  0
M  ISO  4   1 100  68 101  79 101  82 100
M  END
> <chiral flag>
0

> <version>
0

> <s_m_source_file>
/data/baiqing/PycharmProjects/Reinvent-master-3.2/result/LINK_invent/BTK/process_docking_weight1_custom_product_contain_oxygen_bond_distance_aromatic_linkinvent_7_9_3/rearranged_h_0078.sdf

> <i_m_source_file_index>
24

> <r_mmod_Potential_Energy-OPLS-2005>
176.17724609375

> <r_mmod_Stretch_Energy-OPLS-2005>
141.711791992188

> <r_mmod_Bend_Energy-OPLS-2005>
169.518737792969

> <r_mmod_Torsional_Energy-OPLS-2005>
239.82795715332

> <r_mmod_Improper_Torsional_Energy-OPLS-2005>
6.72184610366821

> <r_mmod_Van_der_Waal_Energy-OPLS-2005>
146.822982788086

> <r_mmod_Electrostatic_Energy-OPLS-2005>
-405.689361572266

> <r_mmod_Solvation_Energy-OPLS-2005>
-227.390823364258

> <b_mmod_Minimization_Converged-OPLS-2005>
0

> <r_mmod_RMS_Derivative-OPLS-2005>
1.63129091262817

$$$$
24
                    3D
 Structure written by MMmdl.
157166  0  0  1  0            999 V2000
  -30.6685  -14.5781   20.5246 C   0  0  0  0  0  0
  -30.4256  -12.3658   19.4337 C   0  0  0  0  0  0
  -29.4976  -12.5145   18.2098 C   0  0  0  0  0  0
  -28.0188  -12.3650   18.6216 C   0  0  0  0  0  0
  -27.6520  -13.2205   19.8640 C   0  0  2  0  0  0
  -28.7002  -13.0616   20.9879 C   0  0  0  0  0  0
  -25.2548  -13.8187   20.5686 C   0  0  0  0  0  0
  -24.1817  -13.0442   20.9189 C   0  0  0  0  0  0
  -24.6393  -11.6918   20.8734 C   0  0  0  0  0  0
  -23.9064  -10.4301   21.0403 C   0  0  0  0  0  0
  -24.3614   -9.4221   21.9185 C   0  0  0  0  0  0
  -23.6292   -8.2255   22.0755 C   0  0  0  0  0  0
  -22.4276   -8.0284   21.3544 C   0  0  0  0  0  0
  -21.9906   -9.0263   20.4653 C   0  0  0  0  0  0
  -22.7230  -10.2143   20.3062 C   0  0  0  0  0  0
  -21.6854   -6.0735   22.5283 C   0  0  0  0  0  0
  -21.4018   -6.5638   23.8214 C   0  0  0  0  0  0
  -21.3663   -5.6789   24.9177 C   0  0  0  0  0  0
  -21.6042   -4.3054   24.7225 C   0  0  0  0  0  0
  -21.8817   -3.8143   23.4350 C   0  0  0  0  0  0
  -21.9192   -4.6963   22.3401 C   0  0  0  0  0  0
  -22.7844  -13.5240   21.1844 C   0  0  0  0  0  0
  -22.1660   -4.2146   21.0982 F   0  0  0  0  0  0
  -21.5630   -3.4539   25.7742 F   0  0  0  0  0  0
  -30.0144  -13.3840   20.4161 N   0  0  0  0  0  0
  -26.2988  -12.9375   20.3344 N   0  0  0  0  0  0
  -25.9329  -11.6524   20.5774 N   0  0  0  0  0  0
  -22.0474  -12.8241   22.0401 N   0  0  0  0  0  0
  -25.4234  -15.1909   20.4096 N   0  0  0  0  0  0
  -31.8384  -14.7058   20.1550 O   0  0  0  0  0  0
  -21.6641   -6.8882   21.4243 O   0  0  0  0  0  0
  -22.3531  -14.5546   20.6692 O   0  0  0  0  0  0
  -24.6198  -31.8646   23.2053 C   0  0  0  0  0  0
  -25.9077  -32.4809   23.8365 C   0  0  1  0  0  0
  -27.2286  -27.3673   20.1142 C   0  0  0  0  0  0
  -25.5916  -33.8608   24.2317 N   0  0  0  0  0  0
  -23.4108  -30.4862   21.5477 C   0  0  2  0  0  0
  -24.8576  -28.9434   20.1176 C   0  0  0  0  0  0
  -22.7438  -29.4644   22.4971 C   0  0  0  0  0  0
  -18.0279  -28.1369   22.8479 C   0  0  0  0  0  0
  -24.1490  -36.7310   23.2626 C   0  0  0  0  0  0
  -25.9459  -30.8135   21.3635 C   0  0  0  0  0  0
  -26.0240  -29.4407   20.7138 C   0  0  0  0  0  0
  -27.2148  -28.6650   20.6986 C   0  0  0  0  0  0
  -26.0388  -26.9034   19.5162 C   0  0  0  0  0  0
  -24.8634  -27.6769   19.5124 C   0  0  0  0  0  0
  -23.6222  -29.8168   20.1641 C   0  0  0  0  0  0
  -25.4106  -36.3100   24.0333 C   0  0  1  0  0  0
  -20.5877  -28.3668   23.1310 C   0  0  2  0  0  0
  -20.6776  -26.9402   22.5415 C   0  0  0  0  0  0
  -19.5762  -26.6378   21.5204 C   0  0  0  0  0  0
  -18.1937  -26.7914   22.1612 C   0  0  0  0  0  0
  -19.1528  -28.8833   23.2892 C   0  0  0  0  0  0
  -18.9456  -30.1439   23.8904 C   0  0  0  0  0  0
  -17.6460  -30.6581   24.0556 C   0  0  0  0  0  0
  -25.9040  -34.9469   23.5123 C   0  0  0  0  0  0
  -16.5354  -29.9078   23.6316 C   0  0  0  0  0  0
  -16.7269  -28.6493   23.0336 C   0  0  0  0  0  0
  -26.4477  -31.6573   25.0698 C   0  0  0  0  0  0
  -25.3730  -31.3698   26.1441 C   0  0  0  0  0  0
  -27.0285  -30.3003   24.6082 C   0  0  0  0  0  0
  -27.6075  -32.4247   25.7471 C   0  0  0  0  0  0
  -27.5589  -37.1803   24.8449 C   0  0  0  0  0  0
  -21.4160  -29.3029   22.3709 N   0  0  0  0  0  0
  -26.4288  -37.3788   23.9409 N   0  0  0  0  0  0
  -24.6780  -31.0696   22.0982 N   0  0  0  0  0  0
  -23.4187  -28.8186   23.3035 O   0  0  0  0  0  0
  -28.3829  -26.5890   20.0850 O   0  0  0  0  0  0
  -26.5601  -34.8925   22.4685 O   0  0  0  0  0  0
  -23.5383  -32.1437   23.7422 O   0  0  0  0  0  0
  -31.9242  -18.7221   21.7492 C   0  0  0  0  0  0
  -31.0919  -19.7683   21.3090 C   0  0  0  0  0  0
  -31.5400  -17.3783   21.5909 C   0  0  0  0  0  0
  -29.8393  -19.5086   20.6990 C   0  0  0  0  0  0
  -30.3108  -17.0495   20.9777 C   0  0  0  0  0  0
  -29.4620  -18.1240   20.5520 C   0  0  0  0  0  0
  -28.2769  -22.7544   19.6095 C   0  0  0  0  0  0
  -27.7812  -21.8206   18.6313 C   0  0  0  0  0  0
  -29.0409  -21.9473   20.5790 C   0  0  0  0  0  0
  -27.0325  -22.1080   17.5511 C   0  0  0  0  0  0
  -28.0161  -24.1034   19.6110 C   0  0  0  0  0  0
  -28.1894  -20.4284   19.0047 C   0  0  0  0  0  0
  -28.3376  -25.2265   20.6229 C   0  0  0  0  0  0
  -29.0414  -20.6240   20.1790 N   0  0  0  0  0  0
  -29.9044  -15.6630   20.8351 N   0  0  0  0  0  0
  -29.5796  -22.3782   21.6037 O   0  0  0  0  0  0
  -28.2747  -17.7936   19.9901 F   0  0  0  0  0  0
  -31.4696  -12.4695   19.1315 H   0  0  0  0  0  0
  -30.3359  -11.3683   19.8665 H   0  0  0  0  0  0
  -29.7524  -11.7760   17.4482 H   0  0  0  0  0  0
  -29.6502  -13.4928   17.7506 H   0  0  0  0  0  0
  -27.8369  -11.3101   18.8293 H   0  0  0  0  0  0
  -27.3700  -12.6269   17.7856 H   0  0  0  0  0  0
  -27.6744  -14.2599   19.5363 H   0  0  0  0  0  0
  -28.7039  -12.0397   21.3713 H   0  0  0  0  0  0
  -28.4645  -13.7009   21.8402 H   0  0  0  0  0  0
  -25.2760   -9.5696   22.4760 H   0  0  0  0  0  0
  -24.0000   -7.4644   22.7472 H   0  0  0  0  0  0
  -21.0835   -8.8784   19.8962 H   0  0  0  0  0  0
  -22.3687  -10.9684   19.6172 H   0  0  0  0  0  0
  -21.2013   -7.6146   23.9715 H   0  0  0  0  0  0
  -21.1489   -6.0525   25.9079 H   0  0  0  0  0  0
  -22.0592   -2.7606   23.2852 H   0  0  0  0  0  0
  -22.4078  -11.9907   22.4808 H   0  0  0  0  0  0
  -21.1095  -13.1286   22.2596 H   0  0  0  0  0  0
  -24.6495  -15.8394   20.5075 H   0  0  0  0  0  0
  -26.2716  -15.6394   20.0872 H   0  0  0  0  0  0
  -26.7148  -32.5523   23.1123 H   0  0  0  0  0  0
  -25.0059  -33.9758   25.0459 H   0  0  0  0  0  0
  -22.7020  -31.3044   21.4043 H   0  0  0  0  0  0
  -23.3755  -35.9637   23.3268 H   0  0  0  0  0  0
  -24.3595  -36.8950   22.2045 H   0  0  0  0  0  0
  -23.7237  -37.6510   23.6648 H   0  0  0  0  0  0
  -26.0585  -31.5727   20.5881 H   0  0  0  0  0  0
  -26.8359  -30.8755   21.9783 H   0  0  0  0  0  0
  -28.1181  -29.0519   21.1492 H   0  0  0  0  0  0
  -25.9988  -25.9405   19.0376 H   0  0  0  0  0  0
  -23.9691  -27.2863   19.0467 H   0  0  0  0  0  0
  -23.7361  -30.5915   19.4046 H   0  0  0  0  0  0
  -22.7450  -29.2377   19.8683 H   0  0  0  0  0  0
  -25.1270  -36.1955   25.0824 H   0  0  0  0  0  0
  -20.9971  -28.3230   24.1432 H   0  0  0  0  0  0
  -20.5669  -26.2276   23.3600 H   0  0  0  0  0  0
  -21.6653  -26.7435   22.1221 H   0  0  0  0  0  0
  -19.6935  -25.6289   21.1229 H   0  0  0  0  0  0
  -19.6708  -27.3196   20.6740 H   0  0  0  0  0  0
  -17.4209  -26.6650   21.4014 H   0  0  0  0  0  0
  -18.0348  -26.0059   22.9014 H   0  0  0  0  0  0
  -19.7936  -30.7243   24.2290 H   0  0  0  0  0  0
  -17.5016  -31.6267   24.5145 H   0  0  0  0  0  0
  -15.5356  -30.2982   23.7631 H   0  0  0  0  0  0
  -15.8666  -28.0814   22.7041 H   0  0  0  0  0  0
  -24.5961  -30.6962   25.7799 H   0  0  0  0  0  0
  -24.8847  -32.2854   26.4793 H   0  0  0  0  0  0
  -25.8083  -30.8968   27.0254 H   0  0  0  0  0  0
  -26.2824  -29.6784   24.1124 H   0  0  0  0  0  0
  -27.4033  -29.7208   25.4527 H   0  0  0  0  0  0
  -27.8672  -30.4294   23.9237 H   0  0  0  0  0  0
  -27.2738  -33.3554   26.2067 H   0  0  0  0  0  0
  -28.3899  -32.6775   25.0303 H   0  0  0  0  0  0
  -28.0718  -31.8332   26.5371 H   0  0  0  0  0  0
  -28.2569  -38.0136   24.7535 H   0  0  0  0  0  0
  -28.1120  -36.2671   24.6202 H   0  0  0  0  0  0
  -27.2320  -37.1376   25.8853 H   0  0  0  0  0  0
  -20.9319  -29.8756   21.6932 H   0  0  0  0  0  0
  -26.0174  -38.2860   24.1423 H   0  0  0  0  0  0
  -32.8773  -18.9546   22.2047 H   0  0  0  0  0  0
  -31.4601  -20.7770   21.4267 H   0  0  0  0  0  0
  -32.2026  -16.6036   21.9518 H   0  0  0  0  0  0
  -26.7236  -23.1113   17.2998 H   0  0  0  0  0  0
  -26.7043  -21.3187   16.8906 H   0  0  0  0  0  0
  -27.4269  -24.4670   18.7894 H   0  0  0  0  0  0
  -28.7351  -19.9486   18.1911 H   0  0  0  0  0  0
  -27.3019  -19.8438   19.2500 H   0  0  0  0  0  0
  -27.6017  -25.1826   21.4279 H   0  0  0  0  0  0
  -29.3046  -25.0214   21.0822 H   0  0  0  0  0  0
  -28.9132  -15.4909   20.8878 H   0  0  0  0  0  0
  1 25  1  0  0  0
  1 30  2  0  0  0
  1 85  1  0  0  0
  2  3  1  0  0  0
  2 25  1  0  0  0
  2 88  1  0  0  0
  2 89  1  0  0  0
  3  4  1  0  0  0
  3 90  1  0  0  0
  3 91  1  0  0  0
  4  5  1  0  0  0
  4 92  1  0  0  0
  4 93  1  0  0  0
  5  6  1  0  0  0
  5 26  1  0  0  0
  5 94  1  0  0  0
  6 25  1  0  0  0
  6 95  1  0  0  0
  6 96  1  0  0  0
  7  8  2  0  0  0
  7 26  1  0  0  0
  7 29  1  0  0  0
  8  9  1  0  0  0
  8 22  1  0  0  0
  9 10  1  0  0  0
  9 27  2  0  0  0
 10 11  2  0  0  0
 10 15  1  0  0  0
 11 12  1  0  0  0
 11 97  1  0  0  0
 12 13  2  0  0  0
 12 98  1  0  0  0
 13 14  1  0  0  0
 13 31  1  0  0  0
 14 15  2  0  0  0
 14 99  1  0  0  0
 15100  1  0  0  0
 16 17  2  0  0  0
 16 21  1  0  0  0
 16 31  1  0  0  0
 17 18  1  0  0  0
 17101  1  0  0  0
 18 19  2  0  0  0
 18102  1  0  0  0
 19 20  1  0  0  0
 19 24  1  0  0  0
 20 21  2  0  0  0
 20103  1  0  0  0
 21 23  1  0  0  0
 22 28  1  0  0  0
 22 32  2  0  0  0
 26 27  1  0  0  0
 28104  1  0  0  0
 28105  1  0  0  0
 29106  1  0  0  0
 29107  1  0  0  0
 33 34  1  0  0  0
 33 66  1  0  0  0
 33 70  2  0  0  0
 34 36  1  0  0  0
 34 59  1  0  0  0
 34108  1  0  0  0
 35 44  2  0  0  0
 35 45  1  0  0  0
 35 68  1  0  0  0
 36 56  1  0  0  0
 36109  1  0  0  0
 37 39  1  0  0  0
 37 47  1  0  0  0
 37 66  1  0  0  0
 37110  1  0  0  0
 38 43  2  0  0  0
 38 46  1  0  0  0
 38 47  1  0  0  0
 39 64  1  0  0  0
 39 67  2  0  0  0
 40 52  1  0  0  0
 40 53  2  0  0  0
 40 58  1  0  0  0
 41111  1  0  0  0
 41112  1  0  0  0
 41113  1  0  0  0
 41 48  1  0  0  0
 42 43  1  0  0  0
 42 66  1  0  0  0
 42114  1  0  0  0
 42115  1  0  0  0
 43 44  1  0  0  0
 44116  1  0  0  0
 45 46  2  0  0  0
 45117  1  0  0  0
 46118  1  0  0  0
 47119  1  0  0  0
 47120  1  0  0  0
 48 56  1  0  0  0
 48 65  1  0  0  0
 48121  1  0  0  0
 49 50  1  0  0  0
 49 53  1  0  0  0
 49 64  1  0  0  0
 49122  1  0  0  0
 50 51  1  0  0  0
 50123  1  0  0  0
 50124  1  0  0  0
 51 52  1  0  0  0
 51125  1  0  0  0
 51126  1  0  0  0
 52127  1  0  0  0
 52128  1  0  0  0
 53 54  1  0  0  0
 54 55  2  0  0  0
 54129  1  0  0  0
 55 57  1  0  0  0
 55130  1  0  0  0
 56 69  2  0  0  0
 57 58  2  0  0  0
 57131  1  0  0  0
 58132  1  0  0  0
 59 60  1  0  0  0
 59 61  1  0  0  0
 59 62  1  0  0  0
 60133  1  0  0  0
 60134  1  0  0  0
 60135  1  0  0  0
 61136  1  0  0  0
 61137  1  0  0  0
 61138  1  0  0  0
 62139  1  0  0  0
 62140  1  0  0  0
 62141  1  0  0  0
 63 65  1  0  0  0
 63142  1  0  0  0
 63143  1  0  0  0
 63144  1  0  0  0
 64145  1  0  0  0
 65146  1  0  0  0
 68 83  1  0  0  0
 71 72  2  0  0  0
 71 73  1  0  0  0
 71147  1  0  0  0
 72 74  1  0  0  0
 72148  1  0  0  0
 73 75  2  0  0  0
 73149  1  0  0  0
 74 76  2  0  0  0
 74 84  1  0  0  0
 75 76  1  0  0  0
 75 85  1  0  0  0
 76 87  1  0  0  0
 77 78  1  0  0  0
 77 79  1  0  0  0
 77 81  2  0  0  0
 78 80  2  0  0  0
 78 82  1  0  0  0
 79 84  1  0  0  0
 79 86  2  0  0  0
 80150  1  0  0  0
 80151  1  0  0  0
 81 83  1  0  0  0
 81152  1  0  0  0
 82 84  1  0  0  0
 82153  1  0  0  0
 82154  1  0  0  0
 83155  1  0  0  0
 83156  1  0  0  0
 85157  1  0  0  0
M  ISO  4   1 100  68 101  83 101  85 100
M  END
> <chiral flag>
0

> <version>
0

> <s_m_source_file>
/data/baiqing/PycharmProjects/Reinvent-master-3.2/result/LINK_invent/BTK/process_docking_weight1_custom_product_contain_oxygen_bond_distance_aromatic_linkinvent_7_9_3/rearranged_h_0078.sdf

> <i_m_source_file_index>
25

> <r_mmod_Potential_Energy-OPLS-2005>
110.546127319336

> <r_mmod_Stretch_Energy-OPLS-2005>
66.4841842651367

> <r_mmod_Bend_Energy-OPLS-2005>
170.902008056641

> <r_mmod_Torsional_Energy-OPLS-2005>
282.187622070312

> <r_mmod_Improper_Torsional_Energy-OPLS-2005>
5.60406064987183

> <r_mmod_Van_der_Waal_Energy-OPLS-2005>
151.505889892578

> <r_mmod_Electrostatic_Energy-OPLS-2005>
-391.560089111328

> <r_mmod_Solvation_Energy-OPLS-2005>
-203.407699584961

> <b_mmod_Minimization_Converged-OPLS-2005>
0

> <r_mmod_RMS_Derivative-OPLS-2005>
1.71306359767914

$$$$
26
                    3D
 Structure written by MMmdl.
160169  0  0  1  0            999 V2000
  -30.7448  -14.5643   20.3418 C   0  0  0  0  0  0
  -30.4069  -12.3295   19.4354 C   0  0  0  0  0  0
  -29.4847  -12.4503   18.2077 C   0  0  0  0  0  0
  -28.0074  -12.3399   18.6269 C   0  0  0  0  0  0
  -27.6422  -13.2376   19.8380 C   0  0  2  0  0  0
  -28.7035  -13.1770   20.9598 C   0  0  0  0  0  0
  -25.2518  -13.8253   20.5711 C   0  0  0  0  0  0
  -24.1802  -13.0502   20.9222 C   0  0  0  0  0  0
  -24.6400  -11.6974   20.8783 C   0  0  0  0  0  0
  -23.9098  -10.4309   21.0425 C   0  0  0  0  0  0
  -24.3638   -9.4215   21.9200 C   0  0  0  0  0  0
  -23.6294   -8.2263   22.0762 C   0  0  0  0  0  0
  -22.4296   -8.0302   21.3533 C   0  0  0  0  0  0
  -21.9930   -9.0290   20.4662 C   0  0  0  0  0  0
  -22.7269  -10.2162   20.3076 C   0  0  0  0  0  0
  -21.6860   -6.0750   22.5279 C   0  0  0  0  0  0
  -21.4011   -6.5647   23.8216 C   0  0  0  0  0  0
  -21.3651   -5.6792   24.9173 C   0  0  0  0  0  0
  -21.6053   -4.3061   24.7218 C   0  0  0  0  0  0
  -21.8819   -3.8156   23.4339 C   0  0  0  0  0  0
  -21.9196   -4.6973   22.3398 C   0  0  0  0  0  0
  -22.7820  -13.5249   21.1872 C   0  0  0  0  0  0
  -22.1668   -4.2162   21.0974 F   0  0  0  0  0  0
  -21.5625   -3.4546   25.7728 F   0  0  0  0  0  0
  -30.0210  -13.4132   20.3522 N   0  0  0  0  0  0
  -26.2955  -12.9464   20.3295 N   0  0  0  0  0  0
  -25.9337  -11.6598   20.5790 N   0  0  0  0  0  0
  -22.0454  -12.8250   22.0432 N   0  0  0  0  0  0
  -25.4202  -15.1962   20.4059 N   0  0  0  0  0  0
  -31.9724  -14.5231   20.2725 O   0  0  0  0  0  0
  -21.6664   -6.8907   21.4242 O   0  0  0  0  0  0
  -22.3506  -14.5537   20.6711 O   0  0  0  0  0  0
  -24.6250  -31.8668   23.2138 C   0  0  0  0  0  0
  -25.9078  -32.4843   23.8453 C   0  0  1  0  0  0
  -27.2144  -27.4149   20.0553 C   0  0  0  0  0  0
  -25.5931  -33.8643   24.2382 N   0  0  0  0  0  0
  -23.4146  -30.4961   21.5636 C   0  0  2  0  0  0
  -24.8462  -28.9557   20.1201 C   0  0  0  0  0  0
  -22.7521  -29.4681   22.5075 C   0  0  0  0  0  0
  -18.0282  -28.1405   22.8485 C   0  0  0  0  0  0
  -24.1465  -36.7318   23.2667 C   0  0  0  0  0  0
  -25.9538  -30.8217   21.3618 C   0  0  0  0  0  0
  -26.0232  -29.4632   20.6935 C   0  0  0  0  0  0
  -27.2286  -28.7125   20.6220 C   0  0  0  0  0  0
  -25.9981  -26.9056   19.5572 C   0  0  0  0  0  0
  -24.8282  -27.6815   19.5450 C   0  0  0  0  0  0
  -23.6173  -29.8396   20.1745 C   0  0  0  0  0  0
  -25.4090  -36.3147   24.0362 C   0  0  1  0  0  0
  -20.5877  -28.3671   23.1303 C   0  0  2  0  0  0
  -20.6751  -26.9404   22.5403 C   0  0  0  0  0  0
  -19.5733  -26.6404   21.5193 C   0  0  0  0  0  0
  -18.1930  -26.7942   22.1638 C   0  0  0  0  0  0
  -19.1532  -28.8854   23.2894 C   0  0  0  0  0  0
  -18.9459  -30.1460   23.8900 C   0  0  0  0  0  0
  -17.6465  -30.6581   24.0574 C   0  0  0  0  0  0
  -25.9020  -34.9506   23.5178 C   0  0  0  0  0  0
  -16.5350  -29.9075   23.6351 C   0  0  0  0  0  0
  -16.7282  -28.6511   23.0335 C   0  0  0  0  0  0
  -26.4455  -31.6620   25.0796 C   0  0  0  0  0  0
  -25.3738  -31.3664   26.1567 C   0  0  0  0  0  0
  -27.0274  -30.3077   24.6104 C   0  0  0  0  0  0
  -27.6056  -32.4362   25.7510 C   0  0  0  0  0  0
  -27.5567  -37.1802   24.8482 C   0  0  0  0  0  0
  -21.4223  -29.3072   22.3777 N   0  0  0  0  0  0
  -26.4283  -37.3799   23.9437 N   0  0  0  0  0  0
  -24.6855  -31.0669   22.1096 N   0  0  0  0  0  0
  -23.4261  -28.8314   23.3187 O   0  0  0  0  0  0
  -28.3137  -26.5843   19.9906 O   0  0  0  0  0  0
  -26.5591  -34.8974   22.4733 O   0  0  0  0  0  0
  -23.5404  -32.1521   23.7493 O   0  0  0  0  0  0
  -28.5059  -18.4415   19.8093 C   0  0  0  0  0  0
  -28.1198  -19.7533   19.3802 C   0  0  0  0  0  0
  -29.7348  -18.0460   19.3273 C   0  0  0  0  0  0
  -29.0462  -20.3973   18.5779 C   0  0  0  0  0  0
  -27.9472  -23.9811   17.7714 C   0  0  0  0  0  0
  -29.3034  -24.4722   17.6759 C   0  0  0  0  0  0
  -26.9287  -24.7130   17.3023 C   0  0  0  0  0  0
  -29.8111  -25.6349   18.1823 C   0  0  0  0  0  0
  -30.5991  -16.8474   19.5344 C   0  0  0  0  0  0
  -30.1789  -23.5905   16.7967 C   0  0  0  0  0  0
  -27.7538  -22.5009   18.1081 C   0  0  0  0  0  0
  -29.9019  -22.0654   16.9096 C   0  0  0  0  0  0
  -29.2309  -26.8423   18.9341 C   0  0  0  0  0  0
  -28.9832  -21.6935   18.0034 N   0  0  0  0  0  0
  -30.0632  -15.7166   20.0683 N   0  0  0  0  0  0
  -31.7798  -16.9454   19.1596 O   0  0  0  0  0  0
  -30.4224  -19.3300   18.3386 S   0  0  0  0  0  0
  -31.4440  -12.4119   19.1048 H   0  0  0  0  0  0
  -30.3182  -11.3560   19.9252 H   0  0  0  0  0  0
  -29.7298  -11.6692   17.4879 H   0  0  0  0  0  0
  -29.6629  -13.3986   17.6948 H   0  0  0  0  0  0
  -27.8174  -11.2990   18.8684 H   0  0  0  0  0  0
  -27.3645  -12.5838   17.7769 H   0  0  0  0  0  0
  -27.6320  -14.2581   19.4591 H   0  0  0  0  0  0
  -28.6841  -12.2112   21.4730 H   0  0  0  0  0  0
  -28.4907  -13.9350   21.7160 H   0  0  0  0  0  0
  -25.2777   -9.5716   22.4782 H   0  0  0  0  0  0
  -24.0023   -7.4663   22.7472 H   0  0  0  0  0  0
  -21.0870   -8.8813   19.8960 H   0  0  0  0  0  0
  -22.3718  -10.9717   19.6197 H   0  0  0  0  0  0
  -21.2000   -7.6158   23.9715 H   0  0  0  0  0  0
  -21.1469   -6.0527   25.9071 H   0  0  0  0  0  0
  -22.0602   -2.7622   23.2836 H   0  0  0  0  0  0
  -22.4035  -11.9927   22.4871 H   0  0  0  0  0  0
  -21.1063  -13.1277   22.2596 H   0  0  0  0  0  0
  -24.6540  -15.8542   20.5007 H   0  0  0  0  0  0
  -26.2684  -15.6291   20.0684 H   0  0  0  0  0  0
  -26.7184  -32.5472   23.1253 H   0  0  0  0  0  0
  -25.0012  -33.9758   25.0489 H   0  0  0  0  0  0
  -22.7147  -31.3221   21.4282 H   0  0  0  0  0  0
  -23.3740  -35.9626   23.3364 H   0  0  0  0  0  0
  -24.3589  -36.8855   22.2071 H   0  0  0  0  0  0
  -23.7139  -37.6517   23.6621 H   0  0  0  0  0  0
  -26.0924  -31.6014   20.6108 H   0  0  0  0  0  0
  -26.8469  -30.8588   21.9712 H   0  0  0  0  0  0
  -28.1490  -29.1181   21.0085 H   0  0  0  0  0  0
  -25.9489  -25.9083   19.1678 H   0  0  0  0  0  0
  -23.9278  -27.2993   19.0848 H   0  0  0  0  0  0
  -23.7315  -30.6335   19.4363 H   0  0  0  0  0  0
  -22.7408  -29.2701   19.8548 H   0  0  0  0  0  0
  -25.1229  -36.2057   25.0824 H   0  0  0  0  0  0
  -20.9911  -28.3189   24.1451 H   0  0  0  0  0  0
  -20.5644  -26.2287   23.3598 H   0  0  0  0  0  0
  -21.6623  -26.7463   22.1208 H   0  0  0  0  0  0
  -19.6895  -25.6320   21.1224 H   0  0  0  0  0  0
  -19.6653  -27.3222   20.6723 H   0  0  0  0  0  0
  -17.4180  -26.6687   21.4066 H   0  0  0  0  0  0
  -18.0362  -26.0082   22.9047 H   0  0  0  0  0  0
  -19.7916  -30.7273   24.2301 H   0  0  0  0  0  0
  -17.4996  -31.6266   24.5176 H   0  0  0  0  0  0
  -15.5352  -30.2984   23.7615 H   0  0  0  0  0  0
  -15.8691  -28.0833   22.7017 H   0  0  0  0  0  0
  -24.5913  -30.6993   25.7935 H   0  0  0  0  0  0
  -24.8975  -32.2770   26.5193 H   0  0  0  0  0  0
  -25.8166  -30.8770   27.0238 H   0  0  0  0  0  0
  -26.2748  -29.6877   24.1219 H   0  0  0  0  0  0
  -27.4124  -29.7250   25.4479 H   0  0  0  0  0  0
  -27.8587  -30.4502   23.9211 H   0  0  0  0  0  0
  -27.2677  -33.3629   26.2160 H   0  0  0  0  0  0
  -28.3775  -32.6946   25.0266 H   0  0  0  0  0  0
  -28.0823  -31.8471   26.5330 H   0  0  0  0  0  0
  -28.2607  -38.0083   24.7522 H   0  0  0  0  0  0
  -28.1016  -36.2598   24.6309 H   0  0  0  0  0  0
  -27.2325  -37.1488   25.8901 H   0  0  0  0  0  0
  -20.9439  -29.8827   21.6979 H   0  0  0  0  0  0
  -26.0207  -38.2887   24.1393 H   0  0  0  0  0  0
  -27.8711  -17.8563   20.4659 H   0  0  0  0  0  0
  -27.1763  -20.1774   19.6889 H   0  0  0  0  0  0
  -27.0683  -25.7243   16.9536 H   0  0  0  0  0  0
  -25.9390  -24.2908   17.2560 H   0  0  0  0  0  0
  -30.8483  -25.8161   17.9489 H   0  0  0  0  0  0
  -31.2466  -23.7700   16.9449 H   0  0  0  0  0  0
  -29.9605  -23.8764   15.7613 H   0  0  0  0  0  0
  -27.0000  -22.1090   17.4202 H   0  0  0  0  0  0
  -27.3407  -22.4204   19.1062 H   0  0  0  0  0  0
  -30.8536  -21.5402   16.9921 H   0  0  0  0  0  0
  -29.4566  -21.7330   15.9676 H   0  0  0  0  0  0
  -28.8749  -27.5738   18.2013 H   0  0  0  0  0  0
  -30.0883  -27.2875   19.4375 H   0  0  0  0  0  0
  -29.0679  -15.7070   20.1816 H   0  0  0  0  0  0
  1 25  1  0  0  0
  1 30  2  0  0  0
  1 85  1  0  0  0
  2  3  1  0  0  0
  2 25  1  0  0  0
  2 88  1  0  0  0
  2 89  1  0  0  0
  3  4  1  0  0  0
  3 90  1  0  0  0
  3 91  1  0  0  0
  4  5  1  0  0  0
  4 92  1  0  0  0
  4 93  1  0  0  0
  5  6  1  0  0  0
  5 26  1  0  0  0
  5 94  1  0  0  0
  6 25  1  0  0  0
  6 95  1  0  0  0
  6 96  1  0  0  0
  7  8  2  0  0  0
  7 26  1  0  0  0
  7 29  1  0  0  0
  8  9  1  0  0  0
  8 22  1  0  0  0
  9 10  1  0  0  0
  9 27  2  0  0  0
 10 11  2  0  0  0
 10 15  1  0  0  0
 11 12  1  0  0  0
 11 97  1  0  0  0
 12 13  2  0  0  0
 12 98  1  0  0  0
 13 14  1  0  0  0
 13 31  1  0  0  0
 14 15  2  0  0  0
 14 99  1  0  0  0
 15100  1  0  0  0
 16 17  2  0  0  0
 16 21  1  0  0  0
 16 31  1  0  0  0
 17 18  1  0  0  0
 17101  1  0  0  0
 18 19  2  0  0  0
 18102  1  0  0  0
 19 20  1  0  0  0
 19 24  1  0  0  0
 20 21  2  0  0  0
 20103  1  0  0  0
 21 23  1  0  0  0
 22 28  1  0  0  0
 22 32  2  0  0  0
 26 27  1  0  0  0
 28104  1  0  0  0
 28105  1  0  0  0
 29106  1  0  0  0
 29107  1  0  0  0
 33 34  1  0  0  0
 33 66  1  0  0  0
 33 70  2  0  0  0
 34 36  1  0  0  0
 34 59  1  0  0  0
 34108  1  0  0  0
 35 44  2  0  0  0
 35 45  1  0  0  0
 35 68  1  0  0  0
 36 56  1  0  0  0
 36109  1  0  0  0
 37 39  1  0  0  0
 37 47  1  0  0  0
 37 66  1  0  0  0
 37110  1  0  0  0
 38 43  2  0  0  0
 38 46  1  0  0  0
 38 47  1  0  0  0
 39 64  1  0  0  0
 39 67  2  0  0  0
 40 52  1  0  0  0
 40 53  2  0  0  0
 40 58  1  0  0  0
 41111  1  0  0  0
 41112  1  0  0  0
 41113  1  0  0  0
 41 48  1  0  0  0
 42 43  1  0  0  0
 42 66  1  0  0  0
 42114  1  0  0  0
 42115  1  0  0  0
 43 44  1  0  0  0
 44116  1  0  0  0
 45 46  2  0  0  0
 45117  1  0  0  0
 46118  1  0  0  0
 47119  1  0  0  0
 47120  1  0  0  0
 48 56  1  0  0  0
 48 65  1  0  0  0
 48121  1  0  0  0
 49 50  1  0  0  0
 49 53  1  0  0  0
 49 64  1  0  0  0
 49122  1  0  0  0
 50 51  1  0  0  0
 50123  1  0  0  0
 50124  1  0  0  0
 51 52  1  0  0  0
 51125  1  0  0  0
 51126  1  0  0  0
 52127  1  0  0  0
 52128  1  0  0  0
 53 54  1  0  0  0
 54 55  2  0  0  0
 54129  1  0  0  0
 55 57  1  0  0  0
 55130  1  0  0  0
 56 69  2  0  0  0
 57 58  2  0  0  0
 57131  1  0  0  0
 58132  1  0  0  0
 59 60  1  0  0  0
 59 61  1  0  0  0
 59 62  1  0  0  0
 60133  1  0  0  0
 60134  1  0  0  0
 60135  1  0  0  0
 61136  1  0  0  0
 61137  1  0  0  0
 61138  1  0  0  0
 62139  1  0  0  0
 62140  1  0  0  0
 62141  1  0  0  0
 63 65  1  0  0  0
 63142  1  0  0  0
 63143  1  0  0  0
 63144  1  0  0  0
 64145  1  0  0  0
 65146  1  0  0  0
 68 83  1  0  0  0
 71 72  1  0  0  0
 71 73  2  0  0  0
 71147  1  0  0  0
 72 74  2  0  0  0
 72148  1  0  0  0
 73 79  1  0  0  0
 73 87  1  0  0  0
 74 84  1  0  0  0
 74 87  1  0  0  0
 75 76  1  0  0  0
 75 77  2  0  0  0
 75 81  1  0  0  0
 76 78  2  0  0  0
 76 80  1  0  0  0
 77149  1  0  0  0
 77150  1  0  0  0
 78 83  1  0  0  0
 78151  1  0  0  0
 79 85  1  0  0  0
 79 86  2  0  0  0
 80 82  1  0  0  0
 80152  1  0  0  0
 80153  1  0  0  0
 81 84  1  0  0  0
 81154  1  0  0  0
 81155  1  0  0  0
 82 84  1  0  0  0
 82156  1  0  0  0
 82157  1  0  0  0
 83158  1  0  0  0
 83159  1  0  0  0
 85160  1  0  0  0
M  ISO  4   1 100  68 101  83 101  85 100
M  END
> <chiral flag>
0

> <version>
0

> <s_m_source_file>
/data/baiqing/PycharmProjects/Reinvent-master-3.2/result/LINK_invent/BTK/process_docking_weight1_custom_product_contain_oxygen_bond_distance_aromatic_linkinvent_7_9_3/rearranged_h_0078.sdf

> <i_m_source_file_index>
26

> <r_mmod_Potential_Energy-OPLS-2005>
16.5992393493652

> <r_mmod_Stretch_Energy-OPLS-2005>
45.2029266357422

> <r_mmod_Bend_Energy-OPLS-2005>
154.240753173828

> <r_mmod_Torsional_Energy-OPLS-2005>
302.649993896484

> <r_mmod_Improper_Torsional_Energy-OPLS-2005>
11.1026544570923

> <r_mmod_Van_der_Waal_Energy-OPLS-2005>
151.786819458008

> <r_mmod_Electrostatic_Energy-OPLS-2005>
-447.248168945312

> <r_mmod_Solvation_Energy-OPLS-2005>
-253.940704345703

> <b_mmod_Minimization_Converged-OPLS-2005>
0

> <r_mmod_RMS_Derivative-OPLS-2005>
12.4826049804688

$$$$
27
                    3D
 Structure written by MMmdl.
163172  0  0  1  0            999 V2000
  -30.6859  -14.4491   20.4857 C   0  0  0  0  0  0
  -30.4246  -12.2710   19.4180 C   0  0  0  0  0  0
  -29.4936  -12.4872   18.2037 C   0  0  0  0  0  0
  -28.0129  -12.3578   18.6157 C   0  0  0  0  0  0
  -27.6620  -13.1862   19.8805 C   0  0  2  0  0  0
  -28.7121  -12.9760   20.9998 C   0  0  0  0  0  0
  -25.2620  -13.8108   20.5708 C   0  0  0  0  0  0
  -24.1844  -13.0418   20.9192 C   0  0  0  0  0  0
  -24.6375  -11.6886   20.8760 C   0  0  0  0  0  0
  -23.9036  -10.4289   21.0422 C   0  0  0  0  0  0
  -24.3610   -9.4208   21.9196 C   0  0  0  0  0  0
  -23.6304   -8.2236   22.0744 C   0  0  0  0  0  0
  -22.4277   -8.0275   21.3530 C   0  0  0  0  0  0
  -21.9909   -9.0244   20.4630 C   0  0  0  0  0  0
  -22.7230  -10.2130   20.3054 C   0  0  0  0  0  0
  -21.6842   -6.0736   22.5286 C   0  0  0  0  0  0
  -21.3990   -6.5643   23.8211 C   0  0  0  0  0  0
  -21.3661   -5.6790   24.9186 C   0  0  0  0  0  0
  -21.6054   -4.3061   24.7244 C   0  0  0  0  0  0
  -21.8824   -3.8142   23.4363 C   0  0  0  0  0  0
  -21.9193   -4.6952   22.3421 C   0  0  0  0  0  0
  -22.7871  -13.5231   21.1861 C   0  0  0  0  0  0
  -22.1660   -4.2138   21.1000 F   0  0  0  0  0  0
  -21.5650   -3.4544   25.7753 F   0  0  0  0  0  0
  -30.0444  -13.2555   20.4402 N   0  0  0  0  0  0
  -26.3030  -12.9226   20.3415 N   0  0  0  0  0  0
  -25.9296  -11.6419   20.5797 N   0  0  0  0  0  0
  -22.0490  -12.8223   22.0395 N   0  0  0  0  0  0
  -25.4377  -15.1827   20.4141 N   0  0  0  0  0  0
  -31.8553  -14.6088   20.1276 O   0  0  0  0  0  0
  -21.6635   -6.8880   21.4241 O   0  0  0  0  0  0
  -22.3588  -14.5550   20.6721 O   0  0  0  0  0  0
  -24.6093  -31.8737   23.2138 C   0  0  0  0  0  0
  -25.9005  -32.4856   23.8426 C   0  0  1  0  0  0
  -27.2336  -27.4791   20.0911 C   0  0  0  0  0  0
  -25.5880  -33.8657   24.2347 N   0  0  0  0  0  0
  -23.3933  -30.4977   21.5534 C   0  0  2  0  0  0
  -24.8379  -28.9660   20.1151 C   0  0  0  0  0  0
  -22.7375  -29.4689   22.5028 C   0  0  0  0  0  0
  -18.0250  -28.1375   22.8508 C   0  0  0  0  0  0
  -24.1471  -36.7332   23.2638 C   0  0  0  0  0  0
  -25.9158  -30.8503   21.3603 C   0  0  0  0  0  0
  -25.9908  -29.4843   20.7162 C   0  0  0  0  0  0
  -27.1850  -28.7401   20.7152 C   0  0  0  0  0  0
  -26.0636  -26.9581   19.4901 C   0  0  0  0  0  0
  -24.8660  -27.6990   19.5039 C   0  0  0  0  0  0
  -23.5980  -29.8287   20.1662 C   0  0  0  0  0  0
  -25.4099  -36.3145   24.0347 C   0  0  1  0  0  0
  -20.5842  -28.3647   23.1348 C   0  0  2  0  0  0
  -20.6738  -26.9394   22.5434 C   0  0  0  0  0  0
  -19.5723  -26.6382   21.5225 C   0  0  0  0  0  0
  -18.1899  -26.7925   22.1627 C   0  0  0  0  0  0
  -19.1500  -28.8830   23.2926 C   0  0  0  0  0  0
  -18.9431  -30.1432   23.8934 C   0  0  0  0  0  0
  -17.6436  -30.6586   24.0563 C   0  0  0  0  0  0
  -25.9034  -34.9504   23.5145 C   0  0  0  0  0  0
  -16.5325  -29.9094   23.6323 C   0  0  0  0  0  0
  -16.7240  -28.6502   23.0354 C   0  0  0  0  0  0
  -26.4439  -31.6623   25.0747 C   0  0  0  0  0  0
  -25.3702  -31.3733   26.1494 C   0  0  0  0  0  0
  -27.0232  -30.3058   24.6097 C   0  0  0  0  0  0
  -27.6038  -32.4325   25.7504 C   0  0  0  0  0  0
  -27.5580  -37.1822   24.8458 C   0  0  0  0  0  0
  -21.4114  -29.3023   22.3765 N   0  0  0  0  0  0
  -26.4286  -37.3828   23.9418 N   0  0  0  0  0  0
  -24.6576  -31.0873   22.1018 N   0  0  0  0  0  0
  -23.4180  -28.8240   23.3047 O   0  0  0  0  0  0
  -28.4391  -26.8252   20.1145 O   0  0  0  0  0  0
  -26.5607  -34.8947   22.4713 O   0  0  0  0  0  0
  -23.5298  -32.1478   23.7560 O   0  0  0  0  0  0
  -31.5666  -18.4626   19.9446 C   0  0  0  0  0  0
  -31.8546  -19.8246   20.1273 C   0  0  0  0  0  0
  -29.6155  -20.1757   20.9932 C   0  0  0  0  0  0
  -30.2739  -17.9661   20.1931 C   0  0  0  0  0  0
  -30.8450  -20.7283   20.5432 C   0  0  0  0  0  0
  -29.3271  -18.8096   20.8154 C   0  0  0  0  0  0
  -30.7614  -24.3124   19.7571 C   0  0  0  0  0  0
  -32.1741  -24.0822   19.7627 C   0  0  0  0  0  0
  -30.1144  -23.1021   20.2515 C   0  0  0  0  0  0
  -33.1389  -24.9820   19.5015 C   0  0  0  0  0  0
  -30.1447  -25.4227   19.2949 C   0  0  0  0  0  0
  -32.4208  -22.6575   20.1180 C   0  0  0  0  0  0
  -28.6261  -16.6669   18.7588 C   0  0  0  0  0  0
  -28.6658  -25.7489   19.2277 C   0  0  0  0  0  0
  -29.9070  -16.6062   19.6143 C   0  0  2  0  0  0
  -31.0758  -22.1464   20.4203 N   0  0  0  0  0  0
  -29.8493  -15.4961   20.5711 N   0  0  0  0  0  0
  -28.9105  -22.9597   20.4849 O   0  0  0  0  0  0
  -28.1076  -18.3406   21.1722 F   0  0  0  0  0  0
  -31.4692  -12.3636   19.1127 H   0  0  0  0  0  0
  -30.3186  -11.2587   19.8119 H   0  0  0  0  0  0
  -29.7230  -11.7657   17.4188 H   0  0  0  0  0  0
  -29.6698  -13.4726   17.7675 H   0  0  0  0  0  0
  -27.8099  -11.3014   18.7956 H   0  0  0  0  0  0
  -27.3650  -12.6510   17.7877 H   0  0  0  0  0  0
  -27.6891  -14.2278   19.5827 H   0  0  0  0  0  0
  -28.6822  -11.9481   21.3641 H   0  0  0  0  0  0
  -28.4986  -13.6071   21.8637 H   0  0  0  0  0  0
  -25.2753   -9.5711   22.4770 H   0  0  0  0  0  0
  -24.0016   -7.4635   22.7471 H   0  0  0  0  0  0
  -21.0828   -8.8785   19.8949 H   0  0  0  0  0  0
  -22.3693  -10.9678   19.6170 H   0  0  0  0  0  0
  -21.1939   -7.6145   23.9717 H   0  0  0  0  0  0
  -21.1475   -6.0519   25.9085 H   0  0  0  0  0  0
  -22.0589   -2.7598   23.2863 H   0  0  0  0  0  0
  -22.4053  -11.9862   22.4787 H   0  0  0  0  0  0
  -21.1107  -13.1261   22.2581 H   0  0  0  0  0  0
  -24.6797  -15.8439   20.5378 H   0  0  0  0  0  0
  -26.3001  -15.6208   20.1209 H   0  0  0  0  0  0
  -26.7102  -32.5580   23.1221 H   0  0  0  0  0  0
  -24.9974  -33.9830   25.0455 H   0  0  0  0  0  0
  -22.6797  -31.3126   21.4166 H   0  0  0  0  0  0
  -23.3756  -35.9641   23.3291 H   0  0  0  0  0  0
  -24.3559  -36.8964   22.2055 H   0  0  0  0  0  0
  -23.7183  -37.6521   23.6654 H   0  0  0  0  0  0
  -26.0168  -31.6128   20.5865 H   0  0  0  0  0  0
  -26.8092  -30.9113   21.9702 H   0  0  0  0  0  0
  -28.0756  -29.1347   21.1858 H   0  0  0  0  0  0
  -26.0591  -25.9886   19.0146 H   0  0  0  0  0  0
  -23.9777  -27.2932   19.0391 H   0  0  0  0  0  0
  -23.7003  -30.6022   19.4040 H   0  0  0  0  0  0
  -22.7238  -29.2439   19.8748 H   0  0  0  0  0  0
  -25.1275  -36.2018   25.0839 H   0  0  0  0  0  0
  -20.9938  -28.3185   24.1466 H   0  0  0  0  0  0
  -20.5645  -26.2255   23.3610 H   0  0  0  0  0  0
  -21.6606  -26.7448   22.1207 H   0  0  0  0  0  0
  -19.6873  -25.6295   21.1237 H   0  0  0  0  0  0
  -19.6667  -27.3207   20.6777 H   0  0  0  0  0  0
  -17.4182  -26.6711   21.4003 H   0  0  0  0  0  0
  -18.0268  -26.0050   22.8995 H   0  0  0  0  0  0
  -19.7914  -30.7225   24.2331 H   0  0  0  0  0  0
  -17.5003  -31.6286   24.5134 H   0  0  0  0  0  0
  -15.5327  -30.3009   23.7632 H   0  0  0  0  0  0
  -15.8636  -28.0838   22.7055 H   0  0  0  0  0  0
  -24.5843  -30.7131   25.7803 H   0  0  0  0  0  0
  -24.8924  -32.2894   26.4978 H   0  0  0  0  0  0
  -25.8035  -30.8848   27.0232 H   0  0  0  0  0  0
  -26.2760  -29.6880   24.1107 H   0  0  0  0  0  0
  -27.3930  -29.7238   25.4550 H   0  0  0  0  0  0
  -27.8632  -30.4350   23.9270 H   0  0  0  0  0  0
  -27.2689  -33.3644   26.2070 H   0  0  0  0  0  0
  -28.3854  -32.6859   25.0330 H   0  0  0  0  0  0
  -28.0695  -31.8448   26.5426 H   0  0  0  0  0  0
  -28.2599  -38.0123   24.7535 H   0  0  0  0  0  0
  -28.1071  -36.2657   24.6241 H   0  0  0  0  0  0
  -27.2313  -37.1421   25.8865 H   0  0  0  0  0  0
  -20.9249  -29.8758   21.7025 H   0  0  0  0  0  0
  -26.0185  -38.2917   24.1422 H   0  0  0  0  0  0
  -32.3243  -17.8236   19.5134 H   0  0  0  0  0  0
  -32.8433  -20.1504   19.8422 H   0  0  0  0  0  0
  -28.8321  -20.7881   21.4134 H   0  0  0  0  0  0
  -32.9181  -26.0103   19.2571 H   0  0  0  0  0  0
  -34.1817  -24.6996   19.5329 H   0  0  0  0  0  0
  -30.7596  -26.2295   18.9250 H   0  0  0  0  0  0
  -33.0890  -22.5647   20.9741 H   0  0  0  0  0  0
  -32.8571  -22.1741   19.2437 H   0  0  0  0  0  0
  -28.6847  -17.4778   18.0292 H   0  0  0  0  0  0
  -27.7304  -16.8278   19.3563 H   0  0  0  0  0  0
  -28.4844  -15.7488   18.1888 H   0  0  0  0  0  0
  -28.0211  -24.9098   19.4723 H   0  0  0  0  0  0
  -28.4307  -26.0495   18.2061 H   0  0  0  0  0  0
  -30.6843  -16.3941   18.8781 H   0  0  0  0  0  0
  -28.9375  -15.2897   20.9460 H   0  0  0  0  0  0
  1 25  1  0  0  0
  1 30  2  0  0  0
  1 87  1  0  0  0
  2  3  1  0  0  0
  2 25  1  0  0  0
  2 90  1  0  0  0
  2 91  1  0  0  0
  3  4  1  0  0  0
  3 92  1  0  0  0
  3 93  1  0  0  0
  4  5  1  0  0  0
  4 94  1  0  0  0
  4 95  1  0  0  0
  5  6  1  0  0  0
  5 26  1  0  0  0
  5 96  1  0  0  0
  6 25  1  0  0  0
  6 97  1  0  0  0
  6 98  1  0  0  0
  7  8  2  0  0  0
  7 26  1  0  0  0
  7 29  1  0  0  0
  8  9  1  0  0  0
  8 22  1  0  0  0
  9 10  1  0  0  0
  9 27  2  0  0  0
 10 11  2  0  0  0
 10 15  1  0  0  0
 11 12  1  0  0  0
 11 99  1  0  0  0
 12 13  2  0  0  0
 12100  1  0  0  0
 13 14  1  0  0  0
 13 31  1  0  0  0
 14 15  2  0  0  0
 14101  1  0  0  0
 15102  1  0  0  0
 16 17  2  0  0  0
 16 21  1  0  0  0
 16 31  1  0  0  0
 17 18  1  0  0  0
 17103  1  0  0  0
 18 19  2  0  0  0
 18104  1  0  0  0
 19 20  1  0  0  0
 19 24  1  0  0  0
 20 21  2  0  0  0
 20105  1  0  0  0
 21 23  1  0  0  0
 22 28  1  0  0  0
 22 32  2  0  0  0
 26 27  1  0  0  0
 28106  1  0  0  0
 28107  1  0  0  0
 29108  1  0  0  0
 29109  1  0  0  0
 33 34  1  0  0  0
 33 66  1  0  0  0
 33 70  2  0  0  0
 34 36  1  0  0  0
 34 59  1  0  0  0
 34110  1  0  0  0
 35 44  2  0  0  0
 35 45  1  0  0  0
 35 68  1  0  0  0
 36 56  1  0  0  0
 36111  1  0  0  0
 37 39  1  0  0  0
 37 47  1  0  0  0
 37 66  1  0  0  0
 37112  1  0  0  0
 38 43  2  0  0  0
 38 46  1  0  0  0
 38 47  1  0  0  0
 39 64  1  0  0  0
 39 67  2  0  0  0
 40 52  1  0  0  0
 40 53  2  0  0  0
 40 58  1  0  0  0
 41113  1  0  0  0
 41114  1  0  0  0
 41115  1  0  0  0
 41 48  1  0  0  0
 42 43  1  0  0  0
 42 66  1  0  0  0
 42116  1  0  0  0
 42117  1  0  0  0
 43 44  1  0  0  0
 44118  1  0  0  0
 45 46  2  0  0  0
 45119  1  0  0  0
 46120  1  0  0  0
 47121  1  0  0  0
 47122  1  0  0  0
 48 56  1  0  0  0
 48 65  1  0  0  0
 48123  1  0  0  0
 49 50  1  0  0  0
 49 53  1  0  0  0
 49 64  1  0  0  0
 49124  1  0  0  0
 50 51  1  0  0  0
 50125  1  0  0  0
 50126  1  0  0  0
 51 52  1  0  0  0
 51127  1  0  0  0
 51128  1  0  0  0
 52129  1  0  0  0
 52130  1  0  0  0
 53 54  1  0  0  0
 54 55  2  0  0  0
 54131  1  0  0  0
 55 57  1  0  0  0
 55132  1  0  0  0
 56 69  2  0  0  0
 57 58  2  0  0  0
 57133  1  0  0  0
 58134  1  0  0  0
 59 60  1  0  0  0
 59 61  1  0  0  0
 59 62  1  0  0  0
 60135  1  0  0  0
 60136  1  0  0  0
 60137  1  0  0  0
 61138  1  0  0  0
 61139  1  0  0  0
 61140  1  0  0  0
 62141  1  0  0  0
 62142  1  0  0  0
 62143  1  0  0  0
 63 65  1  0  0  0
 63144  1  0  0  0
 63145  1  0  0  0
 63146  1  0  0  0
 64147  1  0  0  0
 65148  1  0  0  0
 68 84  1  0  0  0
 71 72  2  0  0  0
 71 74  1  0  0  0
 71149  1  0  0  0
 72 75  1  0  0  0
 72150  1  0  0  0
 73 75  2  0  0  0
 73 76  1  0  0  0
 73151  1  0  0  0
 74 76  2  0  0  0
 74 85  1  0  0  0
 75 86  1  0  0  0
 76 89  1  0  0  0
 77 78  1  0  0  0
 77 79  1  0  0  0
 77 81  2  0  0  0
 78 80  2  0  0  0
 78 82  1  0  0  0
 79 86  1  0  0  0
 79 88  2  0  0  0
 80152  1  0  0  0
 80153  1  0  0  0
 81 84  1  0  0  0
 81154  1  0  0  0
 82 86  1  0  0  0
 82155  1  0  0  0
 82156  1  0  0  0
 83157  1  0  0  0
 83158  1  0  0  0
 83159  1  0  0  0
 83 85  1  0  0  0
 84160  1  0  0  0
 84161  1  0  0  0
 85 87  1  0  0  0
 85162  1  0  0  0
 87163  1  0  0  0
M  ISO  4   1 100  68 101  84 101  87 100
M  END
> <chiral flag>
0

> <version>
0

> <s_m_source_file>
/data/baiqing/PycharmProjects/Reinvent-master-3.2/result/LINK_invent/BTK/process_docking_weight1_custom_product_contain_oxygen_bond_distance_aromatic_linkinvent_7_9_3/rearranged_h_0078.sdf

> <i_m_source_file_index>
27

> <r_mmod_Potential_Energy-OPLS-2005>
123.399688720703

> <r_mmod_Stretch_Energy-OPLS-2005>
37.6156845092773

> <r_mmod_Bend_Energy-OPLS-2005>
159.047607421875

> <r_mmod_Torsional_Energy-OPLS-2005>
285.194854736328

> <r_mmod_Improper_Torsional_Energy-OPLS-2005>
14.768985748291

> <r_mmod_Van_der_Waal_Energy-OPLS-2005>
173.539459228516

> <r_mmod_Electrostatic_Energy-OPLS-2005>
-353.625305175781

> <r_mmod_Solvation_Energy-OPLS-2005>
-208.016616821289

> <b_mmod_Minimization_Converged-OPLS-2005>
0

> <r_mmod_RMS_Derivative-OPLS-2005>
2.48228907585144

$$$$
28
                    3D
 Structure written by MMmdl.
164173  0  0  1  0            999 V2000
  -30.6676  -14.4932   20.5716 C   0  0  0  0  0  0
  -30.4302  -12.3162   19.4267 C   0  0  0  0  0  0
  -29.5006  -12.5082   18.2090 C   0  0  0  0  0  0
  -28.0202  -12.3645   18.6156 C   0  0  0  0  0  0
  -27.6626  -13.2002   19.8728 C   0  0  2  0  0  0
  -28.6997  -12.9727   20.9955 C   0  0  0  0  0  0
  -25.2626  -13.8152   20.5621 C   0  0  0  0  0  0
  -24.1881  -13.0462   20.9229 C   0  0  0  0  0  0
  -24.6400  -11.6915   20.8758 C   0  0  0  0  0  0
  -23.9050  -10.4307   21.0420 C   0  0  0  0  0  0
  -24.3610   -9.4215   21.9188 C   0  0  0  0  0  0
  -23.6291   -8.2244   22.0750 C   0  0  0  0  0  0
  -22.4272   -8.0283   21.3543 C   0  0  0  0  0  0
  -21.9909   -9.0256   20.4645 C   0  0  0  0  0  0
  -22.7227  -10.2141   20.3064 C   0  0  0  0  0  0
  -21.6851   -6.0733   22.5272 C   0  0  0  0  0  0
  -21.4012   -6.5637   23.8204 C   0  0  0  0  0  0
  -21.3664   -5.6791   24.9168 C   0  0  0  0  0  0
  -21.6050   -4.3054   24.7217 C   0  0  0  0  0  0
  -21.8819   -3.8146   23.4337 C   0  0  0  0  0  0
  -21.9194   -4.6963   22.3396 C   0  0  0  0  0  0
  -22.7909  -13.5272   21.1880 C   0  0  0  0  0  0
  -22.1660   -4.2151   21.0971 F   0  0  0  0  0  0
  -21.5635   -3.4537   25.7728 F   0  0  0  0  0  0
  -30.0318  -13.2939   20.4526 N   0  0  0  0  0  0
  -26.3023  -12.9290   20.3296 N   0  0  0  0  0  0
  -25.9314  -11.6467   20.5745 N   0  0  0  0  0  0
  -22.0518  -12.8259   22.0407 N   0  0  0  0  0  0
  -25.4431  -15.1842   20.3835 N   0  0  0  0  0  0
  -31.7924  -14.6891   20.1023 O   0  0  0  0  0  0
  -21.6640   -6.8875   21.4235 O   0  0  0  0  0  0
  -22.3621  -14.5588   20.6724 O   0  0  0  0  0  0
  -24.6162  -31.8662   23.2067 C   0  0  0  0  0  0
  -25.9041  -32.4818   23.8375 C   0  0  1  0  0  0
  -27.2331  -27.4132   20.1134 C   0  0  0  0  0  0
  -25.5886  -33.8611   24.2315 N   0  0  0  0  0  0
  -23.4048  -30.4892   21.5469 C   0  0  2  0  0  0
  -24.8516  -28.9499   20.1143 C   0  0  0  0  0  0
  -22.7419  -29.4659   22.4970 C   0  0  0  0  0  0
  -18.0280  -28.1377   22.8506 C   0  0  0  0  0  0
  -24.1485  -36.7311   23.2646 C   0  0  0  0  0  0
  -25.9343  -30.8293   21.3594 C   0  0  0  0  0  0
  -26.0120  -29.4614   20.7078 C   0  0  0  0  0  0
  -27.2067  -28.7038   20.6953 C   0  0  0  0  0  0
  -26.0559  -26.9177   19.5118 C   0  0  0  0  0  0
  -24.8697  -27.6788   19.5105 C   0  0  0  0  0  0
  -23.6143  -29.8196   20.1621 C   0  0  0  0  0  0
  -25.4105  -36.3116   24.0344 C   0  0  1  0  0  0
  -20.5871  -28.3659   23.1323 C   0  0  2  0  0  0
  -20.6768  -26.9390   22.5427 C   0  0  0  0  0  0
  -19.5747  -26.6384   21.5222 C   0  0  0  0  0  0
  -18.1922  -26.7929   22.1619 C   0  0  0  0  0  0
  -19.1532  -28.8834   23.2918 C   0  0  0  0  0  0
  -18.9461  -30.1442   23.8922 C   0  0  0  0  0  0
  -17.6466  -30.6586   24.0564 C   0  0  0  0  0  0
  -25.9025  -34.9479   23.5133 C   0  0  0  0  0  0
  -16.5355  -29.9093   23.6321 C   0  0  0  0  0  0
  -16.7271  -28.6506   23.0350 C   0  0  0  0  0  0
  -26.4456  -31.6597   25.0706 C   0  0  0  0  0  0
  -25.3735  -31.3706   26.1466 C   0  0  0  0  0  0
  -27.0268  -30.3045   24.6057 C   0  0  0  0  0  0
  -27.6036  -32.4312   25.7475 C   0  0  0  0  0  0
  -27.5580  -37.1804   24.8469 C   0  0  0  0  0  0
  -21.4145  -29.3032   22.3722 N   0  0  0  0  0  0
  -26.4295  -37.3799   23.9417 N   0  0  0  0  0  0
  -24.6703  -31.0761   22.0965 N   0  0  0  0  0  0
  -23.4188  -28.8206   23.3017 O   0  0  0  0  0  0
  -28.4018  -26.6750   20.1325 O   0  0  0  0  0  0
  -26.5603  -34.8948   22.4706 O   0  0  0  0  0  0
  -23.5356  -32.1409   23.7462 O   0  0  0  0  0  0
  -31.2176  -19.0032   20.6546 C   0  0  0  0  0  0
  -31.1610  -17.5932   20.6295 C   0  0  0  0  0  0
  -28.9619  -19.0953   21.5321 C   0  0  0  0  0  0
  -30.1263  -19.7799   21.1111 C   0  0  0  0  0  0
  -30.0137  -16.9000   21.0858 C   0  0  0  0  0  0
  -28.9119  -17.6725   21.5458 C   0  0  0  0  0  0
  -30.0271  -23.4883   21.2795 C   0  0  0  0  0  0
  -31.2679  -23.1805   21.9419 C   0  0  0  0  0  0
  -29.4179  -22.2075   20.8989 C   0  0  0  0  0  0
  -32.0730  -24.0416   22.5914 C   0  0  0  0  0  0
  -29.5602  -24.7474   21.0531 C   0  0  0  0  0  0
  -27.1666  -17.1742   23.2087 C   0  0  0  0  0  0
  -31.5204  -21.7125   21.8507 C   0  0  0  0  0  0
  -25.9756  -16.2799   23.5269 C   0  0  0  0  0  0
  -28.3037  -25.2481   20.3453 C   0  0  0  0  0  0
  -30.2823  -21.2061   21.2542 N   0  0  0  0  0  0
  -27.7464  -17.0032   22.0119 N   0  0  0  0  0  0
  -29.9208  -15.4646   21.1447 N   0  0  0  0  0  0
  -28.3227  -22.0419   20.3500 O   0  0  0  0  0  0
  -27.5498  -17.9971   24.0433 O   0  0  0  0  0  0
  -31.4739  -12.4278   19.1272 H   0  0  0  0  0  0
  -30.3416  -11.3021   19.8196 H   0  0  0  0  0  0
  -29.7457  -11.7842   17.4307 H   0  0  0  0  0  0
  -29.6667  -13.4943   17.7721 H   0  0  0  0  0  0
  -27.8298  -11.3080   18.8075 H   0  0  0  0  0  0
  -27.3730  -12.6418   17.7826 H   0  0  0  0  0  0
  -27.7105  -14.2486   19.5783 H   0  0  0  0  0  0
  -28.6803  -11.9319   21.3222 H   0  0  0  0  0  0
  -28.4500  -13.5541   21.8840 H   0  0  0  0  0  0
  -25.2758   -9.5687   22.4751 H   0  0  0  0  0  0
  -24.0011   -7.4633   22.7462 H   0  0  0  0  0  0
  -21.0841   -8.8765   19.8945 H   0  0  0  0  0  0
  -22.3685  -10.9677   19.6169 H   0  0  0  0  0  0
  -21.1995   -7.6143   23.9705 H   0  0  0  0  0  0
  -21.1492   -6.0522   25.9070 H   0  0  0  0  0  0
  -22.0598   -2.7607   23.2831 H   0  0  0  0  0  0
  -22.4101  -11.9910   22.4804 H   0  0  0  0  0  0
  -21.1132  -13.1292   22.2575 H   0  0  0  0  0  0
  -24.6044  -15.7546   20.3680 H   0  0  0  0  0  0
  -26.1066  -15.4836   19.6801 H   0  0  0  0  0  0
  -26.7111  -32.5513   23.1131 H   0  0  0  0  0  0
  -25.0030  -33.9775   25.0453 H   0  0  0  0  0  0
  -22.6949  -31.3073   21.4061 H   0  0  0  0  0  0
  -23.3754  -35.9630   23.3315 H   0  0  0  0  0  0
  -24.3586  -36.8909   22.2054 H   0  0  0  0  0  0
  -23.7225  -37.6516   23.6643 H   0  0  0  0  0  0
  -26.0460  -31.5939   20.5894 H   0  0  0  0  0  0
  -26.8228  -30.8843   21.9768 H   0  0  0  0  0  0
  -28.1041  -29.0964   21.1519 H   0  0  0  0  0  0
  -26.0486  -25.9454   19.0407 H   0  0  0  0  0  0
  -23.9772  -27.2808   19.0474 H   0  0  0  0  0  0
  -23.7251  -30.5936   19.4020 H   0  0  0  0  0  0
  -22.7371  -29.2431   19.8638 H   0  0  0  0  0  0
  -25.1280  -36.1976   25.0837 H   0  0  0  0  0  0
  -20.9962  -28.3218   24.1444 H   0  0  0  0  0  0
  -20.5652  -26.2266   23.3612 H   0  0  0  0  0  0
  -21.6638  -26.7422   22.1221 H   0  0  0  0  0  0
  -19.6903  -25.6301   21.1233 H   0  0  0  0  0  0
  -19.6693  -27.3209   20.6771 H   0  0  0  0  0  0
  -17.4194  -26.6700   21.4018 H   0  0  0  0  0  0
  -18.0305  -26.0070   22.9008 H   0  0  0  0  0  0
  -19.7945  -30.7252   24.2291 H   0  0  0  0  0  0
  -17.5029  -31.6270   24.5165 H   0  0  0  0  0  0
  -15.5355  -30.3004   23.7643 H   0  0  0  0  0  0
  -15.8668  -28.0835   22.7044 H   0  0  0  0  0  0
  -24.5920  -30.7025   25.7825 H   0  0  0  0  0  0
  -24.8910  -32.2863   26.4904 H   0  0  0  0  0  0
  -25.8115  -30.8904   27.0227 H   0  0  0  0  0  0
  -26.2788  -29.6835   24.1114 H   0  0  0  0  0  0
  -27.4060  -29.7248   25.4477 H   0  0  0  0  0  0
  -27.8615  -30.4381   23.9172 H   0  0  0  0  0  0
  -27.2650  -33.3614   26.2056 H   0  0  0  0  0  0
  -28.3846  -32.6860   25.0299 H   0  0  0  0  0  0
  -28.0689  -31.8426   26.5392 H   0  0  0  0  0  0
  -28.2600  -38.0098   24.7519 H   0  0  0  0  0  0
  -28.1074  -36.2633   24.6283 H   0  0  0  0  0  0
  -27.2312  -37.1440   25.8877 H   0  0  0  0  0  0
  -20.9296  -29.8774   21.6966 H   0  0  0  0  0  0
  -26.0188  -38.2876   24.1427 H   0  0  0  0  0  0
  -32.1294  -19.4810   20.3254 H   0  0  0  0  0  0
  -32.0354  -17.0667   20.2792 H   0  0  0  0  0  0
  -28.1180  -19.6625   21.8992 H   0  0  0  0  0  0
  -31.8602  -25.0978   22.6651 H   0  0  0  0  0  0
  -32.9731  -23.6922   23.0780 H   0  0  0  0  0  0
  -30.1583  -25.5652   21.4215 H   0  0  0  0  0  0
  -31.6862  -21.2776   22.8376 H   0  0  0  0  0  0
  -32.3875  -21.5234   21.2180 H   0  0  0  0  0  0
  -26.1731  -15.2503   23.2271 H   0  0  0  0  0  0
  -25.0873  -16.6291   23.0007 H   0  0  0  0  0  0
  -25.7629  -16.2824   24.5962 H   0  0  0  0  0  0
  -27.4446  -25.0040   20.9723 H   0  0  0  0  0  0
  -28.1831  -24.7326   19.3925 H   0  0  0  0  0  0
  -27.3600  -16.2712   21.4298 H   0  0  0  0  0  0
  -29.0709  -15.1146   21.5546 H   0  0  0  0  0  0
  1 25  1  0  0  0
  1 30  2  0  0  0
  1 88  1  0  0  0
  2  3  1  0  0  0
  2 25  1  0  0  0
  2 91  1  0  0  0
  2 92  1  0  0  0
  3  4  1  0  0  0
  3 93  1  0  0  0
  3 94  1  0  0  0
  4  5  1  0  0  0
  4 95  1  0  0  0
  4 96  1  0  0  0
  5  6  1  0  0  0
  5 26  1  0  0  0
  5 97  1  0  0  0
  6 25  1  0  0  0
  6 98  1  0  0  0
  6 99  1  0  0  0
  7  8  2  0  0  0
  7 26  1  0  0  0
  7 29  1  0  0  0
  8  9  1  0  0  0
  8 22  1  0  0  0
  9 10  1  0  0  0
  9 27  2  0  0  0
 10 11  2  0  0  0
 10 15  1  0  0  0
 11 12  1  0  0  0
 11100  1  0  0  0
 12 13  2  0  0  0
 12101  1  0  0  0
 13 14  1  0  0  0
 13 31  1  0  0  0
 14 15  2  0  0  0
 14102  1  0  0  0
 15103  1  0  0  0
 16 17  2  0  0  0
 16 21  1  0  0  0
 16 31  1  0  0  0
 17 18  1  0  0  0
 17104  1  0  0  0
 18 19  2  0  0  0
 18105  1  0  0  0
 19 20  1  0  0  0
 19 24  1  0  0  0
 20 21  2  0  0  0
 20106  1  0  0  0
 21 23  1  0  0  0
 22 28  1  0  0  0
 22 32  2  0  0  0
 26 27  1  0  0  0
 28107  1  0  0  0
 28108  1  0  0  0
 29109  1  0  0  0
 29110  1  0  0  0
 33 34  1  0  0  0
 33 66  1  0  0  0
 33 70  2  0  0  0
 34 36  1  0  0  0
 34 59  1  0  0  0
 34111  1  0  0  0
 35 44  2  0  0  0
 35 45  1  0  0  0
 35 68  1  0  0  0
 36 56  1  0  0  0
 36112  1  0  0  0
 37 39  1  0  0  0
 37 47  1  0  0  0
 37 66  1  0  0  0
 37113  1  0  0  0
 38 43  2  0  0  0
 38 46  1  0  0  0
 38 47  1  0  0  0
 39 64  1  0  0  0
 39 67  2  0  0  0
 40 52  1  0  0  0
 40 53  2  0  0  0
 40 58  1  0  0  0
 41114  1  0  0  0
 41115  1  0  0  0
 41116  1  0  0  0
 41 48  1  0  0  0
 42 43  1  0  0  0
 42 66  1  0  0  0
 42117  1  0  0  0
 42118  1  0  0  0
 43 44  1  0  0  0
 44119  1  0  0  0
 45 46  2  0  0  0
 45120  1  0  0  0
 46121  1  0  0  0
 47122  1  0  0  0
 47123  1  0  0  0
 48 56  1  0  0  0
 48 65  1  0  0  0
 48124  1  0  0  0
 49 50  1  0  0  0
 49 53  1  0  0  0
 49 64  1  0  0  0
 49125  1  0  0  0
 50 51  1  0  0  0
 50126  1  0  0  0
 50127  1  0  0  0
 51 52  1  0  0  0
 51128  1  0  0  0
 51129  1  0  0  0
 52130  1  0  0  0
 52131  1  0  0  0
 53 54  1  0  0  0
 54 55  2  0  0  0
 54132  1  0  0  0
 55 57  1  0  0  0
 55133  1  0  0  0
 56 69  2  0  0  0
 57 58  2  0  0  0
 57134  1  0  0  0
 58135  1  0  0  0
 59 60  1  0  0  0
 59 61  1  0  0  0
 59 62  1  0  0  0
 60136  1  0  0  0
 60137  1  0  0  0
 60138  1  0  0  0
 61139  1  0  0  0
 61140  1  0  0  0
 61141  1  0  0  0
 62142  1  0  0  0
 62143  1  0  0  0
 62144  1  0  0  0
 63 65  1  0  0  0
 63145  1  0  0  0
 63146  1  0  0  0
 63147  1  0  0  0
 64148  1  0  0  0
 65149  1  0  0  0
 68 85  1  0  0  0
 71 72  2  0  0  0
 71 74  1  0  0  0
 71150  1  0  0  0
 72 75  1  0  0  0
 72151  1  0  0  0
 73 74  2  0  0  0
 73 76  1  0  0  0
 73152  1  0  0  0
 74 86  1  0  0  0
 75 76  2  0  0  0
 75 88  1  0  0  0
 76 87  1  0  0  0
 77 78  1  0  0  0
 77 79  1  0  0  0
 77 81  2  0  0  0
 78 80  2  0  0  0
 78 83  1  0  0  0
 79 86  1  0  0  0
 79 89  2  0  0  0
 80153  1  0  0  0
 80154  1  0  0  0
 81 85  1  0  0  0
 81155  1  0  0  0
 82 84  1  0  0  0
 82 87  1  0  0  0
 82 90  2  0  0  0
 83 86  1  0  0  0
 83156  1  0  0  0
 83157  1  0  0  0
 84158  1  0  0  0
 84159  1  0  0  0
 84160  1  0  0  0
 85161  1  0  0  0
 85162  1  0  0  0
 87163  1  0  0  0
 88164  1  0  0  0
M  ISO  4   1 100  68 101  85 101  88 100
M  END
> <chiral flag>
0

> <version>
0

> <s_m_source_file>
/data/baiqing/PycharmProjects/Reinvent-master-3.2/result/LINK_invent/BTK/process_docking_weight1_custom_product_contain_oxygen_bond_distance_aromatic_linkinvent_7_9_3/rearranged_h_0078.sdf

> <i_m_source_file_index>
28

> <r_mmod_Potential_Energy-OPLS-2005>
-19.7886180877686

> <r_mmod_Stretch_Energy-OPLS-2005>
47.2485656738281

> <r_mmod_Bend_Energy-OPLS-2005>
161.890335083008

> <r_mmod_Torsional_Energy-OPLS-2005>
313.383270263672

> <r_mmod_Improper_Torsional_Energy-OPLS-2005>
7.66627550125122

> <r_mmod_Van_der_Waal_Energy-OPLS-2005>
147.825042724609

> <r_mmod_Electrostatic_Energy-OPLS-2005>
-478.601898193359

> <r_mmod_Solvation_Energy-OPLS-2005>
-234.455032348633

> <b_mmod_Minimization_Converged-OPLS-2005>
0

> <r_mmod_RMS_Derivative-OPLS-2005>
1.46469020843506

$$$$
29
                    3D
 Structure written by MMmdl.
163172  0  0  1  0            999 V2000
  -30.7523  -14.4958   20.6341 C   0  0  0  0  0  0
  -30.4142  -12.3473   19.4291 C   0  0  0  0  0  0
  -29.4914  -12.5262   18.2043 C   0  0  0  0  0  0
  -28.0148  -12.3762   18.6094 C   0  0  0  0  0  0
  -27.6537  -13.2181   19.8587 C   0  0  2  0  0  0
  -28.6911  -13.0403   20.9855 C   0  0  0  0  0  0
  -25.2547  -13.8168   20.5642 C   0  0  0  0  0  0
  -24.1818  -13.0428   20.9155 C   0  0  0  0  0  0
  -24.6402  -11.6912   20.8723 C   0  0  0  0  0  0
  -23.9071  -10.4307   21.0421 C   0  0  0  0  0  0
  -24.3628   -9.4219   21.9185 C   0  0  0  0  0  0
  -23.6308   -8.2247   22.0762 C   0  0  0  0  0  0
  -22.4288   -8.0293   21.3555 C   0  0  0  0  0  0
  -21.9919   -9.0267   20.4653 C   0  0  0  0  0  0
  -22.7250  -10.2142   20.3070 C   0  0  0  0  0  0
  -21.6855   -6.0746   22.5287 C   0  0  0  0  0  0
  -21.4021   -6.5648   23.8227 C   0  0  0  0  0  0
  -21.3660   -5.6791   24.9184 C   0  0  0  0  0  0
  -21.6042   -4.3054   24.7219 C   0  0  0  0  0  0
  -21.8816   -3.8154   23.4332 C   0  0  0  0  0  0
  -21.9199   -4.6978   22.3397 C   0  0  0  0  0  0
  -22.7855  -13.5239   21.1830 C   0  0  0  0  0  0
  -22.1649   -4.2173   21.0969 F   0  0  0  0  0  0
  -21.5649   -3.4514   25.7714 F   0  0  0  0  0  0
  -30.0306  -13.3442   20.4501 N   0  0  0  0  0  0
  -26.2983  -12.9352   20.3279 N   0  0  0  0  0  0
  -25.9327  -11.6502   20.5717 N   0  0  0  0  0  0
  -22.0478  -12.8268   22.0406 N   0  0  0  0  0  0
  -25.4259  -15.1910   20.4136 N   0  0  0  0  0  0
  -31.8201  -14.6900   20.0457 O   0  0  0  0  0  0
  -21.6653   -6.8888   21.4247 O   0  0  0  0  0  0
  -22.3537  -14.5523   20.6658 O   0  0  0  0  0  0
  -24.6168  -31.8657   23.2074 C   0  0  0  0  0  0
  -25.9060  -32.4806   23.8377 C   0  0  1  0  0  0
  -27.2314  -27.3966   20.1092 C   0  0  0  0  0  0
  -25.5916  -33.8607   24.2311 N   0  0  0  0  0  0
  -23.4058  -30.4893   21.5481 C   0  0  2  0  0  0
  -24.8533  -28.9500   20.1143 C   0  0  0  0  0  0
  -22.7416  -29.4657   22.4976 C   0  0  0  0  0  0
  -18.0274  -28.1376   22.8487 C   0  0  0  0  0  0
  -24.1493  -36.7306   23.2632 C   0  0  0  0  0  0
  -25.9381  -30.8212   21.3661 C   0  0  0  0  0  0
  -26.0149  -29.4533   20.7129 C   0  0  0  0  0  0
  -27.2062  -28.6857   20.7041 C   0  0  0  0  0  0
  -26.0520  -26.9249   19.4901 C   0  0  0  0  0  0
  -24.8690  -27.6890   19.4963 C   0  0  0  0  0  0
  -23.6167  -29.8209   20.1631 C   0  0  0  0  0  0
  -25.4114  -36.3098   24.0331 C   0  0  1  0  0  0
  -20.5861  -28.3669   23.1308 C   0  0  2  0  0  0
  -20.6771  -26.9410   22.5418 C   0  0  0  0  0  0
  -19.5752  -26.6388   21.5209 C   0  0  0  0  0  0
  -18.1923  -26.7922   22.1615 C   0  0  0  0  0  0
  -19.1523  -28.8842   23.2892 C   0  0  0  0  0  0
  -18.9451  -30.1444   23.8907 C   0  0  0  0  0  0
  -17.6458  -30.6585   24.0565 C   0  0  0  0  0  0
  -25.9048  -34.9462   23.5118 C   0  0  0  0  0  0
  -16.5349  -29.9091   23.6328 C   0  0  0  0  0  0
  -16.7264  -28.6508   23.0346 C   0  0  0  0  0  0
  -26.4483  -31.6586   25.0713 C   0  0  0  0  0  0
  -25.3743  -31.3711   26.1458 C   0  0  0  0  0  0
  -27.0307  -30.3017   24.6109 C   0  0  0  0  0  0
  -27.6063  -32.4306   25.7468 C   0  0  0  0  0  0
  -27.5587  -37.1802   24.8461 C   0  0  0  0  0  0
  -21.4145  -29.3032   22.3710 N   0  0  0  0  0  0
  -26.4296  -37.3792   23.9409 N   0  0  0  0  0  0
  -24.6716  -31.0741   22.0981 N   0  0  0  0  0  0
  -23.4177  -28.8199   23.3022 O   0  0  0  0  0  0
  -28.3974  -26.6451   20.1196 O   0  0  0  0  0  0
  -26.5606  -34.8917   22.4676 O   0  0  0  0  0  0
  -23.5364  -32.1430   23.7463 O   0  0  0  0  0  0
  -29.0626  -18.4873   19.5264 C   0  0  0  0  0  0
  -29.2470  -17.1575   19.9757 C   0  0  0  0  0  0
  -30.6050  -19.2705   21.2131 C   0  0  0  0  0  0
  -30.8268  -17.9362   21.6477 C   0  0  0  0  0  0
  -29.7356  -19.5675   20.1438 C   0  0  0  0  0  0
  -30.1272  -16.8413   21.0422 C   0  0  0  0  0  0
  -29.5026  -23.1432   19.1715 C   0  0  0  0  0  0
  -30.2605  -22.5665   18.0911 C   0  0  0  0  0  0
  -29.2083  -22.0491   20.1096 C   0  0  0  0  0  0
  -30.8999  -23.2375   17.1150 C   0  0  0  0  0  0
  -29.1193  -24.4523   19.2427 C   0  0  0  0  0  0
  -30.3115  -21.0800   18.2592 C   0  0  0  0  0  0
  -31.9022  -17.7438   22.7056 C   0  0  0  0  0  0
  -30.3502  -15.1631   22.9076 C   0  0  0  0  0  0
  -28.3130  -25.2043   20.3002 C   0  0  0  0  0  0
  -29.6977  -20.8868   19.5704 N   0  0  0  0  0  0
  -30.2550  -15.4528   21.4690 N   0  0  0  0  0  0
  -28.6112  -22.1366   21.1872 O   0  0  0  0  0  0
  -31.4554  -12.4434   19.1224 H   0  0  0  0  0  0
  -30.3204  -11.3391   19.8348 H   0  0  0  0  0  0
  -29.7355  -11.7962   17.4318 H   0  0  0  0  0  0
  -29.6570  -13.5094   17.7600 H   0  0  0  0  0  0
  -27.8291  -11.3200   18.8018 H   0  0  0  0  0  0
  -27.3659  -12.6499   17.7761 H   0  0  0  0  0  0
  -27.6832  -14.2620   19.5454 H   0  0  0  0  0  0
  -28.6773  -12.0208   21.3744 H   0  0  0  0  0  0
  -28.4005  -13.6851   21.8125 H   0  0  0  0  0  0
  -25.2775   -9.5698   22.4746 H   0  0  0  0  0  0
  -24.0019   -7.4643   22.7482 H   0  0  0  0  0  0
  -21.0850   -8.8800   19.8965 H   0  0  0  0  0  0
  -22.3720  -10.9681   19.6179 H   0  0  0  0  0  0
  -21.2015   -7.6161   23.9732 H   0  0  0  0  0  0
  -21.1475   -6.0520   25.9088 H   0  0  0  0  0  0
  -22.0598   -2.7610   23.2820 H   0  0  0  0  0  0
  -22.4062  -11.9922   22.4805 H   0  0  0  0  0  0
  -21.1101  -13.1336   22.2596 H   0  0  0  0  0  0
  -24.6654  -15.8473   20.5509 H   0  0  0  0  0  0
  -26.2906  -15.6415   20.1445 H   0  0  0  0  0  0
  -26.7127  -32.5511   23.1136 H   0  0  0  0  0  0
  -25.0079  -33.9770   25.0465 H   0  0  0  0  0  0
  -22.6945  -31.3064   21.4075 H   0  0  0  0  0  0
  -23.3754  -35.9642   23.3297 H   0  0  0  0  0  0
  -24.3592  -36.8921   22.2046 H   0  0  0  0  0  0
  -23.7248  -37.6511   23.6652 H   0  0  0  0  0  0
  -26.0570  -31.5881   20.5987 H   0  0  0  0  0  0
  -26.8225  -30.8708   21.9902 H   0  0  0  0  0  0
  -28.1018  -29.0707   21.1709 H   0  0  0  0  0  0
  -26.0357  -25.9695   18.9863 H   0  0  0  0  0  0
  -23.9791  -27.3032   19.0190 H   0  0  0  0  0  0
  -23.7271  -30.5949   19.4035 H   0  0  0  0  0  0
  -22.7396  -29.2440   19.8647 H   0  0  0  0  0  0
  -25.1290  -36.1953   25.0826 H   0  0  0  0  0  0
  -20.9951  -28.3246   24.1426 H   0  0  0  0  0  0
  -20.5669  -26.2281   23.3603 H   0  0  0  0  0  0
  -21.6640  -26.7452   22.1211 H   0  0  0  0  0  0
  -19.6921  -25.6299   21.1231 H   0  0  0  0  0  0
  -19.6694  -27.3206   20.6739 H   0  0  0  0  0  0
  -17.4199  -26.6665   21.4016 H   0  0  0  0  0  0
  -18.0333  -26.0057   22.9002 H   0  0  0  0  0  0
  -19.7930  -30.7247   24.2285 H   0  0  0  0  0  0
  -17.5016  -31.6259   24.5168 H   0  0  0  0  0  0
  -15.5351  -30.2999   23.7639 H   0  0  0  0  0  0
  -15.8656  -28.0830   22.7056 H   0  0  0  0  0  0
  -24.5922  -30.7051   25.7800 H   0  0  0  0  0  0
  -24.8937  -32.2872   26.4891 H   0  0  0  0  0  0
  -25.8092  -30.8893   27.0218 H   0  0  0  0  0  0
  -26.2851  -29.6774   24.1172 H   0  0  0  0  0  0
  -27.4059  -29.7261   25.4577 H   0  0  0  0  0  0
  -27.8697  -30.4312   23.9272 H   0  0  0  0  0  0
  -27.2684  -33.3588   26.2082 H   0  0  0  0  0  0
  -28.3848  -32.6886   25.0279 H   0  0  0  0  0  0
  -28.0755  -31.8408   26.5349 H   0  0  0  0  0  0
  -28.2600  -38.0104   24.7515 H   0  0  0  0  0  0
  -28.1085  -36.2635   24.6273 H   0  0  0  0  0  0
  -27.2306  -37.1424   25.8864 H   0  0  0  0  0  0
  -20.9309  -29.8746   21.6924 H   0  0  0  0  0  0
  -26.0178  -38.2869   24.1416 H   0  0  0  0  0  0
  -28.4099  -18.6698   18.6854 H   0  0  0  0  0  0
  -28.7054  -16.3691   19.4756 H   0  0  0  0  0  0
  -31.1667  -20.0774   21.6621 H   0  0  0  0  0  0
  -30.8754  -24.3136   17.0435 H   0  0  0  0  0  0
  -31.4807  -22.7158   16.3683 H   0  0  0  0  0  0
  -29.4034  -25.0971   18.4271 H   0  0  0  0  0  0
  -31.3406  -20.7157   18.2485 H   0  0  0  0  0  0
  -29.7376  -20.5774   17.4797 H   0  0  0  0  0  0
  -32.5603  -16.9209   22.4298 H   0  0  0  0  0  0
  -31.4639  -17.5514   23.6857 H   0  0  0  0  0  0
  -32.5332  -18.6296   22.7987 H   0  0  0  0  0  0
  -29.7929  -15.8964   23.4898 H   0  0  0  0  0  0
  -31.3877  -15.1675   23.2397 H   0  0  0  0  0  0
  -29.9566  -14.1860   23.1802 H   0  0  0  0  0  0
  -28.7277  -24.9650   21.2795 H   0  0  0  0  0  0
  -27.2944  -24.8176   20.3080 H   0  0  0  0  0  0
  1 25  1  0  0  0
  1 30  2  0  0  0
  1 87  1  0  0  0
  2  3  1  0  0  0
  2 25  1  0  0  0
  2 89  1  0  0  0
  2 90  1  0  0  0
  3  4  1  0  0  0
  3 91  1  0  0  0
  3 92  1  0  0  0
  4  5  1  0  0  0
  4 93  1  0  0  0
  4 94  1  0  0  0
  5  6  1  0  0  0
  5 26  1  0  0  0
  5 95  1  0  0  0
  6 25  1  0  0  0
  6 96  1  0  0  0
  6 97  1  0  0  0
  7  8  2  0  0  0
  7 26  1  0  0  0
  7 29  1  0  0  0
  8  9  1  0  0  0
  8 22  1  0  0  0
  9 10  1  0  0  0
  9 27  2  0  0  0
 10 11  2  0  0  0
 10 15  1  0  0  0
 11 12  1  0  0  0
 11 98  1  0  0  0
 12 13  2  0  0  0
 12 99  1  0  0  0
 13 14  1  0  0  0
 13 31  1  0  0  0
 14 15  2  0  0  0
 14100  1  0  0  0
 15101  1  0  0  0
 16 17  2  0  0  0
 16 21  1  0  0  0
 16 31  1  0  0  0
 17 18  1  0  0  0
 17102  1  0  0  0
 18 19  2  0  0  0
 18103  1  0  0  0
 19 20  1  0  0  0
 19 24  1  0  0  0
 20 21  2  0  0  0
 20104  1  0  0  0
 21 23  1  0  0  0
 22 28  1  0  0  0
 22 32  2  0  0  0
 26 27  1  0  0  0
 28105  1  0  0  0
 28106  1  0  0  0
 29107  1  0  0  0
 29108  1  0  0  0
 33 34  1  0  0  0
 33 66  1  0  0  0
 33 70  2  0  0  0
 34 36  1  0  0  0
 34 59  1  0  0  0
 34109  1  0  0  0
 35 44  2  0  0  0
 35 45  1  0  0  0
 35 68  1  0  0  0
 36 56  1  0  0  0
 36110  1  0  0  0
 37 39  1  0  0  0
 37 47  1  0  0  0
 37 66  1  0  0  0
 37111  1  0  0  0
 38 43  2  0  0  0
 38 46  1  0  0  0
 38 47  1  0  0  0
 39 64  1  0  0  0
 39 67  2  0  0  0
 40 52  1  0  0  0
 40 53  2  0  0  0
 40 58  1  0  0  0
 41112  1  0  0  0
 41113  1  0  0  0
 41114  1  0  0  0
 41 48  1  0  0  0
 42 43  1  0  0  0
 42 66  1  0  0  0
 42115  1  0  0  0
 42116  1  0  0  0
 43 44  1  0  0  0
 44117  1  0  0  0
 45 46  2  0  0  0
 45118  1  0  0  0
 46119  1  0  0  0
 47120  1  0  0  0
 47121  1  0  0  0
 48 56  1  0  0  0
 48 65  1  0  0  0
 48122  1  0  0  0
 49 50  1  0  0  0
 49 53  1  0  0  0
 49 64  1  0  0  0
 49123  1  0  0  0
 50 51  1  0  0  0
 50124  1  0  0  0
 50125  1  0  0  0
 51 52  1  0  0  0
 51126  1  0  0  0
 51127  1  0  0  0
 52128  1  0  0  0
 52129  1  0  0  0
 53 54  1  0  0  0
 54 55  2  0  0  0
 54130  1  0  0  0
 55 57  1  0  0  0
 55131  1  0  0  0
 56 69  2  0  0  0
 57 58  2  0  0  0
 57132  1  0  0  0
 58133  1  0  0  0
 59 60  1  0  0  0
 59 61  1  0  0  0
 59 62  1  0  0  0
 60134  1  0  0  0
 60135  1  0  0  0
 60136  1  0  0  0
 61137  1  0  0  0
 61138  1  0  0  0
 61139  1  0  0  0
 62140  1  0  0  0
 62141  1  0  0  0
 62142  1  0  0  0
 63 65  1  0  0  0
 63143  1  0  0  0
 63144  1  0  0  0
 63145  1  0  0  0
 64146  1  0  0  0
 65147  1  0  0  0
 68 85  1  0  0  0
 71 72  2  0  0  0
 71 75  1  0  0  0
 71148  1  0  0  0
 72 76  1  0  0  0
 72149  1  0  0  0
 73 74  1  0  0  0
 73 75  2  0  0  0
 73150  1  0  0  0
 74 76  2  0  0  0
 74 83  1  0  0  0
 75 86  1  0  0  0
 76 87  1  0  0  0
 77 78  1  0  0  0
 77 79  1  0  0  0
 77 81  2  0  0  0
 78 80  2  0  0  0
 78 82  1  0  0  0
 79 86  1  0  0  0
 79 88  2  0  0  0
 80151  1  0  0  0
 80152  1  0  0  0
 81 85  1  0  0  0
 81153  1  0  0  0
 82 86  1  0  0  0
 82154  1  0  0  0
 82155  1  0  0  0
 83156  1  0  0  0
 83157  1  0  0  0
 83158  1  0  0  0
 84 87  1  0  0  0
 84159  1  0  0  0
 84160  1  0  0  0
 84161  1  0  0  0
 85162  1  0  0  0
 85163  1  0  0  0
M  ISO  4   1 100  68 101  85 101  87 100
M  END
> <chiral flag>
0

> <version>
0

> <s_m_source_file>
/data/baiqing/PycharmProjects/Reinvent-master-3.2/result/LINK_invent/BTK/process_docking_weight1_custom_product_contain_oxygen_bond_distance_aromatic_linkinvent_7_9_3/rearranged_h_0078.sdf

> <i_m_source_file_index>
29

> <r_mmod_Potential_Energy-OPLS-2005>
297.230682373047

> <r_mmod_Stretch_Energy-OPLS-2005>
55.6334190368652

> <r_mmod_Bend_Energy-OPLS-2005>
169.992156982422

> <r_mmod_Torsional_Energy-OPLS-2005>
378.117431640625

> <r_mmod_Improper_Torsional_Energy-OPLS-2005>
4.13509607315063

> <r_mmod_Van_der_Waal_Energy-OPLS-2005>
150.154632568359

> <r_mmod_Electrostatic_Energy-OPLS-2005>
-278.443206787109

> <r_mmod_Solvation_Energy-OPLS-2005>
-199.196228027344

> <b_mmod_Minimization_Converged-OPLS-2005>
0

> <r_mmod_RMS_Derivative-OPLS-2005>
2.75012278556824

$$$$
30
                    3D
 Structure written by MMmdl.
153162  0  0  1  0            999 V2000
  -30.6136  -14.7159   20.5430 C   0  0  0  0  0  0
  -30.4455  -12.4551   19.4720 C   0  0  0  0  0  0
  -29.5172  -12.5404   18.2368 C   0  0  0  0  0  0
  -28.0382  -12.3591   18.6354 C   0  0  0  0  0  0
  -27.6529  -13.2198   19.8661 C   0  0  2  0  0  0
  -28.6918  -13.0525   20.9922 C   0  0  0  0  0  0
  -25.2552  -13.8168   20.5676 C   0  0  0  0  0  0
  -24.1820  -13.0429   20.9171 C   0  0  0  0  0  0
  -24.6394  -11.6901   20.8718 C   0  0  0  0  0  0
  -23.9064  -10.4287   21.0397 C   0  0  0  0  0  0
  -24.3616   -9.4206   21.9179 C   0  0  0  0  0  0
  -23.6291   -8.2243   22.0752 C   0  0  0  0  0  0
  -22.4273   -8.0280   21.3544 C   0  0  0  0  0  0
  -21.9906   -9.0251   20.4644 C   0  0  0  0  0  0
  -22.7235  -10.2129   20.3049 C   0  0  0  0  0  0
  -21.6852   -6.0734   22.5279 C   0  0  0  0  0  0
  -21.4014   -6.5637   23.8212 C   0  0  0  0  0  0
  -21.3659   -5.6790   24.9174 C   0  0  0  0  0  0
  -21.6045   -4.3053   24.7224 C   0  0  0  0  0  0
  -21.8819   -3.8146   23.4346 C   0  0  0  0  0  0
  -21.9192   -4.6962   22.3403 C   0  0  0  0  0  0
  -22.7845  -13.5222   21.1849 C   0  0  0  0  0  0
  -22.1662   -4.2149   21.0980 F   0  0  0  0  0  0
  -21.5628   -3.4537   25.7737 F   0  0  0  0  0  0
  -30.0029  -13.4720   20.4608 N   0  0  0  0  0  0
  -26.2980  -12.9353   20.3301 N   0  0  0  0  0  0
  -25.9320  -11.6501   20.5716 N   0  0  0  0  0  0
  -22.0492  -12.8214   22.0412 N   0  0  0  0  0  0
  -25.4263  -15.1892   20.4119 N   0  0  0  0  0  0
  -31.7229  -14.8875   20.0232 O   0  0  0  0  0  0
  -21.6638   -6.8878   21.4242 O   0  0  0  0  0  0
  -22.3526  -14.5531   20.6706 O   0  0  0  0  0  0
  -24.6310  -31.8559   23.1991 C   0  0  0  0  0  0
  -25.9138  -32.4758   23.8336 C   0  0  1  0  0  0
  -27.2299  -27.2819   20.1103 C   0  0  0  0  0  0
  -25.5938  -33.8559   24.2262 N   0  0  0  0  0  0
  -23.4277  -30.4785   21.5420 C   0  0  2  0  0  0
  -24.8767  -28.9303   20.1066 C   0  0  0  0  0  0
  -22.7504  -29.4601   22.4909 C   0  0  0  0  0  0
  -18.0292  -28.1389   22.8483 C   0  0  0  0  0  0
  -24.1490  -36.7279   23.2640 C   0  0  0  0  0  0
  -25.9732  -30.7736   21.3774 C   0  0  0  0  0  0
  -26.0482  -29.3988   20.7156 C   0  0  0  0  0  0
  -27.2258  -28.5844   20.7126 C   0  0  0  0  0  0
  -26.0277  -26.8715   19.4889 C   0  0  0  0  0  0
  -24.8702  -27.6730   19.4844 C   0  0  0  0  0  0
  -23.6457  -29.8142   20.1572 C   0  0  0  0  0  0
  -25.4117  -36.3070   24.0328 C   0  0  1  0  0  0
  -20.5897  -28.3699   23.1268 C   0  0  2  0  0  0
  -20.6779  -26.9416   22.5406 C   0  0  0  0  0  0
  -19.5754  -26.6386   21.5209 C   0  0  0  0  0  0
  -18.1935  -26.7931   22.1623 C   0  0  0  0  0  0
  -19.1546  -28.8861   23.2871 C   0  0  0  0  0  0
  -18.9466  -30.1461   23.8891 C   0  0  0  0  0  0
  -17.6465  -30.6589   24.0561 C   0  0  0  0  0  0
  -25.9057  -34.9440   23.5096 C   0  0  0  0  0  0
  -16.5357  -29.9085   23.6331 C   0  0  0  0  0  0
  -16.7278  -28.6503   23.0354 C   0  0  0  0  0  0
  -26.4508  -31.6581   25.0722 C   0  0  0  0  0  0
  -25.3732  -31.3725   26.1443 C   0  0  0  0  0  0
  -27.0356  -30.3000   24.6203 C   0  0  0  0  0  0
  -27.6062  -32.4323   25.7495 C   0  0  0  0  0  0
  -27.5578  -37.1795   24.8465 C   0  0  0  0  0  0
  -21.4211  -29.3044   22.3655 N   0  0  0  0  0  0
  -26.4290  -37.3770   23.9410 N   0  0  0  0  0  0
  -24.6962  -31.0533   22.0961 N   0  0  0  0  0  0
  -23.4206  -28.8142   23.3007 O   0  0  0  0  0  0
  -28.3049  -26.3669   20.1959 O   0  0  0  0  0  0
  -26.5624  -34.8916   22.4661 O   0  0  0  0  0  0
  -23.5461  -32.1373   23.7292 O   0  0  0  0  0  0
  -29.8460  -17.8390   19.4517 C   0  0  0  0  0  0
  -29.7209  -18.5057   21.7285 C   0  0  0  0  0  0
  -29.6503  -19.2096   19.0697 C   0  0  0  0  0  0
  -29.5245  -19.8776   21.3510 C   0  0  0  0  0  0
  -29.8713  -17.4143   20.8070 C   0  0  0  0  0  0
  -29.4596  -20.2942   19.9932 C   0  0  0  0  0  0
  -28.7443  -24.0054   19.1800 C   0  0  0  0  0  0
  -28.8442  -23.3658   17.8810 C   0  0  0  0  0  0
  -28.9821  -22.9136   20.1773 C   0  0  0  0  0  0
  -28.4612  -25.3734   19.2058 C   0  0  0  0  0  0
  -29.9032  -15.9291   21.3129 C   0  0  0  0  0  0
  -29.1519  -21.9013   18.0647 C   0  0  0  0  0  0
  -29.3746  -15.7187   22.4466 N   0  0  0  0  0  0
  -29.2076  -21.6961   19.5170 N   0  0  0  0  0  0
  -28.7090  -23.8864   16.7671 O   0  0  0  0  0  0
  -28.9806  -23.0479   21.4065 O   0  0  0  0  0  0
  -31.4840  -12.5958   19.1682 H   0  0  0  0  0  0
  -30.4082  -11.4564   19.9100 H   0  0  0  0  0  0
  -29.8004  -11.7888   17.4988 H   0  0  0  0  0  0
  -29.6476  -13.5089   17.7516 H   0  0  0  0  0  0
  -27.8819  -11.3035   18.8608 H   0  0  0  0  0  0
  -27.3862  -12.5894   17.7920 H   0  0  0  0  0  0
  -27.6764  -14.2610   19.5434 H   0  0  0  0  0  0
  -28.7338  -12.0090   21.3081 H   0  0  0  0  0  0
  -28.3763  -13.5845   21.8837 H   0  0  0  0  0  0
  -25.2762   -9.5683   22.4751 H   0  0  0  0  0  0
  -24.0000   -7.4634   22.7471 H   0  0  0  0  0  0
  -21.0838   -8.8767   19.8953 H   0  0  0  0  0  0
  -22.3693  -10.9665   19.6154 H   0  0  0  0  0  0
  -21.2007   -7.6144   23.9715 H   0  0  0  0  0  0
  -21.1482   -6.0520   25.9077 H   0  0  0  0  0  0
  -22.0599   -2.7608   23.2844 H   0  0  0  0  0  0
  -22.4107  -11.9870   22.4791 H   0  0  0  0  0  0
  -21.1114  -13.1245   22.2628 H   0  0  0  0  0  0
  -24.6665  -15.8490   20.5382 H   0  0  0  0  0  0
  -26.2929  -15.6321   20.1339 H   0  0  0  0  0  0
  -26.7205  -32.5413   23.1079 H   0  0  0  0  0  0
  -25.0102  -33.9697   25.0420 H   0  0  0  0  0  0
  -22.7237  -31.3008   21.3972 H   0  0  0  0  0  0
  -23.3756  -35.9608   23.3300 H   0  0  0  0  0  0
  -24.3585  -36.8901   22.2055 H   0  0  0  0  0  0
  -23.7238  -37.6478   23.6663 H   0  0  0  0  0  0
  -26.1125  -31.5377   20.6114 H   0  0  0  0  0  0
  -26.8502  -30.8200   22.0113 H   0  0  0  0  0  0
  -28.1203  -28.9329   21.2096 H   0  0  0  0  0  0
  -25.9534  -25.8948   19.0332 H   0  0  0  0  0  0
  -23.9700  -27.3035   19.0125 H   0  0  0  0  0  0
  -23.7680  -30.5917   19.4023 H   0  0  0  0  0  0
  -22.7644  -29.2469   19.8521 H   0  0  0  0  0  0
  -25.1299  -36.1916   25.0821 H   0  0  0  0  0  0
  -20.9993  -28.3279   24.1388 H   0  0  0  0  0  0
  -20.5680  -26.2310   23.3611 H   0  0  0  0  0  0
  -21.6648  -26.7442   22.1201 H   0  0  0  0  0  0
  -19.6917  -25.6295   21.1244 H   0  0  0  0  0  0
  -19.6692  -27.3191   20.6733 H   0  0  0  0  0  0
  -17.4205  -26.6677   21.4025 H   0  0  0  0  0  0
  -18.0338  -26.0076   22.9022 H   0  0  0  0  0  0
  -19.7943  -30.7276   24.2261 H   0  0  0  0  0  0
  -17.5020  -31.6269   24.5161 H   0  0  0  0  0  0
  -15.5357  -30.2984   23.7660 H   0  0  0  0  0  0
  -15.8679  -28.0817   22.7078 H   0  0  0  0  0  0
  -24.5917  -30.7063   25.7772 H   0  0  0  0  0  0
  -24.8912  -32.2890   26.4855 H   0  0  0  0  0  0
  -25.8055  -30.8915   27.0226 H   0  0  0  0  0  0
  -26.2938  -29.6745   24.1223 H   0  0  0  0  0  0
  -27.4035  -29.7265   25.4721 H   0  0  0  0  0  0
  -27.8819  -30.4276   23.9450 H   0  0  0  0  0  0
  -27.2673  -33.3633   26.2053 H   0  0  0  0  0  0
  -28.3883  -32.6866   25.0329 H   0  0  0  0  0  0
  -28.0719  -31.8460   26.5426 H   0  0  0  0  0  0
  -28.2592  -38.0096   24.7519 H   0  0  0  0  0  0
  -28.1078  -36.2627   24.6286 H   0  0  0  0  0  0
  -27.2297  -37.1438   25.8869 H   0  0  0  0  0  0
  -20.9398  -29.8765   21.6856 H   0  0  0  0  0  0
  -26.0167  -38.2842   24.1415 H   0  0  0  0  0  0
  -29.9400  -17.0960   18.6720 H   0  0  0  0  0  0
  -29.7316  -18.2949   22.7886 H   0  0  0  0  0  0
  -29.6302  -19.3976   18.0064 H   0  0  0  0  0  0
  -29.4039  -20.6088   22.1377 H   0  0  0  0  0  0
  -28.3419  -25.8669   18.2499 H   0  0  0  0  0  0
  -30.1075  -21.6660   17.5955 H   0  0  0  0  0  0
  -28.3626  -21.3038   17.6083 H   0  0  0  0  0  0
  -28.9777  -16.5710   22.8216 H   0  0  0  0  0  0
  1 25  1  0  0  0
  1 30  2  0  0  0
  1 81  1  0  0  0
  2  3  1  0  0  0
  2 25  1  0  0  0
  2 87  1  0  0  0
  2 88  1  0  0  0
  3  4  1  0  0  0
  3 89  1  0  0  0
  3 90  1  0  0  0
  4  5  1  0  0  0
  4 91  1  0  0  0
  4 92  1  0  0  0
  5  6  1  0  0  0
  5 26  1  0  0  0
  5 93  1  0  0  0
  6 25  1  0  0  0
  6 94  1  0  0  0
  6 95  1  0  0  0
  7  8  2  0  0  0
  7 26  1  0  0  0
  7 29  1  0  0  0
  8  9  1  0  0  0
  8 22  1  0  0  0
  9 10  1  0  0  0
  9 27  2  0  0  0
 10 11  2  0  0  0
 10 15  1  0  0  0
 11 12  1  0  0  0
 11 96  1  0  0  0
 12 13  2  0  0  0
 12 97  1  0  0  0
 13 14  1  0  0  0
 13 31  1  0  0  0
 14 15  2  0  0  0
 14 98  1  0  0  0
 15 99  1  0  0  0
 16 17  2  0  0  0
 16 21  1  0  0  0
 16 31  1  0  0  0
 17 18  1  0  0  0
 17100  1  0  0  0
 18 19  2  0  0  0
 18101  1  0  0  0
 19 20  1  0  0  0
 19 24  1  0  0  0
 20 21  2  0  0  0
 20102  1  0  0  0
 21 23  1  0  0  0
 22 28  1  0  0  0
 22 32  2  0  0  0
 26 27  1  0  0  0
 28103  1  0  0  0
 28104  1  0  0  0
 29105  1  0  0  0
 29106  1  0  0  0
 33 34  1  0  0  0
 33 66  1  0  0  0
 33 70  2  0  0  0
 34 36  1  0  0  0
 34 59  1  0  0  0
 34107  1  0  0  0
 35 44  2  0  0  0
 35 45  1  0  0  0
 35 68  1  0  0  0
 36 56  1  0  0  0
 36108  1  0  0  0
 37 39  1  0  0  0
 37 47  1  0  0  0
 37 66  1  0  0  0
 37109  1  0  0  0
 38 43  2  0  0  0
 38 46  1  0  0  0
 38 47  1  0  0  0
 39 64  1  0  0  0
 39 67  2  0  0  0
 40 52  1  0  0  0
 40 53  2  0  0  0
 40 58  1  0  0  0
 41110  1  0  0  0
 41111  1  0  0  0
 41112  1  0  0  0
 41 48  1  0  0  0
 42 43  1  0  0  0
 42 66  1  0  0  0
 42113  1  0  0  0
 42114  1  0  0  0
 43 44  1  0  0  0
 44115  1  0  0  0
 45 46  2  0  0  0
 45116  1  0  0  0
 46117  1  0  0  0
 47118  1  0  0  0
 47119  1  0  0  0
 48 56  1  0  0  0
 48 65  1  0  0  0
 48120  1  0  0  0
 49 50  1  0  0  0
 49 53  1  0  0  0
 49 64  1  0  0  0
 49121  1  0  0  0
 50 51  1  0  0  0
 50122  1  0  0  0
 50123  1  0  0  0
 51 52  1  0  0  0
 51124  1  0  0  0
 51125  1  0  0  0
 52126  1  0  0  0
 52127  1  0  0  0
 53 54  1  0  0  0
 54 55  2  0  0  0
 54128  1  0  0  0
 55 57  1  0  0  0
 55129  1  0  0  0
 56 69  2  0  0  0
 57 58  2  0  0  0
 57130  1  0  0  0
 58131  1  0  0  0
 59 60  1  0  0  0
 59 61  1  0  0  0
 59 62  1  0  0  0
 60132  1  0  0  0
 60133  1  0  0  0
 60134  1  0  0  0
 61135  1  0  0  0
 61136  1  0  0  0
 61137  1  0  0  0
 62138  1  0  0  0
 62139  1  0  0  0
 62140  1  0  0  0
 63 65  1  0  0  0
 63141  1  0  0  0
 63142  1  0  0  0
 63143  1  0  0  0
 64144  1  0  0  0
 65145  1  0  0  0
 68 80  1  0  0  0
 71 73  2  0  0  0
 71 75  1  0  0  0
 71146  1  0  0  0
 72 74  1  0  0  0
 72 75  2  0  0  0
 72147  1  0  0  0
 73 76  1  0  0  0
 73148  1  0  0  0
 74 76  2  0  0  0
 74149  1  0  0  0
 75 81  1  0  0  0
 76 84  1  0  0  0
 77 78  1  0  0  0
 77 79  1  0  0  0
 77 80  2  0  0  0
 78 82  1  0  0  0
 78 85  2  0  0  0
 79 84  1  0  0  0
 79 86  2  0  0  0
 80150  1  0  0  0
 81 83  2  0  0  0
 82 84  1  0  0  0
 82151  1  0  0  0
 82152  1  0  0  0
 83153  1  0  0  0
M  ISO  4   1 100  68 101  80 101  81 100
M  END
> <chiral flag>
0

> <version>
0

> <s_m_source_file>
/data/baiqing/PycharmProjects/Reinvent-master-3.2/result/LINK_invent/BTK/process_docking_weight1_custom_product_contain_oxygen_bond_distance_aromatic_linkinvent_7_9_3/rearranged_h_0078.sdf

> <i_m_source_file_index>
30

> <r_mmod_Potential_Energy-OPLS-2005>
400.477142333984

> <r_mmod_Stretch_Energy-OPLS-2005>
129.351272583008

> <r_mmod_Bend_Energy-OPLS-2005>
257.680389404297

> <r_mmod_Torsional_Energy-OPLS-2005>
226.103164672852

> <r_mmod_Improper_Torsional_Energy-OPLS-2005>
2.97899842262268

> <r_mmod_Van_der_Waal_Energy-OPLS-2005>
153.343048095703

> <r_mmod_Electrostatic_Energy-OPLS-2005>
-214.050857543945

> <r_mmod_Solvation_Energy-OPLS-2005>
-228.334030151367

> <b_mmod_Minimization_Converged-OPLS-2005>
0

> <r_mmod_RMS_Derivative-OPLS-2005>
0.30799925327301

$$$$
31
                    3D
 Structure written by MMmdl.
157166  0  0  1  0            999 V2000
  -30.6567  -14.5565   20.5271 C   0  0  0  0  0  0
  -30.4354  -12.3458   19.4364 C   0  0  0  0  0  0
  -29.5042  -12.4970   18.2141 C   0  0  0  0  0  0
  -28.0252  -12.3476   18.6265 C   0  0  0  0  0  0
  -27.6575  -13.2073   19.8657 C   0  0  2  0  0  0
  -28.7007  -13.0294   20.9921 C   0  0  0  0  0  0
  -25.2579  -13.8152   20.5664 C   0  0  0  0  0  0
  -24.1838  -13.0433   20.9179 C   0  0  0  0  0  0
  -24.6388  -11.6899   20.8732 C   0  0  0  0  0  0
  -23.9051  -10.4288   21.0400 C   0  0  0  0  0  0
  -24.3608   -9.4210   21.9180 C   0  0  0  0  0  0
  -23.6286   -8.2246   22.0758 C   0  0  0  0  0  0
  -22.4272   -8.0277   21.3545 C   0  0  0  0  0  0
  -21.9899   -9.0248   20.4649 C   0  0  0  0  0  0
  -22.7222  -10.2130   20.3052 C   0  0  0  0  0  0
  -21.6851   -6.0733   22.5274 C   0  0  0  0  0  0
  -21.4015   -6.5637   23.8209 C   0  0  0  0  0  0
  -21.3663   -5.6791   24.9172 C   0  0  0  0  0  0
  -21.6039   -4.3054   24.7222 C   0  0  0  0  0  0
  -21.8819   -3.8144   23.4346 C   0  0  0  0  0  0
  -21.9196   -4.6961   22.3402 C   0  0  0  0  0  0
  -22.7863  -13.5237   21.1842 C   0  0  0  0  0  0
  -22.1660   -4.2147   21.0981 F   0  0  0  0  0  0
  -21.5632   -3.4538   25.7738 F   0  0  0  0  0  0
  -30.0233  -13.3513   20.4309 N   0  0  0  0  0  0
  -26.3007  -12.9317   20.3314 N   0  0  0  0  0  0
  -25.9311  -11.6480   20.5741 N   0  0  0  0  0  0
  -22.0494  -12.8238   22.0398 N   0  0  0  0  0  0
  -25.4287  -15.1870   20.4067 N   0  0  0  0  0  0
  -31.8159  -14.7169   20.1353 O   0  0  0  0  0  0
  -21.6639   -6.8874   21.4236 O   0  0  0  0  0  0
  -22.3552  -14.5541   20.6683 O   0  0  0  0  0  0
  -24.6181  -31.8644   23.2056 C   0  0  0  0  0  0
  -25.9064  -32.4803   23.8353 C   0  0  1  0  0  0
  -27.2284  -27.3826   20.1064 C   0  0  0  0  0  0
  -25.5901  -33.8601   24.2287 N   0  0  0  0  0  0
  -23.4084  -30.4883   21.5466 C   0  0  2  0  0  0
  -24.8537  -28.9487   20.1113 C   0  0  0  0  0  0
  -22.7431  -29.4644   22.4955 C   0  0  0  0  0  0
  -18.0286  -28.1378   22.8486 C   0  0  0  0  0  0
  -24.1495  -36.7307   23.2640 C   0  0  0  0  0  0
  -25.9422  -30.8143   21.3665 C   0  0  0  0  0  0
  -26.0178  -29.4462   20.7103 C   0  0  0  0  0  0
  -27.2074  -28.6729   20.7000 C   0  0  0  0  0  0
  -26.0418  -26.9133   19.4974 C   0  0  0  0  0  0
  -24.8640  -27.6841   19.4992 C   0  0  0  0  0  0
  -23.6192  -29.8227   20.1608 C   0  0  0  0  0  0
  -25.4115  -36.3096   24.0337 C   0  0  1  0  0  0
  -20.5877  -28.3674   23.1298 C   0  0  2  0  0  0
  -20.6782  -26.9406   22.5413 C   0  0  0  0  0  0
  -19.5763  -26.6387   21.5206 C   0  0  0  0  0  0
  -18.1936  -26.7924   22.1613 C   0  0  0  0  0  0
  -19.1535  -28.8839   23.2886 C   0  0  0  0  0  0
  -18.9469  -30.1447   23.8895 C   0  0  0  0  0  0
  -17.6470  -30.6585   24.0561 C   0  0  0  0  0  0
  -25.9047  -34.9464   23.5112 C   0  0  0  0  0  0
  -16.5358  -29.9086   23.6330 C   0  0  0  0  0  0
  -16.7272  -28.6502   23.0346 C   0  0  0  0  0  0
  -26.4473  -31.6597   25.0701 C   0  0  0  0  0  0
  -25.3721  -31.3726   26.1441 C   0  0  0  0  0  0
  -27.0317  -30.3036   24.6108 C   0  0  0  0  0  0
  -27.6035  -32.4325   25.7467 C   0  0  0  0  0  0
  -27.5583  -37.1812   24.8472 C   0  0  0  0  0  0
  -21.4155  -29.3035   22.3696 N   0  0  0  0  0  0
  -26.4299  -37.3786   23.9413 N   0  0  0  0  0  0
  -24.6746  -31.0711   22.0971 N   0  0  0  0  0  0
  -23.4189  -28.8181   23.3011 O   0  0  0  0  0  0
  -28.3851  -26.6111   20.1361 O   0  0  0  0  0  0
  -26.5621  -34.8929   22.4679 O   0  0  0  0  0  0
  -23.5370  -32.1419   23.7437 O   0  0  0  0  0  0
  -29.1436  -19.2966   21.2908 C   0  0  0  0  0  0
  -31.5395  -18.9804   21.3214 C   0  0  0  0  0  0
  -28.9854  -17.9031   21.0459 C   0  0  0  0  0  0
  -31.3834  -17.5949   21.0763 C   0  0  0  0  0  0
  -30.4312  -19.8545   21.4744 C   0  0  0  0  0  0
  -30.0951  -17.0182   20.9739 C   0  0  0  0  0  0
  -29.5458  -22.8628   20.6452 C   0  0  0  0  0  0
  -30.6727  -21.2062   22.1428 C   0  0  0  0  0  0
  -29.9177  -24.8317   21.9653 C   0  0  0  0  0  0
  -30.6121  -23.6072   22.5542 C   0  0  0  0  0  0
  -29.5407  -24.4204   20.5479 C   0  0  2  0  0  0
  -28.2568  -25.1600   20.0533 C   0  0  0  0  0  0
  -30.2231  -22.4415   21.7429 N   0  0  0  0  0  0
  -29.8538  -15.5951   20.8837 N   0  0  0  0  0  0
  -29.0286  -22.1503   19.7806 O   0  0  0  0  0  0
  -31.3857  -21.1351   23.1539 O   0  0  0  0  0  0
  -31.4774  -12.4629   19.1328 H   0  0  0  0  0  0
  -30.3597  -11.3432   19.8605 H   0  0  0  0  0  0
  -29.7578  -11.7551   17.4556 H   0  0  0  0  0  0
  -29.6599  -13.4721   17.7497 H   0  0  0  0  0  0
  -27.8491  -11.2934   18.8441 H   0  0  0  0  0  0
  -27.3740  -12.5965   17.7877 H   0  0  0  0  0  0
  -27.6856  -14.2476   19.5401 H   0  0  0  0  0  0
  -28.6929  -12.0026   21.3611 H   0  0  0  0  0  0
  -28.4563  -13.6536   21.8533 H   0  0  0  0  0  0
  -25.2754   -9.5692   22.4750 H   0  0  0  0  0  0
  -23.9996   -7.4641   22.7481 H   0  0  0  0  0  0
  -21.0831   -8.8761   19.8956 H   0  0  0  0  0  0
  -22.3674  -10.9667   19.6162 H   0  0  0  0  0  0
  -21.2004   -7.6145   23.9708 H   0  0  0  0  0  0
  -21.1484   -6.0526   25.9076 H   0  0  0  0  0  0
  -22.0596   -2.7604   23.2846 H   0  0  0  0  0  0
  -22.4112  -11.9912   22.4805 H   0  0  0  0  0  0
  -21.1107  -13.1270   22.2583 H   0  0  0  0  0  0
  -24.6550  -15.8356   20.5054 H   0  0  0  0  0  0
  -26.2656  -15.6241   20.0430 H   0  0  0  0  0  0
  -26.7127  -32.5498   23.1105 H   0  0  0  0  0  0
  -25.0048  -33.9755   25.0432 H   0  0  0  0  0  0
  -22.6982  -31.3062   21.4075 H   0  0  0  0  0  0
  -23.3757  -35.9642   23.3311 H   0  0  0  0  0  0
  -24.3585  -36.8917   22.2052 H   0  0  0  0  0  0
  -23.7254  -37.6513   23.6660 H   0  0  0  0  0  0
  -26.0648  -31.5814   20.6003 H   0  0  0  0  0  0
  -26.8255  -30.8629   21.9917 H   0  0  0  0  0  0
  -28.1026  -29.0518   21.1733 H   0  0  0  0  0  0
  -26.0072  -25.9464   19.0168 H   0  0  0  0  0  0
  -23.9706  -27.2971   19.0281 H   0  0  0  0  0  0
  -23.7317  -30.6007   19.4045 H   0  0  0  0  0  0
  -22.7402  -29.2496   19.8611 H   0  0  0  0  0  0
  -25.1297  -36.1946   25.0834 H   0  0  0  0  0  0
  -20.9966  -28.3241   24.1416 H   0  0  0  0  0  0
  -20.5694  -26.2272   23.3602 H   0  0  0  0  0  0
  -21.6649  -26.7454   22.1193 H   0  0  0  0  0  0
  -19.6931  -25.6299   21.1232 H   0  0  0  0  0  0
  -19.6706  -27.3193   20.6731 H   0  0  0  0  0  0
  -17.4210  -26.6670   21.4017 H   0  0  0  0  0  0
  -18.0344  -26.0060   22.9007 H   0  0  0  0  0  0
  -19.7949  -30.7265   24.2250 H   0  0  0  0  0  0
  -17.5036  -31.6267   24.5162 H   0  0  0  0  0  0
  -15.5362  -30.2993   23.7665 H   0  0  0  0  0  0
  -15.8671  -28.0834   22.7048 H   0  0  0  0  0  0
  -24.5881  -30.7092   25.7774 H   0  0  0  0  0  0
  -24.8924  -32.2893   26.4883 H   0  0  0  0  0  0
  -25.8058  -30.8890   27.0200 H   0  0  0  0  0  0
  -26.2879  -29.6784   24.1153 H   0  0  0  0  0  0
  -27.4073  -29.7283   25.4576 H   0  0  0  0  0  0
  -27.8715  -30.4358   23.9280 H   0  0  0  0  0  0
  -27.2637  -33.3613   26.2063 H   0  0  0  0  0  0
  -28.3829  -32.6901   25.0282 H   0  0  0  0  0  0
  -28.0725  -31.8441   26.5364 H   0  0  0  0  0  0
  -28.2607  -38.0102   24.7494 H   0  0  0  0  0  0
  -28.1068  -36.2626   24.6320 H   0  0  0  0  0  0
  -27.2299  -37.1489   25.8876 H   0  0  0  0  0  0
  -20.9320  -29.8747   21.6907 H   0  0  0  0  0  0
  -26.0185  -38.2871   24.1396 H   0  0  0  0  0  0
  -28.2675  -19.9151   21.4288 H   0  0  0  0  0  0
  -32.5382  -19.3614   21.4911 H   0  0  0  0  0  0
  -27.9827  -17.5063   20.9658 H   0  0  0  0  0  0
  -32.2710  -16.9805   21.0432 H   0  0  0  0  0  0
  -30.5597  -25.7136   21.9805 H   0  0  0  0  0  0
  -29.0236  -25.0707   22.5440 H   0  0  0  0  0  0
  -30.3389  -23.4833   23.6044 H   0  0  0  0  0  0
  -31.6954  -23.7355   22.5128 H   0  0  0  0  0  0
  -30.3630  -24.6782   19.8794 H   0  0  0  0  0  0
  -27.4055  -24.8216   20.6465 H   0  0  0  0  0  0
  -28.0613  -24.8775   19.0184 H   0  0  0  0  0  0
  -28.9052  -15.3098   21.0706 H   0  0  0  0  0  0
  1 25  1  0  0  0
  1 30  2  0  0  0
  1 84  1  0  0  0
  2  3  1  0  0  0
  2 25  1  0  0  0
  2 87  1  0  0  0
  2 88  1  0  0  0
  3  4  1  0  0  0
  3 89  1  0  0  0
  3 90  1  0  0  0
  4  5  1  0  0  0
  4 91  1  0  0  0
  4 92  1  0  0  0
  5  6  1  0  0  0
  5 26  1  0  0  0
  5 93  1  0  0  0
  6 25  1  0  0  0
  6 94  1  0  0  0
  6 95  1  0  0  0
  7  8  2  0  0  0
  7 26  1  0  0  0
  7 29  1  0  0  0
  8  9  1  0  0  0
  8 22  1  0  0  0
  9 10  1  0  0  0
  9 27  2  0  0  0
 10 11  2  0  0  0
 10 15  1  0  0  0
 11 12  1  0  0  0
 11 96  1  0  0  0
 12 13  2  0  0  0
 12 97  1  0  0  0
 13 14  1  0  0  0
 13 31  1  0  0  0
 14 15  2  0  0  0
 14 98  1  0  0  0
 15 99  1  0  0  0
 16 17  2  0  0  0
 16 21  1  0  0  0
 16 31  1  0  0  0
 17 18  1  0  0  0
 17100  1  0  0  0
 18 19  2  0  0  0
 18101  1  0  0  0
 19 20  1  0  0  0
 19 24  1  0  0  0
 20 21  2  0  0  0
 20102  1  0  0  0
 21 23  1  0  0  0
 22 28  1  0  0  0
 22 32  2  0  0  0
 26 27  1  0  0  0
 28103  1  0  0  0
 28104  1  0  0  0
 29105  1  0  0  0
 29106  1  0  0  0
 33 34  1  0  0  0
 33 66  1  0  0  0
 33 70  2  0  0  0
 34 36  1  0  0  0
 34 59  1  0  0  0
 34107  1  0  0  0
 35 44  2  0  0  0
 35 45  1  0  0  0
 35 68  1  0  0  0
 36 56  1  0  0  0
 36108  1  0  0  0
 37 39  1  0  0  0
 37 47  1  0  0  0
 37 66  1  0  0  0
 37109  1  0  0  0
 38 43  2  0  0  0
 38 46  1  0  0  0
 38 47  1  0  0  0
 39 64  1  0  0  0
 39 67  2  0  0  0
 40 52  1  0  0  0
 40 53  2  0  0  0
 40 58  1  0  0  0
 41110  1  0  0  0
 41111  1  0  0  0
 41112  1  0  0  0
 41 48  1  0  0  0
 42 43  1  0  0  0
 42 66  1  0  0  0
 42113  1  0  0  0
 42114  1  0  0  0
 43 44  1  0  0  0
 44115  1  0  0  0
 45 46  2  0  0  0
 45116  1  0  0  0
 46117  1  0  0  0
 47118  1  0  0  0
 47119  1  0  0  0
 48 56  1  0  0  0
 48 65  1  0  0  0
 48120  1  0  0  0
 49 50  1  0  0  0
 49 53  1  0  0  0
 49 64  1  0  0  0
 49121  1  0  0  0
 50 51  1  0  0  0
 50122  1  0  0  0
 50123  1  0  0  0
 51 52  1  0  0  0
 51124  1  0  0  0
 51125  1  0  0  0
 52126  1  0  0  0
 52127  1  0  0  0
 53 54  1  0  0  0
 54 55  2  0  0  0
 54128  1  0  0  0
 55 57  1  0  0  0
 55129  1  0  0  0
 56 69  2  0  0  0
 57 58  2  0  0  0
 57130  1  0  0  0
 58131  1  0  0  0
 59 60  1  0  0  0
 59 61  1  0  0  0
 59 62  1  0  0  0
 60132  1  0  0  0
 60133  1  0  0  0
 60134  1  0  0  0
 61135  1  0  0  0
 61136  1  0  0  0
 61137  1  0  0  0
 62138  1  0  0  0
 62139  1  0  0  0
 62140  1  0  0  0
 63 65  1  0  0  0
 63141  1  0  0  0
 63142  1  0  0  0
 63143  1  0  0  0
 64144  1  0  0  0
 65145  1  0  0  0
 68 82  1  0  0  0
 71 73  2  0  0  0
 71 75  1  0  0  0
 71146  1  0  0  0
 72 74  1  0  0  0
 72 75  2  0  0  0
 72147  1  0  0  0
 73 76  1  0  0  0
 73148  1  0  0  0
 74 76  2  0  0  0
 74149  1  0  0  0
 75 78  1  0  0  0
 76 84  1  0  0  0
 77 81  1  0  0  0
 77 83  1  0  0  0
 77 85  2  0  0  0
 78 83  1  0  0  0
 78 86  2  0  0  0
 79 80  1  0  0  0
 79 81  1  0  0  0
 79150  1  0  0  0
 79151  1  0  0  0
 80 83  1  0  0  0
 80152  1  0  0  0
 80153  1  0  0  0
 81 82  1  0  0  0
 81154  1  0  0  0
 82155  1  0  0  0
 82156  1  0  0  0
 84157  1  0  0  0
M  ISO  4   1 100  68 101  82 101  84 100
M  END
> <chiral flag>
0

> <version>
0

> <s_m_source_file>
/data/baiqing/PycharmProjects/Reinvent-master-3.2/result/LINK_invent/BTK/process_docking_weight1_custom_product_contain_oxygen_bond_distance_aromatic_linkinvent_7_9_3/rearranged_h_0078.sdf

> <i_m_source_file_index>
31

> <r_mmod_Potential_Energy-OPLS-2005>
83.3567123413086

> <r_mmod_Stretch_Energy-OPLS-2005>
54.5149116516113

> <r_mmod_Bend_Energy-OPLS-2005>
172.249267578125

> <r_mmod_Torsional_Energy-OPLS-2005>
269.986236572266

> <r_mmod_Improper_Torsional_Energy-OPLS-2005>
7.89046430587769

> <r_mmod_Van_der_Waal_Energy-OPLS-2005>
153.055053710938

> <r_mmod_Electrostatic_Energy-OPLS-2005>
-376.87158203125

> <r_mmod_Solvation_Energy-OPLS-2005>
-222.820449829102

> <b_mmod_Minimization_Converged-OPLS-2005>
0

> <r_mmod_RMS_Derivative-OPLS-2005>
1.35308170318604

$$$$
32
                    3D
 Structure written by MMmdl.
157166  0  0  1  0            999 V2000
  -30.5822  -14.7037   20.4774 C   0  0  0  0  0  0
  -30.4484  -12.4305   19.4537 C   0  0  0  0  0  0
  -29.5129  -12.5109   18.2256 C   0  0  0  0  0  0
  -28.0365  -12.3365   18.6386 C   0  0  0  0  0  0
  -27.6504  -13.2165   19.8563 C   0  0  2  0  0  0
  -28.6969  -13.0954   20.9865 C   0  0  0  0  0  0
  -25.2562  -13.8174   20.5664 C   0  0  0  0  0  0
  -24.1835  -13.0441   20.9197 C   0  0  0  0  0  0
  -24.6396  -11.6910   20.8738 C   0  0  0  0  0  0
  -23.9059  -10.4296   21.0407 C   0  0  0  0  0  0
  -24.3613   -9.4211   21.9181 C   0  0  0  0  0  0
  -23.6292   -8.2244   22.0753 C   0  0  0  0  0  0
  -22.4274   -8.0278   21.3542 C   0  0  0  0  0  0
  -21.9905   -9.0254   20.4647 C   0  0  0  0  0  0
  -22.7229  -10.2136   20.3058 C   0  0  0  0  0  0
  -21.6854   -6.0733   22.5278 C   0  0  0  0  0  0
  -21.4013   -6.5636   23.8211 C   0  0  0  0  0  0
  -21.3662   -5.6790   24.9174 C   0  0  0  0  0  0
  -21.6044   -4.3052   24.7223 C   0  0  0  0  0  0
  -21.8820   -3.8144   23.4344 C   0  0  0  0  0  0
  -21.9194   -4.6962   22.3400 C   0  0  0  0  0  0
  -22.7856  -13.5237   21.1864 C   0  0  0  0  0  0
  -22.1664   -4.2149   21.0978 F   0  0  0  0  0  0
  -21.5629   -3.4534   25.7734 F   0  0  0  0  0  0
  -30.0043  -13.4587   20.4167 N   0  0  0  0  0  0
  -26.2979  -12.9344   20.3279 N   0  0  0  0  0  0
  -25.9322  -11.6502   20.5741 N   0  0  0  0  0  0
  -22.0493  -12.8230   22.0419 N   0  0  0  0  0  0
  -25.4252  -15.1898   20.4059 N   0  0  0  0  0  0
  -31.7620  -14.8761   20.1560 O   0  0  0  0  0  0
  -21.6639   -6.8874   21.4238 O   0  0  0  0  0  0
  -22.3539  -14.5541   20.6710 O   0  0  0  0  0  0
  -24.6311  -31.8573   23.1979 C   0  0  0  0  0  0
  -25.9140  -32.4760   23.8328 C   0  0  1  0  0  0
  -27.2279  -27.2818   20.1092 C   0  0  0  0  0  0
  -25.5947  -33.8562   24.2266 N   0  0  0  0  0  0
  -23.4258  -30.4800   21.5431 C   0  0  2  0  0  0
  -24.8699  -28.9273   20.1138 C   0  0  0  0  0  0
  -22.7496  -29.4619   22.4930 C   0  0  0  0  0  0
  -18.0288  -28.1383   22.8480 C   0  0  0  0  0  0
  -24.1500  -36.7289   23.2631 C   0  0  0  0  0  0
  -25.9703  -30.7768   21.3709 C   0  0  0  0  0  0
  -26.0439  -29.4003   20.7129 C   0  0  0  0  0  0
  -27.2234  -28.5905   20.6982 C   0  0  0  0  0  0
  -26.0122  -26.8573   19.5239 C   0  0  0  0  0  0
  -24.8571  -27.6610   19.5124 C   0  0  0  0  0  0
  -23.6415  -29.8135   20.1599 C   0  0  0  0  0  0
  -25.4121  -36.3072   24.0324 C   0  0  1  0  0  0
  -20.5892  -28.3699   23.1277 C   0  0  2  0  0  0
  -20.6783  -26.9422   22.5409 C   0  0  0  0  0  0
  -19.5762  -26.6386   21.5212 C   0  0  0  0  0  0
  -18.1939  -26.7925   22.1621 C   0  0  0  0  0  0
  -19.1540  -28.8856   23.2873 C   0  0  0  0  0  0
  -18.9462  -30.1457   23.8892 C   0  0  0  0  0  0
  -17.6463  -30.6588   24.0557 C   0  0  0  0  0  0
  -25.9062  -34.9444   23.5096 C   0  0  0  0  0  0
  -16.5353  -29.9083   23.6329 C   0  0  0  0  0  0
  -16.7274  -28.6500   23.0348 C   0  0  0  0  0  0
  -26.4502  -31.6561   25.0705 C   0  0  0  0  0  0
  -25.3725  -31.3709   26.1426 C   0  0  0  0  0  0
  -27.0314  -30.2969   24.6163 C   0  0  0  0  0  0
  -27.6079  -32.4267   25.7476 C   0  0  0  0  0  0
  -27.5589  -37.1799   24.8458 C   0  0  0  0  0  0
  -21.4205  -29.3050   22.3670 N   0  0  0  0  0  0
  -26.4295  -37.3771   23.9406 N   0  0  0  0  0  0
  -24.6953  -31.0548   22.0944 N   0  0  0  0  0  0
  -23.4205  -28.8173   23.3031 O   0  0  0  0  0  0
  -28.3515  -26.4209   20.1620 O   0  0  0  0  0  0
  -26.5634  -34.8918   22.4665 O   0  0  0  0  0  0
  -23.5466  -32.1396   23.7282 O   0  0  0  0  0  0
  -30.5701  -19.4947   21.1347 C   0  0  0  0  0  0
  -30.7235  -18.0668   21.1425 C   0  0  0  0  0  0
  -28.5376  -19.2911   19.8834 C   0  0  0  0  0  0
  -29.4695  -20.1644   20.5134 C   0  0  0  0  0  0
  -29.7574  -17.2053   20.5554 C   0  0  0  0  0  0
  -28.6644  -17.8652   19.9267 C   0  0  0  0  0  0
  -28.7161  -23.9296   20.2639 C   0  0  0  0  0  0
  -29.1093  -23.7563   21.6412 C   0  0  0  0  0  0
  -28.8009  -22.5442   19.6862 C   0  0  0  0  0  0
  -29.0343  -24.6822   22.6136 C   0  0  0  0  0  0
  -28.3795  -25.1106   19.5975 C   0  0  0  0  0  0
  -29.5868  -22.3370   21.8707 C   0  0  0  0  0  0
  -28.1762  -25.1588   18.0861 C   0  0  0  0  0  0
  -29.2736  -21.6368   20.6195 N   0  0  0  0  0  0
  -29.7071  -15.7406   20.7058 N   0  0  0  0  0  0
  -28.4989  -22.2129   18.5345 O   0  0  0  0  0  0
  -27.6857  -17.1033   19.3786 F   0  0  0  0  0  0
  -31.4857  -12.5795   19.1480 H   0  0  0  0  0  0
  -30.4068  -11.4399   19.9092 H   0  0  0  0  0  0
  -29.7881  -11.7516   17.4921 H   0  0  0  0  0  0
  -29.6405  -13.4742   17.7295 H   0  0  0  0  0  0
  -27.8848  -11.2844   18.8826 H   0  0  0  0  0  0
  -27.3797  -12.5508   17.7951 H   0  0  0  0  0  0
  -27.6576  -14.2458   19.4979 H   0  0  0  0  0  0
  -28.7250  -12.0787   21.3812 H   0  0  0  0  0  0
  -28.4348  -13.7351   21.8309 H   0  0  0  0  0  0
  -25.2757   -9.5692   22.4755 H   0  0  0  0  0  0
  -24.0006   -7.4634   22.7467 H   0  0  0  0  0  0
  -21.0837   -8.8773   19.8953 H   0  0  0  0  0  0
  -22.3686  -10.9676   19.6171 H   0  0  0  0  0  0
  -21.2006   -7.6145   23.9716 H   0  0  0  0  0  0
  -21.1483   -6.0517   25.9078 H   0  0  0  0  0  0
  -22.0599   -2.7607   23.2840 H   0  0  0  0  0  0
  -22.4105  -11.9890   22.4805 H   0  0  0  0  0  0
  -21.1116  -13.1272   22.2629 H   0  0  0  0  0  0
  -24.6486  -15.8330   20.5081 H   0  0  0  0  0  0
  -26.2531  -15.6375   20.0292 H   0  0  0  0  0  0
  -26.7207  -32.5417   23.1071 H   0  0  0  0  0  0
  -25.0090  -33.9702   25.0412 H   0  0  0  0  0  0
  -22.7216  -31.3020   21.3978 H   0  0  0  0  0  0
  -23.3762  -35.9619   23.3272 H   0  0  0  0  0  0
  -24.3609  -36.8934   22.2053 H   0  0  0  0  0  0
  -23.7255  -37.6484   23.6669 H   0  0  0  0  0  0
  -26.1017  -31.5369   20.5991 H   0  0  0  0  0  0
  -26.8510  -30.8297   21.9992 H   0  0  0  0  0  0
  -28.1256  -28.9512   21.1719 H   0  0  0  0  0  0
  -25.9178  -25.8738   19.0920 H   0  0  0  0  0  0
  -23.9512  -27.2820   19.0592 H   0  0  0  0  0  0
  -23.7667  -30.5890   19.4035 H   0  0  0  0  0  0
  -22.7591  -29.2475   19.8563 H   0  0  0  0  0  0
  -25.1298  -36.1917   25.0814 H   0  0  0  0  0  0
  -20.9981  -28.3271   24.1399 H   0  0  0  0  0  0
  -20.5692  -26.2309   23.3607 H   0  0  0  0  0  0
  -21.6654  -26.7457   22.1204 H   0  0  0  0  0  0
  -19.6932  -25.6296   21.1249 H   0  0  0  0  0  0
  -19.6702  -27.3187   20.6736 H   0  0  0  0  0  0
  -17.4213  -26.6661   21.4017 H   0  0  0  0  0  0
  -18.0347  -26.0067   22.9019 H   0  0  0  0  0  0
  -19.7936  -30.7269   24.2267 H   0  0  0  0  0  0
  -17.5015  -31.6269   24.5155 H   0  0  0  0  0  0
  -15.5354  -30.2980   23.7661 H   0  0  0  0  0  0
  -15.8672  -28.0820   22.7065 H   0  0  0  0  0  0
  -24.5930  -30.7020   25.7760 H   0  0  0  0  0  0
  -24.8875  -32.2868   26.4809 H   0  0  0  0  0  0
  -25.8051  -30.8930   27.0227 H   0  0  0  0  0  0
  -26.2871  -29.6736   24.1188 H   0  0  0  0  0  0
  -27.3988  -29.7213   25.4668 H   0  0  0  0  0  0
  -27.8764  -30.4217   23.9388 H   0  0  0  0  0  0
  -27.2721  -33.3577   26.2053 H   0  0  0  0  0  0
  -28.3899  -32.6800   25.0305 H   0  0  0  0  0  0
  -28.0730  -31.8374   26.5387 H   0  0  0  0  0  0
  -28.2583  -38.0118   24.7526 H   0  0  0  0  0  0
  -28.1113  -36.2651   24.6250 H   0  0  0  0  0  0
  -27.2318  -37.1406   25.8864 H   0  0  0  0  0  0
  -20.9393  -29.8761   21.6864 H   0  0  0  0  0  0
  -26.0172  -38.2847   24.1402 H   0  0  0  0  0  0
  -31.3223  -20.0826   21.6417 H   0  0  0  0  0  0
  -31.5669  -17.6358   21.6629 H   0  0  0  0  0  0
  -27.6633  -19.7086   19.4060 H   0  0  0  0  0  0
  -28.6683  -25.6823   22.4369 H   0  0  0  0  0  0
  -29.3405  -24.4458   23.6227 H   0  0  0  0  0  0
  -29.0629  -21.8775   22.7096 H   0  0  0  0  0  0
  -30.6586  -22.3248   22.0707 H   0  0  0  0  0  0
  -29.0480  -24.7477   17.5765 H   0  0  0  0  0  0
  -28.0451  -26.1783   17.7226 H   0  0  0  0  0  0
  -27.3049  -24.5742   17.7896 H   0  0  0  0  0  0
  -28.7648  -15.3975   20.8081 H   0  0  0  0  0  0
  1 25  1  0  0  0
  1 30  2  0  0  0
  1 85  1  0  0  0
  2  3  1  0  0  0
  2 25  1  0  0  0
  2 88  1  0  0  0
  2 89  1  0  0  0
  3  4  1  0  0  0
  3 90  1  0  0  0
  3 91  1  0  0  0
  4  5  1  0  0  0
  4 92  1  0  0  0
  4 93  1  0  0  0
  5  6  1  0  0  0
  5 26  1  0  0  0
  5 94  1  0  0  0
  6 25  1  0  0  0
  6 95  1  0  0  0
  6 96  1  0  0  0
  7  8  2  0  0  0
  7 26  1  0  0  0
  7 29  1  0  0  0
  8  9  1  0  0  0
  8 22  1  0  0  0
  9 10  1  0  0  0
  9 27  2  0  0  0
 10 11  2  0  0  0
 10 15  1  0  0  0
 11 12  1  0  0  0
 11 97  1  0  0  0
 12 13  2  0  0  0
 12 98  1  0  0  0
 13 14  1  0  0  0
 13 31  1  0  0  0
 14 15  2  0  0  0
 14 99  1  0  0  0
 15100  1  0  0  0
 16 17  2  0  0  0
 16 21  1  0  0  0
 16 31  1  0  0  0
 17 18  1  0  0  0
 17101  1  0  0  0
 18 19  2  0  0  0
 18102  1  0  0  0
 19 20  1  0  0  0
 19 24  1  0  0  0
 20 21  2  0  0  0
 20103  1  0  0  0
 21 23  1  0  0  0
 22 28  1  0  0  0
 22 32  2  0  0  0
 26 27  1  0  0  0
 28104  1  0  0  0
 28105  1  0  0  0
 29106  1  0  0  0
 29107  1  0  0  0
 33 34  1  0  0  0
 33 66  1  0  0  0
 33 70  2  0  0  0
 34 36  1  0  0  0
 34 59  1  0  0  0
 34108  1  0  0  0
 35 44  2  0  0  0
 35 45  1  0  0  0
 35 68  1  0  0  0
 36 56  1  0  0  0
 36109  1  0  0  0
 37 39  1  0  0  0
 37 47  1  0  0  0
 37 66  1  0  0  0
 37110  1  0  0  0
 38 43  2  0  0  0
 38 46  1  0  0  0
 38 47  1  0  0  0
 39 64  1  0  0  0
 39 67  2  0  0  0
 40 52  1  0  0  0
 40 53  2  0  0  0
 40 58  1  0  0  0
 41111  1  0  0  0
 41112  1  0  0  0
 41113  1  0  0  0
 41 48  1  0  0  0
 42 43  1  0  0  0
 42 66  1  0  0  0
 42114  1  0  0  0
 42115  1  0  0  0
 43 44  1  0  0  0
 44116  1  0  0  0
 45 46  2  0  0  0
 45117  1  0  0  0
 46118  1  0  0  0
 47119  1  0  0  0
 47120  1  0  0  0
 48 56  1  0  0  0
 48 65  1  0  0  0
 48121  1  0  0  0
 49 50  1  0  0  0
 49 53  1  0  0  0
 49 64  1  0  0  0
 49122  1  0  0  0
 50 51  1  0  0  0
 50123  1  0  0  0
 50124  1  0  0  0
 51 52  1  0  0  0
 51125  1  0  0  0
 51126  1  0  0  0
 52127  1  0  0  0
 52128  1  0  0  0
 53 54  1  0  0  0
 54 55  2  0  0  0
 54129  1  0  0  0
 55 57  1  0  0  0
 55130  1  0  0  0
 56 69  2  0  0  0
 57 58  2  0  0  0
 57131  1  0  0  0
 58132  1  0  0  0
 59 60  1  0  0  0
 59 61  1  0  0  0
 59 62  1  0  0  0
 60133  1  0  0  0
 60134  1  0  0  0
 60135  1  0  0  0
 61136  1  0  0  0
 61137  1  0  0  0
 61138  1  0  0  0
 62139  1  0  0  0
 62140  1  0  0  0
 62141  1  0  0  0
 63 65  1  0  0  0
 63142  1  0  0  0
 63143  1  0  0  0
 63144  1  0  0  0
 64145  1  0  0  0
 65146  1  0  0  0
 68 81  1  0  0  0
 71 72  2  0  0  0
 71 74  1  0  0  0
 71147  1  0  0  0
 72 75  1  0  0  0
 72148  1  0  0  0
 73 74  2  0  0  0
 73 76  1  0  0  0
 73149  1  0  0  0
 74 84  1  0  0  0
 75 76  2  0  0  0
 75 85  1  0  0  0
 76 87  1  0  0  0
 77 78  1  0  0  0
 77 79  1  0  0  0
 77 81  2  0  0  0
 78 80  2  0  0  0
 78 82  1  0  0  0
 79 84  1  0  0  0
 79 86  2  0  0  0
 80150  1  0  0  0
 80151  1  0  0  0
 81 83  1  0  0  0
 82 84  1  0  0  0
 82152  1  0  0  0
 82153  1  0  0  0
 83154  1  0  0  0
 83155  1  0  0  0
 83156  1  0  0  0
 85157  1  0  0  0
M  ISO  4   1 100  68 101  81 101  85 100
M  END
> <chiral flag>
0

> <version>
0

> <s_m_source_file>
/data/baiqing/PycharmProjects/Reinvent-master-3.2/result/LINK_invent/BTK/process_docking_weight1_custom_product_contain_oxygen_bond_distance_aromatic_linkinvent_7_9_3/rearranged_h_0078.sdf

> <i_m_source_file_index>
32

> <r_mmod_Potential_Energy-OPLS-2005>
271.223541259766

> <r_mmod_Stretch_Energy-OPLS-2005>
101.055526733398

> <r_mmod_Bend_Energy-OPLS-2005>
198.337432861328

> <r_mmod_Torsional_Energy-OPLS-2005>
289.755554199219

> <r_mmod_Improper_Torsional_Energy-OPLS-2005>
7.06820297241211

> <r_mmod_Van_der_Waal_Energy-OPLS-2005>
139.978454589844

> <r_mmod_Electrostatic_Energy-OPLS-2005>
-337.326049804688

> <r_mmod_Solvation_Energy-OPLS-2005>
-197.328399658203

> <b_mmod_Minimization_Converged-OPLS-2005>
0

> <r_mmod_RMS_Derivative-OPLS-2005>
0.797719180583954

$$$$
33
                    3D
 Structure written by MMmdl.
161170  0  0  1  0            999 V2000
  -30.7518  -14.4614   20.6284 C   0  0  0  0  0  0
  -30.4044  -12.3359   19.4062 C   0  0  0  0  0  0
  -29.4521  -12.5698   18.2162 C   0  0  0  0  0  0
  -27.9893  -12.4121   18.6540 C   0  0  0  0  0  0
  -27.6679  -13.2301   19.9298 C   0  0  2  0  0  0
  -28.7288  -13.0069   21.0371 C   0  0  0  0  0  0
  -25.2588  -13.8269   20.5944 C   0  0  0  0  0  0
  -24.1857  -13.0528   20.9272 C   0  0  0  0  0  0
  -24.6465  -11.6982   20.8945 C   0  0  0  0  0  0
  -23.9159  -10.4344   21.0499 C   0  0  0  0  0  0
  -24.3676   -9.4193   21.9225 C   0  0  0  0  0  0
  -23.6328   -8.2245   22.0736 C   0  0  0  0  0  0
  -22.4293   -8.0281   21.3554 C   0  0  0  0  0  0
  -21.9987   -9.0287   20.4668 C   0  0  0  0  0  0
  -22.7340  -10.2176   20.3107 C   0  0  0  0  0  0
  -21.6859   -6.0779   22.5286 C   0  0  0  0  0  0
  -21.3990   -6.5695   23.8193 C   0  0  0  0  0  0
  -21.3656   -5.6842   24.9176 C   0  0  0  0  0  0
  -21.6040   -4.3094   24.7233 C   0  0  0  0  0  0
  -21.8807   -3.8189   23.4360 C   0  0  0  0  0  0
  -21.9172   -4.7018   22.3409 C   0  0  0  0  0  0
  -22.7844  -13.5229   21.1925 C   0  0  0  0  0  0
  -22.1651   -4.2171   21.0999 F   0  0  0  0  0  0
  -21.5622   -3.4592   25.7778 F   0  0  0  0  0  0
  -30.0647  -13.2907   20.4769 N   0  0  0  0  0  0
  -26.3113  -12.9493   20.3887 N   0  0  0  0  0  0
  -25.9436  -11.6641   20.6201 N   0  0  0  0  0  0
  -22.0533  -12.8149   22.0433 N   0  0  0  0  0  0
  -25.4416  -15.1961   20.4233 N   0  0  0  0  0  0
  -31.7706  -14.7264   19.9782 O   0  0  0  0  0  0
  -21.6618   -6.8927   21.4236 O   0  0  0  0  0  0
  -22.3490  -14.5531   20.6738 O   0  0  0  0  0  0
  -24.6200  -31.8739   23.2199 C   0  0  0  0  0  0
  -25.9105  -32.4794   23.8509 C   0  0  1  0  0  0
  -27.2107  -27.4178   20.0176 C   0  0  0  0  0  0
  -25.5907  -33.8604   24.2334 N   0  0  0  0  0  0
  -23.3993  -30.5119   21.5546 C   0  0  2  0  0  0
  -24.8225  -28.9702   20.1235 C   0  0  0  0  0  0
  -22.7463  -29.4748   22.4962 C   0  0  0  0  0  0
  -18.0487  -28.1387   22.8457 C   0  0  0  0  0  0
  -24.1484  -36.7323   23.2647 C   0  0  0  0  0  0
  -25.9354  -30.8253   21.3740 C   0  0  0  0  0  0
  -26.0026  -29.4600   20.7097 C   0  0  0  0  0  0
  -27.2057  -28.6956   20.6372 C   0  0  0  0  0  0
  -26.0153  -27.0024   19.4097 C   0  0  0  0  0  0
  -24.8170  -27.7270   19.4927 C   0  0  0  0  0  0
  -23.5965  -29.8579   20.1655 C   0  0  0  0  0  0
  -25.4114  -36.3104   24.0322 C   0  0  1  0  0  0
  -20.6048  -28.3717   23.1317 C   0  0  2  0  0  0
  -20.7026  -26.9465   22.5453 C   0  0  0  0  0  0
  -19.6035  -26.6447   21.5276 C   0  0  0  0  0  0
  -18.2215  -26.7902   22.1684 C   0  0  0  0  0  0
  -19.1715  -28.8884   23.2845 C   0  0  0  0  0  0
  -18.9637  -30.1468   23.8886 C   0  0  0  0  0  0
  -17.6650  -30.6617   24.0538 C   0  0  0  0  0  0
  -25.9082  -34.9475   23.5110 C   0  0  0  0  0  0
  -16.5553  -29.9091   23.6320 C   0  0  0  0  0  0
  -16.7489  -28.6530   23.0316 C   0  0  0  0  0  0
  -26.4543  -31.6592   25.0872 C   0  0  0  0  0  0
  -25.3851  -31.3764   26.1662 C   0  0  0  0  0  0
  -27.0368  -30.3001   24.6370 C   0  0  0  0  0  0
  -27.6054  -32.4415   25.7626 C   0  0  0  0  0  0
  -27.5593  -37.1779   24.8437 C   0  0  0  0  0  0
  -21.4263  -29.3040   22.3634 N   0  0  0  0  0  0
  -26.4304  -37.3770   23.9393 N   0  0  0  0  0  0
  -24.6672  -31.0963   22.1034 N   0  0  0  0  0  0
  -23.4248  -28.8377   23.3093 O   0  0  0  0  0  0
  -28.3578  -26.6750   19.8098 O   0  0  0  0  0  0
  -26.5661  -34.8884   22.4713 O   0  0  0  0  0  0
  -23.5362  -32.1442   23.7601 O   0  0  0  0  0  0
  -28.8554  -18.4769   19.9948 C   0  0  0  0  0  0
  -28.7382  -18.6154   22.4009 C   0  0  0  0  0  0
  -29.5473  -17.2372   20.1127 C   0  0  0  0  0  0
  -29.4114  -17.3782   22.5237 C   0  0  0  0  0  0
  -28.4428  -19.1915   21.1412 C   0  0  0  0  0  0
  -29.7924  -16.6445   21.3850 C   0  0  0  0  0  0
  -28.1281  -22.8746   21.0520 C   0  0  0  0  0  0
  -27.5224  -23.4797   18.8350 C   0  0  0  0  0  0
  -27.6049  -21.9487   19.0082 C   0  0  0  0  0  0
  -27.6012  -24.1088   20.2519 C   0  0  1  0  0  0
  -26.1925  -24.3715   20.8769 C   0  0  0  0  0  0
  -27.5254  -20.4428   21.0738 C   0  0  0  0  0  0
  -28.5798  -25.3384   20.3776 C   0  0  0  0  0  0
  -27.9571  -21.7016   20.4009 N   0  0  0  0  0  0
  -30.3024  -15.3105   21.5690 N   0  0  0  0  0  0
  -28.4955  -22.9898   22.2234 O   0  0  0  0  0  0
  -31.4407  -12.4350   19.0815 H   0  0  0  0  0  0
  -30.2944  -11.3176   19.7780 H   0  0  0  0  0  0
  -29.6672  -11.8795   17.4004 H   0  0  0  0  0  0
  -29.5887  -13.5771   17.8197 H   0  0  0  0  0  0
  -27.8095  -11.3551   18.8373 H   0  0  0  0  0  0
  -27.3077  -12.6996   17.8506 H   0  0  0  0  0  0
  -27.7147  -14.2841   19.6539 H   0  0  0  0  0  0
  -28.7079  -11.9831   21.4084 H   0  0  0  0  0  0
  -28.4999  -13.6250   21.9065 H   0  0  0  0  0  0
  -25.2826   -9.5585   22.4822 H   0  0  0  0  0  0
  -24.0033   -7.4595   22.7410 H   0  0  0  0  0  0
  -21.0937   -8.8851   19.8954 H   0  0  0  0  0  0
  -22.3823  -10.9744   19.6210 H   0  0  0  0  0  0
  -21.1960   -7.6191   23.9686 H   0  0  0  0  0  0
  -21.1497   -6.0617   25.9080 H   0  0  0  0  0  0
  -22.0574   -2.7660   23.2871 H   0  0  0  0  0  0
  -22.4288  -11.9823   22.4781 H   0  0  0  0  0  0
  -21.1102  -13.1011   22.2721 H   0  0  0  0  0  0
  -24.7057  -15.8844   20.5179 H   0  0  0  0  0  0
  -26.3400  -15.6010   20.1902 H   0  0  0  0  0  0
  -26.7195  -32.5447   23.1269 H   0  0  0  0  0  0
  -24.9860  -33.9767   25.0328 H   0  0  0  0  0  0
  -22.7029  -31.3396   21.4194 H   0  0  0  0  0  0
  -23.3746  -35.9651   23.3321 H   0  0  0  0  0  0
  -24.3609  -36.8965   22.2070 H   0  0  0  0  0  0
  -23.7249  -37.6507   23.6729 H   0  0  0  0  0  0
  -26.0713  -31.6103   20.6213 H   0  0  0  0  0  0
  -26.8134  -30.8568   22.0096 H   0  0  0  0  0  0
  -28.0902  -29.1289   21.0715 H   0  0  0  0  0  0
  -26.0131  -26.0954   18.8549 H   0  0  0  0  0  0
  -23.9173  -27.3470   19.0187 H   0  0  0  0  0  0
  -23.7239  -30.6336   19.4078 H   0  0  0  0  0  0
  -22.7208  -29.2797   19.8522 H   0  0  0  0  0  0
  -25.1302  -36.1960   25.0810 H   0  0  0  0  0  0
  -21.0236  -28.3465   24.1434 H   0  0  0  0  0  0
  -20.6014  -26.2346   23.3652 H   0  0  0  0  0  0
  -21.6932  -26.7679   22.1255 H   0  0  0  0  0  0
  -19.7371  -25.6445   21.1215 H   0  0  0  0  0  0
  -19.7086  -27.3270   20.6877 H   0  0  0  0  0  0
  -18.0825  -26.0055   22.9139 H   0  0  0  0  0  0
  -17.4529  -26.6477   21.4084 H   0  0  0  0  0  0
  -19.8123  -30.7314   24.2263 H   0  0  0  0  0  0
  -17.5284  -31.6276   24.5163 H   0  0  0  0  0  0
  -15.5595  -30.3033   23.7720 H   0  0  0  0  0  0
  -15.8883  -28.0807   22.7174 H   0  0  0  0  0  0
  -24.5928  -30.7204   25.8083 H   0  0  0  0  0  0
  -24.9226  -32.2948   26.5277 H   0  0  0  0  0  0
  -25.8271  -30.8853   27.0323 H   0  0  0  0  0  0
  -26.2938  -29.6772   24.1393 H   0  0  0  0  0  0
  -27.3947  -29.7295   25.4941 H   0  0  0  0  0  0
  -27.8886  -30.4256   23.9695 H   0  0  0  0  0  0
  -27.2544  -33.3624   26.2320 H   0  0  0  0  0  0
  -28.3793  -32.7138   25.0442 H   0  0  0  0  0  0
  -28.0832  -31.8546   26.5471 H   0  0  0  0  0  0
  -28.2563  -38.0105   24.7503 H   0  0  0  0  0  0
  -28.1112  -36.2643   24.6220 H   0  0  0  0  0  0
  -27.2342  -37.1365   25.8834 H   0  0  0  0  0  0
  -20.9489  -29.8460   21.6559 H   0  0  0  0  0  0
  -26.0195  -38.2837   24.1385 H   0  0  0  0  0  0
  -28.5930  -18.8370   19.0097 H   0  0  0  0  0  0
  -28.3975  -19.0929   23.3027 H   0  0  0  0  0  0
  -29.8312  -16.7255   19.2041 H   0  0  0  0  0  0
  -29.6044  -16.9716   23.5103 H   0  0  0  0  0  0
  -26.6281  -23.7614   18.2811 H   0  0  0  0  0  0
  -28.3788  -23.8133   18.2313 H   0  0  0  0  0  0
  -28.3716  -21.5161   18.3690 H   0  0  0  0  0  0
  -26.6638  -21.4617   18.7451 H   0  0  0  0  0  0
  -25.4121  -24.5110   20.1356 H   0  0  0  0  0  0
  -26.1994  -25.2416   21.5442 H   0  0  0  0  0  0
  -25.8395  -23.5439   21.4846 H   0  0  0  0  0  0
  -27.2430  -20.6858   22.0994 H   0  0  0  0  0  0
  -26.5816  -20.1125   20.6265 H   0  0  0  0  0  0
  -28.8617  -25.4915   21.4310 H   0  0  0  0  0  0
  -29.4667  -25.0468   19.8239 H   0  0  0  0  0  0
  -29.9860  -14.8513   22.4153 H   0  0  0  0  0  0
  1 25  1  0  0  0
  1 30  2  0  0  0
  1 85  1  0  0  0
  2  3  1  0  0  0
  2 25  1  0  0  0
  2 87  1  0  0  0
  2 88  1  0  0  0
  3  4  1  0  0  0
  3 89  1  0  0  0
  3 90  1  0  0  0
  4  5  1  0  0  0
  4 91  1  0  0  0
  4 92  1  0  0  0
  5  6  1  0  0  0
  5 26  1  0  0  0
  5 93  1  0  0  0
  6 25  1  0  0  0
  6 94  1  0  0  0
  6 95  1  0  0  0
  7  8  2  0  0  0
  7 26  1  0  0  0
  7 29  1  0  0  0
  8  9  1  0  0  0
  8 22  1  0  0  0
  9 10  1  0  0  0
  9 27  2  0  0  0
 10 11  2  0  0  0
 10 15  1  0  0  0
 11 12  1  0  0  0
 11 96  1  0  0  0
 12 13  2  0  0  0
 12 97  1  0  0  0
 13 14  1  0  0  0
 13 31  1  0  0  0
 14 15  2  0  0  0
 14 98  1  0  0  0
 15 99  1  0  0  0
 16 17  2  0  0  0
 16 21  1  0  0  0
 16 31  1  0  0  0
 17 18  1  0  0  0
 17100  1  0  0  0
 18 19  2  0  0  0
 18101  1  0  0  0
 19 20  1  0  0  0
 19 24  1  0  0  0
 20 21  2  0  0  0
 20102  1  0  0  0
 21 23  1  0  0  0
 22 28  1  0  0  0
 22 32  2  0  0  0
 26 27  1  0  0  0
 28103  1  0  0  0
 28104  1  0  0  0
 29105  1  0  0  0
 29106  1  0  0  0
 33 34  1  0  0  0
 33 66  1  0  0  0
 33 70  2  0  0  0
 34 36  1  0  0  0
 34 59  1  0  0  0
 34107  1  0  0  0
 35 44  2  0  0  0
 35 45  1  0  0  0
 35 68  1  0  0  0
 36 56  1  0  0  0
 36108  1  0  0  0
 37 39  1  0  0  0
 37 47  1  0  0  0
 37 66  1  0  0  0
 37109  1  0  0  0
 38 43  2  0  0  0
 38 46  1  0  0  0
 38 47  1  0  0  0
 39 64  1  0  0  0
 39 67  2  0  0  0
 40 52  1  0  0  0
 40 53  2  0  0  0
 40 58  1  0  0  0
 41110  1  0  0  0
 41111  1  0  0  0
 41112  1  0  0  0
 41 48  1  0  0  0
 42 43  1  0  0  0
 42 66  1  0  0  0
 42113  1  0  0  0
 42114  1  0  0  0
 43 44  1  0  0  0
 44115  1  0  0  0
 45 46  2  0  0  0
 45116  1  0  0  0
 46117  1  0  0  0
 47118  1  0  0  0
 47119  1  0  0  0
 48 56  1  0  0  0
 48 65  1  0  0  0
 48120  1  0  0  0
 49 50  1  0  0  0
 49 53  1  0  0  0
 49 64  1  0  0  0
 49121  1  0  0  0
 50 51  1  0  0  0
 50122  1  0  0  0
 50123  1  0  0  0
 51 52  1  0  0  0
 51124  1  0  0  0
 51125  1  0  0  0
 52126  1  0  0  0
 52127  1  0  0  0
 53 54  1  0  0  0
 54 55  2  0  0  0
 54128  1  0  0  0
 55 57  1  0  0  0
 55129  1  0  0  0
 56 69  2  0  0  0
 57 58  2  0  0  0
 57130  1  0  0  0
 58131  1  0  0  0
 59 60  1  0  0  0
 59 61  1  0  0  0
 59 62  1  0  0  0
 60132  1  0  0  0
 60133  1  0  0  0
 60134  1  0  0  0
 61135  1  0  0  0
 61136  1  0  0  0
 61137  1  0  0  0
 62138  1  0  0  0
 62139  1  0  0  0
 62140  1  0  0  0
 63 65  1  0  0  0
 63141  1  0  0  0
 63142  1  0  0  0
 63143  1  0  0  0
 64144  1  0  0  0
 65145  1  0  0  0
 68 83  1  0  0  0
 71 73  2  0  0  0
 71 75  1  0  0  0
 71146  1  0  0  0
 72 74  1  0  0  0
 72 75  2  0  0  0
 72147  1  0  0  0
 73 76  1  0  0  0
 73148  1  0  0  0
 74 76  2  0  0  0
 74149  1  0  0  0
 75 82  1  0  0  0
 76 85  1  0  0  0
 77 80  1  0  0  0
 77 84  1  0  0  0
 77 86  2  0  0  0
 78 79  1  0  0  0
 78 80  1  0  0  0
 78150  1  0  0  0
 78151  1  0  0  0
 79 84  1  0  0  0
 79152  1  0  0  0
 79153  1  0  0  0
 80 81  1  0  0  0
 80 83  1  0  0  0
 81154  1  0  0  0
 81155  1  0  0  0
 81156  1  0  0  0
 82 84  1  0  0  0
 82157  1  0  0  0
 82158  1  0  0  0
 83159  1  0  0  0
 83160  1  0  0  0
 85161  1  0  0  0
M  ISO  4   1 100  68 101  83 101  85 100
M  END
> <chiral flag>
0

> <version>
0

> <s_m_source_file>
/data/baiqing/PycharmProjects/Reinvent-master-3.2/result/LINK_invent/BTK/process_docking_weight1_custom_product_contain_oxygen_bond_distance_aromatic_linkinvent_7_9_3/rearranged_h_0078.sdf

> <i_m_source_file_index>
33

> <r_mmod_Potential_Energy-OPLS-2005>
142.772445678711

> <r_mmod_Stretch_Energy-OPLS-2005>
56.2705307006836

> <r_mmod_Bend_Energy-OPLS-2005>
175.094924926758

> <r_mmod_Torsional_Energy-OPLS-2005>
322.495147705078

> <r_mmod_Improper_Torsional_Energy-OPLS-2005>
9.76461029052734

> <r_mmod_Van_der_Waal_Energy-OPLS-2005>
148.608612060547

> <r_mmod_Electrostatic_Energy-OPLS-2005>
-366.713256835938

> <r_mmod_Solvation_Energy-OPLS-2005>
-226.613204956055

> <b_mmod_Minimization_Converged-OPLS-2005>
0

> <r_mmod_RMS_Derivative-OPLS-2005>
26.5197772979736

$$$$
34
                    3D
 Structure written by MMmdl.
160169  0  0  1  0            999 V2000
  -30.7335  -14.4824   20.5394 C   0  0  0  0  0  0
  -30.4014  -12.3073   19.4358 C   0  0  0  0  0  0
  -29.4886  -12.4972   18.2103 C   0  0  0  0  0  0
  -28.0127  -12.3533   18.6249 C   0  0  0  0  0  0
  -27.6502  -13.2171   19.8631 C   0  0  2  0  0  0
  -28.6916  -13.0622   20.9936 C   0  0  0  0  0  0
  -25.2555  -13.8191   20.5686 C   0  0  0  0  0  0
  -24.1825  -13.0455   20.9195 C   0  0  0  0  0  0
  -24.6389  -11.6921   20.8747 C   0  0  0  0  0  0
  -23.9062  -10.4302   21.0418 C   0  0  0  0  0  0
  -24.3613   -9.4219   21.9200 C   0  0  0  0  0  0
  -23.6291   -8.2253   22.0769 C   0  0  0  0  0  0
  -22.4279   -8.0291   21.3545 C   0  0  0  0  0  0
  -21.9917   -9.0263   20.4645 C   0  0  0  0  0  0
  -22.7243  -10.2144   20.3062 C   0  0  0  0  0  0
  -21.6852   -6.0745   22.5281 C   0  0  0  0  0  0
  -21.4005   -6.5644   23.8213 C   0  0  0  0  0  0
  -21.3654   -5.6795   24.9176 C   0  0  0  0  0  0
  -21.6045   -4.3062   24.7225 C   0  0  0  0  0  0
  -21.8822   -3.8155   23.4342 C   0  0  0  0  0  0
  -21.9194   -4.6971   22.3400 C   0  0  0  0  0  0
  -22.7853  -13.5254   21.1862 C   0  0  0  0  0  0
  -22.1665   -4.2163   21.0977 F   0  0  0  0  0  0
  -21.5632   -3.4544   25.7736 F   0  0  0  0  0  0
  -30.0171  -13.3316   20.4201 N   0  0  0  0  0  0
  -26.2970  -12.9371   20.3317 N   0  0  0  0  0  0
  -25.9310  -11.6524   20.5754 N   0  0  0  0  0  0
  -22.0487  -12.8234   22.0397 N   0  0  0  0  0  0
  -25.4287  -15.1909   20.4087 N   0  0  0  0  0  0
  -31.9009  -14.5429   20.1427 O   0  0  0  0  0  0
  -21.6640   -6.8890   21.4244 O   0  0  0  0  0  0
  -22.3546  -14.5571   20.6727 O   0  0  0  0  0  0
  -24.6168  -31.8676   23.2125 C   0  0  0  0  0  0
  -25.9067  -32.4810   23.8413 C   0  0  1  0  0  0
  -27.2279  -27.4351   20.0827 C   0  0  0  0  0  0
  -25.5960  -33.8613   24.2358 N   0  0  0  0  0  0
  -23.4018  -30.4939   21.5532 C   0  0  2  0  0  0
  -24.8424  -28.9612   20.1118 C   0  0  0  0  0  0
  -22.7413  -29.4654   22.4990 C   0  0  0  0  0  0
  -18.0274  -28.1357   22.8491 C   0  0  0  0  0  0
  -24.1487  -36.7300   23.2643 C   0  0  0  0  0  0
  -25.9308  -30.8331   21.3636 C   0  0  0  0  0  0
  -26.0035  -29.4699   20.7042 C   0  0  0  0  0  0
  -27.1966  -28.7144   20.6850 C   0  0  0  0  0  0
  -26.0412  -26.9335   19.4984 C   0  0  0  0  0  0
  -24.8553  -27.6921   19.5083 C   0  0  0  0  0  0
  -23.6076  -29.8325   20.1645 C   0  0  0  0  0  0
  -25.4114  -36.3111   24.0348 C   0  0  1  0  0  0
  -20.5864  -28.3643   23.1298 C   0  0  2  0  0  0
  -20.6772  -26.9375   22.5398 C   0  0  0  0  0  0
  -19.5747  -26.6363   21.5199 C   0  0  0  0  0  0
  -18.1920  -26.7909   22.1601 C   0  0  0  0  0  0
  -19.1526  -28.8820   23.2889 C   0  0  0  0  0  0
  -18.9455  -30.1434   23.8883 C   0  0  0  0  0  0
  -17.6458  -30.6569   24.0556 C   0  0  0  0  0  0
  -25.9045  -34.9471   23.5136 C   0  0  0  0  0  0
  -16.5345  -29.9069   23.6334 C   0  0  0  0  0  0
  -16.7262  -28.6485   23.0351 C   0  0  0  0  0  0
  -26.4490  -31.6587   25.0744 C   0  0  0  0  0  0
  -25.3767  -31.3610   26.1489 C   0  0  0  0  0  0
  -27.0345  -30.3063   24.6082 C   0  0  0  0  0  0
  -27.6083  -32.4282   25.7505 C   0  0  0  0  0  0
  -27.5576  -37.1816   24.8475 C   0  0  0  0  0  0
  -21.4145  -29.3013   22.3711 N   0  0  0  0  0  0
  -26.4294  -37.3811   23.9420 N   0  0  0  0  0  0
  -24.6683  -31.0786   22.1016 N   0  0  0  0  0  0
  -23.4189  -28.8199   23.3027 O   0  0  0  0  0  0
  -28.4162  -26.7303   20.1177 O   0  0  0  0  0  0
  -26.5569  -34.8915   22.4672 O   0  0  0  0  0  0
  -23.5371  -32.1412   23.7542 O   0  0  0  0  0  0
  -28.3872  -18.1301   21.2356 C   0  0  0  0  0  0
  -27.7039  -19.3664   21.1378 C   0  0  0  0  0  0
  -30.3988  -19.2224   20.4524 C   0  0  0  0  0  0
  -29.7587  -18.0498   20.9116 C   0  0  0  0  0  0
  -28.3538  -20.5649   20.7206 C   0  0  0  0  0  0
  -29.7238  -20.4529   20.3537 C   0  0  0  0  0  0
  -28.1250  -22.9765   20.0626 C   0  0  0  0  0  0
  -27.9758  -24.2519   20.4923 C   0  0  0  0  0  0
  -27.2384  -24.4171   21.7428 C   0  0  0  0  0  0
  -27.4535  -25.4271   22.6060 C   0  0  0  0  0  0
  -30.5956  -16.8085   21.1190 C   0  0  0  0  0  0
  -26.1683  -23.3804   22.0345 C   0  0  0  0  0  0
  -26.6742  -21.9418   21.7994 C   0  0  0  0  0  0
  -28.4968  -25.3951   19.5972 C   0  0  0  0  0  0
  -27.6773  -21.8226   20.7264 N   0  0  0  0  0  0
  -30.0444  -15.5933   20.8928 N   0  0  0  0  0  0
  -31.7791  -16.9772   21.4402 O   0  0  0  0  0  0
  -30.4428  -21.5282   19.9455 F   0  0  0  0  0  0
  -31.4510  -12.3658   19.1400 H   0  0  0  0  0  0
  -30.2714  -11.3109   19.8610 H   0  0  0  0  0  0
  -29.7341  -11.7689   17.4364 H   0  0  0  0  0  0
  -29.6560  -13.4821   17.7705 H   0  0  0  0  0  0
  -27.8354  -11.2995   18.8431 H   0  0  0  0  0  0
  -27.3598  -12.6038   17.7880 H   0  0  0  0  0  0
  -27.6749  -14.2545   19.5303 H   0  0  0  0  0  0
  -28.6640  -12.0548   21.4102 H   0  0  0  0  0  0
  -28.4623  -13.7328   21.8242 H   0  0  0  0  0  0
  -25.2754   -9.5698   22.4782 H   0  0  0  0  0  0
  -24.0001   -7.4647   22.7498 H   0  0  0  0  0  0
  -21.0859   -8.8780   19.8937 H   0  0  0  0  0  0
  -22.3713  -10.9688   19.6170 H   0  0  0  0  0  0
  -21.1987   -7.6152   23.9719 H   0  0  0  0  0  0
  -21.1471   -6.0524   25.9075 H   0  0  0  0  0  0
  -22.0603   -2.7618   23.2842 H   0  0  0  0  0  0
  -22.4095  -11.9861   22.4728 H   0  0  0  0  0  0
  -21.1118  -13.1275   22.2638 H   0  0  0  0  0  0
  -24.6549  -15.8410   20.4954 H   0  0  0  0  0  0
  -26.2648  -15.6213   20.0364 H   0  0  0  0  0  0
  -26.7139  -32.5505   23.1173 H   0  0  0  0  0  0
  -25.0241  -33.9770   25.0595 H   0  0  0  0  0  0
  -22.6915  -31.3126   21.4192 H   0  0  0  0  0  0
  -23.3771  -35.9611   23.3302 H   0  0  0  0  0  0
  -24.3574  -36.8924   22.2055 H   0  0  0  0  0  0
  -23.7202  -37.6492   23.6651 H   0  0  0  0  0  0
  -26.0432  -31.6040   20.5999 H   0  0  0  0  0  0
  -26.8194  -30.8795   21.9820 H   0  0  0  0  0  0
  -28.0958  -29.1057   21.1399 H   0  0  0  0  0  0
  -26.0034  -25.9558   19.0425 H   0  0  0  0  0  0
  -23.9577  -27.2912   19.0582 H   0  0  0  0  0  0
  -23.7230  -30.6127   19.4108 H   0  0  0  0  0  0
  -22.7271  -29.2631   19.8630 H   0  0  0  0  0  0
  -25.1284  -36.1989   25.0839 H   0  0  0  0  0  0
  -20.9947  -28.3202   24.1420 H   0  0  0  0  0  0
  -20.5685  -26.2231   23.3575 H   0  0  0  0  0  0
  -21.6638  -26.7411   22.1173 H   0  0  0  0  0  0
  -19.6898  -25.6275   21.1220 H   0  0  0  0  0  0
  -19.6708  -27.3177   20.6732 H   0  0  0  0  0  0
  -17.4193  -26.6674   21.3998 H   0  0  0  0  0  0
  -18.0310  -26.0032   22.8972 H   0  0  0  0  0  0
  -19.7934  -30.7265   24.2230 H   0  0  0  0  0  0
  -17.5010  -31.6246   24.5168 H   0  0  0  0  0  0
  -15.5349  -30.2968   23.7672 H   0  0  0  0  0  0
  -15.8656  -28.0817   22.7064 H   0  0  0  0  0  0
  -24.6005  -30.6889   25.7808 H   0  0  0  0  0  0
  -24.8872  -32.2707   26.4980 H   0  0  0  0  0  0
  -25.8164  -30.8771   27.0222 H   0  0  0  0  0  0
  -26.2870  -29.6786   24.1226 H   0  0  0  0  0  0
  -27.4255  -29.7334   25.4495 H   0  0  0  0  0  0
  -27.8632  -30.4441   23.9137 H   0  0  0  0  0  0
  -27.2767  -33.3609   26.2082 H   0  0  0  0  0  0
  -28.3914  -32.6788   25.0335 H   0  0  0  0  0  0
  -28.0728  -31.8387   26.5423 H   0  0  0  0  0  0
  -28.2598  -38.0111   24.7554 H   0  0  0  0  0  0
  -28.1070  -36.2647   24.6289 H   0  0  0  0  0  0
  -27.2275  -37.1451   25.8871 H   0  0  0  0  0  0
  -20.9309  -29.8743   21.6937 H   0  0  0  0  0  0
  -26.0183  -38.2886   24.1451 H   0  0  0  0  0  0
  -27.8547  -17.2606   21.5947 H   0  0  0  0  0  0
  -26.6602  -19.3712   21.4132 H   0  0  0  0  0  0
  -31.4483  -19.1994   20.1972 H   0  0  0  0  0  0
  -28.6113  -22.7736   19.1169 H   0  0  0  0  0  0
  -28.2140  -26.1747   22.4414 H   0  0  0  0  0  0
  -26.8775  -25.5194   23.5163 H   0  0  0  0  0  0
  -25.3321  -23.5813   21.3638 H   0  0  0  0  0  0
  -25.7785  -23.4774   23.0490 H   0  0  0  0  0  0
  -25.8112  -21.3108   21.5837 H   0  0  0  0  0  0
  -27.1151  -21.5721   22.7274 H   0  0  0  0  0  0
  -28.0408  -25.3350   18.6074 H   0  0  0  0  0  0
  -29.5568  -25.2021   19.4285 H   0  0  0  0  0  0
  -29.0416  -15.5318   20.8872 H   0  0  0  0  0  0
  1 25  1  0  0  0
  1 30  2  0  0  0
  1 86  1  0  0  0
  2  3  1  0  0  0
  2 25  1  0  0  0
  2 89  1  0  0  0
  2 90  1  0  0  0
  3  4  1  0  0  0
  3 91  1  0  0  0
  3 92  1  0  0  0
  4  5  1  0  0  0
  4 93  1  0  0  0
  4 94  1  0  0  0
  5  6  1  0  0  0
  5 26  1  0  0  0
  5 95  1  0  0  0
  6 25  1  0  0  0
  6 96  1  0  0  0
  6 97  1  0  0  0
  7  8  2  0  0  0
  7 26  1  0  0  0
  7 29  1  0  0  0
  8  9  1  0  0  0
  8 22  1  0  0  0
  9 10  1  0  0  0
  9 27  2  0  0  0
 10 11  2  0  0  0
 10 15  1  0  0  0
 11 12  1  0  0  0
 11 98  1  0  0  0
 12 13  2  0  0  0
 12 99  1  0  0  0
 13 14  1  0  0  0
 13 31  1  0  0  0
 14 15  2  0  0  0
 14100  1  0  0  0
 15101  1  0  0  0
 16 17  2  0  0  0
 16 21  1  0  0  0
 16 31  1  0  0  0
 17 18  1  0  0  0
 17102  1  0  0  0
 18 19  2  0  0  0
 18103  1  0  0  0
 19 20  1  0  0  0
 19 24  1  0  0  0
 20 21  2  0  0  0
 20104  1  0  0  0
 21 23  1  0  0  0
 22 28  1  0  0  0
 22 32  2  0  0  0
 26 27  1  0  0  0
 28105  1  0  0  0
 28106  1  0  0  0
 29107  1  0  0  0
 29108  1  0  0  0
 33 34  1  0  0  0
 33 66  1  0  0  0
 33 70  2  0  0  0
 34 36  1  0  0  0
 34 59  1  0  0  0
 34109  1  0  0  0
 35 44  2  0  0  0
 35 45  1  0  0  0
 35 68  1  0  0  0
 36 56  1  0  0  0
 36110  1  0  0  0
 37 39  1  0  0  0
 37 47  1  0  0  0
 37 66  1  0  0  0
 37111  1  0  0  0
 38 43  2  0  0  0
 38 46  1  0  0  0
 38 47  1  0  0  0
 39 64  1  0  0  0
 39 67  2  0  0  0
 40 52  1  0  0  0
 40 53  2  0  0  0
 40 58  1  0  0  0
 41112  1  0  0  0
 41113  1  0  0  0
 41114  1  0  0  0
 41 48  1  0  0  0
 42 43  1  0  0  0
 42 66  1  0  0  0
 42115  1  0  0  0
 42116  1  0  0  0
 43 44  1  0  0  0
 44117  1  0  0  0
 45 46  2  0  0  0
 45118  1  0  0  0
 46119  1  0  0  0
 47120  1  0  0  0
 47121  1  0  0  0
 48 56  1  0  0  0
 48 65  1  0  0  0
 48122  1  0  0  0
 49 50  1  0  0  0
 49 53  1  0  0  0
 49 64  1  0  0  0
 49123  1  0  0  0
 50 51  1  0  0  0
 50124  1  0  0  0
 50125  1  0  0  0
 51 52  1  0  0  0
 51126  1  0  0  0
 51127  1  0  0  0
 52128  1  0  0  0
 52129  1  0  0  0
 53 54  1  0  0  0
 54 55  2  0  0  0
 54130  1  0  0  0
 55 57  1  0  0  0
 55131  1  0  0  0
 56 69  2  0  0  0
 57 58  2  0  0  0
 57132  1  0  0  0
 58133  1  0  0  0
 59 60  1  0  0  0
 59 61  1  0  0  0
 59 62  1  0  0  0
 60134  1  0  0  0
 60135  1  0  0  0
 60136  1  0  0  0
 61137  1  0  0  0
 61138  1  0  0  0
 61139  1  0  0  0
 62140  1  0  0  0
 62141  1  0  0  0
 62142  1  0  0  0
 63 65  1  0  0  0
 63143  1  0  0  0
 63144  1  0  0  0
 63145  1  0  0  0
 64146  1  0  0  0
 65147  1  0  0  0
 68 84  1  0  0  0
 71 72  2  0  0  0
 71 74  1  0  0  0
 71148  1  0  0  0
 72 75  1  0  0  0
 72149  1  0  0  0
 73 74  2  0  0  0
 73 76  1  0  0  0
 73150  1  0  0  0
 74 81  1  0  0  0
 75 76  2  0  0  0
 75 85  1  0  0  0
 76 88  1  0  0  0
 77 78  2  0  0  0
 77 85  1  0  0  0
 77151  1  0  0  0
 78 79  1  0  0  0
 78 84  1  0  0  0
 79 80  2  0  0  0
 79 82  1  0  0  0
 80152  1  0  0  0
 80153  1  0  0  0
 81 86  1  0  0  0
 81 87  2  0  0  0
 82 83  1  0  0  0
 82154  1  0  0  0
 82155  1  0  0  0
 83 85  1  0  0  0
 83156  1  0  0  0
 83157  1  0  0  0
 84158  1  0  0  0
 84159  1  0  0  0
 86160  1  0  0  0
M  ISO  4   1 100  68 101  84 101  86 100
M  END
> <chiral flag>
0

> <version>
0

> <s_m_source_file>
/data/baiqing/PycharmProjects/Reinvent-master-3.2/result/LINK_invent/BTK/process_docking_weight1_custom_product_contain_oxygen_bond_distance_aromatic_linkinvent_7_9_3/rearranged_h_0078.sdf

> <i_m_source_file_index>
34

> <r_mmod_Potential_Energy-OPLS-2005>
-1.87070906162262

> <r_mmod_Stretch_Energy-OPLS-2005>
43.7854690551758

> <r_mmod_Bend_Energy-OPLS-2005>
125.881446838379

> <r_mmod_Torsional_Energy-OPLS-2005>
235.640106201172

> <r_mmod_Improper_Torsional_Energy-OPLS-2005>
6.65235090255737

> <r_mmod_Van_der_Waal_Energy-OPLS-2005>
186.753509521484

> <r_mmod_Electrostatic_Energy-OPLS-2005>
-395.792633056641

> <r_mmod_Solvation_Energy-OPLS-2005>
-224.277847290039

> <b_mmod_Minimization_Converged-OPLS-2005>
0

> <r_mmod_RMS_Derivative-OPLS-2005>
1.68083894252777

$$$$
35
                    3D
 Structure written by MMmdl.
166174  0  0  1  0            999 V2000
  -30.6432  -14.7351   20.4403 C   0  0  0  0  0  0
  -30.4148  -12.4442   19.4752 C   0  0  0  0  0  0
  -29.5031  -12.4974   18.2319 C   0  0  0  0  0  0
  -28.0291  -12.3274   18.6434 C   0  0  0  0  0  0
  -27.6305  -13.2398   19.8395 C   0  0  2  0  0  0
  -28.6763  -13.2026   20.9739 C   0  0  0  0  0  0
  -25.2463  -13.8223   20.5702 C   0  0  0  0  0  0
  -24.1775  -13.0423   20.9212 C   0  0  0  0  0  0
  -24.6401  -11.6933   20.8752 C   0  0  0  0  0  0
  -23.9101  -10.4287   21.0427 C   0  0  0  0  0  0
  -24.3646   -9.4204   21.9183 C   0  0  0  0  0  0
  -23.6312   -8.2259   22.0752 C   0  0  0  0  0  0
  -22.4295   -8.0306   21.3564 C   0  0  0  0  0  0
  -21.9960   -9.0273   20.4659 C   0  0  0  0  0  0
  -22.7299  -10.2141   20.3072 C   0  0  0  0  0  0
  -21.6857   -6.0744   22.5295 C   0  0  0  0  0  0
  -21.4014   -6.5642   23.8222 C   0  0  0  0  0  0
  -21.3661   -5.6794   24.9178 C   0  0  0  0  0  0
  -21.6055   -4.3058   24.7241 C   0  0  0  0  0  0
  -21.8814   -3.8155   23.4349 C   0  0  0  0  0  0
  -21.9197   -4.6967   22.3408 C   0  0  0  0  0  0
  -22.7812  -13.5220   21.1863 C   0  0  0  0  0  0
  -22.1650   -4.2156   21.0980 F   0  0  0  0  0  0
  -21.5624   -3.4541   25.7739 F   0  0  0  0  0  0
  -29.9771  -13.5310   20.3835 N   0  0  0  0  0  0
  -26.2886  -12.9440   20.3278 N   0  0  0  0  0  0
  -25.9327  -11.6576   20.5736 N   0  0  0  0  0  0
  -22.0460  -12.8198   22.0432 N   0  0  0  0  0  0
  -25.4132  -15.1954   20.4089 N   0  0  0  0  0  0
  -31.8529  -14.7414   20.2138 O   0  0  0  0  0  0
  -21.6663   -6.8906   21.4260 O   0  0  0  0  0  0
  -22.3496  -14.5528   20.6736 O   0  0  0  0  0  0
  -24.6363  -31.8509   23.1930 C   0  0  0  0  0  0
  -25.9152  -32.4719   23.8325 C   0  0  1  0  0  0
  -27.2146  -27.2239   20.1372 C   0  0  0  0  0  0
  -25.5931  -33.8539   24.2230 N   0  0  0  0  0  0
  -23.4320  -30.4734   21.5387 C   0  0  2  0  0  0
  -24.8744  -28.9017   20.1181 C   0  0  0  0  0  0
  -22.7498  -29.4604   22.4880 C   0  0  0  0  0  0
  -18.0279  -28.1346   22.8468 C   0  0  0  0  0  0
  -24.1474  -36.7266   23.2643 C   0  0  0  0  0  0
  -25.9820  -30.7494   21.3780 C   0  0  0  0  0  0
  -26.0506  -29.3691   20.7152 C   0  0  0  0  0  0
  -27.2254  -28.5482   20.7027 C   0  0  0  0  0  0
  -26.0111  -26.8183   19.5240 C   0  0  0  0  0  0
  -24.8607  -27.6350   19.5101 C   0  0  0  0  0  0
  -23.6487  -29.7966   20.1599 C   0  0  0  0  0  0
  -25.4111  -36.3057   24.0320 C   0  0  1  0  0  0
  -20.5894  -28.3691   23.1205 C   0  0  2  0  0  0
  -20.6727  -26.9386   22.5366 C   0  0  0  0  0  0
  -19.5723  -26.6344   21.5150 C   0  0  0  0  0  0
  -18.1928  -26.7883   22.1593 C   0  0  0  0  0  0
  -19.1539  -28.8828   23.2832 C   0  0  0  0  0  0
  -18.9482  -30.1410   23.8876 C   0  0  0  0  0  0
  -17.6489  -30.6558   24.0532 C   0  0  0  0  0  0
  -25.9059  -34.9430   23.5081 C   0  0  0  0  0  0
  -16.5364  -29.9063   23.6315 C   0  0  0  0  0  0
  -16.7268  -28.6454   23.0390 C   0  0  0  0  0  0
  -26.4494  -31.6600   25.0773 C   0  0  0  0  0  0
  -25.3669  -31.3832   26.1475 C   0  0  0  0  0  0
  -27.0360  -30.2986   24.6359 C   0  0  0  0  0  0
  -27.6020  -32.4402   25.7562 C   0  0  0  0  0  0
  -27.5581  -37.1792   24.8464 C   0  0  0  0  0  0
  -21.4202  -29.3064   22.3613 N   0  0  0  0  0  0
  -26.4271  -37.3777   23.9426 N   0  0  0  0  0  0
  -24.7032  -31.0439   22.0920 N   0  0  0  0  0  0
  -23.4155  -28.8131   23.3009 O   0  0  0  0  0  0
  -28.3255  -26.3402   20.1326 O   0  0  0  0  0  0
  -26.5676  -34.8923   22.4673 O   0  0  0  0  0  0
  -23.5509  -32.1352   23.7198 O   0  0  0  0  0  0
  -31.9314  -18.8872   19.2145 C   0  0  0  0  0  0
  -31.1493  -20.0044   19.5415 C   0  0  0  0  0  0
  -31.5118  -17.5910   19.5492 C   0  0  0  0  0  0
  -29.5041  -18.5335   20.5672 C   0  0  0  0  0  0
  -29.9131  -19.8980   20.2174 C   0  0  0  0  0  0
  -30.2977  -17.3409   20.2402 C   0  0  0  0  0  0
  -29.2391  -21.2515   20.6498 C   0  0  0  0  0  0
  -30.6468  -25.4792   18.6557 C   0  0  0  0  0  0
  -31.4355  -23.7593   20.2472 C   0  0  0  0  0  0
  -30.8045  -23.1805   17.8290 C   0  0  0  0  0  0
  -27.9778  -21.4872   18.6417 C   0  0  0  0  0  0
  -28.2062  -24.8466   20.4123 C   0  0  0  0  0  0
  -28.9466  -23.6990   19.4969 C   0  0  1  0  0  0
  -30.4366  -24.0107   19.0897 C   0  0  0  0  0  0
  -29.9131  -15.9237   20.5443 N   0  0  0  0  0  0
  -28.7437  -22.1534   19.7074 N   0  0  0  0  0  0
  -29.3154  -21.5674   21.8398 O   0  0  0  0  0  0
  -31.4591  -12.5441   19.1750 H   0  0  0  0  0  0
  -30.3343  -11.4784   19.9752 H   0  0  0  0  0  0
  -29.7831  -11.7233   17.5159 H   0  0  0  0  0  0
  -29.6355  -13.4520   17.7165 H   0  0  0  0  0  0
  -27.8819  -11.2769   18.9070 H   0  0  0  0  0  0
  -27.3801  -12.5229   17.7879 H   0  0  0  0  0  0
  -27.6152  -14.2551   19.4440 H   0  0  0  0  0  0
  -28.7067  -12.2226   21.4487 H   0  0  0  0  0  0
  -28.4179  -13.9138   21.7593 H   0  0  0  0  0  0
  -25.2780   -9.5657   22.4767 H   0  0  0  0  0  0
  -24.0003   -7.4649   22.7471 H   0  0  0  0  0  0
  -21.0890   -8.8819   19.8964 H   0  0  0  0  0  0
  -22.3773  -10.9680   19.6181 H   0  0  0  0  0  0
  -21.2011   -7.6152   23.9731 H   0  0  0  0  0  0
  -21.1479   -6.0518   25.9080 H   0  0  0  0  0  0
  -22.0597   -2.7624   23.2859 H   0  0  0  0  0  0
  -22.4067  -11.9836   22.4802 H   0  0  0  0  0  0
  -21.1069  -13.1222   22.2617 H   0  0  0  0  0  0
  -24.6423  -15.8466   20.5269 H   0  0  0  0  0  0
  -26.2572  -15.6428   20.0742 H   0  0  0  0  0  0
  -26.7229  -32.5322   23.1082 H   0  0  0  0  0  0
  -25.0033  -33.9686   25.0344 H   0  0  0  0  0  0
  -22.7320  -31.2990   21.3867 H   0  0  0  0  0  0
  -23.3749  -35.9570   23.3261 H   0  0  0  0  0  0
  -24.3548  -36.8933   22.2055 H   0  0  0  0  0  0
  -23.7196  -37.6442   23.6698 H   0  0  0  0  0  0
  -26.1426  -31.5105   20.6144 H   0  0  0  0  0  0
  -26.8512  -30.7850   22.0268 H   0  0  0  0  0  0
  -28.1309  -28.9155   21.1693 H   0  0  0  0  0  0
  -25.9460  -25.8458   19.0584 H   0  0  0  0  0  0
  -23.9605  -27.2622   19.0440 H   0  0  0  0  0  0
  -23.7790  -30.5677   19.4010 H   0  0  0  0  0  0
  -22.7643  -29.2362   19.8506 H   0  0  0  0  0  0
  -25.1285  -36.1895   25.0809 H   0  0  0  0  0  0
  -20.9992  -28.3267   24.1326 H   0  0  0  0  0  0
  -20.5511  -26.2350   23.3603 H   0  0  0  0  0  0
  -21.6618  -26.7321   22.1246 H   0  0  0  0  0  0
  -19.6881  -25.6248   21.1224 H   0  0  0  0  0  0
  -19.6638  -27.3112   20.6641 H   0  0  0  0  0  0
  -17.4163  -26.6603   21.4027 H   0  0  0  0  0  0
  -18.0356  -26.0007   22.8989 H   0  0  0  0  0  0
  -19.7969  -30.7193   24.2266 H   0  0  0  0  0  0
  -17.5061  -31.6250   24.5130 H   0  0  0  0  0  0
  -15.5378  -30.2980   23.7615 H   0  0  0  0  0  0
  -15.8669  -28.0730   22.7200 H   0  0  0  0  0  0
  -24.5795  -30.7243   25.7808 H   0  0  0  0  0  0
  -24.8937  -32.3043   26.4888 H   0  0  0  0  0  0
  -25.7939  -30.9009   27.0272 H   0  0  0  0  0  0
  -26.3006  -29.6743   24.1279 H   0  0  0  0  0  0
  -27.3851  -29.7289   25.4988 H   0  0  0  0  0  0
  -27.8954  -30.4224   23.9764 H   0  0  0  0  0  0
  -27.2551  -33.3690   26.2120 H   0  0  0  0  0  0
  -28.3824  -32.7000   25.0391 H   0  0  0  0  0  0
  -28.0663  -31.8549   26.5507 H   0  0  0  0  0  0
  -28.2587  -38.0115   24.7546 H   0  0  0  0  0  0
  -28.1103  -36.2652   24.6223 H   0  0  0  0  0  0
  -27.2314  -37.1338   25.8874 H   0  0  0  0  0  0
  -20.9388  -29.8855   21.6891 H   0  0  0  0  0  0
  -26.0138  -38.2846   24.1440 H   0  0  0  0  0  0
  -32.8828  -19.0228   18.7162 H   0  0  0  0  0  0
  -31.5542  -20.9716   19.3035 H   0  0  0  0  0  0
  -32.1812  -16.7989   19.2482 H   0  0  0  0  0  0
  -28.5779  -18.4061   21.1091 H   0  0  0  0  0  0
  -31.6003  -25.5923   18.1400 H   0  0  0  0  0  0
  -30.6769  -26.1669   19.5012 H   0  0  0  0  0  0
  -29.8776  -25.8240   17.9590 H   0  0  0  0  0  0
  -32.4492  -24.0148   19.9372 H   0  0  0  0  0  0
  -31.4717  -22.7316   20.5977 H   0  0  0  0  0  0
  -31.2063  -24.3760   21.1175 H   0  0  0  0  0  0
  -31.8656  -23.2540   17.5866 H   0  0  0  0  0  0
  -30.2452  -23.5269   16.9552 H   0  0  0  0  0  0
  -30.5756  -22.1210   17.8898 H   0  0  0  0  0  0
  -28.6266  -21.0724   17.8688 H   0  0  0  0  0  0
  -27.2535  -22.1466   18.1671 H   0  0  0  0  0  0
  -27.4011  -20.6520   19.0471 H   0  0  0  0  0  0
  -28.5602  -24.7228   21.4356 H   0  0  0  0  0  0
  -27.1513  -24.5849   20.4608 H   0  0  0  0  0  0
  -28.4346  -23.8821   18.5535 H   0  0  0  0  0  0
  -28.9391  -15.7762   20.7437 H   0  0  0  0  0  0
  1 25  1  0  0  0
  1 30  2  0  0  0
  1 85  1  0  0  0
  2  3  1  0  0  0
  2 25  1  0  0  0
  2 88  1  0  0  0
  2 89  1  0  0  0
  3  4  1  0  0  0
  3 90  1  0  0  0
  3 91  1  0  0  0
  4  5  1  0  0  0
  4 92  1  0  0  0
  4 93  1  0  0  0
  5  6  1  0  0  0
  5 26  1  0  0  0
  5 94  1  0  0  0
  6 25  1  0  0  0
  6 95  1  0  0  0
  6 96  1  0  0  0
  7  8  2  0  0  0
  7 26  1  0  0  0
  7 29  1  0  0  0
  8  9  1  0  0  0
  8 22  1  0  0  0
  9 10  1  0  0  0
  9 27  2  0  0  0
 10 11  2  0  0  0
 10 15  1  0  0  0
 11 12  1  0  0  0
 11 97  1  0  0  0
 12 13  2  0  0  0
 12 98  1  0  0  0
 13 14  1  0  0  0
 13 31  1  0  0  0
 14 15  2  0  0  0
 14 99  1  0  0  0
 15100  1  0  0  0
 16 17  2  0  0  0
 16 21  1  0  0  0
 16 31  1  0  0  0
 17 18  1  0  0  0
 17101  1  0  0  0
 18 19  2  0  0  0
 18102  1  0  0  0
 19 20  1  0  0  0
 19 24  1  0  0  0
 20 21  2  0  0  0
 20103  1  0  0  0
 21 23  1  0  0  0
 22 28  1  0  0  0
 22 32  2  0  0  0
 26 27  1  0  0  0
 28104  1  0  0  0
 28105  1  0  0  0
 29106  1  0  0  0
 29107  1  0  0  0
 33 34  1  0  0  0
 33 66  1  0  0  0
 33 70  2  0  0  0
 34 36  1  0  0  0
 34 59  1  0  0  0
 34108  1  0  0  0
 35 44  2  0  0  0
 35 45  1  0  0  0
 35 68  1  0  0  0
 36 56  1  0  0  0
 36109  1  0  0  0
 37 39  1  0  0  0
 37 47  1  0  0  0
 37 66  1  0  0  0
 37110  1  0  0  0
 38 43  2  0  0  0
 38 46  1  0  0  0
 38 47  1  0  0  0
 39 64  1  0  0  0
 39 67  2  0  0  0
 40 52  1  0  0  0
 40 53  2  0  0  0
 40 58  1  0  0  0
 41111  1  0  0  0
 41112  1  0  0  0
 41113  1  0  0  0
 41 48  1  0  0  0
 42 43  1  0  0  0
 42 66  1  0  0  0
 42114  1  0  0  0
 42115  1  0  0  0
 43 44  1  0  0  0
 44116  1  0  0  0
 45 46  2  0  0  0
 45117  1  0  0  0
 46118  1  0  0  0
 47119  1  0  0  0
 47120  1  0  0  0
 48 56  1  0  0  0
 48 65  1  0  0  0
 48121  1  0  0  0
 49 50  1  0  0  0
 49 53  1  0  0  0
 49 64  1  0  0  0
 49122  1  0  0  0
 50 51  1  0  0  0
 50123  1  0  0  0
 50124  1  0  0  0
 51 52  1  0  0  0
 51125  1  0  0  0
 51126  1  0  0  0
 52127  1  0  0  0
 52128  1  0  0  0
 53 54  1  0  0  0
 54 55  2  0  0  0
 54129  1  0  0  0
 55 57  1  0  0  0
 55130  1  0  0  0
 56 69  2  0  0  0
 57 58  2  0  0  0
 57131  1  0  0  0
 58132  1  0  0  0
 59 60  1  0  0  0
 59 61  1  0  0  0
 59 62  1  0  0  0
 60133  1  0  0  0
 60134  1  0  0  0
 60135  1  0  0  0
 61136  1  0  0  0
 61137  1  0  0  0
 61138  1  0  0  0
 62139  1  0  0  0
 62140  1  0  0  0
 62141  1  0  0  0
 63 65  1  0  0  0
 63142  1  0  0  0
 63143  1  0  0  0
 63144  1  0  0  0
 64145  1  0  0  0
 65146  1  0  0  0
 68 82  1  0  0  0
 71 72  2  0  0  0
 71 73  1  0  0  0
 71147  1  0  0  0
 72 75  1  0  0  0
 72148  1  0  0  0
 73 76  2  0  0  0
 73149  1  0  0  0
 74 75  2  0  0  0
 74 76  1  0  0  0
 74150  1  0  0  0
 75 77  1  0  0  0
 76 85  1  0  0  0
 77 86  1  0  0  0
 77 87  2  0  0  0
 78151  1  0  0  0
 78152  1  0  0  0
 78153  1  0  0  0
 78 84  1  0  0  0
 79 84  1  0  0  0
 79154  1  0  0  0
 79155  1  0  0  0
 79156  1  0  0  0
 80 84  1  0  0  0
 80157  1  0  0  0
 80158  1  0  0  0
 80159  1  0  0  0
 81 86  1  0  0  0
 81160  1  0  0  0
 81161  1  0  0  0
 81162  1  0  0  0
 82163  1  0  0  0
 82164  1  0  0  0
 82 83  1  0  0  0
 83 84  1  0  0  0
 83 86  1  0  0  0
 83165  1  0  0  0
 85166  1  0  0  0
M  ISO  4   1 100  68 101  82 101  85 100
M  END
> <chiral flag>
0

> <version>
0

> <s_m_source_file>
/data/baiqing/PycharmProjects/Reinvent-master-3.2/result/LINK_invent/BTK/process_docking_weight1_custom_product_contain_oxygen_bond_distance_aromatic_linkinvent_7_9_3/rearranged_h_0078.sdf

> <i_m_source_file_index>
35

> <r_mmod_Potential_Energy-OPLS-2005>
387.136260986328

> <r_mmod_Stretch_Energy-OPLS-2005>
164.115341186523

> <r_mmod_Bend_Energy-OPLS-2005>
212.784530639648

> <r_mmod_Torsional_Energy-OPLS-2005>
334.194152832031

> <r_mmod_Improper_Torsional_Energy-OPLS-2005>
7.65220355987549

> <r_mmod_Van_der_Waal_Energy-OPLS-2005>
155.817611694336

> <r_mmod_Electrostatic_Energy-OPLS-2005>
-366.375183105469

> <r_mmod_Solvation_Energy-OPLS-2005>
-215.195343017578

> <b_mmod_Minimization_Converged-OPLS-2005>
0

> <r_mmod_RMS_Derivative-OPLS-2005>
5.78033494949341

$$$$
36
                    3D
 Structure written by MMmdl.
155163  0  0  1  0            999 V2000
  -30.7023  -14.4740   20.6083 C   0  0  0  0  0  0
  -30.4281  -12.3197   19.4263 C   0  0  0  0  0  0
  -29.4972  -12.5176   18.2114 C   0  0  0  0  0  0
  -28.0197  -12.3685   18.6217 C   0  0  0  0  0  0
  -27.6626  -13.2068   19.8784 C   0  0  2  0  0  0
  -28.7013  -12.9803   21.0001 C   0  0  0  0  0  0
  -25.2582  -13.8168   20.5673 C   0  0  0  0  0  0
  -24.1830  -13.0452   20.9174 C   0  0  0  0  0  0
  -24.6383  -11.6914   20.8736 C   0  0  0  0  0  0
  -23.9061  -10.4297   21.0415 C   0  0  0  0  0  0
  -24.3617   -9.4214   21.9189 C   0  0  0  0  0  0
  -23.6294   -8.2250   22.0756 C   0  0  0  0  0  0
  -22.4276   -8.0284   21.3548 C   0  0  0  0  0  0
  -21.9910   -9.0258   20.4647 C   0  0  0  0  0  0
  -22.7237  -10.2134   20.3063 C   0  0  0  0  0  0
  -21.6849   -6.0745   22.5284 C   0  0  0  0  0  0
  -21.4003   -6.5649   23.8218 C   0  0  0  0  0  0
  -21.3660   -5.6796   24.9176 C   0  0  0  0  0  0
  -21.6049   -4.3063   24.7224 C   0  0  0  0  0  0
  -21.8820   -3.8156   23.4346 C   0  0  0  0  0  0
  -21.9190   -4.6973   22.3406 C   0  0  0  0  0  0
  -22.7852  -13.5250   21.1842 C   0  0  0  0  0  0
  -22.1657   -4.2161   21.0986 F   0  0  0  0  0  0
  -21.5635   -3.4553   25.7741 F   0  0  0  0  0  0
  -30.0383  -13.2928   20.4601 N   0  0  0  0  0  0
  -26.3024  -12.9329   20.3372 N   0  0  0  0  0  0
  -25.9310  -11.6486   20.5763 N   0  0  0  0  0  0
  -22.0486  -12.8238   22.0389 N   0  0  0  0  0  0
  -25.4313  -15.1883   20.4078 N   0  0  0  0  0  0
  -31.8014  -14.6809   20.0852 O   0  0  0  0  0  0
  -21.6635   -6.8885   21.4248 O   0  0  0  0  0  0
  -22.3540  -14.5568   20.6710 O   0  0  0  0  0  0
  -24.6138  -31.8672   23.2103 C   0  0  0  0  0  0
  -25.9036  -32.4816   23.8399 C   0  0  1  0  0  0
  -27.2349  -27.4354   20.1081 C   0  0  0  0  0  0
  -25.5899  -33.8621   24.2327 N   0  0  0  0  0  0
  -23.4023  -30.4880   21.5501 C   0  0  2  0  0  0
  -24.8532  -28.9513   20.1189 C   0  0  0  0  0  0
  -22.7407  -29.4637   22.4997 C   0  0  0  0  0  0
  -18.0265  -28.1367   22.8490 C   0  0  0  0  0  0
  -24.1480  -36.7307   23.2638 C   0  0  0  0  0  0
  -25.9296  -30.8334   21.3645 C   0  0  0  0  0  0
  -26.0108  -29.4648   20.7186 C   0  0  0  0  0  0
  -27.2078  -28.7120   20.7138 C   0  0  0  0  0  0
  -26.0672  -26.9344   19.5023 C   0  0  0  0  0  0
  -24.8754  -27.6843   19.5087 C   0  0  0  0  0  0
  -23.6133  -29.8164   20.1652 C   0  0  0  0  0  0
  -25.4100  -36.3113   24.0341 C   0  0  1  0  0  0
  -20.5850  -28.3637   23.1318 C   0  0  2  0  0  0
  -20.6738  -26.9370   22.5424 C   0  0  0  0  0  0
  -19.5729  -26.6370   21.5209 C   0  0  0  0  0  0
  -18.1901  -26.7922   22.1604 C   0  0  0  0  0  0
  -19.1518  -28.8824   23.2903 C   0  0  0  0  0  0
  -18.9451  -30.1438   23.8910 C   0  0  0  0  0  0
  -17.6452  -30.6573   24.0570 C   0  0  0  0  0  0
  -25.9031  -34.9477   23.5125 C   0  0  0  0  0  0
  -16.5344  -29.9070   23.6341 C   0  0  0  0  0  0
  -16.7259  -28.6492   23.0357 C   0  0  0  0  0  0
  -26.4469  -31.6601   25.0724 C   0  0  0  0  0  0
  -25.3749  -31.3740   26.1495 C   0  0  0  0  0  0
  -27.0272  -30.3026   24.6114 C   0  0  0  0  0  0
  -27.6061  -32.4309   25.7471 C   0  0  0  0  0  0
  -27.5589  -37.1797   24.8456 C   0  0  0  0  0  0
  -21.4136  -29.3009   22.3741 N   0  0  0  0  0  0
  -26.4281  -37.3797   23.9427 N   0  0  0  0  0  0
  -24.6662  -31.0769   22.1007 N   0  0  0  0  0  0
  -23.4181  -28.8177   23.3033 O   0  0  0  0  0  0
  -28.3791  -26.6749   20.0684 O   0  0  0  0  0  0
  -26.5596  -34.8931   22.4688 O   0  0  0  0  0  0
  -23.5334  -32.1413   23.7505 O   0  0  0  0  0  0
  -31.4221  -18.9517   21.0391 C   0  0  0  0  0  0
  -31.3474  -17.5455   20.9010 C   0  0  0  0  0  0
  -29.2145  -18.9837   22.0572 C   0  0  0  0  0  0
  -30.3630  -19.6828   21.6283 C   0  0  0  0  0  0
  -30.2067  -16.8375   21.3586 C   0  0  0  0  0  0
  -29.1449  -17.5769   21.9286 C   0  0  0  0  0  0
  -30.5027  -21.1299   21.8711 C   0  0  0  0  0  0
  -28.6974  -24.3590   20.8919 C   0  0  0  0  0  0
  -29.5906  -23.4983   21.8048 C   0  0  0  0  0  0
  -28.5922  -25.8626   21.2340 C   0  0  0  0  0  0
  -30.0383  -15.4156   21.3060 N   0  0  0  0  0  0
  -29.5659  -22.0327   21.5279 N   0  0  0  0  0  0
  -31.6094  -21.5578   22.4771 N   0  3  0  0  0  0
  -28.0833  -23.8505   19.9453 O   0  0  0  0  0  0
  -28.0451  -16.9173   22.3690 F   0  0  0  0  0  0
  -31.4714  -12.4278   19.1240 H   0  0  0  0  0  0
  -30.3406  -11.3045   19.8162 H   0  0  0  0  0  0
  -29.7424  -11.7988   17.4283 H   0  0  0  0  0  0
  -29.6580  -13.5076   17.7810 H   0  0  0  0  0  0
  -27.8381  -11.3104   18.8170 H   0  0  0  0  0  0
  -27.3678  -12.6402   17.7901 H   0  0  0  0  0  0
  -27.7085  -14.2564   19.5859 H   0  0  0  0  0  0
  -28.6766  -11.9408   21.3306 H   0  0  0  0  0  0
  -28.4462  -13.5644   21.8856 H   0  0  0  0  0  0
  -25.2761   -9.5701   22.4760 H   0  0  0  0  0  0
  -24.0017   -7.4643   22.7472 H   0  0  0  0  0  0
  -21.0847   -8.8779   19.8942 H   0  0  0  0  0  0
  -22.3710  -10.9681   19.6177 H   0  0  0  0  0  0
  -21.1978   -7.6154   23.9729 H   0  0  0  0  0  0
  -21.1483   -6.0523   25.9079 H   0  0  0  0  0  0
  -22.0595   -2.7620   23.2846 H   0  0  0  0  0  0
  -22.4084  -11.9896   22.4782 H   0  0  0  0  0  0
  -21.1105  -13.1282   22.2594 H   0  0  0  0  0  0
  -24.6717  -15.8488   20.5322 H   0  0  0  0  0  0
  -26.2977  -15.6326   20.1342 H   0  0  0  0  0  0
  -26.7116  -32.5538   23.1172 H   0  0  0  0  0  0
  -25.0087  -33.9785   25.0498 H   0  0  0  0  0  0
  -22.6920  -31.3044   21.4070 H   0  0  0  0  0  0
  -23.3767  -35.9612   23.3251 H   0  0  0  0  0  0
  -24.3598  -36.8978   22.2067 H   0  0  0  0  0  0
  -23.7190  -37.6470   23.6698 H   0  0  0  0  0  0
  -26.0368  -31.5966   20.5930 H   0  0  0  0  0  0
  -26.8183  -30.8918   21.9816 H   0  0  0  0  0  0
  -28.1058  -29.1038   21.1704 H   0  0  0  0  0  0
  -26.0822  -25.9616   19.0304 H   0  0  0  0  0  0
  -23.9853  -27.2818   19.0445 H   0  0  0  0  0  0
  -23.7196  -30.5886   19.4027 H   0  0  0  0  0  0
  -22.7372  -29.2347   19.8705 H   0  0  0  0  0  0
  -25.1271  -36.1970   25.0828 H   0  0  0  0  0  0
  -20.9935  -28.3198   24.1436 H   0  0  0  0  0  0
  -20.5593  -26.2247   23.3612 H   0  0  0  0  0  0
  -21.6618  -26.7374   22.1242 H   0  0  0  0  0  0
  -19.6869  -25.6279   21.1229 H   0  0  0  0  0  0
  -19.6683  -27.3188   20.6743 H   0  0  0  0  0  0
  -17.4175  -26.6722   21.3997 H   0  0  0  0  0  0
  -18.0261  -26.0043   22.8962 H   0  0  0  0  0  0
  -19.7931  -30.7266   24.2267 H   0  0  0  0  0  0
  -17.4998  -31.6256   24.5154 H   0  0  0  0  0  0
  -15.5341  -30.2970   23.7660 H   0  0  0  0  0  0
  -15.8662  -28.0814   22.7055 H   0  0  0  0  0  0
  -24.5897  -30.7101   25.7865 H   0  0  0  0  0  0
  -24.8972  -32.2909   26.4962 H   0  0  0  0  0  0
  -25.8100  -30.8913   27.0249 H   0  0  0  0  0  0
  -26.2796  -29.6792   24.1197 H   0  0  0  0  0  0
  -27.4036  -29.7278   25.4583 H   0  0  0  0  0  0
  -27.8638  -30.4322   23.9245 H   0  0  0  0  0  0
  -27.2723  -33.3652   26.2009 H   0  0  0  0  0  0
  -28.3895  -32.6797   25.0296 H   0  0  0  0  0  0
  -28.0685  -31.8440   26.5419 H   0  0  0  0  0  0
  -28.2575  -38.0128   24.7548 H   0  0  0  0  0  0
  -28.1116  -36.2657   24.6207 H   0  0  0  0  0  0
  -27.2326  -37.1359   25.8865 H   0  0  0  0  0  0
  -20.9299  -29.8793   21.7016 H   0  0  0  0  0  0
  -26.0166  -38.2857   24.1494 H   0  0  0  0  0  0
  -32.3102  -19.4680   20.6985 H   0  0  0  0  0  0
  -32.1882  -17.0340   20.4588 H   0  0  0  0  0  0
  -28.3984  -19.5138   22.5268 H   0  0  0  0  0  0
  -29.2958  -23.6751   22.8391 H   0  0  0  0  0  0
  -30.6067  -23.8788   21.6963 H   0  0  0  0  0  0
  -29.5123  -26.1828   21.7234 H   0  0  0  0  0  0
  -27.7840  -25.9933   21.9559 H   0  0  0  0  0  0
  -29.1796  -15.0954   21.7277 H   0  0  0  0  0  0
  -28.7781  -21.7184   20.9714 H   0  0  0  0  0  0
  -32.2968  -20.8809   22.7735 H   0  0  0  0  0  0
  -31.7621  -22.5219   22.7133 H   0  0  0  0  0  0
  1 25  1  0  0  0
  1 30  2  0  0  0
  1 81  1  0  0  0
  2  3  1  0  0  0
  2 25  1  0  0  0
  2 86  1  0  0  0
  2 87  1  0  0  0
  3  4  1  0  0  0
  3 88  1  0  0  0
  3 89  1  0  0  0
  4  5  1  0  0  0
  4 90  1  0  0  0
  4 91  1  0  0  0
  5  6  1  0  0  0
  5 26  1  0  0  0
  5 92  1  0  0  0
  6 25  1  0  0  0
  6 93  1  0  0  0
  6 94  1  0  0  0
  7  8  2  0  0  0
  7 26  1  0  0  0
  7 29  1  0  0  0
  8  9  1  0  0  0
  8 22  1  0  0  0
  9 10  1  0  0  0
  9 27  2  0  0  0
 10 11  2  0  0  0
 10 15  1  0  0  0
 11 12  1  0  0  0
 11 95  1  0  0  0
 12 13  2  0  0  0
 12 96  1  0  0  0
 13 14  1  0  0  0
 13 31  1  0  0  0
 14 15  2  0  0  0
 14 97  1  0  0  0
 15 98  1  0  0  0
 16 17  2  0  0  0
 16 21  1  0  0  0
 16 31  1  0  0  0
 17 18  1  0  0  0
 17 99  1  0  0  0
 18 19  2  0  0  0
 18100  1  0  0  0
 19 20  1  0  0  0
 19 24  1  0  0  0
 20 21  2  0  0  0
 20101  1  0  0  0
 21 23  1  0  0  0
 22 28  1  0  0  0
 22 32  2  0  0  0
 26 27  1  0  0  0
 28102  1  0  0  0
 28103  1  0  0  0
 29104  1  0  0  0
 29105  1  0  0  0
 33 34  1  0  0  0
 33 66  1  0  0  0
 33 70  2  0  0  0
 34 36  1  0  0  0
 34 59  1  0  0  0
 34106  1  0  0  0
 35 44  2  0  0  0
 35 45  1  0  0  0
 35 68  1  0  0  0
 36 56  1  0  0  0
 36107  1  0  0  0
 37 39  1  0  0  0
 37 47  1  0  0  0
 37 66  1  0  0  0
 37108  1  0  0  0
 38 43  2  0  0  0
 38 46  1  0  0  0
 38 47  1  0  0  0
 39 64  1  0  0  0
 39 67  2  0  0  0
 40 52  1  0  0  0
 40 53  2  0  0  0
 40 58  1  0  0  0
 41109  1  0  0  0
 41110  1  0  0  0
 41111  1  0  0  0
 41 48  1  0  0  0
 42 43  1  0  0  0
 42 66  1  0  0  0
 42112  1  0  0  0
 42113  1  0  0  0
 43 44  1  0  0  0
 44114  1  0  0  0
 45 46  2  0  0  0
 45115  1  0  0  0
 46116  1  0  0  0
 47117  1  0  0  0
 47118  1  0  0  0
 48 56  1  0  0  0
 48 65  1  0  0  0
 48119  1  0  0  0
 49 50  1  0  0  0
 49 53  1  0  0  0
 49 64  1  0  0  0
 49120  1  0  0  0
 50 51  1  0  0  0
 50121  1  0  0  0
 50122  1  0  0  0
 51 52  1  0  0  0
 51123  1  0  0  0
 51124  1  0  0  0
 52125  1  0  0  0
 52126  1  0  0  0
 53 54  1  0  0  0
 54 55  2  0  0  0
 54127  1  0  0  0
 55 57  1  0  0  0
 55128  1  0  0  0
 56 69  2  0  0  0
 57 58  2  0  0  0
 57129  1  0  0  0
 58130  1  0  0  0
 59 60  1  0  0  0
 59 61  1  0  0  0
 59 62  1  0  0  0
 60131  1  0  0  0
 60132  1  0  0  0
 60133  1  0  0  0
 61134  1  0  0  0
 61135  1  0  0  0
 61136  1  0  0  0
 62137  1  0  0  0
 62138  1  0  0  0
 62139  1  0  0  0
 63 65  1  0  0  0
 63140  1  0  0  0
 63141  1  0  0  0
 63142  1  0  0  0
 64143  1  0  0  0
 65144  1  0  0  0
 68 80  1  0  0  0
 71 72  2  0  0  0
 71 74  1  0  0  0
 71145  1  0  0  0
 72 75  1  0  0  0
 72146  1  0  0  0
 73 74  2  0  0  0
 73 76  1  0  0  0
 73147  1  0  0  0
 74 77  1  0  0  0
 75 76  2  0  0  0
 75 81  1  0  0  0
 76 85  1  0  0  0
 77 82  1  0  0  0
 77 83  2  0  0  0
 78 79  1  0  0  0
 78 80  1  0  0  0
 78 84  2  0  0  0
 79 82  1  0  0  0
 79148  1  0  0  0
 79149  1  0  0  0
 80150  1  0  0  0
 80151  1  0  0  0
 81152  1  0  0  0
 82153  1  0  0  0
 83154  1  0  0  0
 83155  1  0  0  0
M  CHG  1  83   1
M  ISO  4   1 100  68 101  80 101  81 100
M  END
> <chiral flag>
0

> <version>
0

> <s_m_source_file>
/data/baiqing/PycharmProjects/Reinvent-master-3.2/result/LINK_invent/BTK/process_docking_weight1_custom_product_contain_oxygen_bond_distance_aromatic_linkinvent_7_9_3/rearranged_h_0078.sdf

> <i_m_source_file_index>
36

> <r_mmod_Potential_Energy-OPLS-2005>
-389.124786376953

> <r_mmod_Stretch_Energy-OPLS-2005>
38.2841911315918

> <r_mmod_Bend_Energy-OPLS-2005>
100.195442199707

> <r_mmod_Torsional_Energy-OPLS-2005>
236.612777709961

> <r_mmod_Improper_Torsional_Energy-OPLS-2005>
2.90725183486938

> <r_mmod_Van_der_Waal_Energy-OPLS-2005>
151.170425415039

> <r_mmod_Electrostatic_Energy-OPLS-2005>
-487.697418212891

> <r_mmod_Solvation_Energy-OPLS-2005>
-441.884002685547

> <b_mmod_Minimization_Converged-OPLS-2005>
0

> <r_mmod_RMS_Derivative-OPLS-2005>
1.95793056488037

$$$$
37
                    3D
 Structure written by MMmdl.
163172  0  0  1  0            999 V2000
  -30.7203  -14.4743   20.6262 C   0  0  0  0  0  0
  -30.4231  -12.3320   19.4142 C   0  0  0  0  0  0
  -29.4908  -12.5170   18.2012 C   0  0  0  0  0  0
  -28.0151  -12.3657   18.6184 C   0  0  0  0  0  0
  -27.6602  -13.2085   19.8721 C   0  0  2  0  0  0
  -28.7016  -12.9935   20.9917 C   0  0  0  0  0  0
  -25.2584  -13.8163   20.5679 C   0  0  0  0  0  0
  -24.1836  -13.0441   20.9172 C   0  0  0  0  0  0
  -24.6390  -11.6908   20.8725 C   0  0  0  0  0  0
  -23.9056  -10.4292   21.0397 C   0  0  0  0  0  0
  -24.3608   -9.4210   21.9176 C   0  0  0  0  0  0
  -23.6285   -8.2243   22.0751 C   0  0  0  0  0  0
  -22.4268   -8.0279   21.3544 C   0  0  0  0  0  0
  -21.9899   -9.0252   20.4646 C   0  0  0  0  0  0
  -22.7225  -10.2131   20.3050 C   0  0  0  0  0  0
  -21.6853   -6.0732   22.5278 C   0  0  0  0  0  0
  -21.4015   -6.5637   23.8210 C   0  0  0  0  0  0
  -21.3659   -5.6790   24.9173 C   0  0  0  0  0  0
  -21.6044   -4.3052   24.7225 C   0  0  0  0  0  0
  -21.8819   -3.8144   23.4346 C   0  0  0  0  0  0
  -21.9193   -4.6960   22.3401 C   0  0  0  0  0  0
  -22.7858  -13.5241   21.1837 C   0  0  0  0  0  0
  -22.1663   -4.2144   21.0978 F   0  0  0  0  0  0
  -21.5627   -3.4537   25.7739 F   0  0  0  0  0  0
  -30.0306  -13.3129   20.4405 N   0  0  0  0  0  0
  -26.3017  -12.9336   20.3350 N   0  0  0  0  0  0
  -25.9316  -11.6494   20.5748 N   0  0  0  0  0  0
  -22.0496  -12.8238   22.0396 N   0  0  0  0  0  0
  -25.4315  -15.1880   20.4096 N   0  0  0  0  0  0
  -31.8053  -14.6893   20.0790 O   0  0  0  0  0  0
  -21.6636   -6.8874   21.4238 O   0  0  0  0  0  0
  -22.3548  -14.5548   20.6687 O   0  0  0  0  0  0
  -24.6176  -31.8663   23.2090 C   0  0  0  0  0  0
  -25.9062  -32.4815   23.8388 C   0  0  1  0  0  0
  -27.2294  -27.4102   20.1001 C   0  0  0  0  0  0
  -25.5912  -33.8611   24.2320 N   0  0  0  0  0  0
  -23.4068  -30.4904   21.5500 C   0  0  2  0  0  0
  -24.8535  -28.9559   20.1127 C   0  0  0  0  0  0
  -22.7427  -29.4651   22.4977 C   0  0  0  0  0  0
  -18.0276  -28.1381   22.8488 C   0  0  0  0  0  0
  -24.1489  -36.7309   23.2637 C   0  0  0  0  0  0
  -25.9388  -30.8240   21.3674 C   0  0  0  0  0  0
  -26.0160  -29.4571   20.7134 C   0  0  0  0  0  0
  -27.2089  -28.6915   20.7051 C   0  0  0  0  0  0
  -26.0515  -26.9368   19.4808 C   0  0  0  0  0  0
  -24.8669  -27.6956   19.4924 C   0  0  0  0  0  0
  -23.6168  -29.8252   20.1640 C   0  0  0  0  0  0
  -25.4110  -36.3106   24.0337 C   0  0  1  0  0  0
  -20.5869  -28.3671   23.1311 C   0  0  2  0  0  0
  -20.6768  -26.9404   22.5419 C   0  0  0  0  0  0
  -19.5749  -26.6389   21.5211 C   0  0  0  0  0  0
  -18.1925  -26.7928   22.1619 C   0  0  0  0  0  0
  -19.1526  -28.8842   23.2897 C   0  0  0  0  0  0
  -18.9454  -30.1446   23.8909 C   0  0  0  0  0  0
  -17.6457  -30.6586   24.0564 C   0  0  0  0  0  0
  -25.9035  -34.9471   23.5122 C   0  0  0  0  0  0
  -16.5346  -29.9088   23.6329 C   0  0  0  0  0  0
  -16.7265  -28.6504   23.0347 C   0  0  0  0  0  0
  -26.4481  -31.6597   25.0722 C   0  0  0  0  0  0
  -25.3743  -31.3718   26.1471 C   0  0  0  0  0  0
  -27.0306  -30.3033   24.6114 C   0  0  0  0  0  0
  -27.6059  -32.4314   25.7482 C   0  0  0  0  0  0
  -27.5583  -37.1809   24.8463 C   0  0  0  0  0  0
  -21.4151  -29.3033   22.3714 N   0  0  0  0  0  0
  -26.4297  -37.3791   23.9407 N   0  0  0  0  0  0
  -24.6726  -31.0747   22.1001 N   0  0  0  0  0  0
  -23.4186  -28.8190   23.3028 O   0  0  0  0  0  0
  -28.3651  -26.6190   20.1072 O   0  0  0  0  0  0
  -26.5595  -34.8924   22.4682 O   0  0  0  0  0  0
  -23.5364  -32.1426   23.7472 O   0  0  0  0  0  0
  -31.5137  -18.8512   21.2020 C   0  0  0  0  0  0
  -29.1417  -18.3957   21.2138 C   0  0  0  0  0  0
  -31.2598  -20.1796   20.7934 C   0  0  0  0  0  0
  -28.8821  -19.7354   20.8217 C   0  0  0  0  0  0
  -30.4606  -17.9360   21.4610 C   0  0  0  0  0  0
  -29.9421  -20.6598   20.6416 C   0  0  0  0  0  0
  -28.1993  -25.2930   20.4817 C   0  0  0  0  0  0
  -29.0603  -24.2910   20.1800 C   0  0  0  0  0  0
  -28.7805  -22.9083   20.6175 C   0  0  0  0  0  0
  -32.4277  -17.0499   23.8864 C   0  0  0  0  0  0
  -31.0377  -17.3199   24.4644 C   0  0  0  0  0  0
  -32.1883  -16.3039   22.5670 C   0  0  0  0  0  0
  -30.0609  -16.5853   23.5427 C   0  0  0  0  0  0
  -30.7119  -16.5513   22.1404 C   0  0  0  0  0  0
  -29.7685  -22.0442   20.2942 N   0  0  0  0  0  0
  -30.1370  -15.3758   21.4457 N   0  0  0  0  0  0
  -27.7605  -22.5597   21.2179 O   0  0  0  0  0  0
  -30.1734  -24.5626   19.4791 O   0  0  0  0  0  0
  -31.4653  -12.4393   19.1087 H   0  0  0  0  0  0
  -30.3361  -11.3202   19.8133 H   0  0  0  0  0  0
  -29.7353  -11.7916   17.4239 H   0  0  0  0  0  0
  -29.6507  -13.5029   17.7617 H   0  0  0  0  0  0
  -27.8346  -11.3091   18.8208 H   0  0  0  0  0  0
  -27.3595  -12.6311   17.7881 H   0  0  0  0  0  0
  -27.7039  -14.2559   19.5729 H   0  0  0  0  0  0
  -28.6869  -11.9555   21.3268 H   0  0  0  0  0  0
  -28.4461  -13.5817   21.8734 H   0  0  0  0  0  0
  -25.2754   -9.5688   22.4748 H   0  0  0  0  0  0
  -23.9998   -7.4637   22.7473 H   0  0  0  0  0  0
  -21.0829   -8.8768   19.8954 H   0  0  0  0  0  0
  -22.3682  -10.9667   19.6157 H   0  0  0  0  0  0
  -21.2009   -7.6146   23.9713 H   0  0  0  0  0  0
  -21.1480   -6.0520   25.9075 H   0  0  0  0  0  0
  -22.0598   -2.7607   23.2848 H   0  0  0  0  0  0
  -22.4108  -11.9897   22.4780 H   0  0  0  0  0  0
  -21.1116  -13.1271   22.2602 H   0  0  0  0  0  0
  -24.6668  -15.8452   20.5181 H   0  0  0  0  0  0
  -26.2866  -15.6250   20.0891 H   0  0  0  0  0  0
  -26.7129  -32.5521   23.1146 H   0  0  0  0  0  0
  -25.0080  -33.9772   25.0481 H   0  0  0  0  0  0
  -22.6967  -31.3083   21.4111 H   0  0  0  0  0  0
  -23.3748  -35.9645   23.3313 H   0  0  0  0  0  0
  -24.3585  -36.8909   22.2049 H   0  0  0  0  0  0
  -23.7246  -37.6521   23.6638 H   0  0  0  0  0  0
  -26.0567  -31.5904   20.6000 H   0  0  0  0  0  0
  -26.8245  -30.8753   21.9889 H   0  0  0  0  0  0
  -28.1054  -29.0698   21.1760 H   0  0  0  0  0  0
  -26.0451  -25.9710   18.9951 H   0  0  0  0  0  0
  -23.9752  -27.3057   19.0210 H   0  0  0  0  0  0
  -23.7265  -30.6010   19.4052 H   0  0  0  0  0  0
  -22.7398  -29.2471   19.8673 H   0  0  0  0  0  0
  -25.1289  -36.1970   25.0830 H   0  0  0  0  0  0
  -20.9960  -28.3240   24.1432 H   0  0  0  0  0  0
  -20.5674  -26.2275   23.3606 H   0  0  0  0  0  0
  -21.6639  -26.7451   22.1212 H   0  0  0  0  0  0
  -19.6911  -25.6304   21.1233 H   0  0  0  0  0  0
  -19.6692  -27.3206   20.6746 H   0  0  0  0  0  0
  -17.4199  -26.6679   21.4016 H   0  0  0  0  0  0
  -18.0321  -26.0070   22.9013 H   0  0  0  0  0  0
  -19.7931  -30.7257   24.2287 H   0  0  0  0  0  0
  -17.5014  -31.6269   24.5162 H   0  0  0  0  0  0
  -15.5346  -30.2991   23.7651 H   0  0  0  0  0  0
  -15.8664  -28.0828   22.7056 H   0  0  0  0  0  0
  -24.5910  -30.7068   25.7815 H   0  0  0  0  0  0
  -24.8940  -32.2879   26.4916 H   0  0  0  0  0  0
  -25.8096  -30.8892   27.0230 H   0  0  0  0  0  0
  -26.2850  -29.6801   24.1162 H   0  0  0  0  0  0
  -27.4059  -29.7268   25.4581 H   0  0  0  0  0  0
  -27.8697  -30.4343   23.9276 H   0  0  0  0  0  0
  -27.2683  -33.3605   26.2087 H   0  0  0  0  0  0
  -28.3852  -32.6890   25.0297 H   0  0  0  0  0  0
  -28.0743  -31.8420   26.5375 H   0  0  0  0  0  0
  -28.2609  -38.0099   24.7507 H   0  0  0  0  0  0
  -28.1070  -36.2631   24.6288 H   0  0  0  0  0  0
  -27.2302  -37.1468   25.8867 H   0  0  0  0  0  0
  -20.9311  -29.8753   21.6935 H   0  0  0  0  0  0
  -26.0186  -38.2871   24.1404 H   0  0  0  0  0  0
  -32.5449  -18.5790   21.3613 H   0  0  0  0  0  0
  -28.3059  -17.7333   21.3899 H   0  0  0  0  0  0
  -32.0982  -20.8460   20.6443 H   0  0  0  0  0  0
  -27.8562  -20.0467   20.6843 H   0  0  0  0  0  0
  -27.2935  -25.1306   21.0539 H   0  0  0  0  0  0
  -33.0411  -16.4565   24.5658 H   0  0  0  0  0  0
  -32.9526  -17.9905   23.7145 H   0  0  0  0  0  0
  -30.8314  -18.3912   24.4387 H   0  0  0  0  0  0
  -30.9458  -16.9947   25.5013 H   0  0  0  0  0  0
  -32.3249  -15.2455   22.7956 H   0  0  0  0  0  0
  -32.9263  -16.5260   21.7965 H   0  0  0  0  0  0
  -29.0628  -17.0236   23.5613 H   0  0  0  0  0  0
  -29.9543  -15.5692   23.9285 H   0  0  0  0  0  0
  -30.5540  -22.5074   19.8546 H   0  0  0  0  0  0
  -29.2183  -15.1076   21.7610 H   0  0  0  0  0  0
  -30.1616  -25.4950   19.3010 H   0  0  0  0  0  0
  1 25  1  0  0  0
  1 30  2  0  0  0
  1 86  1  0  0  0
  2  3  1  0  0  0
  2 25  1  0  0  0
  2 89  1  0  0  0
  2 90  1  0  0  0
  3  4  1  0  0  0
  3 91  1  0  0  0
  3 92  1  0  0  0
  4  5  1  0  0  0
  4 93  1  0  0  0
  4 94  1  0  0  0
  5  6  1  0  0  0
  5 26  1  0  0  0
  5 95  1  0  0  0
  6 25  1  0  0  0
  6 96  1  0  0  0
  6 97  1  0  0  0
  7  8  2  0  0  0
  7 26  1  0  0  0
  7 29  1  0  0  0
  8  9  1  0  0  0
  8 22  1  0  0  0
  9 10  1  0  0  0
  9 27  2  0  0  0
 10 11  2  0  0  0
 10 15  1  0  0  0
 11 12  1  0  0  0
 11 98  1  0  0  0
 12 13  2  0  0  0
 12 99  1  0  0  0
 13 14  1  0  0  0
 13 31  1  0  0  0
 14 15  2  0  0  0
 14100  1  0  0  0
 15101  1  0  0  0
 16 17  2  0  0  0
 16 21  1  0  0  0
 16 31  1  0  0  0
 17 18  1  0  0  0
 17102  1  0  0  0
 18 19  2  0  0  0
 18103  1  0  0  0
 19 20  1  0  0  0
 19 24  1  0  0  0
 20 21  2  0  0  0
 20104  1  0  0  0
 21 23  1  0  0  0
 22 28  1  0  0  0
 22 32  2  0  0  0
 26 27  1  0  0  0
 28105  1  0  0  0
 28106  1  0  0  0
 29107  1  0  0  0
 29108  1  0  0  0
 33 34  1  0  0  0
 33 66  1  0  0  0
 33 70  2  0  0  0
 34 36  1  0  0  0
 34 59  1  0  0  0
 34109  1  0  0  0
 35 44  2  0  0  0
 35 45  1  0  0  0
 35 68  1  0  0  0
 36 56  1  0  0  0
 36110  1  0  0  0
 37 39  1  0  0  0
 37 47  1  0  0  0
 37 66  1  0  0  0
 37111  1  0  0  0
 38 43  2  0  0  0
 38 46  1  0  0  0
 38 47  1  0  0  0
 39 64  1  0  0  0
 39 67  2  0  0  0
 40 52  1  0  0  0
 40 53  2  0  0  0
 40 58  1  0  0  0
 41112  1  0  0  0
 41113  1  0  0  0
 41114  1  0  0  0
 41 48  1  0  0  0
 42 43  1  0  0  0
 42 66  1  0  0  0
 42115  1  0  0  0
 42116  1  0  0  0
 43 44  1  0  0  0
 44117  1  0  0  0
 45 46  2  0  0  0
 45118  1  0  0  0
 46119  1  0  0  0
 47120  1  0  0  0
 47121  1  0  0  0
 48 56  1  0  0  0
 48 65  1  0  0  0
 48122  1  0  0  0
 49 50  1  0  0  0
 49 53  1  0  0  0
 49 64  1  0  0  0
 49123  1  0  0  0
 50 51  1  0  0  0
 50124  1  0  0  0
 50125  1  0  0  0
 51 52  1  0  0  0
 51126  1  0  0  0
 51127  1  0  0  0
 52128  1  0  0  0
 52129  1  0  0  0
 53 54  1  0  0  0
 54 55  2  0  0  0
 54130  1  0  0  0
 55 57  1  0  0  0
 55131  1  0  0  0
 56 69  2  0  0  0
 57 58  2  0  0  0
 57132  1  0  0  0
 58133  1  0  0  0
 59 60  1  0  0  0
 59 61  1  0  0  0
 59 62  1  0  0  0
 60134  1  0  0  0
 60135  1  0  0  0
 60136  1  0  0  0
 61137  1  0  0  0
 61138  1  0  0  0
 61139  1  0  0  0
 62140  1  0  0  0
 62141  1  0  0  0
 62142  1  0  0  0
 63 65  1  0  0  0
 63143  1  0  0  0
 63144  1  0  0  0
 63145  1  0  0  0
 64146  1  0  0  0
 65147  1  0  0  0
 68 77  1  0  0  0
 71 73  2  0  0  0
 71 75  1  0  0  0
 71148  1  0  0  0
 72 74  1  0  0  0
 72 75  2  0  0  0
 72149  1  0  0  0
 73 76  1  0  0  0
 73150  1  0  0  0
 74 76  2  0  0  0
 74151  1  0  0  0
 75 84  1  0  0  0
 76 85  1  0  0  0
 77 78  2  0  0  0
 77152  1  0  0  0
 78 79  1  0  0  0
 78 88  1  0  0  0
 79 85  1  0  0  0
 79 87  2  0  0  0
 80 81  1  0  0  0
 80 82  1  0  0  0
 80153  1  0  0  0
 80154  1  0  0  0
 81 83  1  0  0  0
 81155  1  0  0  0
 81156  1  0  0  0
 82 84  1  0  0  0
 82157  1  0  0  0
 82158  1  0  0  0
 83 84  1  0  0  0
 83159  1  0  0  0
 83160  1  0  0  0
 84 86  1  0  0  0
 85161  1  0  0  0
 86162  1  0  0  0
 88163  1  0  0  0
M  ISO  4   1 100  68 101  77 101  86 100
M  END
> <chiral flag>
0

> <version>
0

> <s_m_source_file>
/data/baiqing/PycharmProjects/Reinvent-master-3.2/result/LINK_invent/BTK/process_docking_weight1_custom_product_contain_oxygen_bond_distance_aromatic_linkinvent_7_9_3/rearranged_h_0078.sdf

> <i_m_source_file_index>
37

> <r_mmod_Potential_Energy-OPLS-2005>
-67.495361328125

> <r_mmod_Stretch_Energy-OPLS-2005>
47.3390808105469

> <r_mmod_Bend_Energy-OPLS-2005>
138.988784790039

> <r_mmod_Torsional_Energy-OPLS-2005>
250.883972167969

> <r_mmod_Improper_Torsional_Energy-OPLS-2005>
2.90737962722778

> <r_mmod_Van_der_Waal_Energy-OPLS-2005>
164.280746459961

> <r_mmod_Electrostatic_Energy-OPLS-2005>
-470.373107910156

> <r_mmod_Solvation_Energy-OPLS-2005>
-216.19856262207

> <b_mmod_Minimization_Converged-OPLS-2005>
0

> <r_mmod_RMS_Derivative-OPLS-2005>
0.480431824922562

$$$$
38
                    3D
 Structure written by MMmdl.
166175  0  0  1  0            999 V2000
  -30.8484  -14.3438   20.6301 C   0  0  0  0  0  0
  -30.3965  -12.2648   19.4109 C   0  0  0  0  0  0
  -29.4837  -12.5319   18.2026 C   0  0  0  0  0  0
  -28.0073  -12.4097   18.6118 C   0  0  0  0  0  0
  -27.6707  -13.2251   19.8886 C   0  0  2  0  0  0
  -28.7182  -13.0105   21.0092 C   0  0  0  0  0  0
  -25.2619  -13.8213   20.5678 C   0  0  0  0  0  0
  -24.1842  -13.0475   20.9165 C   0  0  0  0  0  0
  -24.6417  -11.6960   20.8675 C   0  0  0  0  0  0
  -23.9067  -10.4339   21.0344 C   0  0  0  0  0  0
  -24.3625   -9.4285   21.9155 C   0  0  0  0  0  0
  -23.6311   -8.2309   22.0730 C   0  0  0  0  0  0
  -22.4302   -8.0307   21.3533 C   0  0  0  0  0  0
  -21.9923   -9.0249   20.4622 C   0  0  0  0  0  0
  -22.7219  -10.2155   20.3018 C   0  0  0  0  0  0
  -21.6891   -6.0744   22.5275 C   0  0  0  0  0  0
  -21.4009   -6.5642   23.8202 C   0  0  0  0  0  0
  -21.3664   -5.6788   24.9162 C   0  0  0  0  0  0
  -21.6041   -4.3041   24.7212 C   0  0  0  0  0  0
  -21.8837   -3.8143   23.4336 C   0  0  0  0  0  0
  -21.9210   -4.6966   22.3399 C   0  0  0  0  0  0
  -22.7885  -13.5280   21.1825 C   0  0  0  0  0  0
  -22.1698   -4.2153   21.0982 F   0  0  0  0  0  0
  -21.5630   -3.4532   25.7722 F   0  0  0  0  0  0
  -30.0637  -13.2460   20.4559 N   0  0  0  0  0  0
  -26.3101  -12.9423   20.3469 N   0  0  0  0  0  0
  -25.9362  -11.6560   20.5769 N   0  0  0  0  0  0
  -22.0525  -12.8211   22.0370 N   0  0  0  0  0  0
  -25.4304  -15.1922   20.4108 N   0  0  0  0  0  0
  -31.8842  -14.5259   19.9864 O   0  0  0  0  0  0
  -21.6694   -6.8887   21.4239 O   0  0  0  0  0  0
  -22.3585  -14.5620   20.6743 O   0  0  0  0  0  0
  -24.6175  -31.8591   23.2180 C   0  0  0  0  0  0
  -25.9070  -32.4748   23.8432 C   0  0  1  0  0  0
  -27.2417  -27.4570   20.1231 C   0  0  0  0  0  0
  -25.5948  -33.8559   24.2338 N   0  0  0  0  0  0
  -23.3989  -30.4942   21.5513 C   0  0  2  0  0  0
  -24.8466  -28.9530   20.1207 C   0  0  0  0  0  0
  -22.7354  -29.4704   22.4992 C   0  0  0  0  0  0
  -18.0260  -28.1389   22.8509 C   0  0  0  0  0  0
  -24.1433  -36.7292   23.2669 C   0  0  0  0  0  0
  -25.9241  -30.8449   21.3549 C   0  0  0  0  0  0
  -26.0017  -29.4810   20.7071 C   0  0  0  0  0  0
  -27.2016  -28.7409   20.7095 C   0  0  0  0  0  0
  -26.0756  -26.9377   19.5236 C   0  0  0  0  0  0
  -24.8760  -27.6748   19.5304 C   0  0  0  0  0  0
  -23.6050  -29.8155   20.1673 C   0  0  0  0  0  0
  -25.4073  -36.3076   24.0336 C   0  0  1  0  0  0
  -20.5851  -28.3624   23.1325 C   0  0  2  0  0  0
  -20.6758  -26.9372   22.5406 C   0  0  0  0  0  0
  -19.5733  -26.6403   21.5200 C   0  0  0  0  0  0
  -18.1904  -26.7953   22.1599 C   0  0  0  0  0  0
  -19.1515  -28.8833   23.2915 C   0  0  0  0  0  0
  -18.9430  -30.1456   23.8886 C   0  0  0  0  0  0
  -17.6442  -30.6580   24.0564 C   0  0  0  0  0  0
  -25.9005  -34.9431   23.5116 C   0  0  0  0  0  0
  -16.5321  -29.9047   23.6384 C   0  0  0  0  0  0
  -16.7249  -28.6486   23.0357 C   0  0  0  0  0  0
  -26.4568  -31.6518   25.0718 C   0  0  0  0  0  0
  -25.3906  -31.3450   26.1470 C   0  0  0  0  0  0
  -27.0487  -30.3003   24.6081 C   0  0  0  0  0  0
  -27.6121  -32.4289   25.7459 C   0  0  0  0  0  0
  -27.5546  -37.1819   24.8518 C   0  0  0  0  0  0
  -21.4090  -29.2988   22.3684 N   0  0  0  0  0  0
  -26.4272  -37.3768   23.9437 N   0  0  0  0  0  0
  -24.6658  -31.0769   22.1030 N   0  0  0  0  0  0
  -23.4099  -28.8280   23.3092 O   0  0  0  0  0  0
  -28.3848  -26.6908   20.1334 O   0  0  0  0  0  0
  -26.5543  -34.8913   22.4662 O   0  0  0  0  0  0
  -23.5404  -32.1295   23.7636 O   0  0  0  0  0  0
  -29.4644  -19.4564   20.4710 C   0  0  0  0  0  0
  -31.0642  -19.9542   22.2362 C   0  0  0  0  0  0
  -28.9777  -20.7737   20.5510 C   0  0  0  0  0  0
  -30.5557  -21.2677   22.3347 C   0  0  0  0  0  0
  -30.5206  -19.0243   21.3087 C   0  0  0  0  0  0
  -29.5165  -21.6883   21.4751 C   0  0  0  0  0  0
  -31.9775  -17.6203   19.8697 C   0  0  0  0  0  0
  -28.8157  -23.9037   22.4113 C   0  0  0  0  0  0
  -31.8678  -17.0885   22.3901 C   0  0  0  0  0  0
  -31.5291  -15.5968   22.5683 C   0  0  0  0  0  0
  -29.9549  -16.5237   21.1201 C   0  0  0  0  0  0
  -31.0834  -17.5964   21.1518 C   0  0  1  0  0  0
  -31.3437  -17.3270   18.5055 C   0  0  0  0  0  0
  -28.0177  -25.1670   22.0433 C   0  0  0  0  0  0
  -28.8487  -26.3285   21.4450 C   0  0  0  0  0  0
  -30.5017  -15.2368   21.5789 N   0  0  0  0  0  0
  -29.0103  -23.0158   21.4196 N   0  0  0  0  0  0
  -33.1636  -17.9635   19.9192 O   0  0  0  0  0  0
  -29.1929  -23.7342   23.5764 O   0  0  0  0  0  0
  -31.4449  -12.2996   19.1073 H   0  0  0  0  0  0
  -30.2419  -11.2561   19.7925 H   0  0  0  0  0  0
  -29.7062  -11.8315   17.3966 H   0  0  0  0  0  0
  -29.6751  -13.5297   17.8032 H   0  0  0  0  0  0
  -27.7855  -11.3523   18.7613 H   0  0  0  0  0  0
  -27.3690  -12.7389   17.7900 H   0  0  0  0  0  0
  -27.7130  -14.2785   19.6085 H   0  0  0  0  0  0
  -28.6631  -11.9901   21.3877 H   0  0  0  0  0  0
  -28.4973  -13.6519   21.8642 H   0  0  0  0  0  0
  -25.2773   -9.5805   22.4720 H   0  0  0  0  0  0
  -24.0041   -7.4727   22.7454 H   0  0  0  0  0  0
  -21.0865   -8.8728   19.8924 H   0  0  0  0  0  0
  -22.3637  -10.9673   19.6113 H   0  0  0  0  0  0
  -21.1990   -7.6152   23.9692 H   0  0  0  0  0  0
  -21.1458   -6.0528   25.9065 H   0  0  0  0  0  0
  -22.0604   -2.7603   23.2826 H   0  0  0  0  0  0
  -22.4196  -11.9882   22.4717 H   0  0  0  0  0  0
  -21.1114  -13.1156   22.2499 H   0  0  0  0  0  0
  -24.6591  -15.8431   20.5123 H   0  0  0  0  0  0
  -26.2903  -15.6388   20.1153 H   0  0  0  0  0  0
  -26.7130  -32.5453   23.1202 H   0  0  0  0  0  0
  -25.0332  -33.9748   25.0634 H   0  0  0  0  0  0
  -22.6962  -31.3181   21.4052 H   0  0  0  0  0  0
  -23.3673  -35.9645   23.3340 H   0  0  0  0  0  0
  -24.3588  -36.8901   22.2112 H   0  0  0  0  0  0
  -23.7175  -37.6503   23.6659 H   0  0  0  0  0  0
  -26.0297  -31.6044   20.5804 H   0  0  0  0  0  0
  -26.8208  -30.9005   21.9618 H   0  0  0  0  0  0
  -28.0936  -29.1525   21.1578 H   0  0  0  0  0  0
  -26.0960  -25.9531   19.0762 H   0  0  0  0  0  0
  -23.9852  -27.2607   19.0846 H   0  0  0  0  0  0
  -23.7057  -30.5799   19.3969 H   0  0  0  0  0  0
  -22.7283  -29.2315   19.8777 H   0  0  0  0  0  0
  -25.1246  -36.1983   25.0833 H   0  0  0  0  0  0
  -20.9950  -28.3169   24.1430 H   0  0  0  0  0  0
  -20.5675  -26.2212   23.3571 H   0  0  0  0  0  0
  -21.6630  -26.7459   22.1178 H   0  0  0  0  0  0
  -19.6865  -25.6315   21.1213 H   0  0  0  0  0  0
  -19.6707  -27.3218   20.6742 H   0  0  0  0  0  0
  -17.4217  -26.6752   21.3947 H   0  0  0  0  0  0
  -18.0274  -26.0062   22.8954 H   0  0  0  0  0  0
  -19.7913  -30.7311   24.2179 H   0  0  0  0  0  0
  -17.4983  -31.6277   24.5118 H   0  0  0  0  0  0
  -15.5317  -30.2898   23.7779 H   0  0  0  0  0  0
  -15.8664  -28.0803   22.7021 H   0  0  0  0  0  0
  -24.6283  -30.6546   25.7838 H   0  0  0  0  0  0
  -24.8892  -32.2474   26.4963 H   0  0  0  0  0  0
  -25.8463  -30.8726   27.0177 H   0  0  0  0  0  0
  -26.2995  -29.6561   24.1462 H   0  0  0  0  0  0
  -27.4594  -29.7467   25.4551 H   0  0  0  0  0  0
  -27.8636  -30.4345   23.8966 H   0  0  0  0  0  0
  -27.2756  -33.3653   26.1902 H   0  0  0  0  0  0
  -28.4008  -32.6699   25.0325 H   0  0  0  0  0  0
  -28.0636  -31.8456   26.5499 H   0  0  0  0  0  0
  -28.2590  -38.0094   24.7565 H   0  0  0  0  0  0
  -28.0992  -36.2642   24.6305 H   0  0  0  0  0  0
  -27.2294  -37.1453   25.8929 H   0  0  0  0  0  0
  -20.9203  -29.8581   21.6815 H   0  0  0  0  0  0
  -26.0116  -38.2806   24.1474 H   0  0  0  0  0  0
  -29.0293  -18.7915   19.7365 H   0  0  0  0  0  0
  -31.8949  -19.6846   22.8702 H   0  0  0  0  0  0
  -28.1819  -21.0772   19.8849 H   0  0  0  0  0  0
  -30.9962  -21.9479   23.0478 H   0  0  0  0  0  0
  -32.9454  -17.2564   22.3243 H   0  0  0  0  0  0
  -31.5441  -17.5849   23.3049 H   0  0  0  0  0  0
  -31.1322  -15.4190   23.5683 H   0  0  0  0  0  0
  -32.4331  -14.9855   22.4898 H   0  0  0  0  0  0
  -29.4431  -16.4505   20.1597 H   0  0  0  0  0  0
  -29.1820  -16.7933   21.8392 H   0  0  0  0  0  0
  -30.6099  -18.0887   18.2424 H   0  0  0  0  0  0
  -30.8555  -16.3529   18.4874 H   0  0  0  0  0  0
  -32.1078  -17.3207   17.7273 H   0  0  0  0  0  0
  -27.5144  -25.5247   22.9422 H   0  0  0  0  0  0
  -27.2172  -24.8848   21.3635 H   0  0  0  0  0  0
  -29.9029  -26.0583   21.3673 H   0  0  0  0  0  0
  -28.8292  -27.1823   22.1288 H   0  0  0  0  0  0
  -28.6448  -23.3045   20.5229 H   0  0  0  0  0  0
  1 25  1  0  0  0
  1 30  2  0  0  0
  1 86  1  0  0  0
  2  3  1  0  0  0
  2 25  1  0  0  0
  2 90  1  0  0  0
  2 91  1  0  0  0
  3  4  1  0  0  0
  3 92  1  0  0  0
  3 93  1  0  0  0
  4  5  1  0  0  0
  4 94  1  0  0  0
  4 95  1  0  0  0
  5  6  1  0  0  0
  5 26  1  0  0  0
  5 96  1  0  0  0
  6 25  1  0  0  0
  6 97  1  0  0  0
  6 98  1  0  0  0
  7  8  2  0  0  0
  7 26  1  0  0  0
  7 29  1  0  0  0
  8  9  1  0  0  0
  8 22  1  0  0  0
  9 10  1  0  0  0
  9 27  2  0  0  0
 10 11  2  0  0  0
 10 15  1  0  0  0
 11 12  1  0  0  0
 11 99  1  0  0  0
 12 13  2  0  0  0
 12100  1  0  0  0
 13 14  1  0  0  0
 13 31  1  0  0  0
 14 15  2  0  0  0
 14101  1  0  0  0
 15102  1  0  0  0
 16 17  2  0  0  0
 16 21  1  0  0  0
 16 31  1  0  0  0
 17 18  1  0  0  0
 17103  1  0  0  0
 18 19  2  0  0  0
 18104  1  0  0  0
 19 20  1  0  0  0
 19 24  1  0  0  0
 20 21  2  0  0  0
 20105  1  0  0  0
 21 23  1  0  0  0
 22 28  1  0  0  0
 22 32  2  0  0  0
 26 27  1  0  0  0
 28106  1  0  0  0
 28107  1  0  0  0
 29108  1  0  0  0
 29109  1  0  0  0
 33 34  1  0  0  0
 33 66  1  0  0  0
 33 70  2  0  0  0
 34 36  1  0  0  0
 34 59  1  0  0  0
 34110  1  0  0  0
 35 44  2  0  0  0
 35 45  1  0  0  0
 35 68  1  0  0  0
 36 56  1  0  0  0
 36111  1  0  0  0
 37 39  1  0  0  0
 37 47  1  0  0  0
 37 66  1  0  0  0
 37112  1  0  0  0
 38 43  2  0  0  0
 38 46  1  0  0  0
 38 47  1  0  0  0
 39 64  1  0  0  0
 39 67  2  0  0  0
 40 52  1  0  0  0
 40 53  2  0  0  0
 40 58  1  0  0  0
 41113  1  0  0  0
 41114  1  0  0  0
 41115  1  0  0  0
 41 48  1  0  0  0
 42 43  1  0  0  0
 42 66  1  0  0  0
 42116  1  0  0  0
 42117  1  0  0  0
 43 44  1  0  0  0
 44118  1  0  0  0
 45 46  2  0  0  0
 45119  1  0  0  0
 46120  1  0  0  0
 47121  1  0  0  0
 47122  1  0  0  0
 48 56  1  0  0  0
 48 65  1  0  0  0
 48123  1  0  0  0
 49 50  1  0  0  0
 49 53  1  0  0  0
 49 64  1  0  0  0
 49124  1  0  0  0
 50 51  1  0  0  0
 50125  1  0  0  0
 50126  1  0  0  0
 51 52  1  0  0  0
 51127  1  0  0  0
 51128  1  0  0  0
 52129  1  0  0  0
 52130  1  0  0  0
 53 54  1  0  0  0
 54 55  2  0  0  0
 54131  1  0  0  0
 55 57  1  0  0  0
 55132  1  0  0  0
 56 69  2  0  0  0
 57 58  2  0  0  0
 57133  1  0  0  0
 58134  1  0  0  0
 59 60  1  0  0  0
 59 61  1  0  0  0
 59 62  1  0  0  0
 60135  1  0  0  0
 60136  1  0  0  0
 60137  1  0  0  0
 61138  1  0  0  0
 61139  1  0  0  0
 61140  1  0  0  0
 62141  1  0  0  0
 62142  1  0  0  0
 62143  1  0  0  0
 63 65  1  0  0  0
 63144  1  0  0  0
 63145  1  0  0  0
 63146  1  0  0  0
 64147  1  0  0  0
 65148  1  0  0  0
 68 85  1  0  0  0
 71 73  2  0  0  0
 71 75  1  0  0  0
 71149  1  0  0  0
 72 74  1  0  0  0
 72 75  2  0  0  0
 72150  1  0  0  0
 73 76  1  0  0  0
 73151  1  0  0  0
 74 76  2  0  0  0
 74152  1  0  0  0
 75 82  1  0  0  0
 76 87  1  0  0  0
 77 83  1  0  0  0
 77 88  2  0  0  0
 77 82  1  0  0  0
 78 84  1  0  0  0
 78 87  1  0  0  0
 78 89  2  0  0  0
 79 80  1  0  0  0
 79 82  1  0  0  0
 79153  1  0  0  0
 79154  1  0  0  0
 80 86  1  0  0  0
 80155  1  0  0  0
 80156  1  0  0  0
 81 82  1  0  0  0
 81 86  1  0  0  0
 81157  1  0  0  0
 81158  1  0  0  0
 83159  1  0  0  0
 83160  1  0  0  0
 83161  1  0  0  0
 84 85  1  0  0  0
 84162  1  0  0  0
 84163  1  0  0  0
 85164  1  0  0  0
 85165  1  0  0  0
 87166  1  0  0  0
M  ISO  4   1 100  68 101  85 101  86 100
M  END
> <chiral flag>
0

> <version>
0

> <s_m_source_file>
/data/baiqing/PycharmProjects/Reinvent-master-3.2/result/LINK_invent/BTK/process_docking_weight1_custom_product_contain_oxygen_bond_distance_aromatic_linkinvent_7_9_3/rearranged_h_0078.sdf

> <i_m_source_file_index>
38

> <r_mmod_Potential_Energy-OPLS-2005>
178.642150878906

> <r_mmod_Stretch_Energy-OPLS-2005>
41.3114356994629

> <r_mmod_Bend_Energy-OPLS-2005>
138.61506652832

> <r_mmod_Torsional_Energy-OPLS-2005>
365.793609619141

> <r_mmod_Improper_Torsional_Energy-OPLS-2005>
8.64343547821045

> <r_mmod_Van_der_Waal_Energy-OPLS-2005>
159.006225585938

> <r_mmod_Electrostatic_Energy-OPLS-2005>
-312.295104980469

> <r_mmod_Solvation_Energy-OPLS-2005>
-234.806900024414

> <b_mmod_Minimization_Converged-OPLS-2005>
0

> <r_mmod_RMS_Derivative-OPLS-2005>
6.30034685134888

$$$$
39
                    3D
 Structure written by MMmdl.
148156  0  0  1  0            999 V2000
  -30.5183  -14.9304   20.4289 C   0  0  0  0  0  0
  -30.4526  -12.5752   19.4892 C   0  0  0  0  0  0
  -29.5255  -12.5358   18.2506 C   0  0  0  0  0  0
  -28.0564  -12.3212   18.6659 C   0  0  0  0  0  0
  -27.6358  -13.2407   19.8417 C   0  0  2  0  0  0
  -28.6813  -13.2387   20.9784 C   0  0  0  0  0  0
  -25.2489  -13.8200   20.5702 C   0  0  0  0  0  0
  -24.1795  -13.0436   20.9227 C   0  0  0  0  0  0
  -24.6398  -11.6919   20.8747 C   0  0  0  0  0  0
  -23.9074  -10.4293   21.0403 C   0  0  0  0  0  0
  -24.3622   -9.4209   21.9184 C   0  0  0  0  0  0
  -23.6295   -8.2242   22.0753 C   0  0  0  0  0  0
  -22.4277   -8.0278   21.3539 C   0  0  0  0  0  0
  -21.9912   -9.0256   20.4642 C   0  0  0  0  0  0
  -22.7243  -10.2136   20.3052 C   0  0  0  0  0  0
  -21.6855   -6.0733   22.5278 C   0  0  0  0  0  0
  -21.4014   -6.5638   23.8212 C   0  0  0  0  0  0
  -21.3656   -5.6789   24.9174 C   0  0  0  0  0  0
  -21.6047   -4.3052   24.7223 C   0  0  0  0  0  0
  -21.8819   -3.8143   23.4342 C   0  0  0  0  0  0
  -21.9192   -4.6960   22.3399 C   0  0  0  0  0  0
  -22.7814  -13.5215   21.1880 C   0  0  0  0  0  0
  -22.1663   -4.2146   21.0978 F   0  0  0  0  0  0
  -21.5626   -3.4534   25.7735 F   0  0  0  0  0  0
  -29.9623  -13.6547   20.3885 N   0  0  0  0  0  0
  -26.2914  -12.9418   20.3243 N   0  0  0  0  0  0
  -25.9331  -11.6558   20.5730 N   0  0  0  0  0  0
  -22.0450  -12.8212   22.0430 N   0  0  0  0  0  0
  -25.4152  -15.1931   20.4122 N   0  0  0  0  0  0
  -31.7197  -15.0498   20.1624 O   0  0  0  0  0  0
  -21.6638   -6.8877   21.4239 O   0  0  0  0  0  0
  -22.3505  -14.5515   20.6713 O   0  0  0  0  0  0
  -24.6439  -31.8449   23.1900 C   0  0  0  0  0  0
  -25.9212  -32.4702   23.8283 C   0  0  1  0  0  0
  -27.2172  -27.1404   20.1573 C   0  0  0  0  0  0
  -25.5962  -33.8507   24.2198 N   0  0  0  0  0  0
  -23.4479  -30.4652   21.5351 C   0  0  2  0  0  0
  -24.8990  -28.8944   20.1106 C   0  0  0  0  0  0
  -22.7573  -29.4557   22.4865 C   0  0  0  0  0  0
  -18.0307  -28.1402   22.8479 C   0  0  0  0  0  0
  -24.1491  -36.7252   23.2647 C   0  0  0  0  0  0
  -26.0036  -30.7192   21.3900 C   0  0  0  0  0  0
  -26.0760  -29.3304   20.7345 C   0  0  0  0  0  0
  -27.2378  -28.4688   20.7449 C   0  0  0  0  0  0
  -26.0195  -26.8136   19.4832 C   0  0  0  0  0  0
  -24.8821  -27.6475   19.4697 C   0  0  0  0  0  0
  -23.6750  -29.7956   20.1544 C   0  0  0  0  0  0
  -25.4122  -36.3032   24.0324 C   0  0  1  0  0  0
  -20.5919  -28.3731   23.1235 C   0  0  2  0  0  0
  -20.6786  -26.9434   22.5404 C   0  0  0  0  0  0
  -19.5756  -26.6386   21.5215 C   0  0  0  0  0  0
  -18.1941  -26.7940   22.1626 C   0  0  0  0  0  0
  -19.1563  -28.8886   23.2849 C   0  0  0  0  0  0
  -18.9474  -30.1479   23.8876 C   0  0  0  0  0  0
  -17.6470  -30.6600   24.0557 C   0  0  0  0  0  0
  -25.9074  -34.9411   23.5067 C   0  0  0  0  0  0
  -16.5360  -29.9087   23.6339 C   0  0  0  0  0  0
  -16.7290  -28.6504   23.0361 C   0  0  0  0  0  0
  -26.4522  -31.6572   25.0732 C   0  0  0  0  0  0
  -25.3707  -31.3769   26.1432 C   0  0  0  0  0  0
  -27.0383  -30.2964   24.6326 C   0  0  0  0  0  0
  -27.6055  -32.4331   25.7514 C   0  0  0  0  0  0
  -27.5569  -37.1789   24.8470 C   0  0  0  0  0  0
  -21.4267  -29.3050   22.3603 N   0  0  0  0  0  0
  -26.4284  -37.3742   23.9408 N   0  0  0  0  0  0
  -24.7182  -31.0311   22.0933 N   0  0  0  0  0  0
  -23.4203  -28.8114   23.3033 O   0  0  0  0  0  0
  -28.2435  -26.1211   20.1866 O   0  0  0  0  0  0
  -26.5651  -34.8907   22.4641 O   0  0  0  0  0  0
  -23.5555  -32.1326   23.7117 O   0  0  0  0  0  0
  -28.3746  -19.6772   19.7003 C   0  0  0  0  0  0
  -28.6114  -18.2446   19.6973 C   0  0  0  0  0  0
  -30.4206  -18.5279   21.1698 C   0  0  0  0  0  0
  -29.1258  -20.6437   20.4481 C   0  0  0  0  0  0
  -29.6378  -17.5675   20.4377 C   0  0  0  0  0  0
  -30.1693  -19.9705   21.1881 C   0  0  0  0  0  0
  -28.5963  -22.1399   20.6986 C   0  0  0  0  0  0
  -28.7611  -23.4699   20.2173 C   0  0  0  0  0  0
  -27.9757  -24.7767   20.7117 C   0  0  0  0  0  0
  -27.0840  -24.6308   21.5981 N   0  0  0  0  0  0
  -29.6393  -16.0355   20.5556 N   0  0  0  0  0  0
  -30.9370  -20.7248   22.0115 F   0  0  0  0  0  0
  -31.4838  -12.7483   19.1772 H   0  0  0  0  0  0
  -30.4531  -11.6141   20.0059 H   0  0  0  0  0  0
  -29.8417  -11.7486   17.5650 H   0  0  0  0  0  0
  -29.6134  -13.4739   17.6997 H   0  0  0  0  0  0
  -27.9453  -11.2765   18.9587 H   0  0  0  0  0  0
  -27.3940  -12.4693   17.8120 H   0  0  0  0  0  0
  -27.6054  -14.2479   19.4252 H   0  0  0  0  0  0
  -28.7637  -12.2516   21.4361 H   0  0  0  0  0  0
  -28.3835  -13.9211   21.7764 H   0  0  0  0  0  0
  -25.2764   -9.5688   22.4760 H   0  0  0  0  0  0
  -24.0004   -7.4634   22.7473 H   0  0  0  0  0  0
  -21.0840   -8.8775   19.8948 H   0  0  0  0  0  0
  -22.3699  -10.9674   19.6158 H   0  0  0  0  0  0
  -21.2009   -7.6148   23.9717 H   0  0  0  0  0  0
  -21.1480   -6.0517   25.9080 H   0  0  0  0  0  0
  -22.0600   -2.7605   23.2838 H   0  0  0  0  0  0
  -22.4063  -11.9876   22.4828 H   0  0  0  0  0  0
  -21.1062  -13.1241   22.2618 H   0  0  0  0  0  0
  -24.6427  -15.8403   20.5265 H   0  0  0  0  0  0
  -26.2482  -15.6364   20.0496 H   0  0  0  0  0  0
  -26.7283  -32.5312   23.1015 H   0  0  0  0  0  0
  -25.0102  -33.9621   25.0341 H   0  0  0  0  0  0
  -22.7506  -31.2915   21.3816 H   0  0  0  0  0  0
  -23.3748  -35.9590   23.3320 H   0  0  0  0  0  0
  -24.3569  -36.8863   22.2058 H   0  0  0  0  0  0
  -23.7258  -37.6463   23.6663 H   0  0  0  0  0  0
  -26.1583  -31.4711   20.6143 H   0  0  0  0  0  0
  -26.8738  -30.7706   22.0327 H   0  0  0  0  0  0
  -28.1327  -28.7954   21.2556 H   0  0  0  0  0  0
  -25.9399  -25.8531   18.9945 H   0  0  0  0  0  0
  -23.9858  -27.3071   18.9701 H   0  0  0  0  0  0
  -23.8112  -30.5702   19.3985 H   0  0  0  0  0  0
  -22.7890  -29.2385   19.8449 H   0  0  0  0  0  0
  -25.1311  -36.1863   25.0817 H   0  0  0  0  0  0
  -21.0011  -28.3320   24.1357 H   0  0  0  0  0  0
  -20.5680  -26.2349   23.3627 H   0  0  0  0  0  0
  -21.6650  -26.7438   22.1203 H   0  0  0  0  0  0
  -19.6915  -25.6288   21.1267 H   0  0  0  0  0  0
  -19.6695  -27.3178   20.6729 H   0  0  0  0  0  0
  -17.4212  -26.6699   21.4027 H   0  0  0  0  0  0
  -18.0325  -26.0087   22.9026 H   0  0  0  0  0  0
  -19.7953  -30.7300   24.2232 H   0  0  0  0  0  0
  -17.5027  -31.6280   24.5163 H   0  0  0  0  0  0
  -15.5356  -30.2974   23.7690 H   0  0  0  0  0  0
  -15.8693  -28.0816   22.7083 H   0  0  0  0  0  0
  -24.5889  -30.7109   25.7759 H   0  0  0  0  0  0
  -24.8895  -32.2957   26.4799 H   0  0  0  0  0  0
  -25.7997  -30.8987   27.0250 H   0  0  0  0  0  0
  -26.3008  -29.6688   24.1312 H   0  0  0  0  0  0
  -27.3955  -29.7266   25.4915 H   0  0  0  0  0  0
  -27.8931  -30.4182   23.9670 H   0  0  0  0  0  0
  -27.2650  -33.3649   26.2039 H   0  0  0  0  0  0
  -28.3892  -32.6862   25.0361 H   0  0  0  0  0  0
  -28.0692  -31.8495   26.5475 H   0  0  0  0  0  0
  -28.2599  -38.0070   24.7477 H   0  0  0  0  0  0
  -28.1045  -36.2597   24.6333 H   0  0  0  0  0  0
  -27.2285  -37.1487   25.8873 H   0  0  0  0  0  0
  -20.9483  -29.8750   21.6768 H   0  0  0  0  0  0
  -26.0153  -38.2818   24.1380 H   0  0  0  0  0  0
  -27.5212  -20.0370   19.1431 H   0  0  0  0  0  0
  -27.9233  -17.6403   19.1234 H   0  0  0  0  0  0
  -31.2025  -18.1557   21.8156 H   0  0  0  0  0  0
  -27.8661  -22.0970   21.4930 H   0  0  0  0  0  0
  -29.4725  -23.6615   19.4269 H   0  0  0  0  0  0
  -26.9885  -23.6618   21.8752 H   0  0  0  0  0  0
  -28.7021  -15.6740   20.6401 H   0  0  0  0  0  0
  1 25  1  0  0  0
  1 30  2  0  0  0
  1 81  1  0  0  0
  2  3  1  0  0  0
  2 25  1  0  0  0
  2 83  1  0  0  0
  2 84  1  0  0  0
  3  4  1  0  0  0
  3 85  1  0  0  0
  3 86  1  0  0  0
  4  5  1  0  0  0
  4 87  1  0  0  0
  4 88  1  0  0  0
  5  6  1  0  0  0
  5 26  1  0  0  0
  5 89  1  0  0  0
  6 25  1  0  0  0
  6 90  1  0  0  0
  6 91  1  0  0  0
  7  8  2  0  0  0
  7 26  1  0  0  0
  7 29  1  0  0  0
  8  9  1  0  0  0
  8 22  1  0  0  0
  9 10  1  0  0  0
  9 27  2  0  0  0
 10 11  2  0  0  0
 10 15  1  0  0  0
 11 12  1  0  0  0
 11 92  1  0  0  0
 12 13  2  0  0  0
 12 93  1  0  0  0
 13 14  1  0  0  0
 13 31  1  0  0  0
 14 15  2  0  0  0
 14 94  1  0  0  0
 15 95  1  0  0  0
 16 17  2  0  0  0
 16 21  1  0  0  0
 16 31  1  0  0  0
 17 18  1  0  0  0
 17 96  1  0  0  0
 18 19  2  0  0  0
 18 97  1  0  0  0
 19 20  1  0  0  0
 19 24  1  0  0  0
 20 21  2  0  0  0
 20 98  1  0  0  0
 21 23  1  0  0  0
 22 28  1  0  0  0
 22 32  2  0  0  0
 26 27  1  0  0  0
 28 99  1  0  0  0
 28100  1  0  0  0
 29101  1  0  0  0
 29102  1  0  0  0
 33 34  1  0  0  0
 33 66  1  0  0  0
 33 70  2  0  0  0
 34 36  1  0  0  0
 34 59  1  0  0  0
 34103  1  0  0  0
 35 44  2  0  0  0
 35 45  1  0  0  0
 35 68  1  0  0  0
 36 56  1  0  0  0
 36104  1  0  0  0
 37 39  1  0  0  0
 37 47  1  0  0  0
 37 66  1  0  0  0
 37105  1  0  0  0
 38 43  2  0  0  0
 38 46  1  0  0  0
 38 47  1  0  0  0
 39 64  1  0  0  0
 39 67  2  0  0  0
 40 52  1  0  0  0
 40 53  2  0  0  0
 40 58  1  0  0  0
 41106  1  0  0  0
 41107  1  0  0  0
 41108  1  0  0  0
 41 48  1  0  0  0
 42 43  1  0  0  0
 42 66  1  0  0  0
 42109  1  0  0  0
 42110  1  0  0  0
 43 44  1  0  0  0
 44111  1  0  0  0
 45 46  2  0  0  0
 45112  1  0  0  0
 46113  1  0  0  0
 47114  1  0  0  0
 47115  1  0  0  0
 48 56  1  0  0  0
 48 65  1  0  0  0
 48116  1  0  0  0
 49 50  1  0  0  0
 49 53  1  0  0  0
 49 64  1  0  0  0
 49117  1  0  0  0
 50 51  1  0  0  0
 50118  1  0  0  0
 50119  1  0  0  0
 51 52  1  0  0  0
 51120  1  0  0  0
 51121  1  0  0  0
 52122  1  0  0  0
 52123  1  0  0  0
 53 54  1  0  0  0
 54 55  2  0  0  0
 54124  1  0  0  0
 55 57  1  0  0  0
 55125  1  0  0  0
 56 69  2  0  0  0
 57 58  2  0  0  0
 57126  1  0  0  0
 58127  1  0  0  0
 59 60  1  0  0  0
 59 61  1  0  0  0
 59 62  1  0  0  0
 60128  1  0  0  0
 60129  1  0  0  0
 60130  1  0  0  0
 61131  1  0  0  0
 61132  1  0  0  0
 61133  1  0  0  0
 62134  1  0  0  0
 62135  1  0  0  0
 62136  1  0  0  0
 63 65  1  0  0  0
 63137  1  0  0  0
 63138  1  0  0  0
 63139  1  0  0  0
 64140  1  0  0  0
 65141  1  0  0  0
 68 79  1  0  0  0
 71 72  2  0  0  0
 71 74  1  0  0  0
 71142  1  0  0  0
 72 75  1  0  0  0
 72143  1  0  0  0
 73 75  2  0  0  0
 73 76  1  0  0  0
 73144  1  0  0  0
 74 76  2  0  0  0
 74 77  1  0  0  0
 75 81  1  0  0  0
 76 82  1  0  0  0
 77 78  2  0  0  0
 77145  1  0  0  0
 78 79  1  0  0  0
 78146  1  0  0  0
 79 80  2  0  0  0
 80147  1  0  0  0
 81148  1  0  0  0
M  ISO  4   1 100  68 101  79 101  81 100
M  END
> <chiral flag>
0

> <version>
0

> <s_m_source_file>
/data/baiqing/PycharmProjects/Reinvent-master-3.2/result/LINK_invent/BTK/process_docking_weight1_custom_product_contain_oxygen_bond_distance_aromatic_linkinvent_7_9_3/rearranged_h_0078.sdf

> <i_m_source_file_index>
39

> <r_mmod_Potential_Energy-OPLS-2005>
525.620788574219

> <r_mmod_Stretch_Energy-OPLS-2005>
219.8583984375

> <r_mmod_Bend_Energy-OPLS-2005>
249.650802612305

> <r_mmod_Torsional_Energy-OPLS-2005>
285.445617675781

> <r_mmod_Improper_Torsional_Energy-OPLS-2005>
9.85654067993164

> <r_mmod_Van_der_Waal_Energy-OPLS-2005>
133.557495117188

> <r_mmod_Electrostatic_Energy-OPLS-2005>
-343.070983886719

> <r_mmod_Solvation_Energy-OPLS-2005>
-219.065643310547

> <b_mmod_Minimization_Converged-OPLS-2005>
0

> <r_mmod_RMS_Derivative-OPLS-2005>
1.07591819763184

$$$$
40
                    3D
 Structure written by MMmdl.
160169  0  0  1  0            999 V2000
  -30.5835  -14.8334   20.4685 C   0  0  0  0  0  0
  -30.4325  -12.5159   19.4971 C   0  0  0  0  0  0
  -29.5193  -12.5535   18.2493 C   0  0  0  0  0  0
  -28.0398  -12.3718   18.6446 C   0  0  0  0  0  0
  -27.6395  -13.2530   19.8590 C   0  0  2  0  0  0
  -28.6821  -13.2046   20.9993 C   0  0  0  0  0  0
  -25.2483  -13.8243   20.5754 C   0  0  0  0  0  0
  -24.1782  -13.0442   20.9216 C   0  0  0  0  0  0
  -24.6409  -11.6930   20.8748 C   0  0  0  0  0  0
  -23.9092  -10.4285   21.0427 C   0  0  0  0  0  0
  -24.3634   -9.4189   21.9192 C   0  0  0  0  0  0
  -23.6311   -8.2209   22.0737 C   0  0  0  0  0  0
  -22.4281   -8.0261   21.3532 C   0  0  0  0  0  0
  -21.9922   -9.0246   20.4635 C   0  0  0  0  0  0
  -22.7259  -10.2130   20.3069 C   0  0  0  0  0  0
  -21.6845   -6.0735   22.5283 C   0  0  0  0  0  0
  -21.3997   -6.5643   23.8220 C   0  0  0  0  0  0
  -21.3656   -5.6787   24.9183 C   0  0  0  0  0  0
  -21.6056   -4.3056   24.7222 C   0  0  0  0  0  0
  -21.8803   -3.8148   23.4333 C   0  0  0  0  0  0
  -21.9178   -4.6963   22.3398 C   0  0  0  0  0  0
  -22.7785  -13.5189   21.1881 C   0  0  0  0  0  0
  -22.1638   -4.2147   21.0972 F   0  0  0  0  0  0
  -21.5669   -3.4536   25.7742 F   0  0  0  0  0  0
  -29.9783  -13.5878   20.4249 N   0  0  0  0  0  0
  -26.2933  -12.9497   20.3341 N   0  0  0  0  0  0
  -25.9353  -11.6603   20.5740 N   0  0  0  0  0  0
  -22.0430  -12.8194   22.0449 N   0  0  0  0  0  0
  -25.4146  -15.1970   20.4216 N   0  0  0  0  0  0
  -31.7574  -14.9285   20.0978 O   0  0  0  0  0  0
  -21.6637   -6.8869   21.4240 O   0  0  0  0  0  0
  -22.3460  -14.5476   20.6725 O   0  0  0  0  0  0
  -24.6383  -31.8513   23.1930 C   0  0  0  0  0  0
  -25.9202  -32.4731   23.8289 C   0  0  1  0  0  0
  -27.2197  -27.2111   20.1648 C   0  0  0  0  0  0
  -25.5994  -33.8524   24.2230 N   0  0  0  0  0  0
  -23.4385  -30.4754   21.5322 C   0  0  2  0  0  0
  -24.8946  -28.9152   20.1031 C   0  0  0  0  0  0
  -22.7567  -29.4620   22.4830 C   0  0  0  0  0  0
  -18.0347  -28.1351   22.8538 C   0  0  0  0  0  0
  -24.1494  -36.7269   23.2626 C   0  0  0  0  0  0
  -25.9879  -30.7511   21.3829 C   0  0  0  0  0  0
  -26.0655  -29.3682   20.7260 C   0  0  0  0  0  0
  -27.2328  -28.5280   20.7485 C   0  0  0  0  0  0
  -26.0374  -26.8476   19.4855 C   0  0  0  0  0  0
  -24.8911  -27.6661   19.4612 C   0  0  0  0  0  0
  -23.6634  -29.8064   20.1490 C   0  0  0  0  0  0
  -25.4122  -36.3048   24.0316 C   0  0  1  0  0  0
  -20.5955  -28.3735   23.1224 C   0  0  2  0  0  0
  -20.6885  -26.9478   22.5268 C   0  0  0  0  0  0
  -19.5745  -26.6326   21.5239 C   0  0  0  0  0  0
  -18.2000  -26.7838   22.1817 C   0  0  0  0  0  0
  -19.1585  -28.8858   23.2865 C   0  0  0  0  0  0
  -18.9486  -30.1480   23.8849 C   0  0  0  0  0  0
  -17.6483  -30.6589   24.0536 C   0  0  0  0  0  0
  -25.9079  -34.9424   23.5072 C   0  0  0  0  0  0
  -16.5379  -29.9075   23.6300 C   0  0  0  0  0  0
  -16.7334  -28.6470   23.0379 C   0  0  0  0  0  0
  -26.4554  -31.6561   25.0687 C   0  0  0  0  0  0
  -25.3761  -31.3722   26.1387 C   0  0  0  0  0  0
  -27.0393  -30.2956   24.6212 C   0  0  0  0  0  0
  -27.6085  -32.4303   25.7480 C   0  0  0  0  0  0
  -27.5574  -37.1802   24.8464 C   0  0  0  0  0  0
  -21.4248  -29.3149   22.3660 N   0  0  0  0  0  0
  -26.4288  -37.3765   23.9407 N   0  0  0  0  0  0
  -24.7064  -31.0446   22.0915 N   0  0  0  0  0  0
  -23.4278  -28.8131   23.2888 O   0  0  0  0  0  0
  -28.2064  -26.1868   20.2968 O   0  0  0  0  0  0
  -26.5618  -34.8921   22.4622 O   0  0  0  0  0  0
  -23.5533  -32.1359   23.7217 O   0  0  0  0  0  0
  -29.3552  -18.6203   20.9306 C   0  0  0  0  0  0
  -30.7083  -17.7071   19.1800 C   0  0  0  0  0  0
  -29.3969  -19.9830   20.3452 C   0  0  0  0  0  0
  -29.9827  -17.4239   20.3491 C   0  0  0  0  0  0
  -30.0797  -19.9870   19.0891 C   0  0  0  0  0  0
  -27.2216  -23.1841   22.4797 C   0  0  0  0  0  0
  -28.0036  -23.6885   21.3448 C   0  0  0  0  0  0
  -26.7032  -21.8437   22.4056 C   0  0  0  0  0  0
  -28.9303  -22.6249   20.7316 C   0  0  0  0  0  0
  -27.0966  -23.8748   23.6385 C   0  0  0  0  0  0
  -25.5120  -21.5248   22.9439 C   0  0  0  0  0  0
  -27.8032  -25.0808   21.1230 C   0  0  0  0  0  0
  -27.5786  -20.7755   21.8093 C   0  0  0  0  0  0
  -30.0291  -21.1160   18.0733 C   0  0  0  0  0  0
  -30.7331  -18.9144   18.5783 N   0  0  0  0  0  0
  -28.6773  -21.2172   20.9192 N   0  0  0  0  0  0
  -29.8435  -15.9823   20.7998 N   0  0  0  0  0  0
  -29.9484  -22.9971   20.1471 O   0  0  0  0  0  0
  -31.4725  -12.6462   19.2012 H   0  0  0  0  0  0
  -30.3882  -11.5409   19.9859 H   0  0  0  0  0  0
  -29.8121  -11.7834   17.5342 H   0  0  0  0  0  0
  -29.6491  -13.5099   17.7409 H   0  0  0  0  0  0
  -27.8872  -11.3189   18.8786 H   0  0  0  0  0  0
  -27.3892  -12.5969   17.7976 H   0  0  0  0  0  0
  -27.6254  -14.2763   19.4809 H   0  0  0  0  0  0
  -28.7332  -12.2105   21.4428 H   0  0  0  0  0  0
  -28.3981  -13.8802   21.8074 H   0  0  0  0  0  0
  -25.2748   -9.5668   22.4811 H   0  0  0  0  0  0
  -24.0023   -7.4593   22.7450 H   0  0  0  0  0  0
  -21.0847   -8.8755   19.8950 H   0  0  0  0  0  0
  -22.3691  -10.9689   19.6190 H   0  0  0  0  0  0
  -21.1966   -7.6150   23.9741 H   0  0  0  0  0  0
  -21.1526   -6.0503   25.9106 H   0  0  0  0  0  0
  -22.0598   -2.7604   23.2821 H   0  0  0  0  0  0
  -22.4034  -11.9849   22.4844 H   0  0  0  0  0  0
  -21.1067  -13.1254   22.2679 H   0  0  0  0  0  0
  -24.6408  -15.8434   20.5209 H   0  0  0  0  0  0
  -26.2628  -15.6448   20.1011 H   0  0  0  0  0  0
  -26.7260  -32.5393   23.1023 H   0  0  0  0  0  0
  -25.0190  -33.9637   25.0404 H   0  0  0  0  0  0
  -22.7367  -31.2980   21.3799 H   0  0  0  0  0  0
  -23.3758  -35.9605   23.3299 H   0  0  0  0  0  0
  -24.3573  -36.8884   22.2039 H   0  0  0  0  0  0
  -23.7252  -37.6470   23.6652 H   0  0  0  0  0  0
  -26.1307  -31.5079   20.6123 H   0  0  0  0  0  0
  -26.8610  -30.8038   22.0223 H   0  0  0  0  0  0
  -28.1194  -28.8556   21.2712 H   0  0  0  0  0  0
  -25.9814  -25.8728   19.0196 H   0  0  0  0  0  0
  -23.9994  -27.3132   18.9621 H   0  0  0  0  0  0
  -23.7954  -30.5813   19.3930 H   0  0  0  0  0  0
  -22.7804  -29.2449   19.8384 H   0  0  0  0  0  0
  -25.1313  -36.1877   25.0812 H   0  0  0  0  0  0
  -21.0100  -28.3299   24.1321 H   0  0  0  0  0  0
  -20.6066  -26.2319   23.3451 H   0  0  0  0  0  0
  -21.6681  -26.7672   22.0833 H   0  0  0  0  0  0
  -19.6943  -25.6208   21.1345 H   0  0  0  0  0  0
  -19.6551  -27.3064   20.6705 H   0  0  0  0  0  0
  -17.4179  -26.6389   21.4366 H   0  0  0  0  0  0
  -18.0621  -26.0048   22.9339 H   0  0  0  0  0  0
  -19.7939  -30.7338   24.2190 H   0  0  0  0  0  0
  -17.5016  -31.6277   24.5102 H   0  0  0  0  0  0
  -15.5382  -30.2967   23.7568 H   0  0  0  0  0  0
  -15.8748  -28.0767   22.7117 H   0  0  0  0  0  0
  -24.5988  -30.7017   25.7722 H   0  0  0  0  0  0
  -24.8897  -32.2875   26.4740 H   0  0  0  0  0  0
  -25.8080  -30.8965   27.0191 H   0  0  0  0  0  0
  -26.2983  -29.6688   24.1237 H   0  0  0  0  0  0
  -27.4028  -29.7248   25.4759 H   0  0  0  0  0  0
  -27.8892  -30.4167   23.9498 H   0  0  0  0  0  0
  -27.2700  -33.3624   26.2000 H   0  0  0  0  0  0
  -28.3955  -32.6808   25.0364 H   0  0  0  0  0  0
  -28.0688  -31.8449   26.5446 H   0  0  0  0  0  0
  -28.2597  -38.0090   24.7500 H   0  0  0  0  0  0
  -28.1073  -36.2622   24.6326 H   0  0  0  0  0  0
  -27.2290  -37.1489   25.8866 H   0  0  0  0  0  0
  -20.9415  -29.8981   21.6983 H   0  0  0  0  0  0
  -26.0162  -38.2838   24.1409 H   0  0  0  0  0  0
  -28.8065  -18.4565   21.8442 H   0  0  0  0  0  0
  -31.2190  -16.9291   18.6331 H   0  0  0  0  0  0
  -27.5382  -24.8512   23.7820 H   0  0  0  0  0  0
  -26.5664  -23.4705   24.4883 H   0  0  0  0  0  0
  -24.8784  -22.2777   23.3967 H   0  0  0  0  0  0
  -25.1279  -20.5136   22.9165 H   0  0  0  0  0  0
  -27.0481  -25.5082   21.7685 H   0  0  0  0  0  0
  -26.9467  -20.0617   21.2766 H   0  0  0  0  0  0
  -28.0110  -20.2561   22.6686 H   0  0  0  0  0  0
  -30.8593  -21.8098   18.2090 H   0  0  0  0  0  0
  -29.0857  -21.6588   18.1247 H   0  0  0  0  0  0
  -30.1002  -20.7301   17.0549 H   0  0  0  0  0  0
  -28.9864  -15.7784   21.2900 H   0  0  0  0  0  0
  1 25  1  0  0  0
  1 30  2  0  0  0
  1 87  1  0  0  0
  2  3  1  0  0  0
  2 25  1  0  0  0
  2 89  1  0  0  0
  2 90  1  0  0  0
  3  4  1  0  0  0
  3 91  1  0  0  0
  3 92  1  0  0  0
  4  5  1  0  0  0
  4 93  1  0  0  0
  4 94  1  0  0  0
  5  6  1  0  0  0
  5 26  1  0  0  0
  5 95  1  0  0  0
  6 25  1  0  0  0
  6 96  1  0  0  0
  6 97  1  0  0  0
  7  8  2  0  0  0
  7 26  1  0  0  0
  7 29  1  0  0  0
  8  9  1  0  0  0
  8 22  1  0  0  0
  9 10  1  0  0  0
  9 27  2  0  0  0
 10 11  2  0  0  0
 10 15  1  0  0  0
 11 12  1  0  0  0
 11 98  1  0  0  0
 12 13  2  0  0  0
 12 99  1  0  0  0
 13 14  1  0  0  0
 13 31  1  0  0  0
 14 15  2  0  0  0
 14100  1  0  0  0
 15101  1  0  0  0
 16 17  2  0  0  0
 16 21  1  0  0  0
 16 31  1  0  0  0
 17 18  1  0  0  0
 17102  1  0  0  0
 18 19  2  0  0  0
 18103  1  0  0  0
 19 20  1  0  0  0
 19 24  1  0  0  0
 20 21  2  0  0  0
 20104  1  0  0  0
 21 23  1  0  0  0
 22 28  1  0  0  0
 22 32  2  0  0  0
 26 27  1  0  0  0
 28105  1  0  0  0
 28106  1  0  0  0
 29107  1  0  0  0
 29108  1  0  0  0
 33 34  1  0  0  0
 33 66  1  0  0  0
 33 70  2  0  0  0
 34 36  1  0  0  0
 34 59  1  0  0  0
 34109  1  0  0  0
 35 44  2  0  0  0
 35 45  1  0  0  0
 35 68  1  0  0  0
 36 56  1  0  0  0
 36110  1  0  0  0
 37 39  1  0  0  0
 37 47  1  0  0  0
 37 66  1  0  0  0
 37111  1  0  0  0
 38 43  2  0  0  0
 38 46  1  0  0  0
 38 47  1  0  0  0
 39 64  1  0  0  0
 39 67  2  0  0  0
 40 52  1  0  0  0
 40 53  2  0  0  0
 40 58  1  0  0  0
 41112  1  0  0  0
 41113  1  0  0  0
 41114  1  0  0  0
 41 48  1  0  0  0
 42 43  1  0  0  0
 42 66  1  0  0  0
 42115  1  0  0  0
 42116  1  0  0  0
 43 44  1  0  0  0
 44117  1  0  0  0
 45 46  2  0  0  0
 45118  1  0  0  0
 46119  1  0  0  0
 47120  1  0  0  0
 47121  1  0  0  0
 48 56  1  0  0  0
 48 65  1  0  0  0
 48122  1  0  0  0
 49 50  1  0  0  0
 49 53  1  0  0  0
 49 64  1  0  0  0
 49123  1  0  0  0
 50 51  1  0  0  0
 50124  1  0  0  0
 50125  1  0  0  0
 51 52  1  0  0  0
 51126  1  0  0  0
 51127  1  0  0  0
 52128  1  0  0  0
 52129  1  0  0  0
 53 54  1  0  0  0
 54 55  2  0  0  0
 54130  1  0  0  0
 55 57  1  0  0  0
 55131  1  0  0  0
 56 69  2  0  0  0
 57 58  2  0  0  0
 57132  1  0  0  0
 58133  1  0  0  0
 59 60  1  0  0  0
 59 61  1  0  0  0
 59 62  1  0  0  0
 60134  1  0  0  0
 60135  1  0  0  0
 60136  1  0  0  0
 61137  1  0  0  0
 61138  1  0  0  0
 61139  1  0  0  0
 62140  1  0  0  0
 62141  1  0  0  0
 62142  1  0  0  0
 63 65  1  0  0  0
 63143  1  0  0  0
 63144  1  0  0  0
 63145  1  0  0  0
 64146  1  0  0  0
 65147  1  0  0  0
 68 82  1  0  0  0
 71 73  2  0  0  0
 71 74  1  0  0  0
 71148  1  0  0  0
 72 74  2  0  0  0
 72 85  1  0  0  0
 72149  1  0  0  0
 73 75  1  0  0  0
 73 86  1  0  0  0
 74 87  1  0  0  0
 75 84  1  0  0  0
 75 85  2  0  0  0
 76 77  1  0  0  0
 76 78  1  0  0  0
 76 80  2  0  0  0
 77 79  1  0  0  0
 77 82  2  0  0  0
 78 81  2  0  0  0
 78 83  1  0  0  0
 79 86  1  0  0  0
 79 88  2  0  0  0
 80150  1  0  0  0
 80151  1  0  0  0
 81152  1  0  0  0
 81153  1  0  0  0
 82154  1  0  0  0
 83 86  1  0  0  0
 83155  1  0  0  0
 83156  1  0  0  0
 84157  1  0  0  0
 84158  1  0  0  0
 84159  1  0  0  0
 87160  1  0  0  0
M  ISO  4   1 100  68 101  82 101  87 100
M  END
> <chiral flag>
0

> <version>
0

> <s_m_source_file>
/data/baiqing/PycharmProjects/Reinvent-master-3.2/result/LINK_invent/BTK/process_docking_weight1_custom_product_contain_oxygen_bond_distance_aromatic_linkinvent_7_9_3/rearranged_h_0078.sdf

> <i_m_source_file_index>
40

> <r_mmod_Potential_Energy-OPLS-2005>
398.067077636719

> <r_mmod_Stretch_Energy-OPLS-2005>
203.718460083008

> <r_mmod_Bend_Energy-OPLS-2005>
285.108673095703

> <r_mmod_Torsional_Energy-OPLS-2005>
328.870910644531

> <r_mmod_Improper_Torsional_Energy-OPLS-2005>
5.99619722366333

> <r_mmod_Van_der_Waal_Energy-OPLS-2005>
183.210372924805

> <r_mmod_Electrostatic_Energy-OPLS-2005>
-519.998413085938

> <r_mmod_Solvation_Energy-OPLS-2005>
-228.054153442383

> <b_mmod_Minimization_Converged-OPLS-2005>
0

> <r_mmod_RMS_Derivative-OPLS-2005>
4.42214965820312

$$$$
41
                    3D
 Structure written by MMmdl.
160169  0  0  1  0            999 V2000
  -30.7006  -14.5464   20.4506 C   0  0  0  0  0  0
  -30.4074  -12.3184   19.4657 C   0  0  0  0  0  0
  -29.4999  -12.4859   18.2281 C   0  0  0  0  0  0
  -28.0205  -12.3535   18.6334 C   0  0  0  0  0  0
  -27.6535  -13.2245   19.8662 C   0  0  2  0  0  0
  -28.6967  -13.0891   21.0007 C   0  0  0  0  0  0
  -25.2554  -13.8190   20.5703 C   0  0  0  0  0  0
  -24.1827  -13.0455   20.9189 C   0  0  0  0  0  0
  -24.6402  -11.6921   20.8741 C   0  0  0  0  0  0
  -23.9072  -10.4301   21.0399 C   0  0  0  0  0  0
  -24.3619   -9.4210   21.9178 C   0  0  0  0  0  0
  -23.6292   -8.2249   22.0755 C   0  0  0  0  0  0
  -22.4278   -8.0282   21.3544 C   0  0  0  0  0  0
  -21.9910   -9.0257   20.4648 C   0  0  0  0  0  0
  -22.7242  -10.2132   20.3052 C   0  0  0  0  0  0
  -21.6853   -6.0735   22.5277 C   0  0  0  0  0  0
  -21.4018   -6.5640   23.8210 C   0  0  0  0  0  0
  -21.3659   -5.6790   24.9172 C   0  0  0  0  0  0
  -21.6045   -4.3055   24.7222 C   0  0  0  0  0  0
  -21.8819   -3.8146   23.4345 C   0  0  0  0  0  0
  -21.9194   -4.6964   22.3400 C   0  0  0  0  0  0
  -22.7846  -13.5227   21.1854 C   0  0  0  0  0  0
  -22.1663   -4.2150   21.0978 F   0  0  0  0  0  0
  -21.5627   -3.4542   25.7735 F   0  0  0  0  0  0
  -30.0256  -13.3606   20.4374 N   0  0  0  0  0  0
  -26.2998  -12.9398   20.3355 N   0  0  0  0  0  0
  -25.9336  -11.6544   20.5782 N   0  0  0  0  0  0
  -22.0488  -12.8218   22.0398 N   0  0  0  0  0  0
  -25.4262  -15.1916   20.4130 N   0  0  0  0  0  0
  -31.8700  -14.6074   20.0613 O   0  0  0  0  0  0
  -21.6644   -6.8880   21.4239 O   0  0  0  0  0  0
  -22.3528  -14.5535   20.6696 O   0  0  0  0  0  0
  -24.6197  -31.8650   23.2095 C   0  0  0  0  0  0
  -25.9076  -32.4807   23.8384 C   0  0  1  0  0  0
  -27.2324  -27.4006   20.0897 C   0  0  0  0  0  0
  -25.5906  -33.8605   24.2316 N   0  0  0  0  0  0
  -23.4098  -30.4903   21.5489 C   0  0  2  0  0  0
  -24.8549  -28.9625   20.1011 C   0  0  0  0  0  0
  -22.7443  -29.4640   22.4957 C   0  0  0  0  0  0
  -18.0276  -28.1404   22.8478 C   0  0  0  0  0  0
  -24.1489  -36.7309   23.2637 C   0  0  0  0  0  0
  -25.9426  -30.8212   21.3694 C   0  0  0  0  0  0
  -26.0160  -29.4566   20.7066 C   0  0  0  0  0  0
  -27.2016  -28.6806   20.7032 C   0  0  0  0  0  0
  -26.0547  -26.9459   19.4516 C   0  0  0  0  0  0
  -24.8709  -27.7069   19.4707 C   0  0  0  0  0  0
  -23.6179  -29.8313   20.1602 C   0  0  0  0  0  0
  -25.4104  -36.3110   24.0340 C   0  0  1  0  0  0
  -20.5880  -28.3675   23.1305 C   0  0  2  0  0  0
  -20.6772  -26.9404   22.5431 C   0  0  0  0  0  0
  -19.5750  -26.6391   21.5221 C   0  0  0  0  0  0
  -18.1920  -26.7951   22.1616 C   0  0  0  0  0  0
  -19.1533  -28.8851   23.2889 C   0  0  0  0  0  0
  -18.9452  -30.1454   23.8902 C   0  0  0  0  0  0
  -17.6455  -30.6591   24.0560 C   0  0  0  0  0  0
  -25.9025  -34.9472   23.5122 C   0  0  0  0  0  0
  -16.5341  -29.9096   23.6338 C   0  0  0  0  0  0
  -16.7263  -28.6532   23.0328 C   0  0  0  0  0  0
  -26.4474  -31.6591   25.0720 C   0  0  0  0  0  0
  -25.3731  -31.3685   26.1456 C   0  0  0  0  0  0
  -27.0310  -30.3032   24.6130 C   0  0  0  0  0  0
  -27.6057  -32.4307   25.7471 C   0  0  0  0  0  0
  -27.5584  -37.1803   24.8463 C   0  0  0  0  0  0
  -21.4163  -29.3028   22.3699 N   0  0  0  0  0  0
  -26.4294  -37.3793   23.9411 N   0  0  0  0  0  0
  -24.6756  -31.0729   22.1011 N   0  0  0  0  0  0
  -23.4193  -28.8183   23.3021 O   0  0  0  0  0  0
  -28.3815  -26.6224   20.1892 O   0  0  0  0  0  0
  -26.5594  -34.8930   22.4687 O   0  0  0  0  0  0
  -23.5385  -32.1412   23.7469 O   0  0  0  0  0  0
  -29.6222  -19.4793   22.9570 C   0  0  0  0  0  0
  -29.9003  -18.2584   22.3094 C   0  0  0  0  0  0
  -29.1990  -20.6051   22.2208 C   0  0  0  0  0  0
  -29.3065  -19.2858   20.1805 C   0  0  0  0  0  0
  -29.7587  -18.1455   20.9094 C   0  0  0  0  0  0
  -29.0229  -20.5235   20.8258 C   0  0  0  0  0  0
  -28.8772  -22.9135   19.9753 C   0  0  0  0  0  0
  -28.1051  -24.0302   20.1003 C   0  0  0  0  0  0
  -26.7631  -23.7718   20.6066 C   0  0  0  0  0  0
  -26.1670  -24.5968   21.4845 C   0  0  0  0  0  0
  -30.2408  -16.8989   20.1920 C   0  0  0  0  0  0
  -26.0483  -22.5145   20.1309 C   0  0  0  0  0  0
  -26.9856  -21.3020   19.9091 C   0  0  0  0  0  0
  -28.5344  -25.3813   19.4491 C   0  0  0  0  0  0
  -28.4032  -21.5973   20.1428 N   0  0  0  0  0  0
  -29.9922  -15.6731   20.7315 N   0  0  0  0  0  0
  -30.8240  -17.0610   19.1130 O   0  0  0  0  0  0
  -31.4587  -12.3660   19.1751 H   0  0  0  0  0  0
  -30.2736  -11.3305   19.9097 H   0  0  0  0  0  0
  -29.7490  -11.7379   17.4747 H   0  0  0  0  0  0
  -29.6723  -13.4582   17.7629 H   0  0  0  0  0  0
  -27.8354  -11.3021   18.8552 H   0  0  0  0  0  0
  -27.3731  -12.6023   17.7906 H   0  0  0  0  0  0
  -27.6713  -14.2599   19.5235 H   0  0  0  0  0  0
  -28.6772  -12.0842   21.4247 H   0  0  0  0  0  0
  -28.4655  -13.7669   21.8241 H   0  0  0  0  0  0
  -25.2761   -9.5689   22.4757 H   0  0  0  0  0  0
  -24.0001   -7.4640   22.7473 H   0  0  0  0  0  0
  -21.0846   -8.8773   19.8947 H   0  0  0  0  0  0
  -22.3700  -10.9672   19.6163 H   0  0  0  0  0  0
  -21.2012   -7.6150   23.9713 H   0  0  0  0  0  0
  -21.1481   -6.0525   25.9074 H   0  0  0  0  0  0
  -22.0598   -2.7612   23.2846 H   0  0  0  0  0  0
  -22.4117  -11.9878   22.4779 H   0  0  0  0  0  0
  -21.1104  -13.1237   22.2606 H   0  0  0  0  0  0
  -24.6596  -15.8464   20.5237 H   0  0  0  0  0  0
  -26.2784  -15.6301   20.0897 H   0  0  0  0  0  0
  -26.7143  -32.5530   23.1137 H   0  0  0  0  0  0
  -25.0053  -33.9732   25.0466 H   0  0  0  0  0  0
  -22.7028  -31.3121   21.4153 H   0  0  0  0  0  0
  -23.3758  -35.9636   23.3311 H   0  0  0  0  0  0
  -24.3586  -36.8920   22.2051 H   0  0  0  0  0  0
  -23.7243  -37.6514   23.6640 H   0  0  0  0  0  0
  -26.0669  -31.5941   20.6090 H   0  0  0  0  0  0
  -26.8279  -30.8663   21.9935 H   0  0  0  0  0  0
  -28.0923  -29.0524   21.1919 H   0  0  0  0  0  0
  -26.0134  -25.9792   18.9750 H   0  0  0  0  0  0
  -23.9784  -27.3177   18.9984 H   0  0  0  0  0  0
  -23.7261  -30.6138   19.4077 H   0  0  0  0  0  0
  -22.7425  -29.2527   19.8604 H   0  0  0  0  0  0
  -25.1285  -36.1950   25.0837 H   0  0  0  0  0  0
  -20.9973  -28.3278   24.1419 H   0  0  0  0  0  0
  -20.5689  -26.2276   23.3625 H   0  0  0  0  0  0
  -21.6636  -26.7456   22.1201 H   0  0  0  0  0  0
  -19.6908  -25.6302   21.1245 H   0  0  0  0  0  0
  -19.6698  -27.3212   20.6763 H   0  0  0  0  0  0
  -17.4189  -26.6684   21.4018 H   0  0  0  0  0  0
  -18.0299  -26.0097   22.9019 H   0  0  0  0  0  0
  -19.7922  -30.7267   24.2275 H   0  0  0  0  0  0
  -17.5001  -31.6269   24.5164 H   0  0  0  0  0  0
  -15.5342  -30.2989   23.7675 H   0  0  0  0  0  0
  -15.8663  -28.0867   22.7019 H   0  0  0  0  0  0
  -24.5940  -30.6987   25.7797 H   0  0  0  0  0  0
  -24.8855  -32.2812   26.4894 H   0  0  0  0  0  0
  -25.8081  -30.8877   27.0229 H   0  0  0  0  0  0
  -26.2850  -29.6778   24.1209 H   0  0  0  0  0  0
  -27.4091  -29.7280   25.4595 H   0  0  0  0  0  0
  -27.8692  -30.4350   23.9285 H   0  0  0  0  0  0
  -27.2708  -33.3628   26.2043 H   0  0  0  0  0  0
  -28.3857  -32.6839   25.0276 H   0  0  0  0  0  0
  -28.0721  -31.8417   26.5375 H   0  0  0  0  0  0
  -28.2604  -38.0104   24.7535 H   0  0  0  0  0  0
  -28.1085  -36.2637   24.6262 H   0  0  0  0  0  0
  -27.2296  -37.1433   25.8866 H   0  0  0  0  0  0
  -20.9321  -29.8731   21.6910 H   0  0  0  0  0  0
  -26.0193  -38.2873   24.1426 H   0  0  0  0  0  0
  -29.7359  -19.5576   24.0289 H   0  0  0  0  0  0
  -30.2579  -17.4196   22.8905 H   0  0  0  0  0  0
  -28.9601  -21.5229   22.7380 H   0  0  0  0  0  0
  -29.1856  -19.2122   19.1078 H   0  0  0  0  0  0
  -29.8658  -22.9553   19.5366 H   0  0  0  0  0  0
  -26.6568  -25.4869   21.8508 H   0  0  0  0  0  0
  -25.1729  -24.3984   21.8570 H   0  0  0  0  0  0
  -25.5346  -22.7494   19.1989 H   0  0  0  0  0  0
  -25.2753  -22.2372   20.8486 H   0  0  0  0  0  0
  -26.8823  -20.9421   18.8847 H   0  0  0  0  0  0
  -26.6443  -20.4828   20.5446 H   0  0  0  0  0  0
  -28.0734  -25.4605   18.4647 H   0  0  0  0  0  0
  -29.6006  -25.3058   19.2337 H   0  0  0  0  0  0
  -29.2095  -15.5974   21.3580 H   0  0  0  0  0  0
  1 25  1  0  0  0
  1 30  2  0  0  0
  1 86  1  0  0  0
  2  3  1  0  0  0
  2 25  1  0  0  0
  2 88  1  0  0  0
  2 89  1  0  0  0
  3  4  1  0  0  0
  3 90  1  0  0  0
  3 91  1  0  0  0
  4  5  1  0  0  0
  4 92  1  0  0  0
  4 93  1  0  0  0
  5  6  1  0  0  0
  5 26  1  0  0  0
  5 94  1  0  0  0
  6 25  1  0  0  0
  6 95  1  0  0  0
  6 96  1  0  0  0
  7  8  2  0  0  0
  7 26  1  0  0  0
  7 29  1  0  0  0
  8  9  1  0  0  0
  8 22  1  0  0  0
  9 10  1  0  0  0
  9 27  2  0  0  0
 10 11  2  0  0  0
 10 15  1  0  0  0
 11 12  1  0  0  0
 11 97  1  0  0  0
 12 13  2  0  0  0
 12 98  1  0  0  0
 13 14  1  0  0  0
 13 31  1  0  0  0
 14 15  2  0  0  0
 14 99  1  0  0  0
 15100  1  0  0  0
 16 17  2  0  0  0
 16 21  1  0  0  0
 16 31  1  0  0  0
 17 18  1  0  0  0
 17101  1  0  0  0
 18 19  2  0  0  0
 18102  1  0  0  0
 19 20  1  0  0  0
 19 24  1  0  0  0
 20 21  2  0  0  0
 20103  1  0  0  0
 21 23  1  0  0  0
 22 28  1  0  0  0
 22 32  2  0  0  0
 26 27  1  0  0  0
 28104  1  0  0  0
 28105  1  0  0  0
 29106  1  0  0  0
 29107  1  0  0  0
 33 34  1  0  0  0
 33 66  1  0  0  0
 33 70  2  0  0  0
 34 36  1  0  0  0
 34 59  1  0  0  0
 34108  1  0  0  0
 35 44  2  0  0  0
 35 45  1  0  0  0
 35 68  1  0  0  0
 36 56  1  0  0  0
 36109  1  0  0  0
 37 39  1  0  0  0
 37 47  1  0  0  0
 37 66  1  0  0  0
 37110  1  0  0  0
 38 43  2  0  0  0
 38 46  1  0  0  0
 38 47  1  0  0  0
 39 64  1  0  0  0
 39 67  2  0  0  0
 40 52  1  0  0  0
 40 53  2  0  0  0
 40 58  1  0  0  0
 41111  1  0  0  0
 41112  1  0  0  0
 41113  1  0  0  0
 41 48  1  0  0  0
 42 43  1  0  0  0
 42 66  1  0  0  0
 42114  1  0  0  0
 42115  1  0  0  0
 43 44  1  0  0  0
 44116  1  0  0  0
 45 46  2  0  0  0
 45117  1  0  0  0
 46118  1  0  0  0
 47119  1  0  0  0
 47120  1  0  0  0
 48 56  1  0  0  0
 48 65  1  0  0  0
 48121  1  0  0  0
 49 50  1  0  0  0
 49 53  1  0  0  0
 49 64  1  0  0  0
 49122  1  0  0  0
 50 51  1  0  0  0
 50123  1  0  0  0
 50124  1  0  0  0
 51 52  1  0  0  0
 51125  1  0  0  0
 51126  1  0  0  0
 52127  1  0  0  0
 52128  1  0  0  0
 53 54  1  0  0  0
 54 55  2  0  0  0
 54129  1  0  0  0
 55 57  1  0  0  0
 55130  1  0  0  0
 56 69  2  0  0  0
 57 58  2  0  0  0
 57131  1  0  0  0
 58132  1  0  0  0
 59 60  1  0  0  0
 59 61  1  0  0  0
 59 62  1  0  0  0
 60133  1  0  0  0
 60134  1  0  0  0
 60135  1  0  0  0
 61136  1  0  0  0
 61137  1  0  0  0
 61138  1  0  0  0
 62139  1  0  0  0
 62140  1  0  0  0
 62141  1  0  0  0
 63 65  1  0  0  0
 63142  1  0  0  0
 63143  1  0  0  0
 63144  1  0  0  0
 64145  1  0  0  0
 65146  1  0  0  0
 68 84  1  0  0  0
 71 72  2  0  0  0
 71 73  1  0  0  0
 71147  1  0  0  0
 72 75  1  0  0  0
 72148  1  0  0  0
 73 76  2  0  0  0
 73149  1  0  0  0
 74 75  2  0  0  0
 74 76  1  0  0  0
 74150  1  0  0  0
 75 81  1  0  0  0
 76 85  1  0  0  0
 77 78  2  0  0  0
 77 85  1  0  0  0
 77151  1  0  0  0
 78 79  1  0  0  0
 78 84  1  0  0  0
 79 80  2  0  0  0
 79 82  1  0  0  0
 80152  1  0  0  0
 80153  1  0  0  0
 81 86  1  0  0  0
 81 87  2  0  0  0
 82 83  1  0  0  0
 82154  1  0  0  0
 82155  1  0  0  0
 83 85  1  0  0  0
 83156  1  0  0  0
 83157  1  0  0  0
 84158  1  0  0  0
 84159  1  0  0  0
 86160  1  0  0  0
M  ISO  4   1 100  68 101  84 101  86 100
M  END
> <chiral flag>
0

> <version>
0

> <s_m_source_file>
/data/baiqing/PycharmProjects/Reinvent-master-3.2/result/LINK_invent/BTK/process_docking_weight1_custom_product_contain_oxygen_bond_distance_aromatic_linkinvent_7_9_3/rearranged_h_0078.sdf

> <i_m_source_file_index>
41

> <r_mmod_Potential_Energy-OPLS-2005>
38.9860916137695

> <r_mmod_Stretch_Energy-OPLS-2005>
50.8256568908691

> <r_mmod_Bend_Energy-OPLS-2005>
129.558883666992

> <r_mmod_Torsional_Energy-OPLS-2005>
320.285125732422

> <r_mmod_Improper_Torsional_Energy-OPLS-2005>
7.41572141647339

> <r_mmod_Van_der_Waal_Energy-OPLS-2005>
168.946624755859

> <r_mmod_Electrostatic_Energy-OPLS-2005>
-445.588684082031

> <r_mmod_Solvation_Energy-OPLS-2005>
-221.937728881836

> <b_mmod_Minimization_Converged-OPLS-2005>
0

> <r_mmod_RMS_Derivative-OPLS-2005>
2.21078443527222

$$$$
42
                    3D
 Structure written by MMmdl.
158167  0  0  1  0            999 V2000
  -30.6161  -14.6300   20.5065 C   0  0  0  0  0  0
  -30.4427  -12.3901   19.4469 C   0  0  0  0  0  0
  -29.5136  -12.5253   18.2199 C   0  0  0  0  0  0
  -28.0354  -12.3608   18.6271 C   0  0  0  0  0  0
  -27.6595  -13.2181   19.8656 C   0  0  2  0  0  0
  -28.7013  -13.0461   20.9936 C   0  0  0  0  0  0
  -25.2580  -13.8174   20.5652 C   0  0  0  0  0  0
  -24.1836  -13.0442   20.9147 C   0  0  0  0  0  0
  -24.6406  -11.6910   20.8697 C   0  0  0  0  0  0
  -23.9053  -10.4294   21.0386 C   0  0  0  0  0  0
  -24.3609   -9.4204   21.9160 C   0  0  0  0  0  0
  -23.6286   -8.2236   22.0732 C   0  0  0  0  0  0
  -22.4263   -8.0272   21.3536 C   0  0  0  0  0  0
  -21.9897   -9.0240   20.4643 C   0  0  0  0  0  0
  -22.7219  -10.2117   20.3043 C   0  0  0  0  0  0
  -21.6849   -6.0714   22.5265 C   0  0  0  0  0  0
  -21.4019   -6.5613   23.8199 C   0  0  0  0  0  0
  -21.3663   -5.6766   24.9161 C   0  0  0  0  0  0
  -21.6050   -4.3032   24.7221 C   0  0  0  0  0  0
  -21.8819   -3.8126   23.4343 C   0  0  0  0  0  0
  -21.9188   -4.6941   22.3396 C   0  0  0  0  0  0
  -22.7851  -13.5230   21.1801 C   0  0  0  0  0  0
  -22.1657   -4.2115   21.0980 F   0  0  0  0  0  0
  -21.5641   -3.4520   25.7745 F   0  0  0  0  0  0
  -30.0189  -13.3973   20.4402 N   0  0  0  0  0  0
  -26.3020  -12.9361   20.3293 N   0  0  0  0  0  0
  -25.9339  -11.6511   20.5705 N   0  0  0  0  0  0
  -22.0485  -12.8269   22.0386 N   0  0  0  0  0  0
  -25.4314  -15.1897   20.4086 N   0  0  0  0  0  0
  -31.7606  -14.8110   20.0774 O   0  0  0  0  0  0
  -21.6640   -6.8863   21.4226 O   0  0  0  0  0  0
  -22.3520  -14.5503   20.6610 O   0  0  0  0  0  0
  -24.6253  -31.8606   23.2039 C   0  0  0  0  0  0
  -25.9107  -32.4777   23.8360 C   0  0  1  0  0  0
  -27.2209  -27.3283   20.1184 C   0  0  0  0  0  0
  -25.5928  -33.8582   24.2284 N   0  0  0  0  0  0
  -23.4168  -30.4879   21.5456 C   0  0  2  0  0  0
  -24.8626  -28.9477   20.1085 C   0  0  0  0  0  0
  -22.7467  -29.4642   22.4920 C   0  0  0  0  0  0
  -18.0285  -28.1392   22.8468 C   0  0  0  0  0  0
  -24.1482  -36.7311   23.2639 C   0  0  0  0  0  0
  -25.9577  -30.7967   21.3708 C   0  0  0  0  0  0
  -26.0318  -29.4250   20.7142 C   0  0  0  0  0  0
  -27.2150  -28.6287   20.7087 C   0  0  0  0  0  0
  -26.0274  -26.9053   19.4859 C   0  0  0  0  0  0
  -24.8622  -27.6922   19.4846 C   0  0  0  0  0  0
  -23.6302  -29.8269   20.1590 C   0  0  0  0  0  0
  -25.4103  -36.3088   24.0330 C   0  0  1  0  0  0
  -20.5879  -28.3702   23.1277 C   0  0  2  0  0  0
  -20.6779  -26.9419   22.5419 C   0  0  0  0  0  0
  -19.5762  -26.6379   21.5213 C   0  0  0  0  0  0
  -18.1932  -26.7935   22.1606 C   0  0  0  0  0  0
  -19.1534  -28.8860   23.2869 C   0  0  0  0  0  0
  -18.9463  -30.1462   23.8887 C   0  0  0  0  0  0
  -17.6464  -30.6593   24.0559 C   0  0  0  0  0  0
  -25.9046  -34.9454   23.5101 C   0  0  0  0  0  0
  -16.5355  -29.9093   23.6320 C   0  0  0  0  0  0
  -16.7274  -28.6513   23.0330 C   0  0  0  0  0  0
  -26.4500  -31.6588   25.0726 C   0  0  0  0  0  0
  -25.3747  -31.3732   26.1465 C   0  0  0  0  0  0
  -27.0343  -30.3017   24.6164 C   0  0  0  0  0  0
  -27.6055  -32.4324   25.7496 C   0  0  0  0  0  0
  -27.5573  -37.1801   24.8450 C   0  0  0  0  0  0
  -21.4180  -29.3052   22.3669 N   0  0  0  0  0  0
  -26.4279  -37.3783   23.9407 N   0  0  0  0  0  0
  -24.6853  -31.0645   22.0973 N   0  0  0  0  0  0
  -23.4215  -28.8172   23.2976 O   0  0  0  0  0  0
  -28.3366  -26.4774   20.1765 O   0  0  0  0  0  0
  -26.5604  -34.8926   22.4663 O   0  0  0  0  0  0
  -23.5422  -32.1388   23.7384 O   0  0  0  0  0  0
  -29.5335  -19.4596   21.3731 C   0  0  0  0  0  0
  -29.6722  -18.0688   21.6722 C   0  0  0  0  0  0
  -29.7396  -18.9502   19.0335 C   0  0  0  0  0  0
  -29.5487  -19.9559   20.0391 C   0  0  0  0  0  0
  -29.8576  -17.0805   20.6671 C   0  0  0  0  0  0
  -29.8830  -17.5593   19.3330 C   0  0  0  0  0  0
  -29.4540  -21.7437   18.3622 C   0  0  0  0  0  0
  -29.7351  -19.3771   17.5786 C   0  0  0  0  0  0
  -30.2273  -20.8147   17.4309 C   0  0  0  0  0  0
  -29.2197  -23.9896   20.4820 C   0  0  0  0  0  0
  -28.8134  -22.4373   20.6288 C   0  0  0  0  0  0
  -28.0792  -25.0233   20.1018 C   0  0  0  0  0  0
  -29.3524  -21.3901   19.6728 N   0  0  0  0  0  0
  -29.8556  -15.6552   20.9970 N   0  0  0  0  0  0
  -28.9312  -22.7491   17.8677 O   0  0  0  0  0  0
  -29.9816  -16.6721   18.3139 F   0  0  0  0  0  0
  -31.4862  -12.5149   19.1483 H   0  0  0  0  0  0
  -30.3745  -11.3870   19.8709 H   0  0  0  0  0  0
  -29.7810  -11.7886   17.4607 H   0  0  0  0  0  0
  -29.6569  -13.5054   17.7589 H   0  0  0  0  0  0
  -27.8643  -11.3051   18.8430 H   0  0  0  0  0  0
  -27.3854  -12.6090   17.7874 H   0  0  0  0  0  0
  -27.6876  -14.2599   19.5423 H   0  0  0  0  0  0
  -28.7110  -12.0154   21.3535 H   0  0  0  0  0  0
  -28.4464  -13.6560   21.8607 H   0  0  0  0  0  0
  -25.2769   -9.5671   22.4702 H   0  0  0  0  0  0
  -23.9995   -7.4630   22.7458 H   0  0  0  0  0  0
  -21.0810   -8.8753   19.8970 H   0  0  0  0  0  0
  -22.3672  -10.9639   19.6139 H   0  0  0  0  0  0
  -21.2013   -7.6127   23.9696 H   0  0  0  0  0  0
  -21.1490   -6.0501   25.9060 H   0  0  0  0  0  0
  -22.0605   -2.7584   23.2850 H   0  0  0  0  0  0
  -22.4112  -12.0002   22.4904 H   0  0  0  0  0  0
  -21.1081  -13.1280   22.2512 H   0  0  0  0  0  0
  -24.6694  -15.8489   20.5214 H   0  0  0  0  0  0
  -26.2901  -15.6249   20.0941 H   0  0  0  0  0  0
  -26.7165  -32.5457   23.1104 H   0  0  0  0  0  0
  -25.0072  -33.9727   25.0421 H   0  0  0  0  0  0
  -22.7091  -31.3082   21.4059 H   0  0  0  0  0  0
  -23.3738  -35.9647   23.3287 H   0  0  0  0  0  0
  -24.3575  -36.8956   22.2057 H   0  0  0  0  0  0
  -23.7245  -37.6514   23.6669 H   0  0  0  0  0  0
  -26.0813  -31.5577   20.5994 H   0  0  0  0  0  0
  -26.8422  -30.8505   21.9940 H   0  0  0  0  0  0
  -28.1108  -28.9917   21.1922 H   0  0  0  0  0  0
  -25.9612  -25.9493   18.9907 H   0  0  0  0  0  0
  -23.9676  -27.3205   19.0040 H   0  0  0  0  0  0
  -23.7505  -30.6058   19.4054 H   0  0  0  0  0  0
  -22.7495  -29.2591   19.8538 H   0  0  0  0  0  0
  -25.1273  -36.1935   25.0821 H   0  0  0  0  0  0
  -20.9976  -28.3298   24.1396 H   0  0  0  0  0  0
  -20.5666  -26.2321   23.3630 H   0  0  0  0  0  0
  -21.6654  -26.7437   22.1230 H   0  0  0  0  0  0
  -19.6930  -25.6283   21.1256 H   0  0  0  0  0  0
  -19.6717  -27.3181   20.6738 H   0  0  0  0  0  0
  -17.4210  -26.6681   21.3997 H   0  0  0  0  0  0
  -18.0320  -26.0082   22.9006 H   0  0  0  0  0  0
  -19.7946  -30.7267   24.2262 H   0  0  0  0  0  0
  -17.5027  -31.6267   24.5174 H   0  0  0  0  0  0
  -15.5358  -30.2998   23.7655 H   0  0  0  0  0  0
  -15.8673  -28.0850   22.7031 H   0  0  0  0  0  0
  -24.5904  -30.7098   25.7809 H   0  0  0  0  0  0
  -24.8961  -32.2909   26.4893 H   0  0  0  0  0  0
  -25.8093  -30.8910   27.0230 H   0  0  0  0  0  0
  -26.2918  -29.6772   24.1189 H   0  0  0  0  0  0
  -27.4056  -29.7264   25.4655 H   0  0  0  0  0  0
  -27.8769  -30.4311   23.9370 H   0  0  0  0  0  0
  -27.2648  -33.3598   26.2108 H   0  0  0  0  0  0
  -28.3849  -32.6941   25.0327 H   0  0  0  0  0  0
  -28.0744  -31.8436   26.5389 H   0  0  0  0  0  0
  -28.2580  -38.0108   24.7498 H   0  0  0  0  0  0
  -28.1078  -36.2640   24.6251 H   0  0  0  0  0  0
  -27.2299  -37.1428   25.8858 H   0  0  0  0  0  0
  -20.9358  -29.8812   21.6912 H   0  0  0  0  0  0
  -26.0160  -38.2851   24.1437 H   0  0  0  0  0  0
  -29.3986  -20.1310   22.2075 H   0  0  0  0  0  0
  -29.6216  -17.7643   22.7072 H   0  0  0  0  0  0
  -28.7235  -19.2794   17.1828 H   0  0  0  0  0  0
  -30.3701  -18.7166   16.9868 H   0  0  0  0  0  0
  -31.2849  -20.8816   17.6830 H   0  0  0  0  0  0
  -30.1283  -21.1483   16.3979 H   0  0  0  0  0  0
  -30.0654  -24.1079   19.8061 H   0  0  0  0  0  0
  -29.6102  -24.3086   21.4487 H   0  0  0  0  0  0
  -27.7261  -22.3536   20.6199 H   0  0  0  0  0  0
  -29.1088  -22.1514   21.6355 H   0  0  0  0  0  0
  -27.2278  -24.8080   20.7497 H   0  0  0  0  0  0
  -27.7687  -24.7897   19.0840 H   0  0  0  0  0  0
  -29.0493  -15.3471   21.5176 H   0  0  0  0  0  0
  1 25  1  0  0  0
  1 30  2  0  0  0
  1 84  1  0  0  0
  2  3  1  0  0  0
  2 25  1  0  0  0
  2 87  1  0  0  0
  2 88  1  0  0  0
  3  4  1  0  0  0
  3 89  1  0  0  0
  3 90  1  0  0  0
  4  5  1  0  0  0
  4 91  1  0  0  0
  4 92  1  0  0  0
  5  6  1  0  0  0
  5 26  1  0  0  0
  5 93  1  0  0  0
  6 25  1  0  0  0
  6 94  1  0  0  0
  6 95  1  0  0  0
  7  8  2  0  0  0
  7 26  1  0  0  0
  7 29  1  0  0  0
  8  9  1  0  0  0
  8 22  1  0  0  0
  9 10  1  0  0  0
  9 27  2  0  0  0
 10 11  2  0  0  0
 10 15  1  0  0  0
 11 12  1  0  0  0
 11 96  1  0  0  0
 12 13  2  0  0  0
 12 97  1  0  0  0
 13 14  1  0  0  0
 13 31  1  0  0  0
 14 15  2  0  0  0
 14 98  1  0  0  0
 15 99  1  0  0  0
 16 17  2  0  0  0
 16 21  1  0  0  0
 16 31  1  0  0  0
 17 18  1  0  0  0
 17100  1  0  0  0
 18 19  2  0  0  0
 18101  1  0  0  0
 19 20  1  0  0  0
 19 24  1  0  0  0
 20 21  2  0  0  0
 20102  1  0  0  0
 21 23  1  0  0  0
 22 28  1  0  0  0
 22 32  2  0  0  0
 26 27  1  0  0  0
 28103  1  0  0  0
 28104  1  0  0  0
 29105  1  0  0  0
 29106  1  0  0  0
 33 34  1  0  0  0
 33 66  1  0  0  0
 33 70  2  0  0  0
 34 36  1  0  0  0
 34 59  1  0  0  0
 34107  1  0  0  0
 35 44  2  0  0  0
 35 45  1  0  0  0
 35 68  1  0  0  0
 36 56  1  0  0  0
 36108  1  0  0  0
 37 39  1  0  0  0
 37 47  1  0  0  0
 37 66  1  0  0  0
 37109  1  0  0  0
 38 43  2  0  0  0
 38 46  1  0  0  0
 38 47  1  0  0  0
 39 64  1  0  0  0
 39 67  2  0  0  0
 40 52  1  0  0  0
 40 53  2  0  0  0
 40 58  1  0  0  0
 41110  1  0  0  0
 41111  1  0  0  0
 41112  1  0  0  0
 41 48  1  0  0  0
 42 43  1  0  0  0
 42 66  1  0  0  0
 42113  1  0  0  0
 42114  1  0  0  0
 43 44  1  0  0  0
 44115  1  0  0  0
 45 46  2  0  0  0
 45116  1  0  0  0
 46117  1  0  0  0
 47118  1  0  0  0
 47119  1  0  0  0
 48 56  1  0  0  0
 48 65  1  0  0  0
 48120  1  0  0  0
 49 50  1  0  0  0
 49 53  1  0  0  0
 49 64  1  0  0  0
 49121  1  0  0  0
 50 51  1  0  0  0
 50122  1  0  0  0
 50123  1  0  0  0
 51 52  1  0  0  0
 51124  1  0  0  0
 51125  1  0  0  0
 52126  1  0  0  0
 52127  1  0  0  0
 53 54  1  0  0  0
 54 55  2  0  0  0
 54128  1  0  0  0
 55 57  1  0  0  0
 55129  1  0  0  0
 56 69  2  0  0  0
 57 58  2  0  0  0
 57130  1  0  0  0
 58131  1  0  0  0
 59 60  1  0  0  0
 59 61  1  0  0  0
 59 62  1  0  0  0
 60132  1  0  0  0
 60133  1  0  0  0
 60134  1  0  0  0
 61135  1  0  0  0
 61136  1  0  0  0
 61137  1  0  0  0
 62138  1  0  0  0
 62139  1  0  0  0
 62140  1  0  0  0
 63 65  1  0  0  0
 63141  1  0  0  0
 63142  1  0  0  0
 63143  1  0  0  0
 64144  1  0  0  0
 65145  1  0  0  0
 68 82  1  0  0  0
 71 72  2  0  0  0
 71 74  1  0  0  0
 71146  1  0  0  0
 72 75  1  0  0  0
 72147  1  0  0  0
 73 74  2  0  0  0
 73 76  1  0  0  0
 73 78  1  0  0  0
 74 83  1  0  0  0
 75 76  2  0  0  0
 75 84  1  0  0  0
 76 86  1  0  0  0
 77 79  1  0  0  0
 77 83  1  0  0  0
 77 85  2  0  0  0
 78 79  1  0  0  0
 78148  1  0  0  0
 78149  1  0  0  0
 79150  1  0  0  0
 79151  1  0  0  0
 80 81  1  0  0  0
 80 82  1  0  0  0
 80152  1  0  0  0
 80153  1  0  0  0
 81 83  1  0  0  0
 81154  1  0  0  0
 81155  1  0  0  0
 82156  1  0  0  0
 82157  1  0  0  0
 84158  1  0  0  0
M  ISO  4   1 100  68 101  82 101  84 100
M  END
> <chiral flag>
0

> <version>
0

> <s_m_source_file>
/data/baiqing/PycharmProjects/Reinvent-master-3.2/result/LINK_invent/BTK/process_docking_weight1_custom_product_contain_oxygen_bond_distance_aromatic_linkinvent_7_9_3/rearranged_h_0078.sdf

> <i_m_source_file_index>
42

> <r_mmod_Potential_Energy-OPLS-2005>
113.579612731934

> <r_mmod_Stretch_Energy-OPLS-2005>
90.8992156982422

> <r_mmod_Bend_Energy-OPLS-2005>
134.651260375977

> <r_mmod_Torsional_Energy-OPLS-2005>
287.172332763672

> <r_mmod_Improper_Torsional_Energy-OPLS-2005>
4.13767862319946

> <r_mmod_Van_der_Waal_Energy-OPLS-2005>
167.19367980957

> <r_mmod_Electrostatic_Energy-OPLS-2005>
-393.820770263672

> <r_mmod_Solvation_Energy-OPLS-2005>
-222.181045532227

> <b_mmod_Minimization_Converged-OPLS-2005>
0

> <r_mmod_RMS_Derivative-OPLS-2005>
2.39710879325867

$$$$
43
                    3D
 Structure written by MMmdl.
160169  0  0  1  0            999 V2000
  -30.6357  -14.7075   20.5643 C   0  0  0  0  0  0
  -30.4341  -12.4558   19.4675 C   0  0  0  0  0  0
  -29.5093  -12.5331   18.2330 C   0  0  0  0  0  0
  -28.0360  -12.3477   18.6416 C   0  0  0  0  0  0
  -27.6473  -13.2277   19.8575 C   0  0  2  0  0  0
  -28.6846  -13.1134   20.9921 C   0  0  0  0  0  0
  -25.2530  -13.8191   20.5683 C   0  0  0  0  0  0
  -24.1810  -13.0440   20.9182 C   0  0  0  0  0  0
  -24.6395  -11.6916   20.8727 C   0  0  0  0  0  0
  -23.9071  -10.4294   21.0399 C   0  0  0  0  0  0
  -24.3621   -9.4211   21.9181 C   0  0  0  0  0  0
  -23.6295   -8.2247   22.0754 C   0  0  0  0  0  0
  -22.4276   -8.0283   21.3545 C   0  0  0  0  0  0
  -21.9912   -9.0256   20.4647 C   0  0  0  0  0  0
  -22.7241  -10.2135   20.3053 C   0  0  0  0  0  0
  -21.6854   -6.0737   22.5279 C   0  0  0  0  0  0
  -21.4016   -6.5641   23.8213 C   0  0  0  0  0  0
  -21.3660   -5.6793   24.9175 C   0  0  0  0  0  0
  -21.6044   -4.3056   24.7225 C   0  0  0  0  0  0
  -21.8819   -3.8148   23.4346 C   0  0  0  0  0  0
  -21.9193   -4.6965   22.3402 C   0  0  0  0  0  0
  -22.7834  -13.5225   21.1856 C   0  0  0  0  0  0
  -22.1661   -4.2150   21.0980 F   0  0  0  0  0  0
  -21.5629   -3.4539   25.7738 F   0  0  0  0  0  0
  -29.9988  -13.4860   20.4428 N   0  0  0  0  0  0
  -26.2956  -12.9390   20.3280 N   0  0  0  0  0  0
  -25.9324  -11.6533   20.5727 N   0  0  0  0  0  0
  -22.0486  -12.8212   22.0417 N   0  0  0  0  0  0
  -25.4241  -15.1914   20.4129 N   0  0  0  0  0  0
  -31.7293  -14.8835   20.0163 O   0  0  0  0  0  0
  -21.6641   -6.8880   21.4241 O   0  0  0  0  0  0
  -22.3510  -14.5530   20.6709 O   0  0  0  0  0  0
  -24.6305  -31.8542   23.1967 C   0  0  0  0  0  0
  -25.9132  -32.4747   23.8316 C   0  0  1  0  0  0
  -27.2290  -27.2714   20.1167 C   0  0  0  0  0  0
  -25.5928  -33.8550   24.2243 N   0  0  0  0  0  0
  -23.4270  -30.4752   21.5398 C   0  0  2  0  0  0
  -24.8744  -28.9198   20.1072 C   0  0  0  0  0  0
  -22.7497  -29.4594   22.4910 C   0  0  0  0  0  0
  -18.0290  -28.1388   22.8484 C   0  0  0  0  0  0
  -24.1490  -36.7280   23.2640 C   0  0  0  0  0  0
  -25.9711  -30.7694   21.3741 C   0  0  0  0  0  0
  -26.0440  -29.3926   20.7144 C   0  0  0  0  0  0
  -27.2202  -28.5790   20.7096 C   0  0  0  0  0  0
  -26.0304  -26.8542   19.4971 C   0  0  0  0  0  0
  -24.8717  -27.6582   19.4895 C   0  0  0  0  0  0
  -23.6441  -29.8058   20.1563 C   0  0  0  0  0  0
  -25.4118  -36.3065   24.0324 C   0  0  1  0  0  0
  -20.5893  -28.3697   23.1272 C   0  0  2  0  0  0
  -20.6777  -26.9414   22.5411 C   0  0  0  0  0  0
  -19.5754  -26.6383   21.5213 C   0  0  0  0  0  0
  -18.1934  -26.7930   22.1624 C   0  0  0  0  0  0
  -19.1544  -28.8860   23.2872 C   0  0  0  0  0  0
  -18.9465  -30.1461   23.8891 C   0  0  0  0  0  0
  -17.6465  -30.6589   24.0563 C   0  0  0  0  0  0
  -25.9058  -34.9436   23.5089 C   0  0  0  0  0  0
  -16.5356  -29.9087   23.6331 C   0  0  0  0  0  0
  -16.7277  -28.6505   23.0352 C   0  0  0  0  0  0
  -26.4501  -31.6574   25.0709 C   0  0  0  0  0  0
  -25.3722  -31.3727   26.1429 C   0  0  0  0  0  0
  -27.0351  -30.2989   24.6198 C   0  0  0  0  0  0
  -27.6051  -32.4320   25.7486 C   0  0  0  0  0  0
  -27.5580  -37.1794   24.8463 C   0  0  0  0  0  0
  -21.4204  -29.3040   22.3657 N   0  0  0  0  0  0
  -26.4290  -37.3767   23.9409 N   0  0  0  0  0  0
  -24.6953  -31.0511   22.0935 N   0  0  0  0  0  0
  -23.4198  -28.8145   23.3016 O   0  0  0  0  0  0
  -28.3424  -26.4039   20.2109 O   0  0  0  0  0  0
  -26.5636  -34.8914   22.4662 O   0  0  0  0  0  0
  -23.5457  -32.1363   23.7267 O   0  0  0  0  0  0
  -29.9321  -19.3367   19.8413 C   0  0  0  0  0  0
  -30.2082  -17.9207   19.9754 C   0  0  0  0  0  0
  -28.6306  -19.2607   21.8292 C   0  0  0  0  0  0
  -29.1567  -20.0786   20.7907 C   0  0  0  0  0  0
  -29.7248  -17.1248   21.0652 C   0  0  0  0  0  0
  -28.8792  -17.8612   21.9549 C   0  0  0  0  0  0
  -28.5957  -23.8954   20.3566 C   0  0  0  0  0  0
  -28.6057  -23.7062   21.7850 C   0  0  0  0  0  0
  -28.8214  -22.5066   19.8039 C   0  0  0  0  0  0
  -28.5166  -24.6662   22.7234 C   0  0  0  0  0  0
  -28.4133  -25.0914   19.6522 C   0  0  0  0  0  0
  -28.7389  -22.2375   22.1121 C   0  0  0  0  0  0
  -28.4494  -25.1660   18.1328 C   0  0  0  0  0  0
  -30.2748  -15.3897   22.8009 C   0  0  0  0  0  0
  -28.9323  -21.5635   20.8187 N   0  0  0  0  0  0
  -30.0776  -15.6933   21.3690 N   0  0  0  0  0  0
  -28.9053  -22.2044   18.6087 O   0  0  0  0  0  0
  -28.2705  -17.2314   22.9882 F   0  0  0  0  0  0
  -31.4743  -12.5861   19.1645 H   0  0  0  0  0  0
  -30.3845  -11.4649   19.9217 H   0  0  0  0  0  0
  -29.7923  -11.7763   17.5001 H   0  0  0  0  0  0
  -29.6350  -13.4986   17.7405 H   0  0  0  0  0  0
  -27.8903  -11.2949   18.8865 H   0  0  0  0  0  0
  -27.3788  -12.5571   17.7968 H   0  0  0  0  0  0
  -27.6580  -14.2604   19.5078 H   0  0  0  0  0  0
  -28.7142  -12.0981   21.3899 H   0  0  0  0  0  0
  -28.3810  -13.7480   21.8218 H   0  0  0  0  0  0
  -25.2767   -9.5689   22.4753 H   0  0  0  0  0  0
  -24.0005   -7.4640   22.7474 H   0  0  0  0  0  0
  -21.0843   -8.8775   19.8953 H   0  0  0  0  0  0
  -22.3699  -10.9673   19.6161 H   0  0  0  0  0  0
  -21.2008   -7.6149   23.9716 H   0  0  0  0  0  0
  -21.1482   -6.0524   25.9078 H   0  0  0  0  0  0
  -22.0597   -2.7610   23.2846 H   0  0  0  0  0  0
  -22.4107  -11.9872   22.4798 H   0  0  0  0  0  0
  -21.1106  -13.1238   22.2634 H   0  0  0  0  0  0
  -24.6650  -15.8514   20.5407 H   0  0  0  0  0  0
  -26.2900  -15.6330   20.1309 H   0  0  0  0  0  0
  -26.7197  -32.5397   23.1055 H   0  0  0  0  0  0
  -25.0064  -33.9684   25.0381 H   0  0  0  0  0  0
  -22.7233  -31.2972   21.3926 H   0  0  0  0  0  0
  -23.3755  -35.9609   23.3294 H   0  0  0  0  0  0
  -24.3580  -36.8915   22.2056 H   0  0  0  0  0  0
  -23.7239  -37.6476   23.6674 H   0  0  0  0  0  0
  -26.1093  -31.5313   20.6058 H   0  0  0  0  0  0
  -26.8486  -30.8175   22.0074 H   0  0  0  0  0  0
  -28.1162  -28.9334   21.1994 H   0  0  0  0  0  0
  -25.9644  -25.8777   19.0411 H   0  0  0  0  0  0
  -23.9722  -27.2863   19.0184 H   0  0  0  0  0  0
  -23.7667  -30.5807   19.3987 H   0  0  0  0  0  0
  -22.7627  -29.2376   19.8535 H   0  0  0  0  0  0
  -25.1300  -36.1908   25.0817 H   0  0  0  0  0  0
  -20.9987  -28.3279   24.1392 H   0  0  0  0  0  0
  -20.5676  -26.2308   23.3616 H   0  0  0  0  0  0
  -21.6645  -26.7439   22.1207 H   0  0  0  0  0  0
  -19.6916  -25.6293   21.1246 H   0  0  0  0  0  0
  -19.6692  -27.3191   20.6740 H   0  0  0  0  0  0
  -17.4204  -26.6677   21.4026 H   0  0  0  0  0  0
  -18.0334  -26.0074   22.9022 H   0  0  0  0  0  0
  -19.7942  -30.7277   24.2259 H   0  0  0  0  0  0
  -17.5020  -31.6269   24.5167 H   0  0  0  0  0  0
  -15.5356  -30.2988   23.7658 H   0  0  0  0  0  0
  -15.8677  -28.0823   22.7069 H   0  0  0  0  0  0
  -24.5896  -30.7079   25.7755 H   0  0  0  0  0  0
  -24.8916  -32.2899   26.4843 H   0  0  0  0  0  0
  -25.8035  -30.8908   27.0212 H   0  0  0  0  0  0
  -26.2936  -29.6731   24.1218 H   0  0  0  0  0  0
  -27.4027  -29.7259   25.4720 H   0  0  0  0  0  0
  -27.8815  -30.4261   23.9445 H   0  0  0  0  0  0
  -27.2654  -33.3624   26.2049 H   0  0  0  0  0  0
  -28.3869  -32.6874   25.0321 H   0  0  0  0  0  0
  -28.0710  -31.8456   26.5415 H   0  0  0  0  0  0
  -28.2588  -38.0101   24.7520 H   0  0  0  0  0  0
  -28.1086  -36.2631   24.6276 H   0  0  0  0  0  0
  -27.2300  -37.1427   25.8866 H   0  0  0  0  0  0
  -20.9392  -29.8755   21.6853 H   0  0  0  0  0  0
  -26.0166  -38.2838   24.1416 H   0  0  0  0  0  0
  -30.3754  -19.8656   19.0087 H   0  0  0  0  0  0
  -30.8504  -17.4584   19.2396 H   0  0  0  0  0  0
  -28.0032  -19.7016   22.5878 H   0  0  0  0  0  0
  -28.4234  -25.7138   22.4830 H   0  0  0  0  0  0
  -28.5356  -24.4103   23.7733 H   0  0  0  0  0  0
  -27.8278  -21.8994   22.6061 H   0  0  0  0  0  0
  -29.5900  -22.0618   22.7714 H   0  0  0  0  0  0
  -29.3924  -24.7708   17.7542 H   0  0  0  0  0  0
  -28.3580  -26.1926   17.7771 H   0  0  0  0  0  0
  -27.6346  -24.5842   17.7013 H   0  0  0  0  0  0
  -30.6859  -16.2527   23.3262 H   0  0  0  0  0  0
  -30.9710  -14.5680   22.9892 H   0  0  0  0  0  0
  -29.3360  -15.1226   23.2849 H   0  0  0  0  0  0
  1 25  1  0  0  0
  1 30  2  0  0  0
  1 86  1  0  0  0
  2  3  1  0  0  0
  2 25  1  0  0  0
  2 89  1  0  0  0
  2 90  1  0  0  0
  3  4  1  0  0  0
  3 91  1  0  0  0
  3 92  1  0  0  0
  4  5  1  0  0  0
  4 93  1  0  0  0
  4 94  1  0  0  0
  5  6  1  0  0  0
  5 26  1  0  0  0
  5 95  1  0  0  0
  6 25  1  0  0  0
  6 96  1  0  0  0
  6 97  1  0  0  0
  7  8  2  0  0  0
  7 26  1  0  0  0
  7 29  1  0  0  0
  8  9  1  0  0  0
  8 22  1  0  0  0
  9 10  1  0  0  0
  9 27  2  0  0  0
 10 11  2  0  0  0
 10 15  1  0  0  0
 11 12  1  0  0  0
 11 98  1  0  0  0
 12 13  2  0  0  0
 12 99  1  0  0  0
 13 14  1  0  0  0
 13 31  1  0  0  0
 14 15  2  0  0  0
 14100  1  0  0  0
 15101  1  0  0  0
 16 17  2  0  0  0
 16 21  1  0  0  0
 16 31  1  0  0  0
 17 18  1  0  0  0
 17102  1  0  0  0
 18 19  2  0  0  0
 18103  1  0  0  0
 19 20  1  0  0  0
 19 24  1  0  0  0
 20 21  2  0  0  0
 20104  1  0  0  0
 21 23  1  0  0  0
 22 28  1  0  0  0
 22 32  2  0  0  0
 26 27  1  0  0  0
 28105  1  0  0  0
 28106  1  0  0  0
 29107  1  0  0  0
 29108  1  0  0  0
 33 34  1  0  0  0
 33 66  1  0  0  0
 33 70  2  0  0  0
 34 36  1  0  0  0
 34 59  1  0  0  0
 34109  1  0  0  0
 35 44  2  0  0  0
 35 45  1  0  0  0
 35 68  1  0  0  0
 36 56  1  0  0  0
 36110  1  0  0  0
 37 39  1  0  0  0
 37 47  1  0  0  0
 37 66  1  0  0  0
 37111  1  0  0  0
 38 43  2  0  0  0
 38 46  1  0  0  0
 38 47  1  0  0  0
 39 64  1  0  0  0
 39 67  2  0  0  0
 40 52  1  0  0  0
 40 53  2  0  0  0
 40 58  1  0  0  0
 41112  1  0  0  0
 41113  1  0  0  0
 41114  1  0  0  0
 41 48  1  0  0  0
 42 43  1  0  0  0
 42 66  1  0  0  0
 42115  1  0  0  0
 42116  1  0  0  0
 43 44  1  0  0  0
 44117  1  0  0  0
 45 46  2  0  0  0
 45118  1  0  0  0
 46119  1  0  0  0
 47120  1  0  0  0
 47121  1  0  0  0
 48 56  1  0  0  0
 48 65  1  0  0  0
 48122  1  0  0  0
 49 50  1  0  0  0
 49 53  1  0  0  0
 49 64  1  0  0  0
 49123  1  0  0  0
 50 51  1  0  0  0
 50124  1  0  0  0
 50125  1  0  0  0
 51 52  1  0  0  0
 51126  1  0  0  0
 51127  1  0  0  0
 52128  1  0  0  0
 52129  1  0  0  0
 53 54  1  0  0  0
 54 55  2  0  0  0
 54130  1  0  0  0
 55 57  1  0  0  0
 55131  1  0  0  0
 56 69  2  0  0  0
 57 58  2  0  0  0
 57132  1  0  0  0
 58133  1  0  0  0
 59 60  1  0  0  0
 59 61  1  0  0  0
 59 62  1  0  0  0
 60134  1  0  0  0
 60135  1  0  0  0
 60136  1  0  0  0
 61137  1  0  0  0
 61138  1  0  0  0
 61139  1  0  0  0
 62140  1  0  0  0
 62141  1  0  0  0
 62142  1  0  0  0
 63 65  1  0  0  0
 63143  1  0  0  0
 63144  1  0  0  0
 63145  1  0  0  0
 64146  1  0  0  0
 65147  1  0  0  0
 68 81  1  0  0  0
 71 72  2  0  0  0
 71 74  1  0  0  0
 71148  1  0  0  0
 72 75  1  0  0  0
 72149  1  0  0  0
 73 74  2  0  0  0
 73 76  1  0  0  0
 73150  1  0  0  0
 74 85  1  0  0  0
 75 76  2  0  0  0
 75 86  1  0  0  0
 76 88  1  0  0  0
 77 78  1  0  0  0
 77 79  1  0  0  0
 77 81  2  0  0  0
 78 80  2  0  0  0
 78 82  1  0  0  0
 79 85  1  0  0  0
 79 87  2  0  0  0
 80151  1  0  0  0
 80152  1  0  0  0
 81 83  1  0  0  0
 82 85  1  0  0  0
 82153  1  0  0  0
 82154  1  0  0  0
 83155  1  0  0  0
 83156  1  0  0  0
 83157  1  0  0  0
 84 86  1  0  0  0
 84158  1  0  0  0
 84159  1  0  0  0
 84160  1  0  0  0
M  ISO  4   1 100  68 101  81 101  86 100
M  END
> <chiral flag>
0

> <version>
0

> <s_m_source_file>
/data/baiqing/PycharmProjects/Reinvent-master-3.2/result/LINK_invent/BTK/process_docking_weight1_custom_product_contain_oxygen_bond_distance_aromatic_linkinvent_7_9_3/rearranged_h_0078.sdf

> <i_m_source_file_index>
43

> <r_mmod_Potential_Energy-OPLS-2005>
490.300720214844

> <r_mmod_Stretch_Energy-OPLS-2005>
126.274047851562

> <r_mmod_Bend_Energy-OPLS-2005>
223.828414916992

> <r_mmod_Torsional_Energy-OPLS-2005>
340.01318359375

> <r_mmod_Improper_Torsional_Energy-OPLS-2005>
3.79366612434387

> <r_mmod_Van_der_Waal_Energy-OPLS-2005>
149.041244506836

> <r_mmod_Electrostatic_Energy-OPLS-2005>
-241.55598449707

> <r_mmod_Solvation_Energy-OPLS-2005>
-183.688369750977

> <b_mmod_Minimization_Converged-OPLS-2005>
0

> <r_mmod_RMS_Derivative-OPLS-2005>
0.160892605781555

$$$$
44
                    3D
 Structure written by MMmdl.
159168  0  0  1  0            999 V2000
  -30.7652  -14.4426   20.6051 C   0  0  0  0  0  0
  -30.3952  -12.3114   19.4192 C   0  0  0  0  0  0
  -29.4756  -12.5014   18.1994 C   0  0  0  0  0  0
  -28.0014  -12.3612   18.6183 C   0  0  0  0  0  0
  -27.6478  -13.2197   19.8630 C   0  0  2  0  0  0
  -28.6916  -13.0467   20.9892 C   0  0  0  0  0  0
  -25.2526  -13.8205   20.5751 C   0  0  0  0  0  0
  -24.1804  -13.0450   20.9219 C   0  0  0  0  0  0
  -24.6382  -11.6921   20.8756 C   0  0  0  0  0  0
  -23.9064  -10.4297   21.0409 C   0  0  0  0  0  0
  -24.3625   -9.4213   21.9183 C   0  0  0  0  0  0
  -23.6308   -8.2244   22.0750 C   0  0  0  0  0  0
  -22.4290   -8.0274   21.3538 C   0  0  0  0  0  0
  -21.9924   -9.0244   20.4632 C   0  0  0  0  0  0
  -22.7248  -10.2129   20.3042 C   0  0  0  0  0  0
  -21.6852   -6.0739   22.5285 C   0  0  0  0  0  0
  -21.4015   -6.5642   23.8221 C   0  0  0  0  0  0
  -21.3662   -5.6793   24.9187 C   0  0  0  0  0  0
  -21.6047   -4.3059   24.7234 C   0  0  0  0  0  0
  -21.8820   -3.8147   23.4354 C   0  0  0  0  0  0
  -21.9198   -4.6964   22.3410 C   0  0  0  0  0  0
  -22.7814  -13.5216   21.1874 C   0  0  0  0  0  0
  -22.1664   -4.2147   21.0988 F   0  0  0  0  0  0
  -21.5634   -3.4546   25.7749 F   0  0  0  0  0  0
  -30.0163  -13.3223   20.4196 N   0  0  0  0  0  0
  -26.2950  -12.9400   20.3344 N   0  0  0  0  0  0
  -25.9302  -11.6546   20.5762 N   0  0  0  0  0  0
  -22.0457  -12.8180   22.0409 N   0  0  0  0  0  0
  -25.4240  -15.1938   20.4225 N   0  0  0  0  0  0
  -31.9059  -14.5615   20.1456 O   0  0  0  0  0  0
  -21.6647   -6.8879   21.4245 O   0  0  0  0  0  0
  -22.3496  -14.5527   20.6726 O   0  0  0  0  0  0
  -24.6166  -31.8691   23.2115 C   0  0  0  0  0  0
  -25.9054  -32.4828   23.8404 C   0  0  1  0  0  0
  -27.2190  -27.4157   20.0913 C   0  0  0  0  0  0
  -25.5912  -33.8627   24.2341 N   0  0  0  0  0  0
  -23.4025  -30.4974   21.5544 C   0  0  2  0  0  0
  -24.8441  -28.9718   20.1114 C   0  0  0  0  0  0
  -22.7416  -29.4667   22.4989 C   0  0  0  0  0  0
  -18.0281  -28.1371   22.8496 C   0  0  0  0  0  0
  -24.1489  -36.7321   23.2633 C   0  0  0  0  0  0
  -25.9343  -30.8325   21.3631 C   0  0  0  0  0  0
  -26.0091  -29.4656   20.7118 C   0  0  0  0  0  0
  -27.1983  -28.6942   20.7027 C   0  0  0  0  0  0
  -26.0316  -26.9627   19.4607 C   0  0  0  0  0  0
  -24.8514  -27.7201   19.4826 C   0  0  0  0  0  0
  -23.6079  -29.8389   20.1662 C   0  0  0  0  0  0
  -25.4110  -36.3117   24.0333 C   0  0  1  0  0  0
  -20.5871  -28.3663   23.1317 C   0  0  2  0  0  0
  -20.6769  -26.9400   22.5414 C   0  0  0  0  0  0
  -19.5743  -26.6390   21.5210 C   0  0  0  0  0  0
  -18.1925  -26.7919   22.1625 C   0  0  0  0  0  0
  -19.1531  -28.8834   23.2907 C   0  0  0  0  0  0
  -18.9452  -30.1442   23.8915 C   0  0  0  0  0  0
  -17.6452  -30.6581   24.0567 C   0  0  0  0  0  0
  -25.9038  -34.9479   23.5132 C   0  0  0  0  0  0
  -16.5345  -29.9083   23.6321 C   0  0  0  0  0  0
  -16.7269  -28.6500   23.0342 C   0  0  0  0  0  0
  -26.4475  -31.6582   25.0712 C   0  0  0  0  0  0
  -25.3744  -31.3638   26.1450 C   0  0  0  0  0  0
  -27.0296  -30.3037   24.6036 C   0  0  0  0  0  0
  -27.6068  -32.4261   25.7494 C   0  0  0  0  0  0
  -27.5579  -37.1827   24.8465 C   0  0  0  0  0  0
  -21.4142  -29.3040   22.3730 N   0  0  0  0  0  0
  -26.4297  -37.3798   23.9402 N   0  0  0  0  0  0
  -24.6706  -31.0787   22.1025 N   0  0  0  0  0  0
  -23.4193  -28.8192   23.3012 O   0  0  0  0  0  0
  -28.3662  -26.6338   20.1393 O   0  0  0  0  0  0
  -26.5600  -34.8925   22.4693 O   0  0  0  0  0  0
  -23.5352  -32.1446   23.7502 O   0  0  0  0  0  0
  -29.3257  -18.6034   21.5152 C   0  0  0  0  0  0
  -31.7318  -18.8831   21.4385 C   0  0  0  0  0  0
  -29.1715  -19.9983   21.2976 C   0  0  0  0  0  0
  -31.5749  -20.2687   21.2353 C   0  0  0  0  0  0
  -30.6154  -18.0275   21.5902 C   0  0  0  0  0  0
  -30.2919  -20.8584   21.1531 C   0  0  0  0  0  0
  -29.0124  -22.9906   20.6238 C   0  0  0  0  0  0
  -29.2624  -24.2646   20.2741 C   0  0  0  0  0  0
  -30.6903  -24.4435   20.3647 C   0  0  0  0  0  0
  -31.3668  -25.5722   20.0981 C   0  0  0  0  0  0
  -30.8685  -16.5840   21.8235 C   0  0  0  0  0  0
  -31.3159  -23.1304   20.7907 C   0  0  0  0  0  0
  -28.1950  -25.2434   19.7896 C   0  0  0  0  0  0
  -30.1489  -22.2547   20.9359 N   0  0  0  0  0  0
  -30.1600  -15.5964   21.2214 N   0  0  0  0  0  0
  -31.8743  -16.2850   22.6617 N   0  3  0  0  0  0
  -31.4417  -12.3811   19.1179 H   0  0  0  0  0  0
  -30.2717  -11.3106   19.8366 H   0  0  0  0  0  0
  -29.7136  -11.7704   17.4255 H   0  0  0  0  0  0
  -29.6405  -13.4844   17.7556 H   0  0  0  0  0  0
  -27.8177  -11.3073   18.8312 H   0  0  0  0  0  0
  -27.3464  -12.6200   17.7853 H   0  0  0  0  0  0
  -27.6764  -14.2607   19.5403 H   0  0  0  0  0  0
  -28.6663  -12.0301   21.3842 H   0  0  0  0  0  0
  -28.4606  -13.6982   21.8320 H   0  0  0  0  0  0
  -25.2762   -9.5694   22.4768 H   0  0  0  0  0  0
  -24.0014   -7.4644   22.7479 H   0  0  0  0  0  0
  -21.0859   -8.8775   19.8930 H   0  0  0  0  0  0
  -22.3719  -10.9676   19.6153 H   0  0  0  0  0  0
  -21.2003   -7.6150   23.9731 H   0  0  0  0  0  0
  -21.1483   -6.0520   25.9093 H   0  0  0  0  0  0
  -22.0595   -2.7605   23.2865 H   0  0  0  0  0  0
  -22.4079  -11.9804   22.4725 H   0  0  0  0  0  0
  -21.1068  -13.1188   22.2638 H   0  0  0  0  0  0
  -24.6584  -15.8477   20.5481 H   0  0  0  0  0  0
  -26.2716  -15.6388   20.0939 H   0  0  0  0  0  0
  -26.7126  -32.5544   23.1169 H   0  0  0  0  0  0
  -25.0052  -33.9791   25.0476 H   0  0  0  0  0  0
  -22.6910  -31.3148   21.4206 H   0  0  0  0  0  0
  -23.3749  -35.9654   23.3289 H   0  0  0  0  0  0
  -24.3584  -36.8951   22.2048 H   0  0  0  0  0  0
  -23.7244  -37.6524   23.6654 H   0  0  0  0  0  0
  -26.0353  -31.5933   20.5875 H   0  0  0  0  0  0
  -26.8281  -30.8961   21.9718 H   0  0  0  0  0  0
  -28.0937  -29.0678   21.1791 H   0  0  0  0  0  0
  -25.9764  -26.0183   18.9399 H   0  0  0  0  0  0
  -23.9587  -27.3391   19.0052 H   0  0  0  0  0  0
  -23.7128  -30.6173   19.4096 H   0  0  0  0  0  0
  -22.7304  -29.2597   19.8717 H   0  0  0  0  0  0
  -25.1282  -36.1989   25.0826 H   0  0  0  0  0  0
  -20.9966  -28.3226   24.1433 H   0  0  0  0  0  0
  -20.5679  -26.2263   23.3593 H   0  0  0  0  0  0
  -21.6637  -26.7444   22.1201 H   0  0  0  0  0  0
  -19.6903  -25.6312   21.1214 H   0  0  0  0  0  0
  -19.6676  -27.3219   20.6754 H   0  0  0  0  0  0
  -17.4192  -26.6678   21.4031 H   0  0  0  0  0  0
  -18.0326  -26.0057   22.9018 H   0  0  0  0  0  0
  -19.7926  -30.7261   24.2284 H   0  0  0  0  0  0
  -17.5003  -31.6256   24.5175 H   0  0  0  0  0  0
  -15.5345  -30.2989   23.7624 H   0  0  0  0  0  0
  -15.8670  -28.0825   22.7032 H   0  0  0  0  0  0
  -24.5954  -30.6953   25.7761 H   0  0  0  0  0  0
  -24.8884  -32.2763   26.4906 H   0  0  0  0  0  0
  -25.8102  -30.8799   27.0198 H   0  0  0  0  0  0
  -26.2820  -29.6809   24.1103 H   0  0  0  0  0  0
  -27.4120  -29.7240   25.4447 H   0  0  0  0  0  0
  -27.8630  -30.4378   23.9133 H   0  0  0  0  0  0
  -27.2739  -33.3588   26.2050 H   0  0  0  0  0  0
  -28.3912  -32.6751   25.0338 H   0  0  0  0  0  0
  -28.0680  -31.8365   26.5426 H   0  0  0  0  0  0
  -28.2591  -38.0127   24.7511 H   0  0  0  0  0  0
  -28.1084  -36.2658   24.6302 H   0  0  0  0  0  0
  -27.2288  -37.1490   25.8866 H   0  0  0  0  0  0
  -20.9285  -29.8795   21.6990 H   0  0  0  0  0  0
  -26.0184  -38.2877   24.1395 H   0  0  0  0  0  0
  -28.4438  -17.9904   21.6355 H   0  0  0  0  0  0
  -32.7349  -18.4823   21.4719 H   0  0  0  0  0  0
  -28.1704  -20.3998   21.2547 H   0  0  0  0  0  0
  -32.4712  -20.8618   21.1370 H   0  0  0  0  0  0
  -28.0487  -22.5000   20.6389 H   0  0  0  0  0  0
  -30.8658  -26.4763   19.7853 H   0  0  0  0  0  0
  -32.4431  -25.6084   20.1881 H   0  0  0  0  0  0
  -31.8555  -23.2368   21.7333 H   0  0  0  0  0  0
  -31.9970  -22.7748   20.0165 H   0  0  0  0  0  0
  -27.2694  -24.8592   20.2221 H   0  0  0  0  0  0
  -28.1210  -25.1492   18.7054 H   0  0  0  0  0  0
  -29.1655  -15.6946   21.3237 H   0  0  0  0  0  0
  -32.3751  -17.0376   23.1087 H   0  0  0  0  0  0
  -32.0960  -15.3390   22.9273 H   0  0  0  0  0  0
  1 25  1  0  0  0
  1 30  2  0  0  0
  1 85  1  0  0  0
  2  3  1  0  0  0
  2 25  1  0  0  0
  2 87  1  0  0  0
  2 88  1  0  0  0
  3  4  1  0  0  0
  3 89  1  0  0  0
  3 90  1  0  0  0
  4  5  1  0  0  0
  4 91  1  0  0  0
  4 92  1  0  0  0
  5  6  1  0  0  0
  5 26  1  0  0  0
  5 93  1  0  0  0
  6 25  1  0  0  0
  6 94  1  0  0  0
  6 95  1  0  0  0
  7  8  2  0  0  0
  7 26  1  0  0  0
  7 29  1  0  0  0
  8  9  1  0  0  0
  8 22  1  0  0  0
  9 10  1  0  0  0
  9 27  2  0  0  0
 10 11  2  0  0  0
 10 15  1  0  0  0
 11 12  1  0  0  0
 11 96  1  0  0  0
 12 13  2  0  0  0
 12 97  1  0  0  0
 13 14  1  0  0  0
 13 31  1  0  0  0
 14 15  2  0  0  0
 14 98  1  0  0  0
 15 99  1  0  0  0
 16 17  2  0  0  0
 16 21  1  0  0  0
 16 31  1  0  0  0
 17 18  1  0  0  0
 17100  1  0  0  0
 18 19  2  0  0  0
 18101  1  0  0  0
 19 20  1  0  0  0
 19 24  1  0  0  0
 20 21  2  0  0  0
 20102  1  0  0  0
 21 23  1  0  0  0
 22 28  1  0  0  0
 22 32  2  0  0  0
 26 27  1  0  0  0
 28103  1  0  0  0
 28104  1  0  0  0
 29105  1  0  0  0
 29106  1  0  0  0
 33 34  1  0  0  0
 33 66  1  0  0  0
 33 70  2  0  0  0
 34 36  1  0  0  0
 34 59  1  0  0  0
 34107  1  0  0  0
 35 44  2  0  0  0
 35 45  1  0  0  0
 35 68  1  0  0  0
 36 56  1  0  0  0
 36108  1  0  0  0
 37 39  1  0  0  0
 37 47  1  0  0  0
 37 66  1  0  0  0
 37109  1  0  0  0
 38 43  2  0  0  0
 38 46  1  0  0  0
 38 47  1  0  0  0
 39 64  1  0  0  0
 39 67  2  0  0  0
 40 52  1  0  0  0
 40 53  2  0  0  0
 40 58  1  0  0  0
 41110  1  0  0  0
 41111  1  0  0  0
 41112  1  0  0  0
 41 48  1  0  0  0
 42 43  1  0  0  0
 42 66  1  0  0  0
 42113  1  0  0  0
 42114  1  0  0  0
 43 44  1  0  0  0
 44115  1  0  0  0
 45 46  2  0  0  0
 45116  1  0  0  0
 46117  1  0  0  0
 47118  1  0  0  0
 47119  1  0  0  0
 48 56  1  0  0  0
 48 65  1  0  0  0
 48120  1  0  0  0
 49 50  1  0  0  0
 49 53  1  0  0  0
 49 64  1  0  0  0
 49121  1  0  0  0
 50 51  1  0  0  0
 50122  1  0  0  0
 50123  1  0  0  0
 51 52  1  0  0  0
 51124  1  0  0  0
 51125  1  0  0  0
 52126  1  0  0  0
 52127  1  0  0  0
 53 54  1  0  0  0
 54 55  2  0  0  0
 54128  1  0  0  0
 55 57  1  0  0  0
 55129  1  0  0  0
 56 69  2  0  0  0
 57 58  2  0  0  0
 57130  1  0  0  0
 58131  1  0  0  0
 59 60  1  0  0  0
 59 61  1  0  0  0
 59 62  1  0  0  0
 60132  1  0  0  0
 60133  1  0  0  0
 60134  1  0  0  0
 61135  1  0  0  0
 61136  1  0  0  0
 61137  1  0  0  0
 62138  1  0  0  0
 62139  1  0  0  0
 62140  1  0  0  0
 63 65  1  0  0  0
 63141  1  0  0  0
 63142  1  0  0  0
 63143  1  0  0  0
 64144  1  0  0  0
 65145  1  0  0  0
 68 83  1  0  0  0
 71 73  2  0  0  0
 71 75  1  0  0  0
 71146  1  0  0  0
 72 74  1  0  0  0
 72 75  2  0  0  0
 72147  1  0  0  0
 73 76  1  0  0  0
 73148  1  0  0  0
 74 76  2  0  0  0
 74149  1  0  0  0
 75 81  1  0  0  0
 76 84  1  0  0  0
 77 78  2  0  0  0
 77 84  1  0  0  0
 77150  1  0  0  0
 78 79  1  0  0  0
 78 83  1  0  0  0
 79 80  2  0  0  0
 79 82  1  0  0  0
 80151  1  0  0  0
 80152  1  0  0  0
 81 85  1  0  0  0
 81 86  2  0  0  0
 82 84  1  0  0  0
 82153  1  0  0  0
 82154  1  0  0  0
 83155  1  0  0  0
 83156  1  0  0  0
 85157  1  0  0  0
 86158  1  0  0  0
 86159  1  0  0  0
M  CHG  1  86   1
M  ISO  4   1 100  68 101  83 101  85 100
M  END
> <chiral flag>
0

> <version>
0

> <s_m_source_file>
/data/baiqing/PycharmProjects/Reinvent-master-3.2/result/LINK_invent/BTK/process_docking_weight1_custom_product_contain_oxygen_bond_distance_aromatic_linkinvent_7_9_3/rearranged_h_0078.sdf

> <i_m_source_file_index>
44

> <r_mmod_Potential_Energy-OPLS-2005>
-114.177314758301

> <r_mmod_Stretch_Energy-OPLS-2005>
40.3904876708984

> <r_mmod_Bend_Energy-OPLS-2005>
200.094024658203

> <r_mmod_Torsional_Energy-OPLS-2005>
236.808776855469

> <r_mmod_Improper_Torsional_Energy-OPLS-2005>
3.36034154891968

> <r_mmod_Van_der_Waal_Energy-OPLS-2005>
169.747695922852

> <r_mmod_Electrostatic_Energy-OPLS-2005>
-340.343200683594

> <r_mmod_Solvation_Energy-OPLS-2005>
-443.176605224609

> <b_mmod_Minimization_Converged-OPLS-2005>
0

> <r_mmod_RMS_Derivative-OPLS-2005>
1.421555519104

$$$$
45
                    3D
 Structure written by MMmdl.
163172  0  0  1  0            999 V2000
  -30.7220  -14.7540   20.5233 C   0  0  0  0  0  0
  -30.4178  -12.5091   19.4412 C   0  0  0  0  0  0
  -29.4777  -12.5021   18.2206 C   0  0  0  0  0  0
  -28.0351  -12.2172   18.6698 C   0  0  0  0  0  0
  -27.6136  -13.1620   19.8110 C   0  0  2  0  0  0
  -28.6771  -13.2358   20.9463 C   0  0  0  0  0  0
  -25.2336  -13.7914   20.5781 C   0  0  0  0  0  0
  -24.1638  -13.0213   20.9258 C   0  0  0  0  0  0
  -24.6253  -11.6725   20.8786 C   0  0  0  0  0  0
  -23.8969  -10.4155   21.0408 C   0  0  0  0  0  0
  -24.3565   -9.4091   21.9172 C   0  0  0  0  0  0
  -23.6262   -8.2127   22.0749 C   0  0  0  0  0  0
  -22.4244   -8.0197   21.3529 C   0  0  0  0  0  0
  -21.9849   -9.0155   20.4631 C   0  0  0  0  0  0
  -22.7162  -10.2029   20.3036 C   0  0  0  0  0  0
  -21.6811   -6.0704   22.5286 C   0  0  0  0  0  0
  -21.3962   -6.5619   23.8214 C   0  0  0  0  0  0
  -21.3670   -5.6784   24.9183 C   0  0  0  0  0  0
  -21.6055   -4.3043   24.7244 C   0  0  0  0  0  0
  -21.8818   -3.8134   23.4364 C   0  0  0  0  0  0
  -21.9178   -4.6939   22.3416 C   0  0  0  0  0  0
  -22.7671  -13.5041   21.1921 C   0  0  0  0  0  0
  -22.1646   -4.2127   21.0987 F   0  0  0  0  0  0
  -21.5665   -3.4539   25.7764 F   0  0  0  0  0  0
  -29.9746  -13.5986   20.3542 N   0  0  0  0  0  0
  -26.2749  -12.9057   20.3212 N   0  0  0  0  0  0
  -25.9163  -11.6276   20.5797 N   0  0  0  0  0  0
  -22.0356  -12.8072   22.0535 N   0  0  0  0  0  0
  -25.3700  -15.1639   20.4355 N   0  0  0  0  0  0
  -31.8993  -14.7511   20.1651 O   0  0  0  0  0  0
  -21.6597   -6.8809   21.4236 O   0  0  0  0  0  0
  -22.3381  -14.5366   20.6766 O   0  0  0  0  0  0
  -24.6242  -31.8594   23.1998 C   0  0  0  0  0  0
  -25.9088  -32.4782   23.8338 C   0  0  1  0  0  0
  -27.2625  -27.3384   20.1431 C   0  0  0  0  0  0
  -25.5917  -33.8581   24.2275 N   0  0  0  0  0  0
  -23.4211  -30.4763   21.5410 C   0  0  2  0  0  0
  -24.8817  -28.9246   20.1201 C   0  0  0  0  0  0
  -22.7473  -29.4608   22.4938 C   0  0  0  0  0  0
  -18.0279  -28.1388   22.8488 C   0  0  0  0  0  0
  -24.1480  -36.7287   23.2637 C   0  0  0  0  0  0
  -25.9593  -30.7975   21.3690 C   0  0  0  0  0  0
  -26.0450  -29.4211   20.7225 C   0  0  0  0  0  0
  -27.2387  -28.6434   20.7219 C   0  0  0  0  0  0
  -26.0779  -26.8791   19.5272 C   0  0  0  0  0  0
  -24.8998  -27.6563   19.5124 C   0  0  0  0  0  0
  -23.6426  -29.7986   20.1614 C   0  0  0  0  0  0
  -25.4112  -36.3087   24.0326 C   0  0  1  0  0  0
  -20.5879  -28.3704   23.1286 C   0  0  2  0  0  0
  -20.6774  -26.9420   22.5414 C   0  0  0  0  0  0
  -19.5747  -26.6390   21.5213 C   0  0  0  0  0  0
  -18.1925  -26.7932   22.1619 C   0  0  0  0  0  0
  -19.1533  -28.8858   23.2886 C   0  0  0  0  0  0
  -18.9460  -30.1463   23.8898 C   0  0  0  0  0  0
  -17.6469  -30.6594   24.0561 C   0  0  0  0  0  0
  -25.9055  -34.9456   23.5107 C   0  0  0  0  0  0
  -16.5351  -29.9097   23.6338 C   0  0  0  0  0  0
  -16.7274  -28.6512   23.0353 C   0  0  0  0  0  0
  -26.4496  -31.6590   25.0697 C   0  0  0  0  0  0
  -25.3731  -31.3705   26.1423 C   0  0  0  0  0  0
  -27.0357  -30.3017   24.6132 C   0  0  0  0  0  0
  -27.6055  -32.4330   25.7474 C   0  0  0  0  0  0
  -27.5578  -37.1799   24.8467 C   0  0  0  0  0  0
  -21.4186  -29.3041   22.3669 N   0  0  0  0  0  0
  -26.4295  -37.3782   23.9403 N   0  0  0  0  0  0
  -24.6865  -31.0601   22.0948 N   0  0  0  0  0  0
  -23.4195  -28.8156   23.3029 O   0  0  0  0  0  0
  -28.4001  -26.5216   20.1307 O   0  0  0  0  0  0
  -26.5613  -34.8929   22.4664 O   0  0  0  0  0  0
  -23.5407  -32.1372   23.7331 O   0  0  0  0  0  0
  -27.8119  -18.1559   18.1757 C   0  0  0  0  0  0
  -27.3719  -16.9861   18.7926 C   0  0  0  0  0  0
  -28.9070  -18.8306   18.7298 C   0  0  0  0  0  0
  -28.1637  -16.4227   19.8052 C   0  0  0  0  0  0
  -29.6282  -18.3417   19.8580 C   0  0  0  0  0  0
  -29.4026  -16.9329   20.2040 C   0  0  0  0  0  0
  -31.2758  -21.4121   22.4610 C   0  0  0  0  0  0
  -30.3802  -21.8932   21.3989 C   0  0  0  0  0  0
  -31.4296  -22.0363   23.6483 C   0  0  0  0  0  0
  -30.0109  -23.2313   21.3635 C   0  0  0  0  0  0
  -29.1067  -24.0091   20.4257 C   0  0  0  0  0  0
  -32.0207  -20.1029   22.2286 C   0  0  0  0  0  0
  -29.9098  -20.7973   20.3986 C   0  0  0  0  0  0
  -31.0534  -18.9918   21.7915 C   0  0  0  0  0  0
  -28.3507  -25.3003   20.9606 C   0  0  0  0  0  0
  -30.3830  -19.3577   20.5504 N   0  0  0  0  0  0
  -30.2149  -15.9747   20.9635 N   0  0  0  0  0  0
  -28.9152  -23.6548   19.2580 O   0  0  0  0  0  0
  -31.4458  -12.6305   19.0964 H   0  0  0  0  0  0
  -30.3916  -11.5467   19.9533 H   0  0  0  0  0  0
  -29.7926  -11.7570   17.4902 H   0  0  0  0  0  0
  -29.5225  -13.4680   17.7158 H   0  0  0  0  0  0
  -27.9714  -11.1771   18.9935 H   0  0  0  0  0  0
  -27.3472  -12.3123   17.8303 H   0  0  0  0  0  0
  -27.5328  -14.0729   19.2397 H   0  0  0  0  0  0
  -28.7556  -12.2757   21.4552 H   0  0  0  0  0  0
  -28.3874  -13.9540   21.7119 H   0  0  0  0  0  0
  -25.2698   -9.5603   22.4749 H   0  0  0  0  0  0
  -23.9973   -7.4514   22.7471 H   0  0  0  0  0  0
  -21.0780   -8.8682   19.8943 H   0  0  0  0  0  0
  -22.3608  -10.9598   19.6170 H   0  0  0  0  0  0
  -21.1902   -7.6122   23.9698 H   0  0  0  0  0  0
  -21.1505   -6.0524   25.9085 H   0  0  0  0  0  0
  -22.0595   -2.7599   23.2888 H   0  0  0  0  0  0
  -22.3989  -11.9701   22.4848 H   0  0  0  0  0  0
  -21.0972  -13.1056   22.2793 H   0  0  0  0  0  0
  -24.5917  -15.7998   20.5754 H   0  0  0  0  0  0
  -26.2154  -15.6389   20.1539 H   0  0  0  0  0  0
  -26.7159  -32.5468   23.1095 H   0  0  0  0  0  0
  -25.0069  -33.9732   25.0426 H   0  0  0  0  0  0
  -22.7149  -31.2954   21.3889 H   0  0  0  0  0  0
  -23.3754  -35.9607   23.3308 H   0  0  0  0  0  0
  -24.3572  -36.8896   22.2052 H   0  0  0  0  0  0
  -23.7236  -37.6488   23.6663 H   0  0  0  0  0  0
  -26.0809  -31.5569   20.5968 H   0  0  0  0  0  0
  -26.8420  -30.8559   21.9951 H   0  0  0  0  0  0
  -28.1354  -29.0323   21.1856 H   0  0  0  0  0  0
  -26.0657  -25.9023   19.0622 H   0  0  0  0  0  0
  -24.0086  -27.2678   19.0386 H   0  0  0  0  0  0
  -23.7582  -30.5680   19.3976 H   0  0  0  0  0  0
  -22.7670  -29.2194   19.8638 H   0  0  0  0  0  0
  -25.1295  -36.1927   25.0822 H   0  0  0  0  0  0
  -20.9972  -28.3273   24.1409 H   0  0  0  0  0  0
  -20.5687  -26.2297   23.3614 H   0  0  0  0  0  0
  -21.6649  -26.7453   22.1197 H   0  0  0  0  0  0
  -19.6919  -25.6303   21.1244 H   0  0  0  0  0  0
  -19.6696  -27.3198   20.6745 H   0  0  0  0  0  0
  -17.4200  -26.6682   21.4013 H   0  0  0  0  0  0
  -18.0325  -26.0072   22.9018 H   0  0  0  0  0  0
  -19.7936  -30.7271   24.2275 H   0  0  0  0  0  0
  -17.5021  -31.6276   24.5151 H   0  0  0  0  0  0
  -15.5352  -30.2994   23.7686 H   0  0  0  0  0  0
  -15.8664  -28.0840   22.7076 H   0  0  0  0  0  0
  -24.5904  -30.7059   25.7730 H   0  0  0  0  0  0
  -24.8923  -32.2869   26.4866 H   0  0  0  0  0  0
  -25.8060  -30.8855   27.0183 H   0  0  0  0  0  0
  -26.2929  -29.6745   24.1174 H   0  0  0  0  0  0
  -27.4103  -29.7287   25.4631 H   0  0  0  0  0  0
  -27.8778  -30.4320   23.9321 H   0  0  0  0  0  0
  -27.2664  -33.3640   26.2037 H   0  0  0  0  0  0
  -28.3883  -32.6873   25.0311 H   0  0  0  0  0  0
  -28.0702  -31.8450   26.5406 H   0  0  0  0  0  0
  -28.2598  -38.0094   24.7530 H   0  0  0  0  0  0
  -28.1080  -36.2636   24.6287 H   0  0  0  0  0  0
  -27.2296  -37.1433   25.8868 H   0  0  0  0  0  0
  -20.9375  -29.8737   21.6846 H   0  0  0  0  0  0
  -26.0170  -38.2847   24.1425 H   0  0  0  0  0  0
  -27.2554  -18.5952   17.3587 H   0  0  0  0  0  0
  -26.4471  -16.5251   18.4754 H   0  0  0  0  0  0
  -29.1194  -19.7919   18.2901 H   0  0  0  0  0  0
  -27.8214  -15.5936   20.3753 H   0  0  0  0  0  0
  -30.9204  -22.9490   23.9198 H   0  0  0  0  0  0
  -32.0867  -21.6237   24.4022 H   0  0  0  0  0  0
  -30.4296  -23.8787   22.1158 H   0  0  0  0  0  0
  -32.5453  -19.7880   23.1321 H   0  0  0  0  0  0
  -32.7869  -20.2540   21.4642 H   0  0  0  0  0  0
  -30.2192  -21.1615   19.4199 H   0  0  0  0  0  0
  -28.8204  -20.8203   20.4187 H   0  0  0  0  0  0
  -30.3031  -18.8108   22.5639 H   0  0  0  0  0  0
  -31.6222  -18.0715   21.6607 H   0  0  0  0  0  0
  -28.7593  -25.5473   21.9392 H   0  0  0  0  0  0
  -27.3119  -25.0206   21.1345 H   0  0  0  0  0  0
  -30.9775  -16.4679   21.4017 H   0  0  0  0  0  0
  1 25  1  0  0  0
  1 30  2  0  0  0
  1 87  1  0  0  0
  2  3  1  0  0  0
  2 25  1  0  0  0
  2 89  1  0  0  0
  2 90  1  0  0  0
  3  4  1  0  0  0
  3 91  1  0  0  0
  3 92  1  0  0  0
  4  5  1  0  0  0
  4 93  1  0  0  0
  4 94  1  0  0  0
  5  6  1  0  0  0
  5 26  1  0  0  0
  5 95  1  0  0  0
  6 25  1  0  0  0
  6 96  1  0  0  0
  6 97  1  0  0  0
  7  8  2  0  0  0
  7 26  1  0  0  0
  7 29  1  0  0  0
  8  9  1  0  0  0
  8 22  1  0  0  0
  9 10  1  0  0  0
  9 27  2  0  0  0
 10 11  2  0  0  0
 10 15  1  0  0  0
 11 12  1  0  0  0
 11 98  1  0  0  0
 12 13  2  0  0  0
 12 99  1  0  0  0
 13 14  1  0  0  0
 13 31  1  0  0  0
 14 15  2  0  0  0
 14100  1  0  0  0
 15101  1  0  0  0
 16 17  2  0  0  0
 16 21  1  0  0  0
 16 31  1  0  0  0
 17 18  1  0  0  0
 17102  1  0  0  0
 18 19  2  0  0  0
 18103  1  0  0  0
 19 20  1  0  0  0
 19 24  1  0  0  0
 20 21  2  0  0  0
 20104  1  0  0  0
 21 23  1  0  0  0
 22 28  1  0  0  0
 22 32  2  0  0  0
 26 27  1  0  0  0
 28105  1  0  0  0
 28106  1  0  0  0
 29107  1  0  0  0
 29108  1  0  0  0
 33 34  1  0  0  0
 33 66  1  0  0  0
 33 70  2  0  0  0
 34 36  1  0  0  0
 34 59  1  0  0  0
 34109  1  0  0  0
 35 44  2  0  0  0
 35 45  1  0  0  0
 35 68  1  0  0  0
 36 56  1  0  0  0
 36110  1  0  0  0
 37 39  1  0  0  0
 37 47  1  0  0  0
 37 66  1  0  0  0
 37111  1  0  0  0
 38 43  2  0  0  0
 38 46  1  0  0  0
 38 47  1  0  0  0
 39 64  1  0  0  0
 39 67  2  0  0  0
 40 52  1  0  0  0
 40 53  2  0  0  0
 40 58  1  0  0  0
 41112  1  0  0  0
 41113  1  0  0  0
 41114  1  0  0  0
 41 48  1  0  0  0
 42 43  1  0  0  0
 42 66  1  0  0  0
 42115  1  0  0  0
 42116  1  0  0  0
 43 44  1  0  0  0
 44117  1  0  0  0
 45 46  2  0  0  0
 45118  1  0  0  0
 46119  1  0  0  0
 47120  1  0  0  0
 47121  1  0  0  0
 48 56  1  0  0  0
 48 65  1  0  0  0
 48122  1  0  0  0
 49 50  1  0  0  0
 49 53  1  0  0  0
 49 64  1  0  0  0
 49123  1  0  0  0
 50 51  1  0  0  0
 50124  1  0  0  0
 50125  1  0  0  0
 51 52  1  0  0  0
 51126  1  0  0  0
 51127  1  0  0  0
 52128  1  0  0  0
 52129  1  0  0  0
 53 54  1  0  0  0
 54 55  2  0  0  0
 54130  1  0  0  0
 55 57  1  0  0  0
 55131  1  0  0  0
 56 69  2  0  0  0
 57 58  2  0  0  0
 57132  1  0  0  0
 58133  1  0  0  0
 59 60  1  0  0  0
 59 61  1  0  0  0
 59 62  1  0  0  0
 60134  1  0  0  0
 60135  1  0  0  0
 60136  1  0  0  0
 61137  1  0  0  0
 61138  1  0  0  0
 61139  1  0  0  0
 62140  1  0  0  0
 62141  1  0  0  0
 62142  1  0  0  0
 63 65  1  0  0  0
 63143  1  0  0  0
 63144  1  0  0  0
 63145  1  0  0  0
 64146  1  0  0  0
 65147  1  0  0  0
 68 85  1  0  0  0
 71 72  2  0  0  0
 71 73  1  0  0  0
 71148  1  0  0  0
 72 74  1  0  0  0
 72149  1  0  0  0
 73 75  2  0  0  0
 73150  1  0  0  0
 74 76  2  0  0  0
 74151  1  0  0  0
 75 76  1  0  0  0
 75 86  1  0  0  0
 76 87  1  0  0  0
 77 78  1  0  0  0
 77 79  2  0  0  0
 77 82  1  0  0  0
 78 80  2  0  0  0
 78 83  1  0  0  0
 79152  1  0  0  0
 79153  1  0  0  0
 80 81  1  0  0  0
 80154  1  0  0  0
 81 85  1  0  0  0
 81 88  2  0  0  0
 82 84  1  0  0  0
 82155  1  0  0  0
 82156  1  0  0  0
 83 86  1  0  0  0
 83157  1  0  0  0
 83158  1  0  0  0
 84 86  1  0  0  0
 84159  1  0  0  0
 84160  1  0  0  0
 85161  1  0  0  0
 85162  1  0  0  0
 87163  1  0  0  0
M  ISO  4   1 100  68 101  85 101  87 100
M  END
> <chiral flag>
0

> <version>
0

> <s_m_source_file>
/data/baiqing/PycharmProjects/Reinvent-master-3.2/result/LINK_invent/BTK/process_docking_weight1_custom_product_contain_oxygen_bond_distance_aromatic_linkinvent_7_9_3/rearranged_h_0078.sdf

> <i_m_source_file_index>
45

> <r_mmod_Potential_Energy-OPLS-2005>
284.807830810547

> <r_mmod_Stretch_Energy-OPLS-2005>
104.537803649902

> <r_mmod_Bend_Energy-OPLS-2005>
230.119155883789

> <r_mmod_Torsional_Energy-OPLS-2005>
343.584808349609

> <r_mmod_Improper_Torsional_Energy-OPLS-2005>
9.77937412261963

> <r_mmod_Van_der_Waal_Energy-OPLS-2005>
180.234909057617

> <r_mmod_Electrostatic_Energy-OPLS-2005>
-433.181396484375

> <r_mmod_Solvation_Energy-OPLS-2005>
-229.618713378906

> <b_mmod_Minimization_Converged-OPLS-2005>
0

> <r_mmod_RMS_Derivative-OPLS-2005>
3.90219163894653

$$$$
46
                    3D
 Structure written by MMmdl.
157166  0  0  1  0            999 V2000
  -30.6318  -14.5035   20.5777 C   0  0  0  0  0  0
  -30.4409  -12.3410   19.3827 C   0  0  0  0  0  0
  -29.4874  -12.5440   18.1830 C   0  0  0  0  0  0
  -27.9994  -12.4316   18.5818 C   0  0  0  0  0  0
  -27.6687  -13.2051   19.8861 C   0  0  2  0  0  0
  -28.7221  -12.9073   20.9800 C   0  0  0  0  0  0
  -25.2634  -13.8172   20.5723 C   0  0  0  0  0  0
  -24.1884  -13.0437   20.9153 C   0  0  0  0  0  0
  -24.6424  -11.6905   20.8690 C   0  0  0  0  0  0
  -23.9089  -10.4302   21.0338 C   0  0  0  0  0  0
  -24.3664   -9.4226   21.9124 C   0  0  0  0  0  0
  -23.6350   -8.2266   22.0714 C   0  0  0  0  0  0
  -22.4315   -8.0295   21.3529 C   0  0  0  0  0  0
  -21.9939   -9.0258   20.4644 C   0  0  0  0  0  0
  -22.7252  -10.2152   20.3033 C   0  0  0  0  0  0
  -21.6875   -6.0751   22.5251 C   0  0  0  0  0  0
  -21.4019   -6.5645   23.8184 C   0  0  0  0  0  0
  -21.3669   -5.6797   24.9139 C   0  0  0  0  0  0
  -21.6062   -4.3062   24.7183 C   0  0  0  0  0  0
  -21.8833   -3.8165   23.4295 C   0  0  0  0  0  0
  -21.9211   -4.6985   22.3359 C   0  0  0  0  0  0
  -22.7900  -13.5223   21.1797 C   0  0  0  0  0  0
  -22.1679   -4.2172   21.0939 F   0  0  0  0  0  0
  -21.5637   -3.4542   25.7685 F   0  0  0  0  0  0
  -30.0443  -13.2795   20.4454 N   0  0  0  0  0  0
  -26.3084  -12.9337   20.3431 N   0  0  0  0  0  0
  -25.9359  -11.6503   20.5779 N   0  0  0  0  0  0
  -22.0580  -12.8231   22.0385 N   0  0  0  0  0  0
  -25.4361  -15.1892   20.4097 N   0  0  0  0  0  0
  -31.6983  -14.7899   20.0211 O   0  0  0  0  0  0
  -21.6694   -6.8890   21.4214 O   0  0  0  0  0  0
  -22.3575  -14.5505   20.6591 O   0  0  0  0  0  0
  -24.6181  -31.8671   23.2136 C   0  0  0  0  0  0
  -25.9084  -32.4825   23.8404 C   0  0  1  0  0  0
  -27.2206  -27.4267   20.0743 C   0  0  0  0  0  0
  -25.5941  -33.8620   24.2344 N   0  0  0  0  0  0
  -23.4035  -30.4969   21.5565 C   0  0  2  0  0  0
  -24.8407  -28.9652   20.1097 C   0  0  0  0  0  0
  -22.7419  -29.4679   22.5007 C   0  0  0  0  0  0
  -18.0271  -28.1381   22.8493 C   0  0  0  0  0  0
  -24.1482  -36.7313   23.2634 C   0  0  0  0  0  0
  -25.9348  -30.8273   21.3666 C   0  0  0  0  0  0
  -26.0044  -29.4654   20.7042 C   0  0  0  0  0  0
  -27.2000  -28.7082   20.6757 C   0  0  0  0  0  0
  -26.0323  -26.9394   19.4837 C   0  0  0  0  0  0
  -24.8499  -27.7017   19.4974 C   0  0  0  0  0  0
  -23.6073  -29.8375   20.1666 C   0  0  0  0  0  0
  -25.4100  -36.3112   24.0332 C   0  0  1  0  0  0
  -20.5870  -28.3672   23.1303 C   0  0  2  0  0  0
  -20.6775  -26.9411   22.5400 C   0  0  0  0  0  0
  -19.5750  -26.6386   21.5208 C   0  0  0  0  0  0
  -18.1928  -26.7935   22.1611 C   0  0  0  0  0  0
  -19.1521  -28.8838   23.2900 C   0  0  0  0  0  0
  -18.9452  -30.1450   23.8920 C   0  0  0  0  0  0
  -17.6451  -30.6600   24.0560 C   0  0  0  0  0  0
  -25.9032  -34.9476   23.5125 C   0  0  0  0  0  0
  -16.5346  -29.9099   23.6333 C   0  0  0  0  0  0
  -16.7256  -28.6503   23.0371 C   0  0  0  0  0  0
  -26.4495  -31.6648   25.0764 C   0  0  0  0  0  0
  -25.3753  -31.3763   26.1514 C   0  0  0  0  0  0
  -27.0338  -30.3090   24.6185 C   0  0  0  0  0  0
  -27.6073  -32.4378   25.7525 C   0  0  0  0  0  0
  -27.5584  -37.1803   24.8462 C   0  0  0  0  0  0
  -21.4142  -29.3044   22.3730 N   0  0  0  0  0  0
  -26.4290  -37.3803   23.9414 N   0  0  0  0  0  0
  -24.6720  -31.0761   22.1039 N   0  0  0  0  0  0
  -23.4184  -28.8201   23.3039 O   0  0  0  0  0  0
  -28.3951  -26.6953   20.0701 O   0  0  0  0  0  0
  -26.5577  -34.8939   22.4679 O   0  0  0  0  0  0
  -23.5382  -32.1420   23.7547 O   0  0  0  0  0  0
  -29.6291  -17.4307   19.0077 C   0  0  0  0  0  0
  -29.4469  -18.6419   18.2667 C   0  0  0  0  0  0
  -29.9241  -17.6375   20.3331 C   0  0  0  0  0  0
  -29.6136  -19.7909   19.0028 C   0  0  0  0  0  0
  -28.9502  -22.8599   17.0458 C   0  0  0  0  0  0
  -28.8798  -23.4040   18.3823 C   0  0  0  0  0  0
  -28.7615  -23.5279   15.8946 C   0  0  0  0  0  0
  -28.4284  -24.6464   18.6840 C   0  0  0  0  0  0
  -30.0422  -16.7034   21.5014 C   0  0  0  0  0  0
  -29.3020  -21.3977   17.1082 C   0  0  0  0  0  0
  -29.3160  -22.3200   19.3627 C   0  0  0  0  0  0
  -28.3014  -25.2571   20.0730 C   0  0  0  0  0  0
  -29.5082  -21.1169   18.5298 N   0  0  0  0  0  0
  -29.9332  -15.3649   21.3458 N   0  0  0  0  0  0
  -30.0757  -17.1737   22.6422 O   0  0  0  0  0  0
  -29.9942  -19.3736   20.6633 S   0  0  0  0  0  0
  -31.4686  -12.5079   19.0570 H   0  0  0  0  0  0
  -30.4110  -11.3129   19.7466 H   0  0  0  0  0  0
  -29.7174  -11.8333   17.3871 H   0  0  0  0  0  0
  -29.6646  -13.5318   17.7592 H   0  0  0  0  0  0
  -27.7368  -11.3800   18.6822 H   0  0  0  0  0  0
  -27.3832  -12.8140   17.7663 H   0  0  0  0  0  0
  -27.7297  -14.2668   19.6502 H   0  0  0  0  0  0
  -28.7205  -11.8430   21.2239 H   0  0  0  0  0  0
  -28.4785  -13.4053   21.9180 H   0  0  0  0  0  0
  -25.2827   -9.5730   22.4672 H   0  0  0  0  0  0
  -24.0075   -7.4685   22.7442 H   0  0  0  0  0  0
  -21.0856   -8.8781   19.8982 H   0  0  0  0  0  0
  -22.3674  -10.9682   19.6167 H   0  0  0  0  0  0
  -21.1998   -7.6160   23.9664 H   0  0  0  0  0  0
  -21.1488   -6.0535   25.9035 H   0  0  0  0  0  0
  -22.0608   -2.7626   23.2772 H   0  0  0  0  0  0
  -22.4297  -11.9932   22.4802 H   0  0  0  0  0  0
  -21.1146  -13.1177   22.2523 H   0  0  0  0  0  0
  -24.6714  -15.8427   20.5404 H   0  0  0  0  0  0
  -26.2802  -15.6303   20.0657 H   0  0  0  0  0  0
  -26.7156  -32.5503   23.1165 H   0  0  0  0  0  0
  -25.0164  -33.9797   25.0538 H   0  0  0  0  0  0
  -22.6934  -31.3159   21.4241 H   0  0  0  0  0  0
  -23.3768  -35.9629   23.3291 H   0  0  0  0  0  0
  -24.3588  -36.8938   22.2056 H   0  0  0  0  0  0
  -23.7215  -37.6502   23.6653 H   0  0  0  0  0  0
  -26.0563  -31.5986   20.6042 H   0  0  0  0  0  0
  -26.8195  -30.8686   21.9909 H   0  0  0  0  0  0
  -28.1012  -29.0967   21.1264 H   0  0  0  0  0  0
  -25.9972  -25.9753   18.9961 H   0  0  0  0  0  0
  -23.9533  -27.3175   19.0297 H   0  0  0  0  0  0
  -23.7193  -30.6174   19.4122 H   0  0  0  0  0  0
  -22.7272  -29.2655   19.8678 H   0  0  0  0  0  0
  -25.1280  -36.1975   25.0825 H   0  0  0  0  0  0
  -20.9949  -28.3241   24.1432 H   0  0  0  0  0  0
  -20.5705  -26.2278   23.3588 H   0  0  0  0  0  0
  -21.6642  -26.7484   22.1178 H   0  0  0  0  0  0
  -19.6912  -25.6291   21.1264 H   0  0  0  0  0  0
  -19.6714  -27.3173   20.6726 H   0  0  0  0  0  0
  -17.4207  -26.6700   21.4017 H   0  0  0  0  0  0
  -18.0330  -26.0078   22.8997 H   0  0  0  0  0  0
  -19.7923  -30.7254   24.2339 H   0  0  0  0  0  0
  -17.5004  -31.6295   24.5127 H   0  0  0  0  0  0
  -15.5346  -30.2994   23.7661 H   0  0  0  0  0  0
  -15.8658  -28.0809   22.7113 H   0  0  0  0  0  0
  -24.5924  -30.7116   25.7856 H   0  0  0  0  0  0
  -24.8946  -32.2917   26.4964 H   0  0  0  0  0  0
  -25.8083  -30.8929   27.0283 H   0  0  0  0  0  0
  -26.2878  -29.6841   24.1260 H   0  0  0  0  0  0
  -27.4122  -29.7360   25.4668 H   0  0  0  0  0  0
  -27.8718  -30.4432   23.9342 H   0  0  0  0  0  0
  -27.2705  -33.3683   26.2116 H   0  0  0  0  0  0
  -28.3868  -32.6942   25.0336 H   0  0  0  0  0  0
  -28.0770  -31.8504   26.5433 H   0  0  0  0  0  0
  -28.2594  -38.0108   24.7535 H   0  0  0  0  0  0
  -28.1082  -36.2645   24.6245 H   0  0  0  0  0  0
  -27.2312  -37.1405   25.8866 H   0  0  0  0  0  0
  -20.9322  -29.8755   21.6927 H   0  0  0  0  0  0
  -26.0185  -38.2883   24.1427 H   0  0  0  0  0  0
  -29.4996  -16.4640   18.5447 H   0  0  0  0  0  0
  -29.1814  -18.6200   17.2200 H   0  0  0  0  0  0
  -28.5285  -24.5801   15.8589 H   0  0  0  0  0  0
  -28.8481  -23.0138   14.9464 H   0  0  0  0  0  0
  -28.0924  -25.2946   17.8875 H   0  0  0  0  0  0
  -30.2113  -21.1956   16.5375 H   0  0  0  0  0  0
  -28.4891  -20.8046   16.6862 H   0  0  0  0  0  0
  -28.5547  -22.1677   20.1287 H   0  0  0  0  0  0
  -30.2490  -22.6200   19.8450 H   0  0  0  0  0  0
  -29.1097  -24.8655   20.6899 H   0  0  0  0  0  0
  -27.3779  -24.9160   20.5429 H   0  0  0  0  0  0
  -29.3681  -14.8974   22.0343 H   0  0  0  0  0  0
  1 25  1  0  0  0
  1 30  2  0  0  0
  1 84  1  0  0  0
  2  3  1  0  0  0
  2 25  1  0  0  0
  2 87  1  0  0  0
  2 88  1  0  0  0
  3  4  1  0  0  0
  3 89  1  0  0  0
  3 90  1  0  0  0
  4  5  1  0  0  0
  4 91  1  0  0  0
  4 92  1  0  0  0
  5  6  1  0  0  0
  5 26  1  0  0  0
  5 93  1  0  0  0
  6 25  1  0  0  0
  6 94  1  0  0  0
  6 95  1  0  0  0
  7  8  2  0  0  0
  7 26  1  0  0  0
  7 29  1  0  0  0
  8  9  1  0  0  0
  8 22  1  0  0  0
  9 10  1  0  0  0
  9 27  2  0  0  0
 10 11  2  0  0  0
 10 15  1  0  0  0
 11 12  1  0  0  0
 11 96  1  0  0  0
 12 13  2  0  0  0
 12 97  1  0  0  0
 13 14  1  0  0  0
 13 31  1  0  0  0
 14 15  2  0  0  0
 14 98  1  0  0  0
 15 99  1  0  0  0
 16 17  2  0  0  0
 16 21  1  0  0  0
 16 31  1  0  0  0
 17 18  1  0  0  0
 17100  1  0  0  0
 18 19  2  0  0  0
 18101  1  0  0  0
 19 20  1  0  0  0
 19 24  1  0  0  0
 20 21  2  0  0  0
 20102  1  0  0  0
 21 23  1  0  0  0
 22 28  1  0  0  0
 22 32  2  0  0  0
 26 27  1  0  0  0
 28103  1  0  0  0
 28104  1  0  0  0
 29105  1  0  0  0
 29106  1  0  0  0
 33 34  1  0  0  0
 33 66  1  0  0  0
 33 70  2  0  0  0
 34 36  1  0  0  0
 34 59  1  0  0  0
 34107  1  0  0  0
 35 44  2  0  0  0
 35 45  1  0  0  0
 35 68  1  0  0  0
 36 56  1  0  0  0
 36108  1  0  0  0
 37 39  1  0  0  0
 37 47  1  0  0  0
 37 66  1  0  0  0
 37109  1  0  0  0
 38 43  2  0  0  0
 38 46  1  0  0  0
 38 47  1  0  0  0
 39 64  1  0  0  0
 39 67  2  0  0  0
 40 52  1  0  0  0
 40 53  2  0  0  0
 40 58  1  0  0  0
 41110  1  0  0  0
 41111  1  0  0  0
 41112  1  0  0  0
 41 48  1  0  0  0
 42 43  1  0  0  0
 42 66  1  0  0  0
 42113  1  0  0  0
 42114  1  0  0  0
 43 44  1  0  0  0
 44115  1  0  0  0
 45 46  2  0  0  0
 45116  1  0  0  0
 46117  1  0  0  0
 47118  1  0  0  0
 47119  1  0  0  0
 48 56  1  0  0  0
 48 65  1  0  0  0
 48120  1  0  0  0
 49 50  1  0  0  0
 49 53  1  0  0  0
 49 64  1  0  0  0
 49121  1  0  0  0
 50 51  1  0  0  0
 50122  1  0  0  0
 50123  1  0  0  0
 51 52  1  0  0  0
 51124  1  0  0  0
 51125  1  0  0  0
 52126  1  0  0  0
 52127  1  0  0  0
 53 54  1  0  0  0
 54 55  2  0  0  0
 54128  1  0  0  0
 55 57  1  0  0  0
 55129  1  0  0  0
 56 69  2  0  0  0
 57 58  2  0  0  0
 57130  1  0  0  0
 58131  1  0  0  0
 59 60  1  0  0  0
 59 61  1  0  0  0
 59 62  1  0  0  0
 60132  1  0  0  0
 60133  1  0  0  0
 60134  1  0  0  0
 61135  1  0  0  0
 61136  1  0  0  0
 61137  1  0  0  0
 62138  1  0  0  0
 62139  1  0  0  0
 62140  1  0  0  0
 63 65  1  0  0  0
 63141  1  0  0  0
 63142  1  0  0  0
 63143  1  0  0  0
 64144  1  0  0  0
 65145  1  0  0  0
 68 82  1  0  0  0
 71 72  1  0  0  0
 71 73  2  0  0  0
 71146  1  0  0  0
 72 74  2  0  0  0
 72147  1  0  0  0
 73 79  1  0  0  0
 73 86  1  0  0  0
 74 83  1  0  0  0
 74 86  1  0  0  0
 75 76  1  0  0  0
 75 77  2  0  0  0
 75 80  1  0  0  0
 76 78  2  0  0  0
 76 81  1  0  0  0
 77148  1  0  0  0
 77149  1  0  0  0
 78 82  1  0  0  0
 78150  1  0  0  0
 79 84  1  0  0  0
 79 85  2  0  0  0
 80 83  1  0  0  0
 80151  1  0  0  0
 80152  1  0  0  0
 81 83  1  0  0  0
 81153  1  0  0  0
 81154  1  0  0  0
 82155  1  0  0  0
 82156  1  0  0  0
 84157  1  0  0  0
M  ISO  4   1 100  68 101  82 101  84 100
M  END
> <chiral flag>
0

> <version>
0

> <s_m_source_file>
/data/baiqing/PycharmProjects/Reinvent-master-3.2/result/LINK_invent/BTK/process_docking_weight1_custom_product_contain_oxygen_bond_distance_aromatic_linkinvent_7_9_3/rearranged_h_0078.sdf

> <i_m_source_file_index>
46

> <r_mmod_Potential_Energy-OPLS-2005>
-92.0619888305664

> <r_mmod_Stretch_Energy-OPLS-2005>
39.626537322998

> <r_mmod_Bend_Energy-OPLS-2005>
175.758972167969

> <r_mmod_Torsional_Energy-OPLS-2005>
261.564208984375

> <r_mmod_Improper_Torsional_Energy-OPLS-2005>
5.73891353607178

> <r_mmod_Van_der_Waal_Energy-OPLS-2005>
131.284637451172

> <r_mmod_Electrostatic_Energy-OPLS-2005>
-488.454864501953

> <r_mmod_Solvation_Energy-OPLS-2005>
-235.422439575195

> <b_mmod_Minimization_Converged-OPLS-2005>
0

> <r_mmod_RMS_Derivative-OPLS-2005>
5.10844469070435

$$$$
47
                    3D
 Structure written by MMmdl.
161170  0  0  1  0            999 V2000
  -30.7238  -14.7005   20.4044 C   0  0  0  0  0  0
  -30.4160  -12.4200   19.4590 C   0  0  0  0  0  0
  -29.4899  -12.4496   18.2271 C   0  0  0  0  0  0
  -28.0191  -12.2744   18.6512 C   0  0  0  0  0  0
  -27.6190  -13.1909   19.8337 C   0  0  2  0  0  0
  -28.6914  -13.2227   20.9533 C   0  0  0  0  0  0
  -25.2450  -13.8033   20.5816 C   0  0  0  0  0  0
  -24.1725  -13.0338   20.9275 C   0  0  0  0  0  0
  -24.6285  -11.6803   20.8835 C   0  0  0  0  0  0
  -23.8975  -10.4223   21.0460 C   0  0  0  0  0  0
  -24.3542   -9.4136   21.9216 C   0  0  0  0  0  0
  -23.6237   -8.2174   22.0764 C   0  0  0  0  0  0
  -22.4222   -8.0225   21.3547 C   0  0  0  0  0  0
  -21.9847   -9.0203   20.4657 C   0  0  0  0  0  0
  -22.7163  -10.2078   20.3091 C   0  0  0  0  0  0
  -21.6816   -6.0702   22.5281 C   0  0  0  0  0  0
  -21.3974   -6.5616   23.8211 C   0  0  0  0  0  0
  -21.3668   -5.6768   24.9180 C   0  0  0  0  0  0
  -21.6057   -4.3030   24.7224 C   0  0  0  0  0  0
  -21.8823   -3.8119   23.4344 C   0  0  0  0  0  0
  -21.9177   -4.6939   22.3396 C   0  0  0  0  0  0
  -22.7749  -13.5160   21.1905 C   0  0  0  0  0  0
  -22.1644   -4.2123   21.0971 F   0  0  0  0  0  0
  -21.5659   -3.4519   25.7742 F   0  0  0  0  0  0
  -29.9943  -13.5280   20.3389 N   0  0  0  0  0  0
  -26.2829  -12.9155   20.3373 N   0  0  0  0  0  0
  -25.9192  -11.6347   20.5854 N   0  0  0  0  0  0
  -22.0341  -12.8242   22.0473 N   0  0  0  0  0  0
  -25.4096  -15.1775   20.4314 N   0  0  0  0  0  0
  -31.9459  -14.6416   20.2787 O   0  0  0  0  0  0
  -21.6591   -6.8824   21.4232 O   0  0  0  0  0  0
  -22.3478  -14.5461   20.6687 O   0  0  0  0  0  0
  -24.6196  -31.8599   23.2019 C   0  0  0  0  0  0
  -25.9061  -32.4798   23.8358 C   0  0  1  0  0  0
  -27.2558  -27.3571   20.1631 C   0  0  0  0  0  0
  -25.5884  -33.8600   24.2281 N   0  0  0  0  0  0
  -23.4141  -30.4781   21.5389 C   0  0  2  0  0  0
  -24.8701  -28.9281   20.1154 C   0  0  0  0  0  0
  -22.7440  -29.4626   22.4935 C   0  0  0  0  0  0
  -18.0278  -28.1386   22.8514 C   0  0  0  0  0  0
  -24.1478  -36.7295   23.2646 C   0  0  0  0  0  0
  -25.9475  -30.8120   21.3601 C   0  0  0  0  0  0
  -26.0278  -29.4366   20.7162 C   0  0  0  0  0  0
  -27.2176  -28.6629   20.7269 C   0  0  0  0  0  0
  -26.0762  -26.8761   19.5459 C   0  0  0  0  0  0
  -24.8946  -27.6516   19.5200 C   0  0  0  0  0  0
  -23.6305  -29.8023   20.1546 C   0  0  0  0  0  0
  -25.4105  -36.3110   24.0342 C   0  0  1  0  0  0
  -20.5881  -28.3673   23.1297 C   0  0  2  0  0  0
  -20.6781  -26.9400   22.5423 C   0  0  0  0  0  0
  -19.5740  -26.6394   21.5230 C   0  0  0  0  0  0
  -18.1921  -26.7939   22.1641 C   0  0  0  0  0  0
  -19.1537  -28.8842   23.2910 C   0  0  0  0  0  0
  -18.9464  -30.1469   23.8895 C   0  0  0  0  0  0
  -17.6464  -30.6593   24.0583 C   0  0  0  0  0  0
  -25.9031  -34.9477   23.5107 C   0  0  0  0  0  0
  -16.5354  -29.9102   23.6348 C   0  0  0  0  0  0
  -16.7274  -28.6522   23.0359 C   0  0  0  0  0  0
  -26.4454  -31.6603   25.0704 C   0  0  0  0  0  0
  -25.3709  -31.3757   26.1443 C   0  0  0  0  0  0
  -27.0272  -30.3036   24.6116 C   0  0  0  0  0  0
  -27.6014  -32.4322   25.7481 C   0  0  0  0  0  0
  -27.5577  -37.1824   24.8480 C   0  0  0  0  0  0
  -21.4154  -29.3047   22.3699 N   0  0  0  0  0  0
  -26.4294  -37.3794   23.9410 N   0  0  0  0  0  0
  -24.6793  -31.0652   22.0934 N   0  0  0  0  0  0
  -23.4194  -28.8181   23.3008 O   0  0  0  0  0  0
  -28.4402  -26.6224   20.2538 O   0  0  0  0  0  0
  -26.5615  -34.8938   22.4685 O   0  0  0  0  0  0
  -23.5363  -32.1367   23.7373 O   0  0  0  0  0  0
  -32.4700  -18.8322   19.6664 C   0  0  0  0  0  0
  -31.7776  -19.9353   20.1996 C   0  0  0  0  0  0
  -31.9487  -17.5287   19.7741 C   0  0  0  0  0  0
  -30.0901  -18.4053   21.0649 C   0  0  0  0  0  0
  -30.5517  -19.7576   20.8820 C   0  0  0  0  0  0
  -30.7370  -17.2638   20.4618 C   0  0  0  0  0  0
  -28.7665  -23.0072   21.5412 C   0  0  0  0  0  0
  -28.4355  -22.2247   22.7102 C   0  0  0  0  0  0
  -29.6624  -22.1533   20.7392 C   0  0  0  0  0  0
  -27.6769  -22.6130   23.7524 C   0  0  0  0  0  0
  -27.9353  -16.8341   19.5070 C   0  0  0  0  0  0
  -28.2953  -24.2669   21.2430 C   0  0  0  0  0  0
  -29.0210  -16.0452   19.3994 C   0  0  0  0  0  0
  -29.0866  -20.8712   22.6287 C   0  0  0  0  0  0
  -28.5354  -25.1803   20.0145 C   0  0  0  0  0  0
  -29.8139  -20.9263   21.3599 N   0  0  0  0  0  0
  -30.0877  -15.9440   20.3064 N   0  0  0  0  0  0
  -30.1913  -22.4798   19.6735 O   0  0  0  0  0  0
  -31.4574  -12.5070   19.1412 H   0  0  0  0  0  0
  -30.3363  -11.4653   19.9838 H   0  0  0  0  0  0
  -29.7672  -11.6553   17.5319 H   0  0  0  0  0  0
  -29.6185  -13.3857   17.6814 H   0  0  0  0  0  0
  -27.8800  -11.2304   18.9321 H   0  0  0  0  0  0
  -27.3560  -12.4429   17.8012 H   0  0  0  0  0  0
  -27.5240  -14.1611   19.3754 H   0  0  0  0  0  0
  -28.7364  -12.2639   21.4738 H   0  0  0  0  0  0
  -28.4382  -13.9764   21.7011 H   0  0  0  0  0  0
  -25.2671   -9.5606   22.4793 H   0  0  0  0  0  0
  -23.9946   -7.4549   22.7460 H   0  0  0  0  0  0
  -21.0796   -8.8719   19.8944 H   0  0  0  0  0  0
  -22.3641  -10.9633   19.6217 H   0  0  0  0  0  0
  -21.1931   -7.6117   23.9714 H   0  0  0  0  0  0
  -21.1504   -6.0490   25.9091 H   0  0  0  0  0  0
  -22.0595   -2.7579   23.2843 H   0  0  0  0  0  0
  -22.3888  -11.9961   22.5020 H   0  0  0  0  0  0
  -21.0962  -13.1333   22.2585 H   0  0  0  0  0  0
  -24.6379  -15.8231   20.5612 H   0  0  0  0  0  0
  -26.2827  -15.6300   20.1902 H   0  0  0  0  0  0
  -26.7150  -32.5490   23.1137 H   0  0  0  0  0  0
  -25.0097  -33.9759   25.0469 H   0  0  0  0  0  0
  -22.7086  -31.2993   21.3912 H   0  0  0  0  0  0
  -23.3739  -35.9627   23.3343 H   0  0  0  0  0  0
  -24.3581  -36.8871   22.2057 H   0  0  0  0  0  0
  -23.7226  -37.6516   23.6624 H   0  0  0  0  0  0
  -26.0651  -31.5708   20.5851 H   0  0  0  0  0  0
  -26.8332  -30.8674   21.9826 H   0  0  0  0  0  0
  -28.1062  -29.0572   21.2027 H   0  0  0  0  0  0
  -26.0397  -25.8963   19.0955 H   0  0  0  0  0  0
  -24.0042  -27.2485   19.0544 H   0  0  0  0  0  0
  -23.7452  -30.5750   19.3924 H   0  0  0  0  0  0
  -22.7532  -29.2258   19.8552 H   0  0  0  0  0  0
  -25.1285  -36.1981   25.0836 H   0  0  0  0  0  0
  -21.0007  -28.3261   24.1391 H   0  0  0  0  0  0
  -20.5686  -26.2277   23.3623 H   0  0  0  0  0  0
  -21.6652  -26.7451   22.1200 H   0  0  0  0  0  0
  -19.6908  -25.6308   21.1244 H   0  0  0  0  0  0
  -19.6689  -27.3235   20.6776 H   0  0  0  0  0  0
  -17.4214  -26.6719   21.4035 H   0  0  0  0  0  0
  -18.0302  -26.0066   22.8999 H   0  0  0  0  0  0
  -19.7936  -30.7314   24.2241 H   0  0  0  0  0  0
  -17.5005  -31.6261   24.5200 H   0  0  0  0  0  0
  -15.5354  -30.3004   23.7644 H   0  0  0  0  0  0
  -15.8677  -28.0847   22.7044 H   0  0  0  0  0  0
  -24.5896  -30.7057   25.7839 H   0  0  0  0  0  0
  -24.8855  -32.2919   26.4821 H   0  0  0  0  0  0
  -25.8044  -30.9027   27.0258 H   0  0  0  0  0  0
  -26.2832  -29.6837   24.1089 H   0  0  0  0  0  0
  -27.3952  -29.7234   25.4594 H   0  0  0  0  0  0
  -27.8707  -30.4353   23.9329 H   0  0  0  0  0  0
  -27.2630  -33.3634   26.2032 H   0  0  0  0  0  0
  -28.3847  -32.6863   25.0331 H   0  0  0  0  0  0
  -28.0637  -31.8450   26.5430 H   0  0  0  0  0  0
  -28.2641  -38.0081   24.7484 H   0  0  0  0  0  0
  -28.1019  -36.2616   24.6340 H   0  0  0  0  0  0
  -27.2290  -37.1521   25.8885 H   0  0  0  0  0  0
  -20.9302  -29.8751   21.6909 H   0  0  0  0  0  0
  -26.0183  -38.2876   24.1376 H   0  0  0  0  0  0
  -33.3884  -18.9965   19.1190 H   0  0  0  0  0  0
  -32.2014  -20.9242   20.0639 H   0  0  0  0  0  0
  -32.4871  -16.7450   19.2605 H   0  0  0  0  0  0
  -29.1704  -18.2489   21.6077 H   0  0  0  0  0  0
  -27.2216  -23.5882   23.8069 H   0  0  0  0  0  0
  -27.5038  -21.9450   24.5849 H   0  0  0  0  0  0
  -27.1997  -16.8558   18.7159 H   0  0  0  0  0  0
  -27.7308  -17.4600   20.3590 H   0  0  0  0  0  0
  -27.6061  -24.7136   21.9437 H   0  0  0  0  0  0
  -29.1644  -15.4369   18.5148 H   0  0  0  0  0  0
  -28.3418  -20.0760   22.6483 H   0  0  0  0  0  0
  -29.7707  -20.7265   23.4675 H   0  0  0  0  0  0
  -27.9103  -24.8570   19.1868 H   0  0  0  0  0  0
  -29.5597  -25.0051   19.6900 H   0  0  0  0  0  0
  1 25  1  0  0  0
  1 30  2  0  0  0
  1 87  1  0  0  0
  2  3  1  0  0  0
  2 25  1  0  0  0
  2 89  1  0  0  0
  2 90  1  0  0  0
  3  4  1  0  0  0
  3 91  1  0  0  0
  3 92  1  0  0  0
  4  5  1  0  0  0
  4 93  1  0  0  0
  4 94  1  0  0  0
  5  6  1  0  0  0
  5 26  1  0  0  0
  5 95  1  0  0  0
  6 25  1  0  0  0
  6 96  1  0  0  0
  6 97  1  0  0  0
  7  8  2  0  0  0
  7 26  1  0  0  0
  7 29  1  0  0  0
  8  9  1  0  0  0
  8 22  1  0  0  0
  9 10  1  0  0  0
  9 27  2  0  0  0
 10 11  2  0  0  0
 10 15  1  0  0  0
 11 12  1  0  0  0
 11 98  1  0  0  0
 12 13  2  0  0  0
 12 99  1  0  0  0
 13 14  1  0  0  0
 13 31  1  0  0  0
 14 15  2  0  0  0
 14100  1  0  0  0
 15101  1  0  0  0
 16 17  2  0  0  0
 16 21  1  0  0  0
 16 31  1  0  0  0
 17 18  1  0  0  0
 17102  1  0  0  0
 18 19  2  0  0  0
 18103  1  0  0  0
 19 20  1  0  0  0
 19 24  1  0  0  0
 20 21  2  0  0  0
 20104  1  0  0  0
 21 23  1  0  0  0
 22 28  1  0  0  0
 22 32  2  0  0  0
 26 27  1  0  0  0
 28105  1  0  0  0
 28106  1  0  0  0
 29107  1  0  0  0
 29108  1  0  0  0
 33 34  1  0  0  0
 33 66  1  0  0  0
 33 70  2  0  0  0
 34 36  1  0  0  0
 34 59  1  0  0  0
 34109  1  0  0  0
 35 44  2  0  0  0
 35 45  1  0  0  0
 35 68  1  0  0  0
 36 56  1  0  0  0
 36110  1  0  0  0
 37 39  1  0  0  0
 37 47  1  0  0  0
 37 66  1  0  0  0
 37111  1  0  0  0
 38 43  2  0  0  0
 38 46  1  0  0  0
 38 47  1  0  0  0
 39 64  1  0  0  0
 39 67  2  0  0  0
 40 52  1  0  0  0
 40 53  2  0  0  0
 40 58  1  0  0  0
 41112  1  0  0  0
 41113  1  0  0  0
 41114  1  0  0  0
 41 48  1  0  0  0
 42 43  1  0  0  0
 42 66  1  0  0  0
 42115  1  0  0  0
 42116  1  0  0  0
 43 44  1  0  0  0
 44117  1  0  0  0
 45 46  2  0  0  0
 45118  1  0  0  0
 46119  1  0  0  0
 47120  1  0  0  0
 47121  1  0  0  0
 48 56  1  0  0  0
 48 65  1  0  0  0
 48122  1  0  0  0
 49 50  1  0  0  0
 49 53  1  0  0  0
 49 64  1  0  0  0
 49123  1  0  0  0
 50 51  1  0  0  0
 50124  1  0  0  0
 50125  1  0  0  0
 51 52  1  0  0  0
 51126  1  0  0  0
 51127  1  0  0  0
 52128  1  0  0  0
 52129  1  0  0  0
 53 54  1  0  0  0
 54 55  2  0  0  0
 54130  1  0  0  0
 55 57  1  0  0  0
 55131  1  0  0  0
 56 69  2  0  0  0
 57 58  2  0  0  0
 57132  1  0  0  0
 58133  1  0  0  0
 59 60  1  0  0  0
 59 61  1  0  0  0
 59 62  1  0  0  0
 60134  1  0  0  0
 60135  1  0  0  0
 60136  1  0  0  0
 61137  1  0  0  0
 61138  1  0  0  0
 61139  1  0  0  0
 62140  1  0  0  0
 62141  1  0  0  0
 62142  1  0  0  0
 63 65  1  0  0  0
 63143  1  0  0  0
 63144  1  0  0  0
 63145  1  0  0  0
 64146  1  0  0  0
 65147  1  0  0  0
 68 85  1  0  0  0
 71 72  2  0  0  0
 71 73  1  0  0  0
 71148  1  0  0  0
 72 75  1  0  0  0
 72149  1  0  0  0
 73 76  2  0  0  0
 73150  1  0  0  0
 74 75  2  0  0  0
 74 76  1  0  0  0
 74151  1  0  0  0
 75 86  1  0  0  0
 76 87  1  0  0  0
 77 78  1  0  0  0
 77 79  1  0  0  0
 77 82  2  0  0  0
 78 80  2  0  0  0
 78 84  1  0  0  0
 79 86  1  0  0  0
 79 88  2  0  0  0
 80152  1  0  0  0
 80153  1  0  0  0
 81 83  2  0  0  0
 81154  1  0  0  0
 81155  1  0  0  0
 82 85  1  0  0  0
 82156  1  0  0  0
 83 87  1  0  0  0
 83157  1  0  0  0
 84 86  1  0  0  0
 84158  1  0  0  0
 84159  1  0  0  0
 85160  1  0  0  0
 85161  1  0  0  0
M  ISO  4   1 100  68 101  85 101  87 100
M  END
> <chiral flag>
0

> <version>
0

> <s_m_source_file>
/data/baiqing/PycharmProjects/Reinvent-master-3.2/result/LINK_invent/BTK/process_docking_weight1_custom_product_contain_oxygen_bond_distance_aromatic_linkinvent_7_9_3/rearranged_h_0078.sdf

> <i_m_source_file_index>
47

> <r_mmod_Potential_Energy-OPLS-2005>
473.916870117188

> <r_mmod_Stretch_Energy-OPLS-2005>
85.0989685058594

> <r_mmod_Bend_Energy-OPLS-2005>
206.539520263672

> <r_mmod_Torsional_Energy-OPLS-2005>
392.545043945312

> <r_mmod_Improper_Torsional_Energy-OPLS-2005>
11.4445896148682

> <r_mmod_Van_der_Waal_Energy-OPLS-2005>
166.368835449219

> <r_mmod_Electrostatic_Energy-OPLS-2005>
-261.073150634766

> <r_mmod_Solvation_Energy-OPLS-2005>
-199.060012817383

> <b_mmod_Minimization_Converged-OPLS-2005>
0

> <r_mmod_RMS_Derivative-OPLS-2005>
4.07984685897827

$$$$
48
                    3D
 Structure written by MMmdl.
157166  0  0  1  0            999 V2000
  -30.7550  -14.4992   20.4872 C   0  0  0  0  0  0
  -30.3910  -12.2991   19.4532 C   0  0  0  0  0  0
  -29.4912  -12.4752   18.2163 C   0  0  0  0  0  0
  -28.0106  -12.3529   18.6229 C   0  0  0  0  0  0
  -27.6476  -13.2282   19.8554 C   0  0  2  0  0  0
  -28.6914  -13.0983   20.9893 C   0  0  0  0  0  0
  -25.2514  -13.8219   20.5653 C   0  0  0  0  0  0
  -24.1806  -13.0462   20.9181 C   0  0  0  0  0  0
  -24.6395  -11.6935   20.8739 C   0  0  0  0  0  0
  -23.9057  -10.4309   21.0398 C   0  0  0  0  0  0
  -24.3616   -9.4225   21.9180 C   0  0  0  0  0  0
  -23.6293   -8.2256   22.0751 C   0  0  0  0  0  0
  -22.4276   -8.0289   21.3545 C   0  0  0  0  0  0
  -21.9901   -9.0261   20.4641 C   0  0  0  0  0  0
  -22.7226  -10.2141   20.3040 C   0  0  0  0  0  0
  -21.6855   -6.0725   22.5274 C   0  0  0  0  0  0
  -21.4021   -6.5629   23.8209 C   0  0  0  0  0  0
  -21.3651   -5.6783   24.9172 C   0  0  0  0  0  0
  -21.6046   -4.3046   24.7222 C   0  0  0  0  0  0
  -21.8824   -3.8129   23.4347 C   0  0  0  0  0  0
  -21.9196   -4.6951   22.3402 C   0  0  0  0  0  0
  -22.7820  -13.5236   21.1837 C   0  0  0  0  0  0
  -22.1669   -4.2130   21.0982 F   0  0  0  0  0  0
  -21.5611   -3.4540   25.7740 F   0  0  0  0  0  0
  -30.0164  -13.3553   20.4147 N   0  0  0  0  0  0
  -26.2957  -12.9423   20.3285 N   0  0  0  0  0  0
  -25.9331  -11.6567   20.5777 N   0  0  0  0  0  0
  -22.0472  -12.8221   22.0394 N   0  0  0  0  0  0
  -25.4231  -15.1941   20.4036 N   0  0  0  0  0  0
  -31.9354  -14.4692   20.1329 O   0  0  0  0  0  0
  -21.6656   -6.8877   21.4240 O   0  0  0  0  0  0
  -22.3500  -14.5549   20.6700 O   0  0  0  0  0  0
  -24.6142  -31.8672   23.2068 C   0  0  0  0  0  0
  -25.9049  -32.4807   23.8372 C   0  0  1  0  0  0
  -27.2275  -27.4296   20.1151 C   0  0  0  0  0  0
  -25.5937  -33.8605   24.2329 N   0  0  0  0  0  0
  -23.4033  -30.4907   21.5443 C   0  0  2  0  0  0
  -24.8518  -28.9528   20.1144 C   0  0  0  0  0  0
  -22.7422  -29.4654   22.4943 C   0  0  0  0  0  0
  -18.0295  -28.1367   22.8468 C   0  0  0  0  0  0
  -24.1498  -36.7298   23.2635 C   0  0  0  0  0  0
  -25.9316  -30.8333   21.3597 C   0  0  0  0  0  0
  -26.0089  -29.4633   20.7177 C   0  0  0  0  0  0
  -27.2030  -28.7068   20.7199 C   0  0  0  0  0  0
  -26.0640  -26.9369   19.4939 C   0  0  0  0  0  0
  -24.8729  -27.6871   19.4991 C   0  0  0  0  0  0
  -23.6142  -29.8216   20.1589 C   0  0  0  0  0  0
  -25.4110  -36.3087   24.0338 C   0  0  1  0  0  0
  -20.5886  -28.3654   23.1293 C   0  0  2  0  0  0
  -20.6774  -26.9382   22.5403 C   0  0  0  0  0  0
  -19.5763  -26.6373   21.5187 C   0  0  0  0  0  0
  -18.1943  -26.7911   22.1607 C   0  0  0  0  0  0
  -19.1541  -28.8828   23.2880 C   0  0  0  0  0  0
  -18.9477  -30.1431   23.8892 C   0  0  0  0  0  0
  -17.6477  -30.6555   24.0560 C   0  0  0  0  0  0
  -25.9046  -34.9461   23.5125 C   0  0  0  0  0  0
  -16.5367  -29.9062   23.6322 C   0  0  0  0  0  0
  -16.7284  -28.6494   23.0321 C   0  0  0  0  0  0
  -26.4492  -31.6554   25.0677 C   0  0  0  0  0  0
  -25.3790  -31.3661   26.1451 C   0  0  0  0  0  0
  -27.0272  -30.2986   24.6004 C   0  0  0  0  0  0
  -27.6074  -32.4247   25.7456 C   0  0  0  0  0  0
  -27.5583  -37.1802   24.8464 C   0  0  0  0  0  0
  -21.4152  -29.3019   22.3685 N   0  0  0  0  0  0
  -26.4285  -37.3773   23.9417 N   0  0  0  0  0  0
  -24.6678  -31.0794   22.0952 N   0  0  0  0  0  0
  -23.4201  -28.8198   23.2980 O   0  0  0  0  0  0
  -28.3608  -26.6527   20.1025 O   0  0  0  0  0  0
  -26.5580  -34.8915   22.4671 O   0  0  0  0  0  0
  -23.5333  -32.1424   23.7475 O   0  0  0  0  0  0
  -30.6579  -19.3598   21.1179 C   0  0  0  0  0  0
  -28.4971  -18.3536   20.7015 C   0  0  0  0  0  0
  -30.0770  -20.6380   21.1694 C   0  0  0  0  0  0
  -27.9061  -19.6473   20.7758 C   0  0  0  0  0  0
  -29.8977  -18.1939   20.8480 C   0  0  0  0  0  0
  -28.6929  -20.8159   20.9708 C   0  0  0  0  0  0
  -28.8231  -23.3492   20.8685 C   0  0  0  0  0  0
  -28.0723  -24.4161   21.1883 C   0  0  0  0  0  0
  -26.7800  -23.8901   21.5680 C   0  0  0  0  0  0
  -25.7381  -24.6099   22.0147 C   0  0  0  0  0  0
  -30.6621  -16.9115   20.5572 C   0  0  0  0  0  0
  -26.7837  -22.3806   21.3951 C   0  0  0  0  0  0
  -28.5639  -25.8697   21.2905 C   0  0  0  0  0  0
  -28.1537  -22.1272   20.9514 N   0  0  0  0  0  0
  -30.1161  -15.6746   20.7580 N   0  0  0  0  0  0
  -31.8140  -17.0890   20.1355 O   0  0  0  0  0  0
  -31.4403  -12.3246   19.1571 H   0  0  0  0  0  0
  -30.2427  -11.3134   19.8983 H   0  0  0  0  0  0
  -29.7364  -11.7247   17.4628 H   0  0  0  0  0  0
  -29.6739  -13.4466   17.7525 H   0  0  0  0  0  0
  -27.8179  -11.3027   18.8457 H   0  0  0  0  0  0
  -27.3669  -12.6032   17.7793 H   0  0  0  0  0  0
  -27.6664  -14.2626   19.5112 H   0  0  0  0  0  0
  -28.6622  -12.0954   21.4160 H   0  0  0  0  0  0
  -28.4731  -13.7851   21.8075 H   0  0  0  0  0  0
  -25.2771   -9.5695   22.4736 H   0  0  0  0  0  0
  -24.0001   -7.4643   22.7460 H   0  0  0  0  0  0
  -21.0825   -8.8768   19.8952 H   0  0  0  0  0  0
  -22.3688  -10.9666   19.6121 H   0  0  0  0  0  0
  -21.2029   -7.6144   23.9701 H   0  0  0  0  0  0
  -21.1455   -6.0523   25.9068 H   0  0  0  0  0  0
  -22.0613   -2.7587   23.2875 H   0  0  0  0  0  0
  -22.4098  -11.9906   22.4813 H   0  0  0  0  0  0
  -21.1071  -13.1223   22.2572 H   0  0  0  0  0  0
  -24.6564  -15.8507   20.4936 H   0  0  0  0  0  0
  -26.2630  -15.6137   20.0278 H   0  0  0  0  0  0
  -26.7113  -32.5515   23.1131 H   0  0  0  0  0  0
  -25.0121  -33.9767   25.0493 H   0  0  0  0  0  0
  -22.6896  -31.3047   21.4019 H   0  0  0  0  0  0
  -23.3749  -35.9640   23.3293 H   0  0  0  0  0  0
  -24.3605  -36.8914   22.2051 H   0  0  0  0  0  0
  -23.7270  -37.6513   23.6643 H   0  0  0  0  0  0
  -26.0419  -31.5933   20.5849 H   0  0  0  0  0  0
  -26.8224  -30.8916   21.9737 H   0  0  0  0  0  0
  -28.0979  -29.0958   21.1856 H   0  0  0  0  0  0
  -26.0819  -25.9648   19.0203 H   0  0  0  0  0  0
  -23.9848  -27.2890   19.0267 H   0  0  0  0  0  0
  -23.7230  -30.5967   19.3992 H   0  0  0  0  0  0
  -22.7386  -29.2415   19.8614 H   0  0  0  0  0  0
  -25.1276  -36.1942   25.0823 H   0  0  0  0  0  0
  -20.9992  -28.3237   24.1409 H   0  0  0  0  0  0
  -20.5641  -26.2271   23.3596 H   0  0  0  0  0  0
  -21.6653  -26.7382   22.1234 H   0  0  0  0  0  0
  -19.6929  -25.6295   21.1197 H   0  0  0  0  0  0
  -19.6707  -27.3199   20.6729 H   0  0  0  0  0  0
  -17.4208  -26.6658   21.4016 H   0  0  0  0  0  0
  -18.0347  -26.0036   22.8990 H   0  0  0  0  0  0
  -19.7953  -30.7242   24.2261 H   0  0  0  0  0  0
  -17.5031  -31.6230   24.5163 H   0  0  0  0  0  0
  -15.5369  -30.2965   23.7615 H   0  0  0  0  0  0
  -15.8695  -28.0813   22.7003 H   0  0  0  0  0  0
  -24.6004  -30.6932   25.7858 H   0  0  0  0  0  0
  -24.8947  -32.2801   26.4878 H   0  0  0  0  0  0
  -25.8216  -30.8901   27.0211 H   0  0  0  0  0  0
  -26.2773  -29.6778   24.1090 H   0  0  0  0  0  0
  -27.4090  -29.7179   25.4414 H   0  0  0  0  0  0
  -27.8601  -30.4289   23.9093 H   0  0  0  0  0  0
  -27.2704  -33.3541   26.2061 H   0  0  0  0  0  0
  -28.3907  -32.6805   25.0303 H   0  0  0  0  0  0
  -28.0707  -31.8328   26.5361 H   0  0  0  0  0  0
  -28.2585  -38.0108   24.7489 H   0  0  0  0  0  0
  -28.1092  -36.2642   24.6289 H   0  0  0  0  0  0
  -27.2305  -37.1447   25.8867 H   0  0  0  0  0  0
  -20.9297  -29.8765   21.6938 H   0  0  0  0  0  0
  -26.0171  -38.2850   24.1410 H   0  0  0  0  0  0
  -31.7307  -19.2899   21.2300 H   0  0  0  0  0  0
  -27.8713  -17.5002   20.4806 H   0  0  0  0  0  0
  -30.7275  -21.4819   21.3438 H   0  0  0  0  0  0
  -26.8398  -19.7347   20.6214 H   0  0  0  0  0  0
  -29.8629  -23.3537   20.5684 H   0  0  0  0  0  0
  -25.7907  -25.6836   22.1283 H   0  0  0  0  0  0
  -24.8067  -24.1315   22.2788 H   0  0  0  0  0  0
  -26.0588  -22.0781   20.6383 H   0  0  0  0  0  0
  -26.5615  -21.8758   22.3367 H   0  0  0  0  0  0
  -29.6370  -25.8505   21.4847 H   0  0  0  0  0  0
  -28.1188  -26.3438   22.1670 H   0  0  0  0  0  0
  -29.1628  -15.6336   21.0742 H   0  0  0  0  0  0
  1 25  1  0  0  0
  1 30  2  0  0  0
  1 85  1  0  0  0
  2  3  1  0  0  0
  2 25  1  0  0  0
  2 87  1  0  0  0
  2 88  1  0  0  0
  3  4  1  0  0  0
  3 89  1  0  0  0
  3 90  1  0  0  0
  4  5  1  0  0  0
  4 91  1  0  0  0
  4 92  1  0  0  0
  5  6  1  0  0  0
  5 26  1  0  0  0
  5 93  1  0  0  0
  6 25  1  0  0  0
  6 94  1  0  0  0
  6 95  1  0  0  0
  7  8  2  0  0  0
  7 26  1  0  0  0
  7 29  1  0  0  0
  8  9  1  0  0  0
  8 22  1  0  0  0
  9 10  1  0  0  0
  9 27  2  0  0  0
 10 11  2  0  0  0
 10 15  1  0  0  0
 11 12  1  0  0  0
 11 96  1  0  0  0
 12 13  2  0  0  0
 12 97  1  0  0  0
 13 14  1  0  0  0
 13 31  1  0  0  0
 14 15  2  0  0  0
 14 98  1  0  0  0
 15 99  1  0  0  0
 16 17  2  0  0  0
 16 21  1  0  0  0
 16 31  1  0  0  0
 17 18  1  0  0  0
 17100  1  0  0  0
 18 19  2  0  0  0
 18101  1  0  0  0
 19 20  1  0  0  0
 19 24  1  0  0  0
 20 21  2  0  0  0
 20102  1  0  0  0
 21 23  1  0  0  0
 22 28  1  0  0  0
 22 32  2  0  0  0
 26 27  1  0  0  0
 28103  1  0  0  0
 28104  1  0  0  0
 29105  1  0  0  0
 29106  1  0  0  0
 33 34  1  0  0  0
 33 66  1  0  0  0
 33 70  2  0  0  0
 34 36  1  0  0  0
 34 59  1  0  0  0
 34107  1  0  0  0
 35 44  2  0  0  0
 35 45  1  0  0  0
 35 68  1  0  0  0
 36 56  1  0  0  0
 36108  1  0  0  0
 37 39  1  0  0  0
 37 47  1  0  0  0
 37 66  1  0  0  0
 37109  1  0  0  0
 38 43  2  0  0  0
 38 46  1  0  0  0
 38 47  1  0  0  0
 39 64  1  0  0  0
 39 67  2  0  0  0
 40 52  1  0  0  0
 40 53  2  0  0  0
 40 58  1  0  0  0
 41110  1  0  0  0
 41111  1  0  0  0
 41112  1  0  0  0
 41 48  1  0  0  0
 42 43  1  0  0  0
 42 66  1  0  0  0
 42113  1  0  0  0
 42114  1  0  0  0
 43 44  1  0  0  0
 44115  1  0  0  0
 45 46  2  0  0  0
 45116  1  0  0  0
 46117  1  0  0  0
 47118  1  0  0  0
 47119  1  0  0  0
 48 56  1  0  0  0
 48 65  1  0  0  0
 48120  1  0  0  0
 49 50  1  0  0  0
 49 53  1  0  0  0
 49 64  1  0  0  0
 49121  1  0  0  0
 50 51  1  0  0  0
 50122  1  0  0  0
 50123  1  0  0  0
 51 52  1  0  0  0
 51124  1  0  0  0
 51125  1  0  0  0
 52126  1  0  0  0
 52127  1  0  0  0
 53 54  1  0  0  0
 54 55  2  0  0  0
 54128  1  0  0  0
 55 57  1  0  0  0
 55129  1  0  0  0
 56 69  2  0  0  0
 57 58  2  0  0  0
 57130  1  0  0  0
 58131  1  0  0  0
 59 60  1  0  0  0
 59 61  1  0  0  0
 59 62  1  0  0  0
 60132  1  0  0  0
 60133  1  0  0  0
 60134  1  0  0  0
 61135  1  0  0  0
 61136  1  0  0  0
 61137  1  0  0  0
 62138  1  0  0  0
 62139  1  0  0  0
 62140  1  0  0  0
 63 65  1  0  0  0
 63141  1  0  0  0
 63142  1  0  0  0
 63143  1  0  0  0
 64144  1  0  0  0
 65145  1  0  0  0
 68 83  1  0  0  0
 71 73  2  0  0  0
 71 75  1  0  0  0
 71146  1  0  0  0
 72 74  1  0  0  0
 72 75  2  0  0  0
 72147  1  0  0  0
 73 76  1  0  0  0
 73148  1  0  0  0
 74 76  2  0  0  0
 74149  1  0  0  0
 75 81  1  0  0  0
 76 84  1  0  0  0
 77 78  2  0  0  0
 77 84  1  0  0  0
 77150  1  0  0  0
 78 79  1  0  0  0
 78 83  1  0  0  0
 79 80  2  0  0  0
 79 82  1  0  0  0
 80151  1  0  0  0
 80152  1  0  0  0
 81 85  1  0  0  0
 81 86  2  0  0  0
 82 84  1  0  0  0
 82153  1  0  0  0
 82154  1  0  0  0
 83155  1  0  0  0
 83156  1  0  0  0
 85157  1  0  0  0
M  ISO  4   1 100  68 101  83 101  85 100
M  END
> <chiral flag>
0

> <version>
0

> <s_m_source_file>
/data/baiqing/PycharmProjects/Reinvent-master-3.2/result/LINK_invent/BTK/process_docking_weight1_custom_product_contain_oxygen_bond_distance_aromatic_linkinvent_7_9_3/rearranged_h_0078.sdf

> <i_m_source_file_index>
48

> <r_mmod_Potential_Energy-OPLS-2005>
35.5825119018555

> <r_mmod_Stretch_Energy-OPLS-2005>
43.6746025085449

> <r_mmod_Bend_Energy-OPLS-2005>
201.064743041992

> <r_mmod_Torsional_Energy-OPLS-2005>
233.700729370117

> <r_mmod_Improper_Torsional_Energy-OPLS-2005>
6.22845411300659

> <r_mmod_Van_der_Waal_Energy-OPLS-2005>
158.887908935547

> <r_mmod_Electrostatic_Energy-OPLS-2005>
-406.155700683594

> <r_mmod_Solvation_Energy-OPLS-2005>
-228.771194458008

> <b_mmod_Minimization_Converged-OPLS-2005>
0

> <r_mmod_RMS_Derivative-OPLS-2005>
2.60334277153015

$$$$
49
                    3D
 Structure written by MMmdl.
175184  0  0  1  0            999 V2000
  -30.7986  -14.4503   20.6107 C   0  0  0  0  0  0
  -30.3969  -12.3129   19.4302 C   0  0  0  0  0  0
  -29.4837  -12.5221   18.2050 C   0  0  0  0  0  0
  -28.0001  -12.4016   18.6052 C   0  0  0  0  0  0
  -27.6549  -13.2121   19.8830 C   0  0  2  0  0  0
  -28.6975  -12.9434   20.9874 C   0  0  0  0  0  0
  -25.2490  -13.8143   20.5618 C   0  0  0  0  0  0
  -24.1783  -13.0404   20.9146 C   0  0  0  0  0  0
  -24.6367  -11.6887   20.8733 C   0  0  0  0  0  0
  -23.9041  -10.4276   21.0406 C   0  0  0  0  0  0
  -24.3600   -9.4210   21.9191 C   0  0  0  0  0  0
  -23.6277   -8.2244   22.0762 C   0  0  0  0  0  0
  -22.4267   -8.0266   21.3546 C   0  0  0  0  0  0
  -21.9885   -9.0238   20.4657 C   0  0  0  0  0  0
  -22.7210  -10.2116   20.3059 C   0  0  0  0  0  0
  -21.6854   -6.0716   22.5278 C   0  0  0  0  0  0
  -21.4010   -6.5624   23.8217 C   0  0  0  0  0  0
  -21.3665   -5.6785   24.9181 C   0  0  0  0  0  0
  -21.6058   -4.3051   24.7235 C   0  0  0  0  0  0
  -21.8816   -3.8129   23.4358 C   0  0  0  0  0  0
  -21.9187   -4.6938   22.3406 C   0  0  0  0  0  0
  -22.7818  -13.5217   21.1816 C   0  0  0  0  0  0
  -22.1665   -4.2125   21.0978 F   0  0  0  0  0  0
  -21.5620   -3.4535   25.7742 F   0  0  0  0  0  0
  -30.0218  -13.3192   20.4535 N   0  0  0  0  0  0
  -26.2969  -12.9344   20.3409 N   0  0  0  0  0  0
  -25.9291  -11.6488   20.5795 N   0  0  0  0  0  0
  -22.0422  -12.8249   22.0379 N   0  0  0  0  0  0
  -25.4123  -15.1848   20.3934 N   0  0  0  0  0  0
  -31.9199  -14.4413   20.1100 O   0  0  0  0  0  0
  -21.6641   -6.8857   21.4244 O   0  0  0  0  0  0
  -22.3527  -14.5541   20.6680 O   0  0  0  0  0  0
  -24.6055  -31.8744   23.2122 C   0  0  0  0  0  0
  -25.8964  -32.4870   23.8417 C   0  0  1  0  0  0
  -27.2626  -27.4938   20.1159 C   0  0  0  0  0  0
  -25.5836  -33.8666   24.2346 N   0  0  0  0  0  0
  -23.3917  -30.4894   21.5523 C   0  0  2  0  0  0
  -24.8445  -28.9596   20.1188 C   0  0  0  0  0  0
  -22.7349  -29.4683   22.5068 C   0  0  0  0  0  0
  -18.0252  -28.1371   22.8521 C   0  0  0  0  0  0
  -24.1467  -36.7339   23.2653 C   0  0  0  0  0  0
  -25.9082  -30.8614   21.3537 C   0  0  0  0  0  0
  -25.9931  -29.4977   20.7084 C   0  0  0  0  0  0
  -27.1977  -28.7780   20.7048 C   0  0  0  0  0  0
  -26.1008  -26.9647   19.5134 C   0  0  0  0  0  0
  -24.8897  -27.6876   19.5184 C   0  0  0  0  0  0
  -23.5959  -29.8084   20.1701 C   0  0  0  0  0  0
  -25.4092  -36.3148   24.0352 C   0  0  1  0  0  0
  -20.5838  -28.3628   23.1360 C   0  0  2  0  0  0
  -20.6740  -26.9370   22.5436 C   0  0  0  0  0  0
  -19.5714  -26.6370   21.5235 C   0  0  0  0  0  0
  -18.1889  -26.7921   22.1647 C   0  0  0  0  0  0
  -19.1501  -28.8817   23.2945 C   0  0  0  0  0  0
  -18.9444  -30.1438   23.8929 C   0  0  0  0  0  0
  -17.6457  -30.6582   24.0571 C   0  0  0  0  0  0
  -25.9007  -34.9510   23.5149 C   0  0  0  0  0  0
  -16.5346  -29.9083   23.6341 C   0  0  0  0  0  0
  -16.7248  -28.6506   23.0360 C   0  0  0  0  0  0
  -26.4419  -31.6633   25.0725 C   0  0  0  0  0  0
  -25.3707  -31.3739   26.1481 C   0  0  0  0  0  0
  -27.0237  -30.3088   24.6086 C   0  0  0  0  0  0
  -27.6035  -32.4309   25.7474 C   0  0  0  0  0  0
  -27.5587  -37.1810   24.8453 C   0  0  0  0  0  0
  -21.4096  -29.3006   22.3783 N   0  0  0  0  0  0
  -26.4299  -37.3810   23.9406 N   0  0  0  0  0  0
  -24.6524  -31.0871   22.1000 N   0  0  0  0  0  0
  -23.4146  -28.8293   23.3130 O   0  0  0  0  0  0
  -28.4061  -26.7265   20.1167 O   0  0  0  0  0  0
  -26.5580  -34.8946   22.4718 O   0  0  0  0  0  0
  -23.5272  -32.1494   23.7543 O   0  0  0  0  0  0
  -30.5354  -18.2830   22.7973 C   0  0  0  0  0  0
  -30.2955  -19.4707   23.5159 C   0  0  0  0  0  0
  -29.7625  -20.6039   21.4297 C   0  0  0  0  0  0
  -30.4120  -18.2377   21.3846 C   0  0  0  0  0  0
  -29.9869  -19.4151   20.7102 C   0  0  0  0  0  0
  -29.9684  -20.6505   22.8221 C   0  0  0  0  0  0
  -28.0558  -16.4208   21.6622 C   0  0  0  0  0  0
  -29.1678  -15.7030   21.9010 C   0  0  0  0  0  0
  -31.2414  -26.0997   22.5655 C   0  0  0  0  0  0
  -30.6124  -22.9659   23.2147 C   0  0  0  0  0  0
  -29.8178  -19.4528   19.2032 C   0  0  0  0  0  0
  -30.7894  -18.5088   18.5104 C   0  0  0  0  0  0
  -30.6286  -17.0996   19.0790 C   0  0  0  0  0  0
  -30.8983  -16.9795   20.6091 C   0  0  1  0  0  0
  -32.4411  -17.0679   20.8542 C   0  0  0  0  0  0
  -30.2605  -25.8278   21.4145 C   0  0  0  0  0  0
  -30.3439  -24.2381   24.0319 C   0  0  0  0  0  0
  -29.3765  -27.0428   21.1227 C   0  0  0  0  0  0
  -29.8811  -21.8814   23.5155 N   0  0  0  0  0  0
  -31.2232  -25.3611   23.6856 N   0  0  0  0  0  0
  -30.2935  -15.6560   21.0654 N   0  0  0  0  0  0
  -32.0592  -27.0113   22.4498 O   0  0  0  0  0  0
  -31.4686  -22.9681   22.3232 O   0  0  0  0  0  0
  -31.4422  -12.3554   19.1209 H   0  0  0  0  0  0
  -30.2726  -11.3020   19.8226 H   0  0  0  0  0  0
  -29.7206  -11.7949   17.4266 H   0  0  0  0  0  0
  -29.6706  -13.5052   17.7689 H   0  0  0  0  0  0
  -27.7846  -11.3443   18.7682 H   0  0  0  0  0  0
  -27.3616  -12.7153   17.7779 H   0  0  0  0  0  0
  -27.7087  -14.2686   19.6194 H   0  0  0  0  0  0
  -28.6908  -11.8802   21.2311 H   0  0  0  0  0  0
  -28.4183  -13.3971   21.9303 H   0  0  0  0  0  0
  -25.2727   -9.5704   22.4779 H   0  0  0  0  0  0
  -23.9977   -7.4651   22.7484 H   0  0  0  0  0  0
  -21.0805   -8.8762   19.8978 H   0  0  0  0  0  0
  -22.3657  -10.9659   19.6175 H   0  0  0  0  0  0
  -21.2011   -7.6138   23.9717 H   0  0  0  0  0  0
  -21.1499   -6.0509   25.9087 H   0  0  0  0  0  0
  -22.0593   -2.7584   23.2862 H   0  0  0  0  0  0
  -22.3960  -11.9917   22.4846 H   0  0  0  0  0  0
  -21.1064  -13.1355   22.2559 H   0  0  0  0  0  0
  -24.6591  -15.8476   20.5406 H   0  0  0  0  0  0
  -26.2965  -15.6287   20.1791 H   0  0  0  0  0  0
  -26.7051  -32.5611   23.1223 H   0  0  0  0  0  0
  -24.9920  -33.9832   25.0436 H   0  0  0  0  0  0
  -22.6796  -31.3037   21.4106 H   0  0  0  0  0  0
  -23.3724  -35.9682   23.3338 H   0  0  0  0  0  0
  -24.3569  -36.8935   22.2067 H   0  0  0  0  0  0
  -23.7196  -37.6555   23.6627 H   0  0  0  0  0  0
  -25.9990  -31.6267   20.5831 H   0  0  0  0  0  0
  -26.8022  -30.9296   21.9599 H   0  0  0  0  0  0
  -28.0674  -29.2295   21.1603 H   0  0  0  0  0  0
  -26.1335  -25.9849   19.0587 H   0  0  0  0  0  0
  -24.0060  -27.2602   19.0666 H   0  0  0  0  0  0
  -23.6899  -30.5739   19.4009 H   0  0  0  0  0  0
  -22.7241  -29.2154   19.8893 H   0  0  0  0  0  0
  -25.1269  -36.2037   25.0852 H   0  0  0  0  0  0
  -20.9957  -28.3174   24.1470 H   0  0  0  0  0  0
  -20.5638  -26.2229   23.3616 H   0  0  0  0  0  0
  -21.6615  -26.7421   22.1235 H   0  0  0  0  0  0
  -19.6871  -25.6289   21.1232 H   0  0  0  0  0  0
  -19.6643  -27.3218   20.6797 H   0  0  0  0  0  0
  -17.4171  -26.6705   21.4023 H   0  0  0  0  0  0
  -18.0276  -26.0030   22.9007 H   0  0  0  0  0  0
  -19.7928  -30.7239   24.2298 H   0  0  0  0  0  0
  -17.5013  -31.6258   24.5171 H   0  0  0  0  0  0
  -15.5352  -30.3001   23.7632 H   0  0  0  0  0  0
  -15.8652  -28.0827   22.7067 H   0  0  0  0  0  0
  -24.5789  -30.7223   25.7781 H   0  0  0  0  0  0
  -24.9006  -32.2919   26.5042 H   0  0  0  0  0  0
  -25.8033  -30.8738   27.0148 H   0  0  0  0  0  0
  -26.2754  -29.6820   24.1222 H   0  0  0  0  0  0
  -27.4032  -29.7413   25.4597 H   0  0  0  0  0  0
  -27.8598  -30.4363   23.9202 H   0  0  0  0  0  0
  -27.2736  -33.3583   26.2162 H   0  0  0  0  0  0
  -28.3792  -32.6917   25.0256 H   0  0  0  0  0  0
  -28.0738  -31.8314   26.5281 H   0  0  0  0  0  0
  -28.2621  -38.0091   24.7511 H   0  0  0  0  0  0
  -28.1067  -36.2630   24.6259 H   0  0  0  0  0  0
  -27.2321  -37.1471   25.8862 H   0  0  0  0  0  0
  -20.9259  -29.8716   21.7000 H   0  0  0  0  0  0
  -26.0215  -38.2911   24.1382 H   0  0  0  0  0  0
  -30.8621  -17.4048   23.3344 H   0  0  0  0  0  0
  -30.4336  -19.4824   24.5868 H   0  0  0  0  0  0
  -29.4845  -21.5056   20.8991 H   0  0  0  0  0  0
  -27.2324  -16.4186   22.3618 H   0  0  0  0  0  0
  -27.9470  -17.0168   20.7665 H   0  0  0  0  0  0
  -29.2840  -15.1153   22.8012 H   0  0  0  0  0  0
  -29.9619  -20.4671   18.8275 H   0  0  0  0  0  0
  -28.7913  -19.1769   18.9625 H   0  0  0  0  0  0
  -31.8127  -18.8609   18.6542 H   0  0  0  0  0  0
  -30.6074  -18.5085   17.4351 H   0  0  0  0  0  0
  -31.2610  -16.4124   18.5153 H   0  0  0  0  0  0
  -29.6030  -16.7886   18.8734 H   0  0  0  0  0  0
  -32.8016  -18.0936   20.7539 H   0  0  0  0  0  0
  -33.0452  -16.5064   20.1458 H   0  0  0  0  0  0
  -32.7129  -16.7392   21.8573 H   0  0  0  0  0  0
  -29.6149  -24.9787   21.6220 H   0  0  0  0  0  0
  -30.8409  -25.5638   20.5300 H   0  0  0  0  0  0
  -30.4936  -24.0034   25.0863 H   0  0  0  0  0  0
  -29.2979  -24.5333   23.9263 H   0  0  0  0  0  0
  -29.9840  -27.8913   20.8010 H   0  0  0  0  0  0
  -28.8879  -27.3233   22.0585 H   0  0  0  0  0  0
  -29.3043  -21.9175   24.3459 H   0  0  0  0  0  0
  -31.9213  -25.5900   24.3793 H   0  0  0  0  0  0
  1 25  1  0  0  0
  1 30  2  0  0  0
  1 91  1  0  0  0
  2  3  1  0  0  0
  2 25  1  0  0  0
  2 94  1  0  0  0
  2 95  1  0  0  0
  3  4  1  0  0  0
  3 96  1  0  0  0
  3 97  1  0  0  0
  4  5  1  0  0  0
  4 98  1  0  0  0
  4 99  1  0  0  0
  5  6  1  0  0  0
  5 26  1  0  0  0
  5100  1  0  0  0
  6 25  1  0  0  0
  6101  1  0  0  0
  6102  1  0  0  0
  7  8  2  0  0  0
  7 26  1  0  0  0
  7 29  1  0  0  0
  8  9  1  0  0  0
  8 22  1  0  0  0
  9 10  1  0  0  0
  9 27  2  0  0  0
 10 11  2  0  0  0
 10 15  1  0  0  0
 11 12  1  0  0  0
 11103  1  0  0  0
 12 13  2  0  0  0
 12104  1  0  0  0
 13 14  1  0  0  0
 13 31  1  0  0  0
 14 15  2  0  0  0
 14105  1  0  0  0
 15106  1  0  0  0
 16 17  2  0  0  0
 16 21  1  0  0  0
 16 31  1  0  0  0
 17 18  1  0  0  0
 17107  1  0  0  0
 18 19  2  0  0  0
 18108  1  0  0  0
 19 20  1  0  0  0
 19 24  1  0  0  0
 20 21  2  0  0  0
 20109  1  0  0  0
 21 23  1  0  0  0
 22 28  1  0  0  0
 22 32  2  0  0  0
 26 27  1  0  0  0
 28110  1  0  0  0
 28111  1  0  0  0
 29112  1  0  0  0
 29113  1  0  0  0
 33 34  1  0  0  0
 33 66  1  0  0  0
 33 70  2  0  0  0
 34 36  1  0  0  0
 34 59  1  0  0  0
 34114  1  0  0  0
 35 44  2  0  0  0
 35 45  1  0  0  0
 35 68  1  0  0  0
 36 56  1  0  0  0
 36115  1  0  0  0
 37 39  1  0  0  0
 37 47  1  0  0  0
 37 66  1  0  0  0
 37116  1  0  0  0
 38 43  2  0  0  0
 38 46  1  0  0  0
 38 47  1  0  0  0
 39 64  1  0  0  0
 39 67  2  0  0  0
 40 52  1  0  0  0
 40 53  2  0  0  0
 40 58  1  0  0  0
 41117  1  0  0  0
 41118  1  0  0  0
 41119  1  0  0  0
 41 48  1  0  0  0
 42 43  1  0  0  0
 42 66  1  0  0  0
 42120  1  0  0  0
 42121  1  0  0  0
 43 44  1  0  0  0
 44122  1  0  0  0
 45 46  2  0  0  0
 45123  1  0  0  0
 46124  1  0  0  0
 47125  1  0  0  0
 47126  1  0  0  0
 48 56  1  0  0  0
 48 65  1  0  0  0
 48127  1  0  0  0
 49 50  1  0  0  0
 49 53  1  0  0  0
 49 64  1  0  0  0
 49128  1  0  0  0
 50 51  1  0  0  0
 50129  1  0  0  0
 50130  1  0  0  0
 51 52  1  0  0  0
 51131  1  0  0  0
 51132  1  0  0  0
 52133  1  0  0  0
 52134  1  0  0  0
 53 54  1  0  0  0
 54 55  2  0  0  0
 54135  1  0  0  0
 55 57  1  0  0  0
 55136  1  0  0  0
 56 69  2  0  0  0
 57 58  2  0  0  0
 57137  1  0  0  0
 58138  1  0  0  0
 59 60  1  0  0  0
 59 61  1  0  0  0
 59 62  1  0  0  0
 60139  1  0  0  0
 60140  1  0  0  0
 60141  1  0  0  0
 61142  1  0  0  0
 61143  1  0  0  0
 61144  1  0  0  0
 62145  1  0  0  0
 62146  1  0  0  0
 62147  1  0  0  0
 63 65  1  0  0  0
 63148  1  0  0  0
 63149  1  0  0  0
 63150  1  0  0  0
 64151  1  0  0  0
 65152  1  0  0  0
 68 88  1  0  0  0
 71 72  2  0  0  0
 71 74  1  0  0  0
 71153  1  0  0  0
 72 76  1  0  0  0
 72154  1  0  0  0
 73 75  1  0  0  0
 73 76  2  0  0  0
 73155  1  0  0  0
 74 75  2  0  0  0
 74 84  1  0  0  0
 75 81  1  0  0  0
 76 89  1  0  0  0
 77 78  2  0  0  0
 77156  1  0  0  0
 77157  1  0  0  0
 78 91  1  0  0  0
 78158  1  0  0  0
 79 86  1  0  0  0
 79 90  1  0  0  0
 79 92  2  0  0  0
 80 87  1  0  0  0
 80 89  1  0  0  0
 80 93  2  0  0  0
 81 82  1  0  0  0
 81159  1  0  0  0
 81160  1  0  0  0
 82 83  1  0  0  0
 82161  1  0  0  0
 82162  1  0  0  0
 83 84  1  0  0  0
 83163  1  0  0  0
 83164  1  0  0  0
 84 85  1  0  0  0
 84 91  1  0  0  0
 85165  1  0  0  0
 85166  1  0  0  0
 85167  1  0  0  0
 86 88  1  0  0  0
 86168  1  0  0  0
 86169  1  0  0  0
 87 90  1  0  0  0
 87170  1  0  0  0
 87171  1  0  0  0
 88172  1  0  0  0
 88173  1  0  0  0
 89174  1  0  0  0
 90175  1  0  0  0
M  ISO  4   1 100  68 101  88 101  91 100
M  END
> <chiral flag>
0

> <version>
0

> <s_m_source_file>
/data/baiqing/PycharmProjects/Reinvent-master-3.2/result/LINK_invent/BTK/process_docking_weight1_custom_product_contain_oxygen_bond_distance_aromatic_linkinvent_7_9_3/rearranged_h_0078.sdf

> <i_m_source_file_index>
49

> <r_mmod_Potential_Energy-OPLS-2005>
73.8040466308594

> <r_mmod_Stretch_Energy-OPLS-2005>
56.0005416870117

> <r_mmod_Bend_Energy-OPLS-2005>
147.255187988281

> <r_mmod_Torsional_Energy-OPLS-2005>
318.045318603516

> <r_mmod_Improper_Torsional_Energy-OPLS-2005>
6.89163208007812

> <r_mmod_Van_der_Waal_Energy-OPLS-2005>
213.879348754883

> <r_mmod_Electrostatic_Energy-OPLS-2005>
-431.864105224609

> <r_mmod_Solvation_Energy-OPLS-2005>
-253.582946777344

> <b_mmod_Minimization_Converged-OPLS-2005>
0

> <r_mmod_RMS_Derivative-OPLS-2005>
3.02400803565979

$$$$
50
                    3D
 Structure written by MMmdl.
161169  0  0  1  0            999 V2000
  -30.5953  -14.5363   20.6182 C   0  0  0  0  0  0
  -30.4520  -12.3694   19.4201 C   0  0  0  0  0  0
  -29.5147  -12.5332   18.2006 C   0  0  0  0  0  0
  -28.0307  -12.3719   18.6019 C   0  0  0  0  0  0
  -27.6621  -13.1939   19.8676 C   0  0  2  0  0  0
  -28.6907  -12.9338   20.9879 C   0  0  0  0  0  0
  -25.2570  -13.8065   20.5546 C   0  0  0  0  0  0
  -24.1818  -13.0395   20.9089 C   0  0  0  0  0  0
  -24.6339  -11.6863   20.8639 C   0  0  0  0  0  0
  -23.9007  -10.4257   21.0348 C   0  0  0  0  0  0
  -24.3582   -9.4201   21.9152 C   0  0  0  0  0  0
  -23.6257   -8.2241   22.0764 C   0  0  0  0  0  0
  -22.4240   -8.0256   21.3564 C   0  0  0  0  0  0
  -21.9862   -9.0217   20.4668 C   0  0  0  0  0  0
  -22.7169  -10.2076   20.3033 C   0  0  0  0  0  0
  -21.6833   -6.0682   22.5255 C   0  0  0  0  0  0
  -21.4027   -6.5605   23.8168 C   0  0  0  0  0  0
  -21.3667   -5.6759   24.9132 C   0  0  0  0  0  0
  -21.6039   -4.3027   24.7188 C   0  0  0  0  0  0
  -21.8829   -3.8114   23.4321 C   0  0  0  0  0  0
  -21.9208   -4.6933   22.3374 C   0  0  0  0  0  0
  -22.7834  -13.5262   21.1732 C   0  0  0  0  0  0
  -22.1665   -4.2132   21.0953 F   0  0  0  0  0  0
  -21.5648   -3.4506   25.7710 F   0  0  0  0  0  0
  -30.0196  -13.3096   20.4682 N   0  0  0  0  0  0
  -26.3008  -12.9229   20.3196 N   0  0  0  0  0  0
  -25.9260  -11.6415   20.5575 N   0  0  0  0  0  0
  -22.0475  -12.8319   22.0307 N   0  0  0  0  0  0
  -25.4334  -15.1773   20.3957 N   0  0  0  0  0  0
  -31.6808  -14.8283   20.1005 O   0  0  0  0  0  0
  -21.6656   -6.8835   21.4216 O   0  0  0  0  0  0
  -22.3543  -14.5555   20.6554 O   0  0  0  0  0  0
  -24.6274  -31.8612   23.2084 C   0  0  0  0  0  0
  -25.9176  -32.4743   23.8315 C   0  0  1  0  0  0
  -27.1970  -27.3617   20.0741 C   0  0  0  0  0  0
  -25.6000  -33.8536   24.2242 N   0  0  0  0  0  0
  -23.4050  -30.4958   21.5544 C   0  0  2  0  0  0
  -24.8344  -28.9464   20.1332 C   0  0  0  0  0  0
  -22.7421  -29.4673   22.4999 C   0  0  0  0  0  0
  -18.0282  -28.1366   22.8480 C   0  0  0  0  0  0
  -24.1487  -36.7254   23.2633 C   0  0  0  0  0  0
  -25.9476  -30.8008   21.3713 C   0  0  0  0  0  0
  -26.0120  -29.4344   20.7103 C   0  0  0  0  0  0
  -27.1986  -28.6521   20.6787 C   0  0  0  0  0  0
  -25.9660  -26.8793   19.5715 C   0  0  0  0  0  0
  -24.8046  -27.6609   19.5760 C   0  0  0  0  0  0
  -23.6140  -29.8340   20.1703 C   0  0  0  0  0  0
  -25.4126  -36.3049   24.0324 C   0  0  1  0  0  0
  -20.5869  -28.3664   23.1320 C   0  0  2  0  0  0
  -20.6773  -26.9391   22.5423 C   0  0  0  0  0  0
  -19.5751  -26.6384   21.5203 C   0  0  0  0  0  0
  -18.1930  -26.7919   22.1610 C   0  0  0  0  0  0
  -19.1538  -28.8836   23.2879 C   0  0  0  0  0  0
  -18.9489  -30.1443   23.8875 C   0  0  0  0  0  0
  -17.6502  -30.6584   24.0566 C   0  0  0  0  0  0
  -25.9067  -34.9435   23.5059 C   0  0  0  0  0  0
  -16.5376  -29.9093   23.6329 C   0  0  0  0  0  0
  -16.7283  -28.6508   23.0339 C   0  0  0  0  0  0
  -26.4541  -31.6594   25.0710 C   0  0  0  0  0  0
  -25.3796  -31.3820   26.1463 C   0  0  0  0  0  0
  -27.0360  -30.3006   24.6208 C   0  0  0  0  0  0
  -27.6030  -32.4376   25.7523 C   0  0  0  0  0  0
  -27.5572  -37.1792   24.8475 C   0  0  0  0  0  0
  -21.4147  -29.3043   22.3749 N   0  0  0  0  0  0
  -26.4274  -37.3784   23.9407 N   0  0  0  0  0  0
  -24.6780  -31.0710   22.0987 N   0  0  0  0  0  0
  -23.4193  -28.8206   23.3053 O   0  0  0  0  0  0
  -28.3476  -26.5764   19.9976 O   0  0  0  0  0  0
  -26.5618  -34.8925   22.4619 O   0  0  0  0  0  0
  -23.5473  -32.1375   23.7505 O   0  0  0  0  0  0
  -29.5833  -19.0278   22.3358 C   0  0  0  0  0  0
  -29.9388  -17.6555   22.3592 C   0  0  0  0  0  0
  -28.6734  -18.7642   20.1069 C   0  0  0  0  0  0
  -28.9213  -19.6050   21.2246 C   0  0  0  0  0  0
  -29.6872  -16.8141   21.2506 C   0  0  0  0  0  0
  -29.0487  -17.3896   20.1235 C   0  0  0  0  0  0
  -28.4552  -21.0250   21.2919 C   0  0  0  0  0  0
  -28.1702  -23.2937   20.1740 C   0  0  0  0  0  0
  -28.4356  -23.4142   17.6795 C   0  0  0  0  0  0
  -30.3580  -23.9943   19.1702 C   0  0  0  0  0  0
  -28.4421  -25.6470   18.8733 C   0  0  0  0  0  0
  -28.8260  -24.1094   19.0149 C   0  0  0  0  0  0
  -29.8801  -15.3964   21.3829 N   0  0  0  0  0  0
  -28.5829  -21.8905   20.2517 N   0  0  0  0  0  0
  -27.9286  -21.4470   22.4499 N   0  3  0  0  0  0
  -27.3979  -23.7937   20.9983 O   0  0  0  0  0  0
  -28.7201  -16.6034   19.0699 F   0  0  0  0  0  0
  -31.4894  -12.5415   19.1264 H   0  0  0  0  0  0
  -30.4154  -11.3496   19.8013 H   0  0  0  0  0  0
  -29.7748  -11.8135   17.4214 H   0  0  0  0  0  0
  -29.6587  -13.5178   17.7500 H   0  0  0  0  0  0
  -27.8401  -11.3110   18.7733 H   0  0  0  0  0  0
  -27.3914  -12.6631   17.7671 H   0  0  0  0  0  0
  -27.7174  -14.2473   19.5927 H   0  0  0  0  0  0
  -28.6863  -11.8759   21.2540 H   0  0  0  0  0  0
  -28.4102  -13.4457   21.9107 H   0  0  0  0  0  0
  -25.2758   -9.5694   22.4687 H   0  0  0  0  0  0
  -23.9985   -7.4642   22.7504 H   0  0  0  0  0  0
  -21.0791   -8.8710   19.8980 H   0  0  0  0  0  0
  -22.3647  -10.9591   19.6120 H   0  0  0  0  0  0
  -21.2037   -7.6118   23.9663 H   0  0  0  0  0  0
  -21.1476   -6.0494   25.9026 H   0  0  0  0  0  0
  -22.0627   -2.7596   23.2799 H   0  0  0  0  0  0
  -22.4077  -12.0070   22.4860 H   0  0  0  0  0  0
  -21.1073  -13.1346   22.2380 H   0  0  0  0  0  0
  -24.6647  -15.8304   20.4947 H   0  0  0  0  0  0
  -26.2786  -15.6092   20.0430 H   0  0  0  0  0  0
  -26.7220  -32.5403   23.1014 H   0  0  0  0  0  0
  -25.0149  -33.9593   25.0392 H   0  0  0  0  0  0
  -22.6940  -31.3127   21.4183 H   0  0  0  0  0  0
  -23.3733  -35.9599   23.3330 H   0  0  0  0  0  0
  -24.3541  -36.8850   22.2035 H   0  0  0  0  0  0
  -23.7270  -37.6478   23.6630 H   0  0  0  0  0  0
  -26.0979  -31.5705   20.6135 H   0  0  0  0  0  0
  -26.8208  -30.8237   22.0102 H   0  0  0  0  0  0
  -28.1094  -29.0424   21.1110 H   0  0  0  0  0  0
  -25.8548  -25.8710   19.1966 H   0  0  0  0  0  0
  -23.8823  -27.2470   19.1939 H   0  0  0  0  0  0
  -23.7545  -30.6063   19.4136 H   0  0  0  0  0  0
  -22.7283  -29.2786   19.8547 H   0  0  0  0  0  0
  -25.1311  -36.1853   25.0819 H   0  0  0  0  0  0
  -20.9905  -28.3253   24.1464 H   0  0  0  0  0  0
  -20.5675  -26.2259   23.3608 H   0  0  0  0  0  0
  -21.6654  -26.7428   22.1226 H   0  0  0  0  0  0
  -19.6892  -25.6303   21.1216 H   0  0  0  0  0  0
  -19.6701  -27.3200   20.6738 H   0  0  0  0  0  0
  -17.4182  -26.6642   21.4029 H   0  0  0  0  0  0
  -18.0347  -26.0080   22.9026 H   0  0  0  0  0  0
  -19.7984  -30.7253   24.2211 H   0  0  0  0  0  0
  -17.5083  -31.6263   24.5168 H   0  0  0  0  0  0
  -15.5387  -30.2998   23.7687 H   0  0  0  0  0  0
  -15.8663  -28.0839   22.7049 H   0  0  0  0  0  0
  -24.5878  -30.7229   25.7875 H   0  0  0  0  0  0
  -24.9094  -32.3048   26.4901 H   0  0  0  0  0  0
  -25.8167  -30.9005   27.0222 H   0  0  0  0  0  0
  -26.2918  -29.6787   24.1202 H   0  0  0  0  0  0
  -27.3978  -29.7277   25.4758 H   0  0  0  0  0  0
  -27.8853  -30.4228   23.9468 H   0  0  0  0  0  0
  -27.2491  -33.3623   26.2106 H   0  0  0  0  0  0
  -28.3871  -32.7053   25.0422 H   0  0  0  0  0  0
  -28.0644  -31.8512   26.5478 H   0  0  0  0  0  0
  -28.2625  -38.0054   24.7491 H   0  0  0  0  0  0
  -28.1021  -36.2591   24.6330 H   0  0  0  0  0  0
  -27.2261  -37.1509   25.8869 H   0  0  0  0  0  0
  -20.9302  -29.8818   21.7015 H   0  0  0  0  0  0
  -26.0144  -38.2839   24.1442 H   0  0  0  0  0  0
  -29.7977  -19.6315   23.2078 H   0  0  0  0  0  0
  -30.3789  -17.2487   23.2566 H   0  0  0  0  0  0
  -28.1424  -19.1469   19.2485 H   0  0  0  0  0  0
  -28.4934  -22.3255   17.7198 H   0  0  0  0  0  0
  -29.0919  -23.7318   16.8670 H   0  0  0  0  0  0
  -27.4118  -23.6515   17.3769 H   0  0  0  0  0  0
  -30.6990  -22.9587   19.1684 H   0  0  0  0  0  0
  -30.7085  -24.4534   20.0928 H   0  0  0  0  0  0
  -30.8756  -24.4761   18.3390 H   0  0  0  0  0  0
  -27.6146  -25.7383   18.1740 H   0  0  0  0  0  0
  -29.2340  -26.0964   18.2700 H   0  0  0  0  0  0
  -29.1328  -14.9347   21.8772 H   0  0  0  0  0  0
  -29.1123  -21.4830   19.4958 H   0  0  0  0  0  0
  -27.7873  -20.8160   23.2242 H   0  0  0  0  0  0
  -27.6175  -22.4076   22.5239 H   0  0  0  0  0  0
  1 25  1  0  0  0
  1 30  2  0  0  0
  1 83  1  0  0  0
  2  3  1  0  0  0
  2 25  1  0  0  0
  2 88  1  0  0  0
  2 89  1  0  0  0
  3  4  1  0  0  0
  3 90  1  0  0  0
  3 91  1  0  0  0
  4  5  1  0  0  0
  4 92  1  0  0  0
  4 93  1  0  0  0
  5  6  1  0  0  0
  5 26  1  0  0  0
  5 94  1  0  0  0
  6 25  1  0  0  0
  6 95  1  0  0  0
  6 96  1  0  0  0
  7  8  2  0  0  0
  7 26  1  0  0  0
  7 29  1  0  0  0
  8  9  1  0  0  0
  8 22  1  0  0  0
  9 10  1  0  0  0
  9 27  2  0  0  0
 10 11  2  0  0  0
 10 15  1  0  0  0
 11 12  1  0  0  0
 11 97  1  0  0  0
 12 13  2  0  0  0
 12 98  1  0  0  0
 13 14  1  0  0  0
 13 31  1  0  0  0
 14 15  2  0  0  0
 14 99  1  0  0  0
 15100  1  0  0  0
 16 17  2  0  0  0
 16 21  1  0  0  0
 16 31  1  0  0  0
 17 18  1  0  0  0
 17101  1  0  0  0
 18 19  2  0  0  0
 18102  1  0  0  0
 19 20  1  0  0  0
 19 24  1  0  0  0
 20 21  2  0  0  0
 20103  1  0  0  0
 21 23  1  0  0  0
 22 28  1  0  0  0
 22 32  2  0  0  0
 26 27  1  0  0  0
 28104  1  0  0  0
 28105  1  0  0  0
 29106  1  0  0  0
 29107  1  0  0  0
 33 34  1  0  0  0
 33 66  1  0  0  0
 33 70  2  0  0  0
 34 36  1  0  0  0
 34 59  1  0  0  0
 34108  1  0  0  0
 35 44  2  0  0  0
 35 45  1  0  0  0
 35 68  1  0  0  0
 36 56  1  0  0  0
 36109  1  0  0  0
 37 39  1  0  0  0
 37 47  1  0  0  0
 37 66  1  0  0  0
 37110  1  0  0  0
 38 43  2  0  0  0
 38 46  1  0  0  0
 38 47  1  0  0  0
 39 64  1  0  0  0
 39 67  2  0  0  0
 40 52  1  0  0  0
 40 53  2  0  0  0
 40 58  1  0  0  0
 41111  1  0  0  0
 41112  1  0  0  0
 41113  1  0  0  0
 41 48  1  0  0  0
 42 43  1  0  0  0
 42 66  1  0  0  0
 42114  1  0  0  0
 42115  1  0  0  0
 43 44  1  0  0  0
 44116  1  0  0  0
 45 46  2  0  0  0
 45117  1  0  0  0
 46118  1  0  0  0
 47119  1  0  0  0
 47120  1  0  0  0
 48 56  1  0  0  0
 48 65  1  0  0  0
 48121  1  0  0  0
 49 50  1  0  0  0
 49 53  1  0  0  0
 49 64  1  0  0  0
 49122  1  0  0  0
 50 51  1  0  0  0
 50123  1  0  0  0
 50124  1  0  0  0
 51 52  1  0  0  0
 51125  1  0  0  0
 51126  1  0  0  0
 52127  1  0  0  0
 52128  1  0  0  0
 53 54  1  0  0  0
 54 55  2  0  0  0
 54129  1  0  0  0
 55 57  1  0  0  0
 55130  1  0  0  0
 56 69  2  0  0  0
 57 58  2  0  0  0
 57131  1  0  0  0
 58132  1  0  0  0
 59 60  1  0  0  0
 59 61  1  0  0  0
 59 62  1  0  0  0
 60133  1  0  0  0
 60134  1  0  0  0
 60135  1  0  0  0
 61136  1  0  0  0
 61137  1  0  0  0
 61138  1  0  0  0
 62139  1  0  0  0
 62140  1  0  0  0
 62141  1  0  0  0
 63 65  1  0  0  0
 63142  1  0  0  0
 63143  1  0  0  0
 63144  1  0  0  0
 64145  1  0  0  0
 65146  1  0  0  0
 68 81  1  0  0  0
 71 72  2  0  0  0
 71 74  1  0  0  0
 71147  1  0  0  0
 72 75  1  0  0  0
 72148  1  0  0  0
 73 74  2  0  0  0
 73 76  1  0  0  0
 73149  1  0  0  0
 74 77  1  0  0  0
 75 76  2  0  0  0
 75 83  1  0  0  0
 76 87  1  0  0  0
 77 84  1  0  0  0
 77 85  2  0  0  0
 78 82  1  0  0  0
 78 84  1  0  0  0
 78 86  2  0  0  0
 79150  1  0  0  0
 79151  1  0  0  0
 79152  1  0  0  0
 79 82  1  0  0  0
 80 82  1  0  0  0
 80153  1  0  0  0
 80154  1  0  0  0
 80155  1  0  0  0
 81 82  1  0  0  0
 81156  1  0  0  0
 81157  1  0  0  0
 83158  1  0  0  0
 84159  1  0  0  0
 85160  1  0  0  0
 85161  1  0  0  0
M  CHG  1  85   1
M  ISO  4   1 100  68 101  81 101  83 100
M  END
> <chiral flag>
0

> <version>
0

> <s_m_source_file>
/data/baiqing/PycharmProjects/Reinvent-master-3.2/result/LINK_invent/BTK/process_docking_weight1_custom_product_contain_oxygen_bond_distance_aromatic_linkinvent_7_9_3/rearranged_h_0078.sdf

> <i_m_source_file_index>
50

> <r_mmod_Potential_Energy-OPLS-2005>
-285.136016845703

> <r_mmod_Stretch_Energy-OPLS-2005>
57.2864418029785

> <r_mmod_Bend_Energy-OPLS-2005>
144.127639770508

> <r_mmod_Torsional_Energy-OPLS-2005>
263.212585449219

> <r_mmod_Improper_Torsional_Energy-OPLS-2005>
5.70606231689453

> <r_mmod_Van_der_Waal_Energy-OPLS-2005>
170.771286010742

> <r_mmod_Electrostatic_Energy-OPLS-2005>
-500.994293212891

> <r_mmod_Solvation_Energy-OPLS-2005>
-456.866943359375

> <b_mmod_Minimization_Converged-OPLS-2005>
0

> <r_mmod_RMS_Derivative-OPLS-2005>
6.24357318878174

$$$$
51
                    3D
 Structure written by MMmdl.
156165  0  0  1  0            999 V2000
  -30.5910  -14.7541   20.4413 C   0  0  0  0  0  0
  -30.4467  -12.4578   19.4638 C   0  0  0  0  0  0
  -29.5154  -12.5162   18.2315 C   0  0  0  0  0  0
  -28.0396  -12.3400   18.6468 C   0  0  0  0  0  0
  -27.6452  -13.2315   19.8554 C   0  0  2  0  0  0
  -28.6977  -13.1463   20.9835 C   0  0  0  0  0  0
  -25.2456  -13.8107   20.5766 C   0  0  0  0  0  0
  -24.1756  -13.0336   20.9178 C   0  0  0  0  0  0
  -24.6396  -11.6847   20.8713 C   0  0  0  0  0  0
  -23.9084  -10.4234   21.0376 C   0  0  0  0  0  0
  -24.3624   -9.4167   21.9171 C   0  0  0  0  0  0
  -23.6282   -8.2222   22.0757 C   0  0  0  0  0  0
  -22.4264   -8.0262   21.3549 C   0  0  0  0  0  0
  -21.9900   -9.0234   20.4652 C   0  0  0  0  0  0
  -22.7250  -10.2094   20.3037 C   0  0  0  0  0  0
  -21.6846   -6.0715   22.5279 C   0  0  0  0  0  0
  -21.4007   -6.5620   23.8210 C   0  0  0  0  0  0
  -21.3662   -5.6781   24.9177 C   0  0  0  0  0  0
  -21.6048   -4.3043   24.7231 C   0  0  0  0  0  0
  -21.8824   -3.8129   23.4352 C   0  0  0  0  0  0
  -21.9190   -4.6943   22.3403 C   0  0  0  0  0  0
  -22.7781  -13.5133   21.1855 C   0  0  0  0  0  0
  -22.1661   -4.2127   21.0980 F   0  0  0  0  0  0
  -21.5636   -3.4533   25.7747 F   0  0  0  0  0  0
  -30.0011  -13.5085   20.4035 N   0  0  0  0  0  0
  -26.2958  -12.9385   20.3344 N   0  0  0  0  0  0
  -25.9340  -11.6509   20.5743 N   0  0  0  0  0  0
  -22.0431  -12.8145   22.0429 N   0  0  0  0  0  0
  -25.3871  -15.1844   20.4431 N   0  0  0  0  0  0
  -31.7780  -14.8920   20.1305 O   0  0  0  0  0  0
  -21.6624   -6.8863   21.4245 O   0  0  0  0  0  0
  -22.3469  -14.5457   20.6729 O   0  0  0  0  0  0
  -24.6307  -31.8538   23.1980 C   0  0  0  0  0  0
  -25.9133  -32.4747   23.8324 C   0  0  1  0  0  0
  -27.2384  -27.2798   20.1113 C   0  0  0  0  0  0
  -25.5927  -33.8547   24.2245 N   0  0  0  0  0  0
  -23.4285  -30.4746   21.5397 C   0  0  2  0  0  0
  -24.8809  -28.9246   20.1034 C   0  0  0  0  0  0
  -22.7501  -29.4586   22.4900 C   0  0  0  0  0  0
  -18.0293  -28.1387   22.8486 C   0  0  0  0  0  0
  -24.1485  -36.7271   23.2639 C   0  0  0  0  0  0
  -25.9731  -30.7705   21.3779 C   0  0  0  0  0  0
  -26.0502  -29.3954   20.7151 C   0  0  0  0  0  0
  -27.2282  -28.5819   20.7150 C   0  0  0  0  0  0
  -26.0423  -26.8679   19.4819 C   0  0  0  0  0  0
  -24.8814  -27.6671   19.4782 C   0  0  0  0  0  0
  -23.6474  -29.8070   20.1555 C   0  0  0  0  0  0
  -25.4113  -36.3057   24.0321 C   0  0  1  0  0  0
  -20.5898  -28.3698   23.1271 C   0  0  2  0  0  0
  -20.6776  -26.9412   22.5410 C   0  0  0  0  0  0
  -19.5752  -26.6383   21.5209 C   0  0  0  0  0  0
  -18.1935  -26.7930   22.1626 C   0  0  0  0  0  0
  -19.1546  -28.8861   23.2876 C   0  0  0  0  0  0
  -18.9470  -30.1462   23.8892 C   0  0  0  0  0  0
  -17.6466  -30.6587   24.0565 C   0  0  0  0  0  0
  -25.9059  -34.9429   23.5088 C   0  0  0  0  0  0
  -16.5360  -29.9084   23.6330 C   0  0  0  0  0  0
  -16.7278  -28.6504   23.0352 C   0  0  0  0  0  0
  -26.4499  -31.6581   25.0718 C   0  0  0  0  0  0
  -25.3726  -31.3740   26.1445 C   0  0  0  0  0  0
  -27.0348  -30.2994   24.6216 C   0  0  0  0  0  0
  -27.6055  -32.4326   25.7489 C   0  0  0  0  0  0
  -27.5576  -37.1784   24.8461 C   0  0  0  0  0  0
  -21.4210  -29.3036   22.3649 N   0  0  0  0  0  0
  -26.4282  -37.3766   23.9415 N   0  0  0  0  0  0
  -24.6958  -31.0510   22.0945 N   0  0  0  0  0  0
  -23.4200  -28.8133   23.3007 O   0  0  0  0  0  0
  -28.3117  -26.3660   20.2215 O   0  0  0  0  0  0
  -26.5639  -34.8911   22.4661 O   0  0  0  0  0  0
  -23.5460  -32.1353   23.7275 O   0  0  0  0  0  0
  -30.8024  -19.5922   20.3053 C   0  0  0  0  0  0
  -30.9196  -18.1669   20.5003 C   0  0  0  0  0  0
  -28.4414  -19.3742   19.9834 C   0  0  0  0  0  0
  -29.5580  -20.2501   20.0363 C   0  0  0  0  0  0
  -29.7946  -17.2949   20.4143 C   0  0  0  0  0  0
  -28.5635  -17.9562   20.1398 C   0  0  0  0  0  0
  -29.1887  -23.3371   18.0061 C   0  0  0  0  0  0
  -28.8766  -24.0326   19.2397 C   0  0  0  0  0  0
  -29.5349  -21.9393   18.2508 C   0  0  0  0  0  0
  -29.1959  -23.8353   16.7517 C   0  0  0  0  0  0
  -28.5496  -25.3922   19.2294 C   0  0  0  0  0  0
  -29.0331  -22.9223   20.3261 C   0  0  0  0  0  0
  -29.4466  -21.6635   19.5748 N   0  0  0  0  0  0
  -27.4351  -17.1709   19.9329 N   0  0  0  0  0  0
  -29.7433  -15.8275   20.6361 N   0  0  0  0  0  0
  -29.8661  -21.1166   17.3870 O   0  0  0  0  0  0
  -31.4852  -12.5970   19.1590 H   0  0  0  0  0  0
  -30.4006  -11.4772   19.9406 H   0  0  0  0  0  0
  -29.7952  -11.7468   17.5110 H   0  0  0  0  0  0
  -29.6414  -13.4718   17.7203 H   0  0  0  0  0  0
  -27.8951  -11.2904   18.9029 H   0  0  0  0  0  0
  -27.3829  -12.5392   17.7989 H   0  0  0  0  0  0
  -27.6348  -14.2556   19.4837 H   0  0  0  0  0  0
  -28.7341  -12.1396   21.4025 H   0  0  0  0  0  0
  -28.4350  -13.8089   21.8097 H   0  0  0  0  0  0
  -25.2768   -9.5640   22.4742 H   0  0  0  0  0  0
  -23.9981   -7.4614   22.7483 H   0  0  0  0  0  0
  -21.0825   -8.8768   19.8960 H   0  0  0  0  0  0
  -22.3724  -10.9631   19.6138 H   0  0  0  0  0  0
  -21.1991   -7.6126   23.9711 H   0  0  0  0  0  0
  -21.1482   -6.0505   25.9081 H   0  0  0  0  0  0
  -22.0598   -2.7588   23.2865 H   0  0  0  0  0  0
  -22.4032  -11.9808   22.4830 H   0  0  0  0  0  0
  -21.1061  -13.1200   22.2638 H   0  0  0  0  0  0
  -24.6020  -15.8023   20.6119 H   0  0  0  0  0  0
  -26.2576  -15.7049   20.3266 H   0  0  0  0  0  0
  -26.7199  -32.5403   23.1068 H   0  0  0  0  0  0
  -25.0059  -33.9679   25.0379 H   0  0  0  0  0  0
  -22.7248  -31.2964   21.3931 H   0  0  0  0  0  0
  -23.3755  -35.9595   23.3287 H   0  0  0  0  0  0
  -24.3576  -36.8910   22.2057 H   0  0  0  0  0  0
  -23.7233  -37.6462   23.6680 H   0  0  0  0  0  0
  -26.1139  -31.5354   20.6131 H   0  0  0  0  0  0
  -26.8489  -30.8159   22.0136 H   0  0  0  0  0  0
  -28.1195  -28.9294   21.2184 H   0  0  0  0  0  0
  -25.9821  -25.8901   19.0257 H   0  0  0  0  0  0
  -23.9831  -27.2951   19.0043 H   0  0  0  0  0  0
  -23.7670  -30.5827   19.3984 H   0  0  0  0  0  0
  -22.7671  -29.2367   19.8535 H   0  0  0  0  0  0
  -25.1294  -36.1892   25.0814 H   0  0  0  0  0  0
  -20.9995  -28.3276   24.1391 H   0  0  0  0  0  0
  -20.5665  -26.2302   23.3614 H   0  0  0  0  0  0
  -21.6647  -26.7421   22.1214 H   0  0  0  0  0  0
  -19.6908  -25.6291   21.1244 H   0  0  0  0  0  0
  -19.6689  -27.3187   20.6734 H   0  0  0  0  0  0
  -17.4200  -26.6676   21.4036 H   0  0  0  0  0  0
  -18.0340  -26.0071   22.9024 H   0  0  0  0  0  0
  -19.7947  -30.7286   24.2253 H   0  0  0  0  0  0
  -17.5020  -31.6264   24.5173 H   0  0  0  0  0  0
  -15.5360  -30.2985   23.7654 H   0  0  0  0  0  0
  -15.8680  -28.0817   22.7069 H   0  0  0  0  0  0
  -24.5865  -30.7134   25.7770 H   0  0  0  0  0  0
  -24.8968  -32.2921   26.4902 H   0  0  0  0  0  0
  -25.8037  -30.8878   27.0204 H   0  0  0  0  0  0
  -26.2932  -29.6741   24.1232 H   0  0  0  0  0  0
  -27.4011  -29.7261   25.4744 H   0  0  0  0  0  0
  -27.8820  -30.4261   23.9471 H   0  0  0  0  0  0
  -27.2657  -33.3624   26.2065 H   0  0  0  0  0  0
  -28.3865  -32.6891   25.0317 H   0  0  0  0  0  0
  -28.0726  -31.8457   26.5409 H   0  0  0  0  0  0
  -28.2577  -38.0097   24.7530 H   0  0  0  0  0  0
  -28.1085  -36.2628   24.6252 H   0  0  0  0  0  0
  -27.2300  -37.1398   25.8865 H   0  0  0  0  0  0
  -20.9391  -29.8753   21.6851 H   0  0  0  0  0  0
  -26.0147  -38.2828   24.1448 H   0  0  0  0  0  0
  -31.7069  -20.1837   20.3250 H   0  0  0  0  0  0
  -31.8948  -17.7463   20.7026 H   0  0  0  0  0  0
  -27.4777  -19.7955   19.7316 H   0  0  0  0  0  0
  -28.9529  -24.8610   16.5222 H   0  0  0  0  0  0
  -29.4550  -23.2098   15.9081 H   0  0  0  0  0  0
  -28.5107  -25.9077   18.2814 H   0  0  0  0  0  0
  -28.0910  -22.7641   20.8513 H   0  0  0  0  0  0
  -29.7975  -23.2038   21.0503 H   0  0  0  0  0  0
  -26.6080  -17.7172   19.7147 H   0  0  0  0  0  0
  -27.5836  -16.5083   19.1796 H   0  0  0  0  0  0
  -28.7946  -15.5313   20.8116 H   0  0  0  0  0  0
  1 25  1  0  0  0
  1 30  2  0  0  0
  1 85  1  0  0  0
  2  3  1  0  0  0
  2 25  1  0  0  0
  2 87  1  0  0  0
  2 88  1  0  0  0
  3  4  1  0  0  0
  3 89  1  0  0  0
  3 90  1  0  0  0
  4  5  1  0  0  0
  4 91  1  0  0  0
  4 92  1  0  0  0
  5  6  1  0  0  0
  5 26  1  0  0  0
  5 93  1  0  0  0
  6 25  1  0  0  0
  6 94  1  0  0  0
  6 95  1  0  0  0
  7  8  2  0  0  0
  7 26  1  0  0  0
  7 29  1  0  0  0
  8  9  1  0  0  0
  8 22  1  0  0  0
  9 10  1  0  0  0
  9 27  2  0  0  0
 10 11  2  0  0  0
 10 15  1  0  0  0
 11 12  1  0  0  0
 11 96  1  0  0  0
 12 13  2  0  0  0
 12 97  1  0  0  0
 13 14  1  0  0  0
 13 31  1  0  0  0
 14 15  2  0  0  0
 14 98  1  0  0  0
 15 99  1  0  0  0
 16 17  2  0  0  0
 16 21  1  0  0  0
 16 31  1  0  0  0
 17 18  1  0  0  0
 17100  1  0  0  0
 18 19  2  0  0  0
 18101  1  0  0  0
 19 20  1  0  0  0
 19 24  1  0  0  0
 20 21  2  0  0  0
 20102  1  0  0  0
 21 23  1  0  0  0
 22 28  1  0  0  0
 22 32  2  0  0  0
 26 27  1  0  0  0
 28103  1  0  0  0
 28104  1  0  0  0
 29105  1  0  0  0
 29106  1  0  0  0
 33 34  1  0  0  0
 33 66  1  0  0  0
 33 70  2  0  0  0
 34 36  1  0  0  0
 34 59  1  0  0  0
 34107  1  0  0  0
 35 44  2  0  0  0
 35 45  1  0  0  0
 35 68  1  0  0  0
 36 56  1  0  0  0
 36108  1  0  0  0
 37 39  1  0  0  0
 37 47  1  0  0  0
 37 66  1  0  0  0
 37109  1  0  0  0
 38 43  2  0  0  0
 38 46  1  0  0  0
 38 47  1  0  0  0
 39 64  1  0  0  0
 39 67  2  0  0  0
 40 52  1  0  0  0
 40 53  2  0  0  0
 40 58  1  0  0  0
 41110  1  0  0  0
 41111  1  0  0  0
 41112  1  0  0  0
 41 48  1  0  0  0
 42 43  1  0  0  0
 42 66  1  0  0  0
 42113  1  0  0  0
 42114  1  0  0  0
 43 44  1  0  0  0
 44115  1  0  0  0
 45 46  2  0  0  0
 45116  1  0  0  0
 46117  1  0  0  0
 47118  1  0  0  0
 47119  1  0  0  0
 48 56  1  0  0  0
 48 65  1  0  0  0
 48120  1  0  0  0
 49 50  1  0  0  0
 49 53  1  0  0  0
 49 64  1  0  0  0
 49121  1  0  0  0
 50 51  1  0  0  0
 50122  1  0  0  0
 50123  1  0  0  0
 51 52  1  0  0  0
 51124  1  0  0  0
 51125  1  0  0  0
 52126  1  0  0  0
 52127  1  0  0  0
 53 54  1  0  0  0
 54 55  2  0  0  0
 54128  1  0  0  0
 55 57  1  0  0  0
 55129  1  0  0  0
 56 69  2  0  0  0
 57 58  2  0  0  0
 57130  1  0  0  0
 58131  1  0  0  0
 59 60  1  0  0  0
 59 61  1  0  0  0
 59 62  1  0  0  0
 60132  1  0  0  0
 60133  1  0  0  0
 60134  1  0  0  0
 61135  1  0  0  0
 61136  1  0  0  0
 61137  1  0  0  0
 62138  1  0  0  0
 62139  1  0  0  0
 62140  1  0  0  0
 63 65  1  0  0  0
 63141  1  0  0  0
 63142  1  0  0  0
 63143  1  0  0  0
 64144  1  0  0  0
 65145  1  0  0  0
 68 81  1  0  0  0
 71 72  2  0  0  0
 71 74  1  0  0  0
 71146  1  0  0  0
 72 75  1  0  0  0
 72147  1  0  0  0
 73 74  2  0  0  0
 73 76  1  0  0  0
 73148  1  0  0  0
 74 83  1  0  0  0
 75 76  2  0  0  0
 75 85  1  0  0  0
 76 84  1  0  0  0
 77 78  1  0  0  0
 77 79  1  0  0  0
 77 80  2  0  0  0
 78 81  2  0  0  0
 78 82  1  0  0  0
 79 83  1  0  0  0
 79 86  2  0  0  0
 80149  1  0  0  0
 80150  1  0  0  0
 81151  1  0  0  0
 82 83  1  0  0  0
 82152  1  0  0  0
 82153  1  0  0  0
 84154  1  0  0  0
 84155  1  0  0  0
 85156  1  0  0  0
M  ISO  4   1 100  68 101  81 101  85 100
M  END
> <chiral flag>
0

> <version>
0

> <s_m_source_file>
/data/baiqing/PycharmProjects/Reinvent-master-3.2/result/LINK_invent/BTK/process_docking_weight1_custom_product_contain_oxygen_bond_distance_aromatic_linkinvent_7_9_3/rearranged_h_0078.sdf

> <i_m_source_file_index>
51

> <r_mmod_Potential_Energy-OPLS-2005>
234.047180175781

> <r_mmod_Stretch_Energy-OPLS-2005>
105.341751098633

> <r_mmod_Bend_Energy-OPLS-2005>
237.727233886719

> <r_mmod_Torsional_Energy-OPLS-2005>
317.455230712891

> <r_mmod_Improper_Torsional_Energy-OPLS-2005>
13.8107852935791

> <r_mmod_Van_der_Waal_Energy-OPLS-2005>
148.635070800781

> <r_mmod_Electrostatic_Energy-OPLS-2005>
-462.978332519531

> <r_mmod_Solvation_Energy-OPLS-2005>
-213.90998840332

> <b_mmod_Minimization_Converged-OPLS-2005>
0

> <r_mmod_RMS_Derivative-OPLS-2005>
1.16420388221741

$$$$
52
                    3D
 Structure written by MMmdl.
157166  0  0  1  0            999 V2000
  -30.6149  -14.7495   20.5447 C   0  0  0  0  0  0
  -30.4299  -12.4771   19.4777 C   0  0  0  0  0  0
  -29.5112  -12.5404   18.2371 C   0  0  0  0  0  0
  -28.0379  -12.3427   18.6419 C   0  0  0  0  0  0
  -27.6401  -13.2293   19.8496 C   0  0  2  0  0  0
  -28.6734  -13.1282   20.9866 C   0  0  0  0  0  0
  -25.2501  -13.8190   20.5670 C   0  0  0  0  0  0
  -24.1792  -13.0440   20.9189 C   0  0  0  0  0  0
  -24.6380  -11.6914   20.8724 C   0  0  0  0  0  0
  -23.9058  -10.4298   21.0398 C   0  0  0  0  0  0
  -24.3619   -9.4214   21.9171 C   0  0  0  0  0  0
  -23.6298   -8.2251   22.0743 C   0  0  0  0  0  0
  -22.4273   -8.0290   21.3542 C   0  0  0  0  0  0
  -21.9907   -9.0258   20.4640 C   0  0  0  0  0  0
  -22.7232  -10.2136   20.3047 C   0  0  0  0  0  0
  -21.6857   -6.0744   22.5287 C   0  0  0  0  0  0
  -21.4013   -6.5641   23.8222 C   0  0  0  0  0  0
  -21.3659   -5.6788   24.9179 C   0  0  0  0  0  0
  -21.6047   -4.3054   24.7225 C   0  0  0  0  0  0
  -21.8815   -3.8153   23.4346 C   0  0  0  0  0  0
  -21.9195   -4.6973   22.3402 C   0  0  0  0  0  0
  -22.7816  -13.5226   21.1875 C   0  0  0  0  0  0
  -22.1661   -4.2155   21.0977 F   0  0  0  0  0  0
  -21.5630   -3.4537   25.7740 F   0  0  0  0  0  0
  -29.9839  -13.5190   20.4386 N   0  0  0  0  0  0
  -26.2911  -12.9387   20.3224 N   0  0  0  0  0  0
  -25.9303  -11.6532   20.5705 N   0  0  0  0  0  0
  -22.0475  -12.8211   22.0434 N   0  0  0  0  0  0
  -25.4210  -15.1917   20.4114 N   0  0  0  0  0  0
  -31.7324  -14.8943   20.0366 O   0  0  0  0  0  0
  -21.6643   -6.8885   21.4244 O   0  0  0  0  0  0
  -22.3499  -14.5534   20.6732 O   0  0  0  0  0  0
  -24.6335  -31.8545   23.1966 C   0  0  0  0  0  0
  -25.9156  -32.4748   23.8321 C   0  0  1  0  0  0
  -27.2212  -27.2501   20.1115 C   0  0  0  0  0  0
  -25.5948  -33.8556   24.2243 N   0  0  0  0  0  0
  -23.4316  -30.4782   21.5388 C   0  0  2  0  0  0
  -24.8809  -28.9270   20.1038 C   0  0  0  0  0  0
  -22.7514  -29.4619   22.4880 C   0  0  0  0  0  0
  -18.0297  -28.1411   22.8480 C   0  0  0  0  0  0
  -24.1495  -36.7269   23.2639 C   0  0  0  0  0  0
  -25.9809  -30.7604   21.3829 C   0  0  0  0  0  0
  -26.0541  -29.3841   20.7186 C   0  0  0  0  0  0
  -27.2260  -28.5556   20.7168 C   0  0  0  0  0  0
  -26.0186  -26.8630   19.4779 C   0  0  0  0  0  0
  -24.8692  -27.6750   19.4729 C   0  0  0  0  0  0
  -23.6520  -29.8145   20.1543 C   0  0  0  0  0  0
  -25.4127  -36.3063   24.0318 C   0  0  1  0  0  0
  -20.5904  -28.3736   23.1257 C   0  0  2  0  0  0
  -20.6782  -26.9445   22.5433 C   0  0  0  0  0  0
  -19.5774  -26.6400   21.5222 C   0  0  0  0  0  0
  -18.1937  -26.7962   22.1601 C   0  0  0  0  0  0
  -19.1551  -28.8887   23.2869 C   0  0  0  0  0  0
  -18.9474  -30.1477   23.8915 C   0  0  0  0  0  0
  -17.6473  -30.6607   24.0579 C   0  0  0  0  0  0
  -25.9068  -34.9437   23.5079 C   0  0  0  0  0  0
  -16.5363  -29.9114   23.6334 C   0  0  0  0  0  0
  -16.7283  -28.6526   23.0362 C   0  0  0  0  0  0
  -26.4505  -31.6581   25.0724 C   0  0  0  0  0  0
  -25.3701  -31.3757   26.1423 C   0  0  0  0  0  0
  -27.0331  -30.2972   24.6257 C   0  0  0  0  0  0
  -27.6070  -32.4319   25.7477 C   0  0  0  0  0  0
  -27.5586  -37.1789   24.8458 C   0  0  0  0  0  0
  -21.4219  -29.3064   22.3618 N   0  0  0  0  0  0
  -26.4296  -37.3767   23.9403 N   0  0  0  0  0  0
  -24.7008  -31.0488   22.0958 N   0  0  0  0  0  0
  -23.4195  -28.8170   23.3002 O   0  0  0  0  0  0
  -28.2749  -26.3025   20.2044 O   0  0  0  0  0  0
  -26.5650  -34.8915   22.4653 O   0  0  0  0  0  0
  -23.5478  -32.1381   23.7245 O   0  0  0  0  0  0
  -29.2943  -19.6869   21.3342 C   0  0  0  0  0  0
  -29.5899  -19.0787   19.0586 C   0  0  0  0  0  0
  -29.5155  -18.3104   21.6957 C   0  0  0  0  0  0
  -29.8163  -17.7041   19.4213 C   0  0  0  0  0  0
  -29.3181  -20.1453   19.9871 C   0  0  0  0  0  0
  -29.7958  -17.2446   20.7679 C   0  0  0  0  0  0
  -28.6484  -23.9075   19.1650 C   0  0  0  0  0  0
  -28.7525  -23.2286   17.8907 C   0  0  0  0  0  0
  -28.8477  -22.7938   20.1692 C   0  0  0  0  0  0
  -28.5795  -23.7607   16.6641 C   0  0  0  0  0  0
  -28.4094  -25.2920   19.2188 C   0  0  0  0  0  0
  -29.0696  -21.7793   18.0771 C   0  0  0  0  0  0
  -29.9003  -15.6010   22.6655 C   0  0  0  0  0  0
  -29.0783  -21.5626   19.5222 N   0  0  0  0  0  0
  -29.9904  -15.8132   21.2101 N   0  0  0  0  0  0
  -28.8104  -22.9245   21.3972 O   0  0  0  0  0  0
  -31.4714  -12.6070   19.1795 H   0  0  0  0  0  0
  -30.3801  -11.4901   19.9406 H   0  0  0  0  0  0
  -29.8061  -11.7867   17.5061 H   0  0  0  0  0  0
  -29.6289  -13.5081   17.7454 H   0  0  0  0  0  0
  -27.9022  -11.2902   18.8946 H   0  0  0  0  0  0
  -27.3794  -12.5371   17.7943 H   0  0  0  0  0  0
  -27.6459  -14.2595   19.4919 H   0  0  0  0  0  0
  -28.7132  -12.1118   21.3805 H   0  0  0  0  0  0
  -28.3510  -13.7528   21.8158 H   0  0  0  0  0  0
  -25.2764   -9.5699   22.4740 H   0  0  0  0  0  0
  -24.0019   -7.4642   22.7458 H   0  0  0  0  0  0
  -21.0842   -8.8771   19.8949 H   0  0  0  0  0  0
  -22.3683  -10.9674   19.6161 H   0  0  0  0  0  0
  -21.1994   -7.6147   23.9726 H   0  0  0  0  0  0
  -21.1483   -6.0515   25.9081 H   0  0  0  0  0  0
  -22.0587   -2.7615   23.2845 H   0  0  0  0  0  0
  -22.4117  -11.9882   22.4821 H   0  0  0  0  0  0
  -21.1088  -13.1214   22.2649 H   0  0  0  0  0  0
  -24.6562  -15.8472   20.5304 H   0  0  0  0  0  0
  -26.2809  -15.6342   20.1119 H   0  0  0  0  0  0
  -26.7226  -32.5390   23.1065 H   0  0  0  0  0  0
  -25.0085  -33.9694   25.0380 H   0  0  0  0  0  0
  -22.7291  -31.3015   21.3915 H   0  0  0  0  0  0
  -23.3767  -35.9591   23.3305 H   0  0  0  0  0  0
  -24.3564  -36.8895   22.2049 H   0  0  0  0  0  0
  -23.7241  -37.6462   23.6673 H   0  0  0  0  0  0
  -26.1267  -31.5227   20.6162 H   0  0  0  0  0  0
  -26.8546  -30.8029   22.0219 H   0  0  0  0  0  0
  -28.1205  -28.8930   21.2212 H   0  0  0  0  0  0
  -25.9346  -25.8909   19.0145 H   0  0  0  0  0  0
  -23.9682  -27.3150   18.9943 H   0  0  0  0  0  0
  -23.7793  -30.5923   19.4003 H   0  0  0  0  0  0
  -22.7702  -29.2503   19.8455 H   0  0  0  0  0  0
  -25.1312  -36.1905   25.0811 H   0  0  0  0  0  0
  -21.0000  -28.3356   24.1379 H   0  0  0  0  0  0
  -20.5659  -26.2365   23.3654 H   0  0  0  0  0  0
  -21.6653  -26.7450   22.1263 H   0  0  0  0  0  0
  -19.6939  -25.6305   21.1265 H   0  0  0  0  0  0
  -19.6737  -27.3203   20.6745 H   0  0  0  0  0  0
  -17.4231  -26.6763   21.3974 H   0  0  0  0  0  0
  -18.0295  -26.0092   22.8973 H   0  0  0  0  0  0
  -19.7945  -30.7280   24.2311 H   0  0  0  0  0  0
  -17.5028  -31.6280   24.5193 H   0  0  0  0  0  0
  -15.5366  -30.3028   23.7639 H   0  0  0  0  0  0
  -15.8681  -28.0839   22.7091 H   0  0  0  0  0  0
  -24.6039  -30.6882   25.7811 H   0  0  0  0  0  0
  -24.8678  -32.2902   26.4594 H   0  0  0  0  0  0
  -25.8027  -30.9213   27.0343 H   0  0  0  0  0  0
  -26.2917  -29.6725   24.1253 H   0  0  0  0  0  0
  -27.3928  -29.7241   25.4810 H   0  0  0  0  0  0
  -27.8843  -30.4189   23.9552 H   0  0  0  0  0  0
  -27.2711  -33.3656   26.2004 H   0  0  0  0  0  0
  -28.3898  -32.6814   25.0301 H   0  0  0  0  0  0
  -28.0720  -31.8470   26.5424 H   0  0  0  0  0  0
  -28.2622  -38.0069   24.7481 H   0  0  0  0  0  0
  -28.1068  -36.2596   24.6315 H   0  0  0  0  0  0
  -27.2305  -37.1485   25.8865 H   0  0  0  0  0  0
  -20.9410  -29.8757   21.6789 H   0  0  0  0  0  0
  -26.0173  -38.2838   24.1422 H   0  0  0  0  0  0
  -29.0938  -20.3944   22.1268 H   0  0  0  0  0  0
  -29.6322  -19.2900   18.0002 H   0  0  0  0  0  0
  -29.4570  -18.0984   22.7519 H   0  0  0  0  0  0
  -30.0019  -16.9956   18.6271 H   0  0  0  0  0  0
  -28.3352  -24.7955   16.4832 H   0  0  0  0  0  0
  -28.6794  -23.1392   15.7853 H   0  0  0  0  0  0
  -28.3207  -25.8061   18.2762 H   0  0  0  0  0  0
  -30.0468  -21.5591   17.6461 H   0  0  0  0  0  0
  -28.3104  -21.1635   17.5930 H   0  0  0  0  0  0
  -28.9046  -15.8639   23.0256 H   0  0  0  0  0  0
  -30.6316  -16.2209   23.1851 H   0  0  0  0  0  0
  -30.0973  -14.5767   22.9889 H   0  0  0  0  0  0
  1 25  1  0  0  0
  1 30  2  0  0  0
  1 85  1  0  0  0
  2  3  1  0  0  0
  2 25  1  0  0  0
  2 87  1  0  0  0
  2 88  1  0  0  0
  3  4  1  0  0  0
  3 89  1  0  0  0
  3 90  1  0  0  0
  4  5  1  0  0  0
  4 91  1  0  0  0
  4 92  1  0  0  0
  5  6  1  0  0  0
  5 26  1  0  0  0
  5 93  1  0  0  0
  6 25  1  0  0  0
  6 94  1  0  0  0
  6 95  1  0  0  0
  7  8  2  0  0  0
  7 26  1  0  0  0
  7 29  1  0  0  0
  8  9  1  0  0  0
  8 22  1  0  0  0
  9 10  1  0  0  0
  9 27  2  0  0  0
 10 11  2  0  0  0
 10 15  1  0  0  0
 11 12  1  0  0  0
 11 96  1  0  0  0
 12 13  2  0  0  0
 12 97  1  0  0  0
 13 14  1  0  0  0
 13 31  1  0  0  0
 14 15  2  0  0  0
 14 98  1  0  0  0
 15 99  1  0  0  0
 16 17  2  0  0  0
 16 21  1  0  0  0
 16 31  1  0  0  0
 17 18  1  0  0  0
 17100  1  0  0  0
 18 19  2  0  0  0
 18101  1  0  0  0
 19 20  1  0  0  0
 19 24  1  0  0  0
 20 21  2  0  0  0
 20102  1  0  0  0
 21 23  1  0  0  0
 22 28  1  0  0  0
 22 32  2  0  0  0
 26 27  1  0  0  0
 28103  1  0  0  0
 28104  1  0  0  0
 29105  1  0  0  0
 29106  1  0  0  0
 33 34  1  0  0  0
 33 66  1  0  0  0
 33 70  2  0  0  0
 34 36  1  0  0  0
 34 59  1  0  0  0
 34107  1  0  0  0
 35 44  2  0  0  0
 35 45  1  0  0  0
 35 68  1  0  0  0
 36 56  1  0  0  0
 36108  1  0  0  0
 37 39  1  0  0  0
 37 47  1  0  0  0
 37 66  1  0  0  0
 37109  1  0  0  0
 38 43  2  0  0  0
 38 46  1  0  0  0
 38 47  1  0  0  0
 39 64  1  0  0  0
 39 67  2  0  0  0
 40 52  1  0  0  0
 40 53  2  0  0  0
 40 58  1  0  0  0
 41110  1  0  0  0
 41111  1  0  0  0
 41112  1  0  0  0
 41 48  1  0  0  0
 42 43  1  0  0  0
 42 66  1  0  0  0
 42113  1  0  0  0
 42114  1  0  0  0
 43 44  1  0  0  0
 44115  1  0  0  0
 45 46  2  0  0  0
 45116  1  0  0  0
 46117  1  0  0  0
 47118  1  0  0  0
 47119  1  0  0  0
 48 56  1  0  0  0
 48 65  1  0  0  0
 48120  1  0  0  0
 49 50  1  0  0  0
 49 53  1  0  0  0
 49 64  1  0  0  0
 49121  1  0  0  0
 50 51  1  0  0  0
 50122  1  0  0  0
 50123  1  0  0  0
 51 52  1  0  0  0
 51124  1  0  0  0
 51125  1  0  0  0
 52126  1  0  0  0
 52127  1  0  0  0
 53 54  1  0  0  0
 54 55  2  0  0  0
 54128  1  0  0  0
 55 57  1  0  0  0
 55129  1  0  0  0
 56 69  2  0  0  0
 57 58  2  0  0  0
 57130  1  0  0  0
 58131  1  0  0  0
 59 60  1  0  0  0
 59 61  1  0  0  0
 59 62  1  0  0  0
 60132  1  0  0  0
 60133  1  0  0  0
 60134  1  0  0  0
 61135  1  0  0  0
 61136  1  0  0  0
 61137  1  0  0  0
 62138  1  0  0  0
 62139  1  0  0  0
 62140  1  0  0  0
 63 65  1  0  0  0
 63141  1  0  0  0
 63142  1  0  0  0
 63143  1  0  0  0
 64144  1  0  0  0
 65145  1  0  0  0
 68 81  1  0  0  0
 71 73  2  0  0  0
 71 75  1  0  0  0
 71146  1  0  0  0
 72 74  1  0  0  0
 72 75  2  0  0  0
 72147  1  0  0  0
 73 76  1  0  0  0
 73148  1  0  0  0
 74 76  2  0  0  0
 74149  1  0  0  0
 75 84  1  0  0  0
 76 85  1  0  0  0
 77 78  1  0  0  0
 77 79  1  0  0  0
 77 81  2  0  0  0
 78 80  2  0  0  0
 78 82  1  0  0  0
 79 84  1  0  0  0
 79 86  2  0  0  0
 80150  1  0  0  0
 80151  1  0  0  0
 81152  1  0  0  0
 82 84  1  0  0  0
 82153  1  0  0  0
 82154  1  0  0  0
 83 85  1  0  0  0
 83155  1  0  0  0
 83156  1  0  0  0
 83157  1  0  0  0
M  ISO  4   1 100  68 101  81 101  85 100
M  END
> <chiral flag>
0

> <version>
0

> <s_m_source_file>
/data/baiqing/PycharmProjects/Reinvent-master-3.2/result/LINK_invent/BTK/process_docking_weight1_custom_product_contain_oxygen_bond_distance_aromatic_linkinvent_7_9_3/rearranged_h_0078.sdf

> <i_m_source_file_index>
52

> <r_mmod_Potential_Energy-OPLS-2005>
540.200317382812

> <r_mmod_Stretch_Energy-OPLS-2005>
142.81982421875

> <r_mmod_Bend_Energy-OPLS-2005>
273.100830078125

> <r_mmod_Torsional_Energy-OPLS-2005>
309.138122558594

> <r_mmod_Improper_Torsional_Energy-OPLS-2005>
3.11979627609253

> <r_mmod_Van_der_Waal_Energy-OPLS-2005>
157.832275390625

> <r_mmod_Electrostatic_Energy-OPLS-2005>
-233.877426147461

> <r_mmod_Solvation_Energy-OPLS-2005>
-204.976364135742

> <b_mmod_Minimization_Converged-OPLS-2005>
0

> <r_mmod_RMS_Derivative-OPLS-2005>
1.48940145969391

$$$$
53
                    3D
 Structure written by MMmdl.
158166  0  0  1  0            999 V2000
  -30.6939  -14.5166   20.5397 C   0  0  0  0  0  0
  -30.4230  -12.3206   19.4351 C   0  0  0  0  0  0
  -29.5018  -12.5124   18.2114 C   0  0  0  0  0  0
  -28.0219  -12.3708   18.6182 C   0  0  0  0  0  0
  -27.6622  -13.2126   19.8728 C   0  0  2  0  0  0
  -28.7058  -13.0187   20.9965 C   0  0  0  0  0  0
  -25.2601  -13.8160   20.5674 C   0  0  0  0  0  0
  -24.1849  -13.0433   20.9164 C   0  0  0  0  0  0
  -24.6398  -11.6901   20.8695 C   0  0  0  0  0  0
  -23.9055  -10.4286   21.0362 C   0  0  0  0  0  0
  -24.3601   -9.4211   21.9160 C   0  0  0  0  0  0
  -23.6281   -8.2236   22.0741 C   0  0  0  0  0  0
  -22.4266   -8.0260   21.3532 C   0  0  0  0  0  0
  -21.9890   -9.0226   20.4632 C   0  0  0  0  0  0
  -22.7216  -10.2110   20.3027 C   0  0  0  0  0  0
  -21.6848   -6.0721   22.5279 C   0  0  0  0  0  0
  -21.4011   -6.5633   23.8210 C   0  0  0  0  0  0
  -21.3663   -5.6785   24.9174 C   0  0  0  0  0  0
  -21.6043   -4.3045   24.7224 C   0  0  0  0  0  0
  -21.8824   -3.8131   23.4349 C   0  0  0  0  0  0
  -21.9196   -4.6945   22.3409 C   0  0  0  0  0  0
  -22.7875  -13.5229   21.1836 C   0  0  0  0  0  0
  -22.1668   -4.2130   21.0979 F   0  0  0  0  0  0
  -21.5632   -3.4531   25.7736 F   0  0  0  0  0  0
  -30.0344  -13.3251   20.4400 N   0  0  0  0  0  0
  -26.3032  -12.9346   20.3344 N   0  0  0  0  0  0
  -25.9335  -11.6499   20.5739 N   0  0  0  0  0  0
  -22.0504  -12.8207   22.0379 N   0  0  0  0  0  0
  -25.4353  -15.1875   20.4090 N   0  0  0  0  0  0
  -31.8372  -14.6668   20.1025 O   0  0  0  0  0  0
  -21.6639   -6.8851   21.4227 O   0  0  0  0  0  0
  -22.3567  -14.5538   20.6702 O   0  0  0  0  0  0
  -24.6177  -31.8637   23.2054 C   0  0  0  0  0  0
  -25.9060  -32.4789   23.8374 C   0  0  1  0  0  0
  -27.2433  -27.4085   20.1056 C   0  0  0  0  0  0
  -25.5899  -33.8588   24.2302 N   0  0  0  0  0  0
  -23.4072  -30.4831   21.5478 C   0  0  2  0  0  0
  -24.8584  -28.9436   20.1124 C   0  0  0  0  0  0
  -22.7431  -29.4632   22.5014 C   0  0  0  0  0  0
  -18.0258  -28.1373   22.8497 C   0  0  0  0  0  0
  -24.1483  -36.7305   23.2644 C   0  0  0  0  0  0
  -25.9384  -30.8218   21.3624 C   0  0  0  0  0  0
  -26.0198  -29.4541   20.7092 C   0  0  0  0  0  0
  -27.2175  -28.6944   20.7027 C   0  0  0  0  0  0
  -26.0684  -26.9209   19.4981 C   0  0  0  0  0  0
  -24.8793  -27.6785   19.4996 C   0  0  0  0  0  0
  -23.6139  -29.8034   20.1673 C   0  0  0  0  0  0
  -25.4101  -36.3095   24.0349 C   0  0  1  0  0  0
  -20.5849  -28.3658   23.1321 C   0  0  2  0  0  0
  -20.6730  -26.9393   22.5423 C   0  0  0  0  0  0
  -19.5724  -26.6375   21.5212 C   0  0  0  0  0  0
  -18.1899  -26.7936   22.1605 C   0  0  0  0  0  0
  -19.1507  -28.8837   23.2899 C   0  0  0  0  0  0
  -18.9434  -30.1455   23.8898 C   0  0  0  0  0  0
  -17.6431  -30.6592   24.0552 C   0  0  0  0  0  0
  -25.9034  -34.9457   23.5125 C   0  0  0  0  0  0
  -16.5322  -29.9077   23.6349 C   0  0  0  0  0  0
  -16.7242  -28.6487   23.0381 C   0  0  0  0  0  0
  -26.4467  -31.6605   25.0732 C   0  0  0  0  0  0
  -25.3713  -31.3719   26.1467 C   0  0  0  0  0  0
  -27.0322  -30.3046   24.6173 C   0  0  0  0  0  0
  -27.6042  -32.4343   25.7477 C   0  0  0  0  0  0
  -27.5584  -37.1798   24.8458 C   0  0  0  0  0  0
  -21.4156  -29.3023   22.3748 N   0  0  0  0  0  0
  -26.4287  -37.3788   23.9419 N   0  0  0  0  0  0
  -24.6724  -31.0717   22.0960 N   0  0  0  0  0  0
  -23.4190  -28.8209   23.3083 O   0  0  0  0  0  0
  -28.3609  -26.5921   20.1236 O   0  0  0  0  0  0
  -26.5608  -34.8920   22.4695 O   0  0  0  0  0  0
  -23.5359  -32.1392   23.7449 O   0  0  0  0  0  0
  -31.5305  -19.0103   20.6262 C   0  0  0  0  0  0
  -29.1638  -19.2453   21.0598 C   0  0  0  0  0  0
  -31.4124  -17.5994   20.6797 C   0  0  0  0  0  0
  -29.0441  -17.8330   21.1160 C   0  0  0  0  0  0
  -30.4125  -19.8628   20.8086 C   0  0  0  0  0  0
  -30.1603  -16.9792   20.9216 C   0  0  0  0  0  0
  -28.4555  -25.7557   21.2191 C   0  0  0  0  0  0
  -30.5956  -21.3765   20.7964 C   0  0  0  0  0  0
  -28.9717  -24.4956   21.3074 C   0  0  0  0  0  0
  -28.9724  -23.8300   22.6758 C   0  0  0  0  0  0
  -28.9546  -23.8842   18.7972 C   0  0  0  0  0  0
  -29.5793  -23.6259   20.1752 C   0  0  2  0  0  0
  -29.9521  -15.5524   21.0063 N   0  0  0  0  0  0
  -29.5537  -22.1567   20.4318 N   0  0  0  0  0  0
  -31.7023  -21.8525   21.0573 O   0  0  0  0  0  0
  -31.4708  -12.4053   19.1410 H   0  0  0  0  0  0
  -30.3104  -11.3144   19.8422 H   0  0  0  0  0  0
  -29.7457  -11.7878   17.4331 H   0  0  0  0  0  0
  -29.6705  -13.4981   17.7745 H   0  0  0  0  0  0
  -27.8296  -11.3151   18.8135 H   0  0  0  0  0  0
  -27.3746  -12.6460   17.7851 H   0  0  0  0  0  0
  -27.6983  -14.2580   19.5663 H   0  0  0  0  0  0
  -28.6865  -11.9893   21.3587 H   0  0  0  0  0  0
  -28.4661  -13.6366   21.8630 H   0  0  0  0  0  0
  -25.2741   -9.5708   22.4746 H   0  0  0  0  0  0
  -23.9992   -7.4634   22.7471 H   0  0  0  0  0  0
  -21.0819   -8.8733   19.8948 H   0  0  0  0  0  0
  -22.3652  -10.9634   19.6128 H   0  0  0  0  0  0
  -21.2001   -7.6138   23.9703 H   0  0  0  0  0  0
  -21.1483   -6.0518   25.9080 H   0  0  0  0  0  0
  -22.0597   -2.7591   23.2848 H   0  0  0  0  0  0
  -22.4106  -11.9845   22.4736 H   0  0  0  0  0  0
  -21.1128  -13.1248   22.2596 H   0  0  0  0  0  0
  -24.6709  -15.8455   20.5156 H   0  0  0  0  0  0
  -26.2892  -15.6184   20.0783 H   0  0  0  0  0  0
  -26.7145  -32.5495   23.1152 H   0  0  0  0  0  0
  -25.0097  -33.9735   25.0482 H   0  0  0  0  0  0
  -22.6962  -31.3005   21.4044 H   0  0  0  0  0  0
  -23.3750  -35.9632   23.3277 H   0  0  0  0  0  0
  -24.3587  -36.8940   22.2065 H   0  0  0  0  0  0
  -23.7208  -37.6490   23.6672 H   0  0  0  0  0  0
  -26.0548  -31.5875   20.5936 H   0  0  0  0  0  0
  -26.8228  -30.8743   21.9865 H   0  0  0  0  0  0
  -28.1132  -29.0789   21.1689 H   0  0  0  0  0  0
  -26.0741  -25.9400   19.0400 H   0  0  0  0  0  0
  -23.9886  -27.2759   19.0361 H   0  0  0  0  0  0
  -23.7002  -30.5666   19.3946 H   0  0  0  0  0  0
  -22.7413  -29.2086   19.8899 H   0  0  0  0  0  0
  -25.1281  -36.1951   25.0845 H   0  0  0  0  0  0
  -20.9935  -28.3196   24.1445 H   0  0  0  0  0  0
  -20.5605  -26.2274   23.3613 H   0  0  0  0  0  0
  -21.6595  -26.7426   22.1223 H   0  0  0  0  0  0
  -19.6869  -25.6278   21.1256 H   0  0  0  0  0  0
  -19.6681  -27.3181   20.6741 H   0  0  0  0  0  0
  -17.4190  -26.6727   21.3976 H   0  0  0  0  0  0
  -18.0271  -26.0056   22.8973 H   0  0  0  0  0  0
  -19.7908  -30.7268   24.2258 H   0  0  0  0  0  0
  -17.4985  -31.6272   24.5142 H   0  0  0  0  0  0
  -15.5321  -30.2966   23.7684 H   0  0  0  0  0  0
  -15.8634  -28.0789   22.7131 H   0  0  0  0  0  0
  -24.5910  -30.7047   25.7793 H   0  0  0  0  0  0
  -24.8876  -32.2875   26.4893 H   0  0  0  0  0  0
  -25.8046  -30.8904   27.0248 H   0  0  0  0  0  0
  -26.2904  -29.6783   24.1211 H   0  0  0  0  0  0
  -27.4043  -29.7318   25.4683 H   0  0  0  0  0  0
  -27.8755  -30.4344   23.9382 H   0  0  0  0  0  0
  -27.2667  -33.3655   26.2050 H   0  0  0  0  0  0
  -28.3829  -32.6889   25.0275 H   0  0  0  0  0  0
  -28.0745  -31.8482   26.5383 H   0  0  0  0  0  0
  -28.2579  -38.0118   24.7541 H   0  0  0  0  0  0
  -28.1095  -36.2652   24.6227 H   0  0  0  0  0  0
  -27.2322  -37.1375   25.8864 H   0  0  0  0  0  0
  -20.9355  -29.8714   21.6921 H   0  0  0  0  0  0
  -26.0172  -38.2868   24.1411 H   0  0  0  0  0  0
  -32.5061  -19.4435   20.4511 H   0  0  0  0  0  0
  -28.2860  -19.8520   21.2278 H   0  0  0  0  0  0
  -32.3098  -17.0139   20.5439 H   0  0  0  0  0  0
  -28.0703  -17.4084   21.3158 H   0  0  0  0  0  0
  -28.0575  -26.2420   22.1014 H   0  0  0  0  0  0
  -28.6238  -24.5066   23.4580 H   0  0  0  0  0  0
  -29.9807  -23.5150   22.9480 H   0  0  0  0  0  0
  -28.3196  -22.9567   22.6851 H   0  0  0  0  0  0
  -29.0998  -24.9138   18.4706 H   0  0  0  0  0  0
  -27.8841  -23.6750   18.8009 H   0  0  0  0  0  0
  -29.4142  -23.2466   18.0410 H   0  0  0  0  0  0
  -30.6234  -23.9362   20.1092 H   0  0  0  0  0  0
  -29.0350  -15.2719   21.3133 H   0  0  0  0  0  0
  -28.6944  -21.6730   20.2183 H   0  0  0  0  0  0
  1 25  1  0  0  0
  1 30  2  0  0  0
  1 83  1  0  0  0
  2  3  1  0  0  0
  2 25  1  0  0  0
  2 86  1  0  0  0
  2 87  1  0  0  0
  3  4  1  0  0  0
  3 88  1  0  0  0
  3 89  1  0  0  0
  4  5  1  0  0  0
  4 90  1  0  0  0
  4 91  1  0  0  0
  5  6  1  0  0  0
  5 26  1  0  0  0
  5 92  1  0  0  0
  6 25  1  0  0  0
  6 93  1  0  0  0
  6 94  1  0  0  0
  7  8  2  0  0  0
  7 26  1  0  0  0
  7 29  1  0  0  0
  8  9  1  0  0  0
  8 22  1  0  0  0
  9 10  1  0  0  0
  9 27  2  0  0  0
 10 11  2  0  0  0
 10 15  1  0  0  0
 11 12  1  0  0  0
 11 95  1  0  0  0
 12 13  2  0  0  0
 12 96  1  0  0  0
 13 14  1  0  0  0
 13 31  1  0  0  0
 14 15  2  0  0  0
 14 97  1  0  0  0
 15 98  1  0  0  0
 16 17  2  0  0  0
 16 21  1  0  0  0
 16 31  1  0  0  0
 17 18  1  0  0  0
 17 99  1  0  0  0
 18 19  2  0  0  0
 18100  1  0  0  0
 19 20  1  0  0  0
 19 24  1  0  0  0
 20 21  2  0  0  0
 20101  1  0  0  0
 21 23  1  0  0  0
 22 28  1  0  0  0
 22 32  2  0  0  0
 26 27  1  0  0  0
 28102  1  0  0  0
 28103  1  0  0  0
 29104  1  0  0  0
 29105  1  0  0  0
 33 34  1  0  0  0
 33 66  1  0  0  0
 33 70  2  0  0  0
 34 36  1  0  0  0
 34 59  1  0  0  0
 34106  1  0  0  0
 35 44  2  0  0  0
 35 45  1  0  0  0
 35 68  1  0  0  0
 36 56  1  0  0  0
 36107  1  0  0  0
 37 39  1  0  0  0
 37 47  1  0  0  0
 37 66  1  0  0  0
 37108  1  0  0  0
 38 43  2  0  0  0
 38 46  1  0  0  0
 38 47  1  0  0  0
 39 64  1  0  0  0
 39 67  2  0  0  0
 40 52  1  0  0  0
 40 53  2  0  0  0
 40 58  1  0  0  0
 41109  1  0  0  0
 41110  1  0  0  0
 41111  1  0  0  0
 41 48  1  0  0  0
 42 43  1  0  0  0
 42 66  1  0  0  0
 42112  1  0  0  0
 42113  1  0  0  0
 43 44  1  0  0  0
 44114  1  0  0  0
 45 46  2  0  0  0
 45115  1  0  0  0
 46116  1  0  0  0
 47117  1  0  0  0
 47118  1  0  0  0
 48 56  1  0  0  0
 48 65  1  0  0  0
 48119  1  0  0  0
 49 50  1  0  0  0
 49 53  1  0  0  0
 49 64  1  0  0  0
 49120  1  0  0  0
 50 51  1  0  0  0
 50121  1  0  0  0
 50122  1  0  0  0
 51 52  1  0  0  0
 51123  1  0  0  0
 51124  1  0  0  0
 52125  1  0  0  0
 52126  1  0  0  0
 53 54  1  0  0  0
 54 55  2  0  0  0
 54127  1  0  0  0
 55 57  1  0  0  0
 55128  1  0  0  0
 56 69  2  0  0  0
 57 58  2  0  0  0
 57129  1  0  0  0
 58130  1  0  0  0
 59 60  1  0  0  0
 59 61  1  0  0  0
 59 62  1  0  0  0
 60131  1  0  0  0
 60132  1  0  0  0
 60133  1  0  0  0
 61134  1  0  0  0
 61135  1  0  0  0
 61136  1  0  0  0
 62137  1  0  0  0
 62138  1  0  0  0
 62139  1  0  0  0
 63 65  1  0  0  0
 63140  1  0  0  0
 63141  1  0  0  0
 63142  1  0  0  0
 64143  1  0  0  0
 65144  1  0  0  0
 68 77  1  0  0  0
 71 73  2  0  0  0
 71 75  1  0  0  0
 71145  1  0  0  0
 72 74  1  0  0  0
 72 75  2  0  0  0
 72146  1  0  0  0
 73 76  1  0  0  0
 73147  1  0  0  0
 74 76  2  0  0  0
 74148  1  0  0  0
 75 78  1  0  0  0
 76 83  1  0  0  0
 77 79  2  0  0  0
 77149  1  0  0  0
 78 84  1  0  0  0
 78 85  2  0  0  0
 79 80  1  0  0  0
 79 82  1  0  0  0
 80150  1  0  0  0
 80151  1  0  0  0
 80152  1  0  0  0
 81153  1  0  0  0
 81154  1  0  0  0
 81155  1  0  0  0
 81 82  1  0  0  0
 82 84  1  0  0  0
 82156  1  0  0  0
 83157  1  0  0  0
 84158  1  0  0  0
M  ISO  4   1 100  68 101  77 101  83 100
M  END
> <chiral flag>
0

> <version>
0

> <s_m_source_file>
/data/baiqing/PycharmProjects/Reinvent-master-3.2/result/LINK_invent/BTK/process_docking_weight1_custom_product_contain_oxygen_bond_distance_aromatic_linkinvent_7_9_3/rearranged_h_0078.sdf

> <i_m_source_file_index>
53

> <r_mmod_Potential_Energy-OPLS-2005>
-74.3631134033203

> <r_mmod_Stretch_Energy-OPLS-2005>
48.8970909118652

> <r_mmod_Bend_Energy-OPLS-2005>
118.689437866211

> <r_mmod_Torsional_Energy-OPLS-2005>
226.734924316406

> <r_mmod_Improper_Torsional_Energy-OPLS-2005>
4.3875846862793

> <r_mmod_Van_der_Waal_Energy-OPLS-2005>
151.83235168457

> <r_mmod_Electrostatic_Energy-OPLS-2005>
-426.149963378906

> <r_mmod_Solvation_Energy-OPLS-2005>
-218.260589599609

> <b_mmod_Minimization_Converged-OPLS-2005>
0

> <r_mmod_RMS_Derivative-OPLS-2005>
2.59779262542725

$$$$
54
                    3D
 Structure written by MMmdl.
151159  0  0  1  0            999 V2000
  -30.5940  -14.7982   20.4540 C   0  0  0  0  0  0
  -30.4353  -12.4928   19.4740 C   0  0  0  0  0  0
  -29.5122  -12.5187   18.2356 C   0  0  0  0  0  0
  -28.0394  -12.3321   18.6501 C   0  0  0  0  0  0
  -27.6381  -13.2365   19.8451 C   0  0  2  0  0  0
  -28.6839  -13.1926   20.9797 C   0  0  0  0  0  0
  -25.2492  -13.8201   20.5683 C   0  0  0  0  0  0
  -24.1793  -13.0438   20.9199 C   0  0  0  0  0  0
  -24.6396  -11.6917   20.8742 C   0  0  0  0  0  0
  -23.9069  -10.4289   21.0396 C   0  0  0  0  0  0
  -24.3618   -9.4208   21.9176 C   0  0  0  0  0  0
  -23.6294   -8.2244   22.0750 C   0  0  0  0  0  0
  -22.4274   -8.0279   21.3541 C   0  0  0  0  0  0
  -21.9909   -9.0254   20.4642 C   0  0  0  0  0  0
  -22.7238  -10.2133   20.3048 C   0  0  0  0  0  0
  -21.6858   -6.0730   22.5275 C   0  0  0  0  0  0
  -21.4021   -6.5635   23.8208 C   0  0  0  0  0  0
  -21.3661   -5.6788   24.9168 C   0  0  0  0  0  0
  -21.6039   -4.3051   24.7220 C   0  0  0  0  0  0
  -21.8821   -3.8142   23.4343 C   0  0  0  0  0  0
  -21.9198   -4.6956   22.3398 C   0  0  0  0  0  0
  -22.7811  -13.5219   21.1859 C   0  0  0  0  0  0
  -22.1660   -4.2145   21.0975 F   0  0  0  0  0  0
  -21.5628   -3.4532   25.7734 F   0  0  0  0  0  0
  -29.9768  -13.5640   20.3915 N   0  0  0  0  0  0
  -26.2924  -12.9418   20.3259 N   0  0  0  0  0  0
  -25.9327  -11.6556   20.5738 N   0  0  0  0  0  0
  -22.0456  -12.8215   22.0416 N   0  0  0  0  0  0
  -25.4159  -15.1926   20.4094 N   0  0  0  0  0  0
  -31.7903  -14.8870   20.1650 O   0  0  0  0  0  0
  -21.6641   -6.8873   21.4236 O   0  0  0  0  0  0
  -22.3496  -14.5526   20.6708 O   0  0  0  0  0  0
  -24.6387  -31.8525   23.1956 C   0  0  0  0  0  0
  -25.9188  -32.4734   23.8326 C   0  0  1  0  0  0
  -27.2150  -27.2156   20.1189 C   0  0  0  0  0  0
  -25.5966  -33.8534   24.2251 N   0  0  0  0  0  0
  -23.4369  -30.4765   21.5409 C   0  0  2  0  0  0
  -24.8821  -28.9229   20.1071 C   0  0  0  0  0  0
  -22.7540  -29.4597   22.4892 C   0  0  0  0  0  0
  -18.0297  -28.1391   22.8473 C   0  0  0  0  0  0
  -24.1497  -36.7262   23.2641 C   0  0  0  0  0  0
  -25.9896  -30.7494   21.3834 C   0  0  0  0  0  0
  -26.0606  -29.3703   20.7202 C   0  0  0  0  0  0
  -27.2283  -28.5295   20.7169 C   0  0  0  0  0  0
  -25.9997  -26.8472   19.4937 C   0  0  0  0  0  0
  -24.8598  -27.6704   19.4833 C   0  0  0  0  0  0
  -23.6571  -29.8162   20.1564 C   0  0  0  0  0  0
  -25.4121  -36.3050   24.0331 C   0  0  1  0  0  0
  -20.5908  -28.3717   23.1239 C   0  0  2  0  0  0
  -20.6788  -26.9430   22.5390 C   0  0  0  0  0  0
  -19.5761  -26.6386   21.5200 C   0  0  0  0  0  0
  -18.1945  -26.7931   22.1619 C   0  0  0  0  0  0
  -19.1554  -28.8869   23.2851 C   0  0  0  0  0  0
  -18.9469  -30.1466   23.8882 C   0  0  0  0  0  0
  -17.6467  -30.6594   24.0552 C   0  0  0  0  0  0
  -25.9066  -34.9425   23.5089 C   0  0  0  0  0  0
  -16.5359  -29.9084   23.6333 C   0  0  0  0  0  0
  -16.7279  -28.6500   23.0358 C   0  0  0  0  0  0
  -26.4533  -31.6565   25.0727 C   0  0  0  0  0  0
  -25.3738  -31.3721   26.1434 C   0  0  0  0  0  0
  -27.0385  -30.2973   24.6248 C   0  0  0  0  0  0
  -27.6088  -32.4305   25.7498 C   0  0  0  0  0  0
  -27.5579  -37.1792   24.8467 C   0  0  0  0  0  0
  -21.4240  -29.3059   22.3631 N   0  0  0  0  0  0
  -26.4290  -37.3755   23.9411 N   0  0  0  0  0  0
  -24.7081  -31.0448   22.0955 N   0  0  0  0  0  0
  -23.4211  -28.8138   23.3014 O   0  0  0  0  0  0
  -28.2663  -26.2490   20.2016 O   0  0  0  0  0  0
  -26.5629  -34.8909   22.4652 O   0  0  0  0  0  0
  -23.5521  -32.1367   23.7218 O   0  0  0  0  0  0
  -29.1004  -18.5799   20.8740 C   0  0  0  0  0  0
  -28.4775  -23.7044   19.4204 C   0  0  0  0  0  0
  -28.2387  -25.0897   19.3607 C   0  0  0  0  0  0
  -28.9425  -22.5834   20.3876 C   0  0  0  0  0  0
  -30.8892  -18.0332   19.4787 C   0  0  0  0  0  0
  -30.6626  -19.5809   19.5576 C   0  0  0  0  0  0
  -30.1948  -17.4422   20.7164 C   0  0  2  0  0  0
  -28.5355  -21.0418   20.0864 C   0  0  0  0  0  0
  -29.4376  -19.8070   20.3314 N   0  0  0  0  0  0
  -29.8196  -15.9422   20.6464 N   0  0  0  0  0  0
  -28.0250  -18.3405   21.4272 O   0  0  0  0  0  0
  -29.6099  -22.8273   21.3957 O   0  0  0  0  0  0
  -31.4745  -12.6284   19.1698 H   0  0  0  0  0  0
  -30.3927  -11.5212   19.9687 H   0  0  0  0  0  0
  -29.8050  -11.7422   17.5278 H   0  0  0  0  0  0
  -29.6275  -13.4689   17.7119 H   0  0  0  0  0  0
  -27.9021  -11.2845   18.9180 H   0  0  0  0  0  0
  -27.3812  -12.5151   17.7994 H   0  0  0  0  0  0
  -27.6245  -14.2533   19.4532 H   0  0  0  0  0  0
  -28.7344  -12.1988   21.4276 H   0  0  0  0  0  0
  -28.4105  -13.8776   21.7839 H   0  0  0  0  0  0
  -25.2757   -9.5696   22.4750 H   0  0  0  0  0  0
  -24.0004   -7.4640   22.7473 H   0  0  0  0  0  0
  -21.0838   -8.8773   19.8951 H   0  0  0  0  0  0
  -22.3687  -10.9671   19.6159 H   0  0  0  0  0  0
  -21.2017   -7.6143   23.9711 H   0  0  0  0  0  0
  -21.1478   -6.0514   25.9074 H   0  0  0  0  0  0
  -22.0600   -2.7603   23.2839 H   0  0  0  0  0  0
  -22.4083  -11.9893   22.4827 H   0  0  0  0  0  0
  -21.1072  -13.1245   22.2618 H   0  0  0  0  0  0
  -24.6468  -15.8439   20.5223 H   0  0  0  0  0  0
  -26.2620  -15.6377   20.0782 H   0  0  0  0  0  0
  -26.7258  -32.5361   23.1067 H   0  0  0  0  0  0
  -25.0146  -33.9663   25.0420 H   0  0  0  0  0  0
  -22.7363  -31.3014   21.3951 H   0  0  0  0  0  0
  -23.3762  -35.9590   23.3292 H   0  0  0  0  0  0
  -24.3597  -36.8888   22.2058 H   0  0  0  0  0  0
  -23.7255  -37.6463   23.6666 H   0  0  0  0  0  0
  -26.1397  -31.5094   20.6152 H   0  0  0  0  0  0
  -26.8630  -30.7950   22.0221 H   0  0  0  0  0  0
  -28.1265  -28.8621   21.2183 H   0  0  0  0  0  0
  -25.8795  -25.8765   19.0365 H   0  0  0  0  0  0
  -23.9550  -27.3174   19.0079 H   0  0  0  0  0  0
  -23.7868  -30.5943   19.4031 H   0  0  0  0  0  0
  -22.7726  -29.2560   19.8473 H   0  0  0  0  0  0
  -25.1305  -36.1886   25.0824 H   0  0  0  0  0  0
  -21.0000  -28.3302   24.1360 H   0  0  0  0  0  0
  -20.5687  -26.2334   23.3602 H   0  0  0  0  0  0
  -21.6659  -26.7448   22.1193 H   0  0  0  0  0  0
  -19.6930  -25.6290   21.1251 H   0  0  0  0  0  0
  -19.6705  -27.3173   20.6711 H   0  0  0  0  0  0
  -17.4215  -26.6659   21.4023 H   0  0  0  0  0  0
  -18.0362  -26.0079   22.9022 H   0  0  0  0  0  0
  -19.7944  -30.7277   24.2264 H   0  0  0  0  0  0
  -17.5021  -31.6275   24.5151 H   0  0  0  0  0  0
  -15.5359  -30.2978   23.7670 H   0  0  0  0  0  0
  -15.8677  -28.0805   22.7095 H   0  0  0  0  0  0
  -24.5932  -30.7051   25.7754 H   0  0  0  0  0  0
  -24.8899  -32.2878   26.4833 H   0  0  0  0  0  0
  -25.8044  -30.8920   27.0229 H   0  0  0  0  0  0
  -26.2973  -29.6709   24.1265 H   0  0  0  0  0  0
  -27.4038  -29.7259   25.4793 H   0  0  0  0  0  0
  -27.8874  -30.4222   23.9523 H   0  0  0  0  0  0
  -27.2712  -33.3623   26.2043 H   0  0  0  0  0  0
  -28.3915  -32.6830   25.0333 H   0  0  0  0  0  0
  -28.0736  -31.8442   26.5433 H   0  0  0  0  0  0
  -28.2592  -38.0093   24.7511 H   0  0  0  0  0  0
  -28.1087  -36.2623   24.6295 H   0  0  0  0  0  0
  -27.2298  -37.1438   25.8872 H   0  0  0  0  0  0
  -20.9445  -29.8781   21.6819 H   0  0  0  0  0  0
  -26.0166  -38.2832   24.1389 H   0  0  0  0  0  0
  -28.2771  -23.2592   18.4569 H   0  0  0  0  0  0
  -27.9381  -25.4273   18.3783 H   0  0  0  0  0  0
  -31.9488  -17.7793   19.4347 H   0  0  0  0  0  0
  -30.4243  -17.6420   18.5722 H   0  0  0  0  0  0
  -30.6005  -20.0255   18.5634 H   0  0  0  0  0  0
  -31.4924  -20.0590   20.0801 H   0  0  0  0  0  0
  -30.8623  -17.5542   21.5722 H   0  0  0  0  0  0
  -28.2335  -20.9919   19.0406 H   0  0  0  0  0  0
  -27.6108  -20.8804   20.6414 H   0  0  0  0  0  0
  -28.8415  -15.7630   20.8202 H   0  0  0  0  0  0
  1 25  1  0  0  0
  1 30  2  0  0  0
  1 80  1  0  0  0
  2  3  1  0  0  0
  2 25  1  0  0  0
  2 83  1  0  0  0
  2 84  1  0  0  0
  3  4  1  0  0  0
  3 85  1  0  0  0
  3 86  1  0  0  0
  4  5  1  0  0  0
  4 87  1  0  0  0
  4 88  1  0  0  0
  5  6  1  0  0  0
  5 26  1  0  0  0
  5 89  1  0  0  0
  6 25  1  0  0  0
  6 90  1  0  0  0
  6 91  1  0  0  0
  7  8  2  0  0  0
  7 26  1  0  0  0
  7 29  1  0  0  0
  8  9  1  0  0  0
  8 22  1  0  0  0
  9 10  1  0  0  0
  9 27  2  0  0  0
 10 11  2  0  0  0
 10 15  1  0  0  0
 11 12  1  0  0  0
 11 92  1  0  0  0
 12 13  2  0  0  0
 12 93  1  0  0  0
 13 14  1  0  0  0
 13 31  1  0  0  0
 14 15  2  0  0  0
 14 94  1  0  0  0
 15 95  1  0  0  0
 16 17  2  0  0  0
 16 21  1  0  0  0
 16 31  1  0  0  0
 17 18  1  0  0  0
 17 96  1  0  0  0
 18 19  2  0  0  0
 18 97  1  0  0  0
 19 20  1  0  0  0
 19 24  1  0  0  0
 20 21  2  0  0  0
 20 98  1  0  0  0
 21 23  1  0  0  0
 22 28  1  0  0  0
 22 32  2  0  0  0
 26 27  1  0  0  0
 28 99  1  0  0  0
 28100  1  0  0  0
 29101  1  0  0  0
 29102  1  0  0  0
 33 34  1  0  0  0
 33 66  1  0  0  0
 33 70  2  0  0  0
 34 36  1  0  0  0
 34 59  1  0  0  0
 34103  1  0  0  0
 35 44  2  0  0  0
 35 45  1  0  0  0
 35 68  1  0  0  0
 36 56  1  0  0  0
 36104  1  0  0  0
 37 39  1  0  0  0
 37 47  1  0  0  0
 37 66  1  0  0  0
 37105  1  0  0  0
 38 43  2  0  0  0
 38 46  1  0  0  0
 38 47  1  0  0  0
 39 64  1  0  0  0
 39 67  2  0  0  0
 40 52  1  0  0  0
 40 53  2  0  0  0
 40 58  1  0  0  0
 41106  1  0  0  0
 41107  1  0  0  0
 41108  1  0  0  0
 41 48  1  0  0  0
 42 43  1  0  0  0
 42 66  1  0  0  0
 42109  1  0  0  0
 42110  1  0  0  0
 43 44  1  0  0  0
 44111  1  0  0  0
 45 46  2  0  0  0
 45112  1  0  0  0
 46113  1  0  0  0
 47114  1  0  0  0
 47115  1  0  0  0
 48 56  1  0  0  0
 48 65  1  0  0  0
 48116  1  0  0  0
 49 50  1  0  0  0
 49 53  1  0  0  0
 49 64  1  0  0  0
 49117  1  0  0  0
 50 51  1  0  0  0
 50118  1  0  0  0
 50119  1  0  0  0
 51 52  1  0  0  0
 51120  1  0  0  0
 51121  1  0  0  0
 52122  1  0  0  0
 52123  1  0  0  0
 53 54  1  0  0  0
 54 55  2  0  0  0
 54124  1  0  0  0
 55 57  1  0  0  0
 55125  1  0  0  0
 56 69  2  0  0  0
 57 58  2  0  0  0
 57126  1  0  0  0
 58127  1  0  0  0
 59 60  1  0  0  0
 59 61  1  0  0  0
 59 62  1  0  0  0
 60128  1  0  0  0
 60129  1  0  0  0
 60130  1  0  0  0
 61131  1  0  0  0
 61132  1  0  0  0
 61133  1  0  0  0
 62134  1  0  0  0
 62135  1  0  0  0
 62136  1  0  0  0
 63 65  1  0  0  0
 63137  1  0  0  0
 63138  1  0  0  0
 63139  1  0  0  0
 64140  1  0  0  0
 65141  1  0  0  0
 68 73  1  0  0  0
 71 77  1  0  0  0
 71 79  1  0  0  0
 71 81  2  0  0  0
 72 73  2  0  0  0
 72 74  1  0  0  0
 72142  1  0  0  0
 73143  1  0  0  0
 74 78  1  0  0  0
 74 82  2  0  0  0
 75 76  1  0  0  0
 75 77  1  0  0  0
 75144  1  0  0  0
 75145  1  0  0  0
 76 79  1  0  0  0
 76146  1  0  0  0
 76147  1  0  0  0
 77 80  1  0  0  0
 77148  1  0  0  0
 78 79  1  0  0  0
 78149  1  0  0  0
 78150  1  0  0  0
 80151  1  0  0  0
M  ISO  4   1 100  68 101  73 101  80 100
M  END
> <chiral flag>
0

> <version>
0

> <s_m_source_file>
/data/baiqing/PycharmProjects/Reinvent-master-3.2/result/LINK_invent/BTK/process_docking_weight1_custom_product_contain_oxygen_bond_distance_aromatic_linkinvent_7_9_3/rearranged_h_0078.sdf

> <i_m_source_file_index>
54

> <r_mmod_Potential_Energy-OPLS-2005>
204.631744384766

> <r_mmod_Stretch_Energy-OPLS-2005>
141.768707275391

> <r_mmod_Bend_Energy-OPLS-2005>
293.386779785156

> <r_mmod_Torsional_Energy-OPLS-2005>
234.943695068359

> <r_mmod_Improper_Torsional_Energy-OPLS-2005>
5.58730459213257

> <r_mmod_Van_der_Waal_Energy-OPLS-2005>
115.526802062988

> <r_mmod_Electrostatic_Energy-OPLS-2005>
-452.399871826172

> <r_mmod_Solvation_Energy-OPLS-2005>
-252.438232421875

> <b_mmod_Minimization_Converged-OPLS-2005>
0

> <r_mmod_RMS_Derivative-OPLS-2005>
1.2550323009491

$$$$
55
                    3D
 Structure written by MMmdl.
162171  0  0  1  0            999 V2000
  -30.6196  -14.6401   20.5078 C   0  0  0  0  0  0
  -30.4406  -12.3942   19.4521 C   0  0  0  0  0  0
  -29.5083  -12.5101   18.2250 C   0  0  0  0  0  0
  -28.0318  -12.3454   18.6377 C   0  0  0  0  0  0
  -27.6553  -13.2149   19.8663 C   0  0  2  0  0  0
  -28.6998  -13.0631   20.9953 C   0  0  0  0  0  0
  -25.2567  -13.8163   20.5671 C   0  0  0  0  0  0
  -24.1834  -13.0434   20.9191 C   0  0  0  0  0  0
  -24.6401  -11.6902   20.8745 C   0  0  0  0  0  0
  -23.9066  -10.4287   21.0409 C   0  0  0  0  0  0
  -24.3616   -9.4204   21.9186 C   0  0  0  0  0  0
  -23.6293   -8.2238   22.0753 C   0  0  0  0  0  0
  -22.4275   -8.0277   21.3543 C   0  0  0  0  0  0
  -21.9910   -9.0249   20.4646 C   0  0  0  0  0  0
  -22.7237  -10.2131   20.3057 C   0  0  0  0  0  0
  -21.6851   -6.0735   22.5278 C   0  0  0  0  0  0
  -21.4011   -6.5640   23.8211 C   0  0  0  0  0  0
  -21.3660   -5.6793   24.9174 C   0  0  0  0  0  0
  -21.6045   -4.3055   24.7224 C   0  0  0  0  0  0
  -21.8820   -3.8147   23.4344 C   0  0  0  0  0  0
  -21.9193   -4.6964   22.3401 C   0  0  0  0  0  0
  -22.7858  -13.5230   21.1850 C   0  0  0  0  0  0
  -22.1663   -4.2150   21.0978 F   0  0  0  0  0  0
  -21.5629   -3.4537   25.7736 F   0  0  0  0  0  0
  -30.0158  -13.4107   20.4351 N   0  0  0  0  0  0
  -26.3001  -12.9343   20.3330 N   0  0  0  0  0  0
  -25.9332  -11.6500   20.5770 N   0  0  0  0  0  0
  -22.0499  -12.8227   22.0410 N   0  0  0  0  0  0
  -25.4276  -15.1879   20.4039 N   0  0  0  0  0  0
  -31.7763  -14.8071   20.1094 O   0  0  0  0  0  0
  -21.6636   -6.8875   21.4240 O   0  0  0  0  0  0
  -22.3548  -14.5537   20.6695 O   0  0  0  0  0  0
  -24.6240  -31.8610   23.2018 C   0  0  0  0  0  0
  -25.9088  -32.4790   23.8354 C   0  0  1  0  0  0
  -27.2247  -27.3261   20.1224 C   0  0  0  0  0  0
  -25.5905  -33.8590   24.2286 N   0  0  0  0  0  0
  -23.4181  -30.4844   21.5439 C   0  0  2  0  0  0
  -24.8651  -28.9402   20.1100 C   0  0  0  0  0  0
  -22.7468  -29.4636   22.4928 C   0  0  0  0  0  0
  -18.0289  -28.1385   22.8498 C   0  0  0  0  0  0
  -24.1485  -36.7289   23.2640 C   0  0  0  0  0  0
  -25.9578  -30.7946   21.3711 C   0  0  0  0  0  0
  -26.0324  -29.4223   20.7152 C   0  0  0  0  0  0
  -27.2154  -28.6270   20.7109 C   0  0  0  0  0  0
  -26.0366  -26.8980   19.4860 C   0  0  0  0  0  0
  -24.8685  -27.6834   19.4865 C   0  0  0  0  0  0
  -23.6317  -29.8187   20.1590 C   0  0  0  0  0  0
  -25.4107  -36.3086   24.0335 C   0  0  1  0  0  0
  -20.5887  -28.3687   23.1280 C   0  0  2  0  0  0
  -20.6774  -26.9410   22.5409 C   0  0  0  0  0  0
  -19.5746  -26.6384   21.5215 C   0  0  0  0  0  0
  -18.1927  -26.7933   22.1623 C   0  0  0  0  0  0
  -19.1544  -28.8850   23.2889 C   0  0  0  0  0  0
  -18.9471  -30.1453   23.8904 C   0  0  0  0  0  0
  -17.6473  -30.6591   24.0567 C   0  0  0  0  0  0
  -25.9041  -34.9459   23.5112 C   0  0  0  0  0  0
  -16.5361  -29.9095   23.6332 C   0  0  0  0  0  0
  -16.7276  -28.6507   23.0360 C   0  0  0  0  0  0
  -26.4475  -31.6593   25.0719 C   0  0  0  0  0  0
  -25.3717  -31.3739   26.1454 C   0  0  0  0  0  0
  -27.0314  -30.3020   24.6150 C   0  0  0  0  0  0
  -27.6039  -32.4317   25.7490 C   0  0  0  0  0  0
  -27.5577  -37.1794   24.8464 C   0  0  0  0  0  0
  -21.4181  -29.3049   22.3679 N   0  0  0  0  0  0
  -26.4283  -37.3783   23.9420 N   0  0  0  0  0  0
  -24.6857  -31.0632   22.0962 N   0  0  0  0  0  0
  -23.4203  -28.8178   23.3002 O   0  0  0  0  0  0
  -28.3446  -26.4842   20.1899 O   0  0  0  0  0  0
  -26.5621  -34.8926   22.4685 O   0  0  0  0  0  0
  -23.5403  -32.1401   23.7350 O   0  0  0  0  0  0
  -28.8315  -19.3565   21.2338 C   0  0  0  0  0  0
  -30.9337  -19.2827   20.0836 C   0  0  0  0  0  0
  -28.8336  -17.9298   21.2958 C   0  0  0  0  0  0
  -30.9403  -17.8560   20.1501 C   0  0  0  0  0  0
  -29.8967  -20.0905   20.6437 C   0  0  0  0  0  0
  -29.8923  -17.1336   20.7779 C   0  0  0  0  0  0
  -31.7114  -23.4652   20.5348 C   0  0  0  0  0  0
  -28.9613  -22.4823   20.5688 C   0  0  0  0  0  0
  -32.9873  -23.8814   20.5014 C   0  0  0  0  0  0
  -30.5838  -24.3484   20.0391 C   0  0  0  0  0  0
  -31.3303  -22.0950   21.0873 C   0  0  0  0  0  0
  -29.2336  -24.0513   20.7180 C   0  0  2  0  0  0
  -29.2589  -24.4056   22.2249 C   0  0  0  0  0  0
  -28.1419  -25.0194   20.0702 C   0  0  0  0  0  0
  -30.0013  -21.5691   20.6964 N   0  0  0  0  0  0
  -29.8116  -15.6752   20.9048 N   0  0  0  0  0  0
  -27.8081  -22.1187   20.3170 O   0  0  0  0  0  0
  -31.4809  -12.5232   19.1488 H   0  0  0  0  0  0
  -30.3792  -11.3969   19.8900 H   0  0  0  0  0  0
  -29.7723  -11.7596   17.4789 H   0  0  0  0  0  0
  -29.6489  -13.4804   17.7456 H   0  0  0  0  0  0
  -27.8719  -11.2924   18.8715 H   0  0  0  0  0  0
  -27.3748  -12.5727   17.7972 H   0  0  0  0  0  0
  -27.6760  -14.2512   19.5290 H   0  0  0  0  0  0
  -28.7123  -12.0385   21.3704 H   0  0  0  0  0  0
  -28.4434  -13.6872   21.8527 H   0  0  0  0  0  0
  -25.2762   -9.5679   22.4760 H   0  0  0  0  0  0
  -24.0002   -7.4628   22.7472 H   0  0  0  0  0  0
  -21.0839   -8.8770   19.8950 H   0  0  0  0  0  0
  -22.3697  -10.9670   19.6166 H   0  0  0  0  0  0
  -21.2002   -7.6148   23.9716 H   0  0  0  0  0  0
  -21.1482   -6.0521   25.9077 H   0  0  0  0  0  0
  -22.0599   -2.7608   23.2842 H   0  0  0  0  0  0
  -22.4113  -11.9887   22.4796 H   0  0  0  0  0  0
  -21.1115  -13.1254   22.2611 H   0  0  0  0  0  0
  -24.6520  -15.8363   20.4853 H   0  0  0  0  0  0
  -26.2659  -15.6196   20.0361 H   0  0  0  0  0  0
  -26.7159  -32.5458   23.1109 H   0  0  0  0  0  0
  -25.0045  -33.9753   25.0425 H   0  0  0  0  0  0
  -22.7120  -31.3047   21.4012 H   0  0  0  0  0  0
  -23.3754  -35.9612   23.3294 H   0  0  0  0  0  0
  -24.3579  -36.8914   22.2055 H   0  0  0  0  0  0
  -23.7231  -37.6488   23.6663 H   0  0  0  0  0  0
  -26.0862  -31.5573   20.6019 H   0  0  0  0  0  0
  -26.8405  -30.8458   21.9972 H   0  0  0  0  0  0
  -28.1106  -28.9918   21.1948 H   0  0  0  0  0  0
  -25.9839  -25.9400   18.9908 H   0  0  0  0  0  0
  -23.9753  -27.3088   19.0059 H   0  0  0  0  0  0
  -23.7500  -30.5952   19.4021 H   0  0  0  0  0  0
  -22.7523  -29.2470   19.8564 H   0  0  0  0  0  0
  -25.1291  -36.1934   25.0826 H   0  0  0  0  0  0
  -20.9987  -28.3251   24.1394 H   0  0  0  0  0  0
  -20.5655  -26.2303   23.3616 H   0  0  0  0  0  0
  -21.6643  -26.7430   22.1207 H   0  0  0  0  0  0
  -19.6903  -25.6295   21.1242 H   0  0  0  0  0  0
  -19.6670  -27.3198   20.6747 H   0  0  0  0  0  0
  -17.4198  -26.6684   21.4026 H   0  0  0  0  0  0
  -18.0315  -26.0078   22.9017 H   0  0  0  0  0  0
  -19.7950  -30.7269   24.2262 H   0  0  0  0  0  0
  -17.5036  -31.6273   24.5171 H   0  0  0  0  0  0
  -15.5363  -30.3008   23.7657 H   0  0  0  0  0  0
  -15.8673  -28.0833   22.7074 H   0  0  0  0  0  0
  -24.5878  -30.7102   25.7787 H   0  0  0  0  0  0
  -24.8927  -32.2918   26.4870 H   0  0  0  0  0  0
  -25.8040  -30.8919   27.0231 H   0  0  0  0  0  0
  -26.2880  -29.6779   24.1174 H   0  0  0  0  0  0
  -27.4038  -29.7258   25.4628 H   0  0  0  0  0  0
  -27.8736  -30.4325   23.9352 H   0  0  0  0  0  0
  -27.2651  -33.3619   26.2059 H   0  0  0  0  0  0
  -28.3852  -32.6864   25.0318 H   0  0  0  0  0  0
  -28.0697  -31.8443   26.5414 H   0  0  0  0  0  0
  -28.2585  -38.0102   24.7533 H   0  0  0  0  0  0
  -28.1089  -36.2640   24.6260 H   0  0  0  0  0  0
  -27.2309  -37.1401   25.8870 H   0  0  0  0  0  0
  -20.9346  -29.8788   21.6911 H   0  0  0  0  0  0
  -26.0163  -38.2852   24.1438 H   0  0  0  0  0  0
  -28.0054  -19.8855   21.6873 H   0  0  0  0  0  0
  -31.7701  -19.7533   19.5874 H   0  0  0  0  0  0
  -27.9951  -17.4452   21.7759 H   0  0  0  0  0  0
  -31.7746  -17.3278   19.7121 H   0  0  0  0  0  0
  -33.2506  -24.8558   20.1136 H   0  0  0  0  0  0
  -33.7925  -23.2576   20.8628 H   0  0  0  0  0  0
  -30.4897  -24.1891   18.9637 H   0  0  0  0  0  0
  -30.8563  -25.3970   20.1688 H   0  0  0  0  0  0
  -31.3350  -22.1622   22.1750 H   0  0  0  0  0  0
  -32.1458  -21.4124   20.8594 H   0  0  0  0  0  0
  -29.9790  -23.8216   22.7939 H   0  0  0  0  0  0
  -28.2826  -24.2402   22.6832 H   0  0  0  0  0  0
  -29.5133  -25.4550   22.3784 H   0  0  0  0  0  0
  -27.1866  -24.7638   20.5321 H   0  0  0  0  0  0
  -28.0388  -24.7812   19.0106 H   0  0  0  0  0  0
  -28.9335  -15.3431   21.2727 H   0  0  0  0  0  0
  1 25  1  0  0  0
  1 30  2  0  0  0
  1 86  1  0  0  0
  2  3  1  0  0  0
  2 25  1  0  0  0
  2 88  1  0  0  0
  2 89  1  0  0  0
  3  4  1  0  0  0
  3 90  1  0  0  0
  3 91  1  0  0  0
  4  5  1  0  0  0
  4 92  1  0  0  0
  4 93  1  0  0  0
  5  6  1  0  0  0
  5 26  1  0  0  0
  5 94  1  0  0  0
  6 25  1  0  0  0
  6 95  1  0  0  0
  6 96  1  0  0  0
  7  8  2  0  0  0
  7 26  1  0  0  0
  7 29  1  0  0  0
  8  9  1  0  0  0
  8 22  1  0  0  0
  9 10  1  0  0  0
  9 27  2  0  0  0
 10 11  2  0  0  0
 10 15  1  0  0  0
 11 12  1  0  0  0
 11 97  1  0  0  0
 12 13  2  0  0  0
 12 98  1  0  0  0
 13 14  1  0  0  0
 13 31  1  0  0  0
 14 15  2  0  0  0
 14 99  1  0  0  0
 15100  1  0  0  0
 16 17  2  0  0  0
 16 21  1  0  0  0
 16 31  1  0  0  0
 17 18  1  0  0  0
 17101  1  0  0  0
 18 19  2  0  0  0
 18102  1  0  0  0
 19 20  1  0  0  0
 19 24  1  0  0  0
 20 21  2  0  0  0
 20103  1  0  0  0
 21 23  1  0  0  0
 22 28  1  0  0  0
 22 32  2  0  0  0
 26 27  1  0  0  0
 28104  1  0  0  0
 28105  1  0  0  0
 29106  1  0  0  0
 29107  1  0  0  0
 33 34  1  0  0  0
 33 66  1  0  0  0
 33 70  2  0  0  0
 34 36  1  0  0  0
 34 59  1  0  0  0
 34108  1  0  0  0
 35 44  2  0  0  0
 35 45  1  0  0  0
 35 68  1  0  0  0
 36 56  1  0  0  0
 36109  1  0  0  0
 37 39  1  0  0  0
 37 47  1  0  0  0
 37 66  1  0  0  0
 37110  1  0  0  0
 38 43  2  0  0  0
 38 46  1  0  0  0
 38 47  1  0  0  0
 39 64  1  0  0  0
 39 67  2  0  0  0
 40 52  1  0  0  0
 40 53  2  0  0  0
 40 58  1  0  0  0
 41111  1  0  0  0
 41112  1  0  0  0
 41113  1  0  0  0
 41 48  1  0  0  0
 42 43  1  0  0  0
 42 66  1  0  0  0
 42114  1  0  0  0
 42115  1  0  0  0
 43 44  1  0  0  0
 44116  1  0  0  0
 45 46  2  0  0  0
 45117  1  0  0  0
 46118  1  0  0  0
 47119  1  0  0  0
 47120  1  0  0  0
 48 56  1  0  0  0
 48 65  1  0  0  0
 48121  1  0  0  0
 49 50  1  0  0  0
 49 53  1  0  0  0
 49 64  1  0  0  0
 49122  1  0  0  0
 50 51  1  0  0  0
 50123  1  0  0  0
 50124  1  0  0  0
 51 52  1  0  0  0
 51125  1  0  0  0
 51126  1  0  0  0
 52127  1  0  0  0
 52128  1  0  0  0
 53 54  1  0  0  0
 54 55  2  0  0  0
 54129  1  0  0  0
 55 57  1  0  0  0
 55130  1  0  0  0
 56 69  2  0  0  0
 57 58  2  0  0  0
 57131  1  0  0  0
 58132  1  0  0  0
 59 60  1  0  0  0
 59 61  1  0  0  0
 59 62  1  0  0  0
 60133  1  0  0  0
 60134  1  0  0  0
 60135  1  0  0  0
 61136  1  0  0  0
 61137  1  0  0  0
 61138  1  0  0  0
 62139  1  0  0  0
 62140  1  0  0  0
 62141  1  0  0  0
 63 65  1  0  0  0
 63142  1  0  0  0
 63143  1  0  0  0
 63144  1  0  0  0
 64145  1  0  0  0
 65146  1  0  0  0
 68 84  1  0  0  0
 71 73  2  0  0  0
 71 75  1  0  0  0
 71147  1  0  0  0
 72 74  1  0  0  0
 72 75  2  0  0  0
 72148  1  0  0  0
 73 76  1  0  0  0
 73149  1  0  0  0
 74 76  2  0  0  0
 74150  1  0  0  0
 75 85  1  0  0  0
 76 86  1  0  0  0
 77 79  2  0  0  0
 77 80  1  0  0  0
 77 81  1  0  0  0
 78 82  1  0  0  0
 78 85  1  0  0  0
 78 87  2  0  0  0
 79151  1  0  0  0
 79152  1  0  0  0
 80 82  1  0  0  0
 80153  1  0  0  0
 80154  1  0  0  0
 81 85  1  0  0  0
 81155  1  0  0  0
 81156  1  0  0  0
 82 83  1  0  0  0
 82 84  1  0  0  0
 83157  1  0  0  0
 83158  1  0  0  0
 83159  1  0  0  0
 84160  1  0  0  0
 84161  1  0  0  0
 86162  1  0  0  0
M  ISO  4   1 100  68 101  84 101  86 100
M  END
> <chiral flag>
0

> <version>
0

> <s_m_source_file>
/data/baiqing/PycharmProjects/Reinvent-master-3.2/result/LINK_invent/BTK/process_docking_weight1_custom_product_contain_oxygen_bond_distance_aromatic_linkinvent_7_9_3/rearranged_h_0078.sdf

> <i_m_source_file_index>
55

> <r_mmod_Potential_Energy-OPLS-2005>
176.898742675781

> <r_mmod_Stretch_Energy-OPLS-2005>
91.3800354003906

> <r_mmod_Bend_Energy-OPLS-2005>
145.180816650391

> <r_mmod_Torsional_Energy-OPLS-2005>
281.935729980469

> <r_mmod_Improper_Torsional_Energy-OPLS-2005>
4.29129028320312

> <r_mmod_Van_der_Waal_Energy-OPLS-2005>
164.300277709961

> <r_mmod_Electrostatic_Energy-OPLS-2005>
-349.393646240234

> <r_mmod_Solvation_Energy-OPLS-2005>
-208.174133300781

> <b_mmod_Minimization_Converged-OPLS-2005>
0

> <r_mmod_RMS_Derivative-OPLS-2005>
1.12729728221893

$$$$
56
                    3D
 Structure written by MMmdl.
162171  0  0  1  0            999 V2000
  -30.6902  -14.4189   20.6644 C   0  0  0  0  0  0
  -30.4368  -12.3156   19.3950 C   0  0  0  0  0  0
  -29.4919  -12.5140   18.1913 C   0  0  0  0  0  0
  -28.0147  -12.3442   18.6025 C   0  0  0  0  0  0
  -27.6532  -13.1892   19.8541 C   0  0  2  0  0  0
  -28.6844  -12.9324   20.9731 C   0  0  0  0  0  0
  -25.2512  -13.8105   20.5535 C   0  0  0  0  0  0
  -24.1796  -13.0406   20.9159 C   0  0  0  0  0  0
  -24.6344  -11.6869   20.8714 C   0  0  0  0  0  0
  -23.9030  -10.4257   21.0410 C   0  0  0  0  0  0
  -24.3602   -9.4171   21.9167 C   0  0  0  0  0  0
  -23.6272   -8.2217   22.0753 C   0  0  0  0  0  0
  -22.4255   -8.0276   21.3554 C   0  0  0  0  0  0
  -21.9870   -9.0225   20.4658 C   0  0  0  0  0  0
  -22.7205  -10.2094   20.3041 C   0  0  0  0  0  0
  -21.6845   -6.0721   22.5280 C   0  0  0  0  0  0
  -21.4017   -6.5627   23.8221 C   0  0  0  0  0  0
  -21.3662   -5.6794   24.9180 C   0  0  0  0  0  0
  -21.6036   -4.3055   24.7236 C   0  0  0  0  0  0
  -21.8814   -3.8140   23.4356 C   0  0  0  0  0  0
  -21.9182   -4.6944   22.3411 C   0  0  0  0  0  0
  -22.7841  -13.5219   21.1875 C   0  0  0  0  0  0
  -22.1660   -4.2138   21.0988 F   0  0  0  0  0  0
  -21.5618   -3.4532   25.7745 F   0  0  0  0  0  0
  -30.0206  -13.2568   20.4431 N   0  0  0  0  0  0
  -26.2945  -12.9251   20.3173 N   0  0  0  0  0  0
  -25.9244  -11.6434   20.5657 N   0  0  0  0  0  0
  -22.0477  -12.8200   22.0434 N   0  0  0  0  0  0
  -25.4112  -15.1797   20.3772 N   0  0  0  0  0  0
  -31.8288  -14.6273   20.2223 O   0  0  0  0  0  0
  -21.6627   -6.8861   21.4260 O   0  0  0  0  0  0
  -22.3499  -14.5498   20.6706 O   0  0  0  0  0  0
  -24.6169  -31.8700   23.2121 C   0  0  0  0  0  0
  -25.9052  -32.4841   23.8424 C   0  0  1  0  0  0
  -27.2082  -27.4181   20.0734 C   0  0  0  0  0  0
  -25.5918  -33.8633   24.2379 N   0  0  0  0  0  0
  -23.4000  -30.4980   21.5582 C   0  0  2  0  0  0
  -24.8340  -28.9643   20.1130 C   0  0  0  0  0  0
  -22.7391  -29.4694   22.5038 C   0  0  0  0  0  0
  -18.0280  -28.1370   22.8489 C   0  0  0  0  0  0
  -24.1461  -36.7310   23.2633 C   0  0  0  0  0  0
  -25.9275  -30.8330   21.3568 C   0  0  0  0  0  0
  -25.9986  -29.4620   20.7089 C   0  0  0  0  0  0
  -27.1862  -28.6931   20.6917 C   0  0  0  0  0  0
  -26.0177  -26.9390   19.4777 C   0  0  0  0  0  0
  -24.8368  -27.7027   19.4971 C   0  0  0  0  0  0
  -23.6003  -29.8389   20.1697 C   0  0  0  0  0  0
  -25.4082  -36.3110   24.0352 C   0  0  1  0  0  0
  -20.5861  -28.3657   23.1306 C   0  0  2  0  0  0
  -20.6764  -26.9408   22.5387 C   0  0  0  0  0  0
  -19.5743  -26.6416   21.5173 C   0  0  0  0  0  0
  -18.1930  -26.7928   22.1605 C   0  0  0  0  0  0
  -19.1521  -28.8838   23.2896 C   0  0  0  0  0  0
  -18.9445  -30.1451   23.8912 C   0  0  0  0  0  0
  -17.6446  -30.6569   24.0576 C   0  0  0  0  0  0
  -25.9028  -34.9484   23.5158 C   0  0  0  0  0  0
  -16.5348  -29.9071   23.6324 C   0  0  0  0  0  0
  -16.7272  -28.6485   23.0348 C   0  0  0  0  0  0
  -26.4503  -31.6589   25.0742 C   0  0  0  0  0  0
  -25.3791  -31.3652   26.1516 C   0  0  0  0  0  0
  -27.0291  -30.3042   24.6018 C   0  0  0  0  0  0
  -27.6095  -32.4275   25.7498 C   0  0  0  0  0  0
  -27.5569  -37.1801   24.8481 C   0  0  0  0  0  0
  -21.4138  -29.3026   22.3732 N   0  0  0  0  0  0
  -26.4267  -37.3804   23.9440 N   0  0  0  0  0  0
  -24.6697  -31.0784   22.1028 N   0  0  0  0  0  0
  -23.4166  -28.8238   23.3075 O   0  0  0  0  0  0
  -28.3831  -26.6880   20.0785 O   0  0  0  0  0  0
  -26.5556  -34.8919   22.4702 O   0  0  0  0  0  0
  -23.5360  -32.1465   23.7516 O   0  0  0  0  0  0
  -27.2154  -18.4354   20.2677 C   0  0  0  0  0  0
  -28.0050  -17.4743   20.9287 C   0  0  0  0  0  0
  -27.7926  -19.6398   19.8150 C   0  0  0  0  0  0
  -29.9331  -18.9455   20.7472 C   0  0  0  0  0  0
  -29.3876  -17.6941   21.1082 C   0  0  0  0  0  0
  -29.1504  -19.9281   20.0983 C   0  0  0  0  0  0
  -30.2155  -23.5151   19.8611 C   0  0  0  0  0  0
  -31.6546  -23.2360   19.9038 C   0  0  0  0  0  0
  -29.3011  -22.3811   20.1118 C   0  0  0  0  0  0
  -32.5403  -24.1477   20.3509 C   0  0  0  0  0  0
  -29.7863  -24.7797   19.5983 C   0  0  0  0  0  0
  -30.3074  -16.6029   21.5874 C   0  0  0  0  0  0
  -32.1584  -21.8831   19.4547 C   0  0  0  0  0  0
  -31.0046  -21.0409   18.8981 C   0  0  0  0  0  0
  -28.3926  -25.3789   19.4865 C   0  0  0  0  0  0
  -29.7734  -21.1587   19.7064 N   0  0  0  0  0  0
  -29.9288  -15.3664   21.2350 N   0  0  0  0  0  0
  -28.2113  -22.5019   20.6821 O   0  0  0  0  0  0
  -31.3767  -16.8707   22.1461 O   0  0  0  0  0  0
  -31.4700  -12.4816   19.0772 H   0  0  0  0  0  0
  -30.4004  -11.2908   19.7662 H   0  0  0  0  0  0
  -29.7453  -11.8137   17.3930 H   0  0  0  0  0  0
  -29.6379  -13.5125   17.7761 H   0  0  0  0  0  0
  -27.8451  -11.2860   18.8109 H   0  0  0  0  0  0
  -27.3660  -12.5999   17.7642 H   0  0  0  0  0  0
  -27.7085  -14.2359   19.5568 H   0  0  0  0  0  0
  -28.6586  -11.8831   21.2725 H   0  0  0  0  0  0
  -28.4272  -13.4897   21.8740 H   0  0  0  0  0  0
  -25.2754   -9.5653   22.4714 H   0  0  0  0  0  0
  -24.0000   -7.4607   22.7456 H   0  0  0  0  0  0
  -21.0813   -8.8720   19.8974 H   0  0  0  0  0  0
  -22.3664  -10.9616   19.6132 H   0  0  0  0  0  0
  -21.2023   -7.6139   23.9721 H   0  0  0  0  0  0
  -21.1497   -6.0519   25.9083 H   0  0  0  0  0  0
  -22.0587   -2.7598   23.2853 H   0  0  0  0  0  0
  -22.4115  -11.9904   22.4906 H   0  0  0  0  0  0
  -21.1060  -13.1205   22.2595 H   0  0  0  0  0  0
  -24.6126  -15.8033   20.4391 H   0  0  0  0  0  0
  -26.1980  -15.5977   19.8991 H   0  0  0  0  0  0
  -26.7129  -32.5540   23.1204 H   0  0  0  0  0  0
  -25.0170  -33.9820   25.0582 H   0  0  0  0  0  0
  -22.6890  -31.3166   21.4304 H   0  0  0  0  0  0
  -23.3719  -35.9651   23.3321 H   0  0  0  0  0  0
  -24.3572  -36.8880   22.2046 H   0  0  0  0  0  0
  -23.7198  -37.6522   23.6609 H   0  0  0  0  0  0
  -26.0187  -31.5909   20.5751 H   0  0  0  0  0  0
  -26.8260  -30.9032   21.9584 H   0  0  0  0  0  0
  -28.0876  -29.0744   21.1513 H   0  0  0  0  0  0
  -25.9701  -25.9786   18.9850 H   0  0  0  0  0  0
  -23.9393  -27.3159   19.0352 H   0  0  0  0  0  0
  -23.7094  -30.6200   19.4167 H   0  0  0  0  0  0
  -22.7157  -29.2694   19.8738 H   0  0  0  0  0  0
  -25.1226  -36.2015   25.0840 H   0  0  0  0  0  0
  -20.9959  -28.3210   24.1415 H   0  0  0  0  0  0
  -20.5633  -26.2275   23.3553 H   0  0  0  0  0  0
  -21.6644  -26.7445   22.1190 H   0  0  0  0  0  0
  -19.6906  -25.6332   21.1164 H   0  0  0  0  0  0
  -19.6675  -27.3244   20.6699 H   0  0  0  0  0  0
  -17.4193  -26.6675   21.4012 H   0  0  0  0  0  0
  -18.0369  -26.0055   22.8982 H   0  0  0  0  0  0
  -19.7930  -30.7268   24.2265 H   0  0  0  0  0  0
  -17.5000  -31.6237   24.5200 H   0  0  0  0  0  0
  -15.5338  -30.2971   23.7637 H   0  0  0  0  0  0
  -15.8676  -28.0801   22.7052 H   0  0  0  0  0  0
  -24.6017  -30.6931   25.7880 H   0  0  0  0  0  0
  -24.8941  -32.2773   26.4967 H   0  0  0  0  0  0
  -25.8215  -30.8866   27.0261 H   0  0  0  0  0  0
  -26.2788  -29.6841   24.1116 H   0  0  0  0  0  0
  -27.4139  -29.7238   25.4406 H   0  0  0  0  0  0
  -27.8581  -30.4402   23.9084 H   0  0  0  0  0  0
  -27.2750  -33.3568   26.2115 H   0  0  0  0  0  0
  -28.3889  -32.6832   25.0311 H   0  0  0  0  0  0
  -28.0775  -31.8369   26.5379 H   0  0  0  0  0  0
  -28.2592  -38.0090   24.7515 H   0  0  0  0  0  0
  -28.1049  -36.2621   24.6301 H   0  0  0  0  0  0
  -27.2308  -37.1452   25.8889 H   0  0  0  0  0  0
  -20.9298  -29.8764   21.6969 H   0  0  0  0  0  0
  -26.0163  -38.2876   24.1465 H   0  0  0  0  0  0
  -26.1699  -18.2246   20.0888 H   0  0  0  0  0  0
  -27.5426  -16.5580   21.2651 H   0  0  0  0  0  0
  -27.1799  -20.3390   19.2592 H   0  0  0  0  0  0
  -30.9775  -19.1456   20.9428 H   0  0  0  0  0  0
  -32.2323  -25.1209   20.7045 H   0  0  0  0  0  0
  -33.6008  -23.9400   20.3754 H   0  0  0  0  0  0
  -30.5373  -25.5217   19.3853 H   0  0  0  0  0  0
  -32.6107  -21.3725   20.3066 H   0  0  0  0  0  0
  -32.9425  -22.0039   18.7030 H   0  0  0  0  0  0
  -31.3340  -20.0074   18.7817 H   0  0  0  0  0  0
  -30.7667  -21.3830   17.8891 H   0  0  0  0  0  0
  -28.1826  -25.4742   18.4214 H   0  0  0  0  0  0
  -27.6254  -24.7363   19.9170 H   0  0  0  0  0  0
  -28.9388  -15.1975   21.1858 H   0  0  0  0  0  0
  1 25  1  0  0  0
  1 30  2  0  0  0
  1 87  1  0  0  0
  2  3  1  0  0  0
  2 25  1  0  0  0
  2 90  1  0  0  0
  2 91  1  0  0  0
  3  4  1  0  0  0
  3 92  1  0  0  0
  3 93  1  0  0  0
  4  5  1  0  0  0
  4 94  1  0  0  0
  4 95  1  0  0  0
  5  6  1  0  0  0
  5 26  1  0  0  0
  5 96  1  0  0  0
  6 25  1  0  0  0
  6 97  1  0  0  0
  6 98  1  0  0  0
  7  8  2  0  0  0
  7 26  1  0  0  0
  7 29  1  0  0  0
  8  9  1  0  0  0
  8 22  1  0  0  0
  9 10  1  0  0  0
  9 27  2  0  0  0
 10 11  2  0  0  0
 10 15  1  0  0  0
 11 12  1  0  0  0
 11 99  1  0  0  0
 12 13  2  0  0  0
 12100  1  0  0  0
 13 14  1  0  0  0
 13 31  1  0  0  0
 14 15  2  0  0  0
 14101  1  0  0  0
 15102  1  0  0  0
 16 17  2  0  0  0
 16 21  1  0  0  0
 16 31  1  0  0  0
 17 18  1  0  0  0
 17103  1  0  0  0
 18 19  2  0  0  0
 18104  1  0  0  0
 19 20  1  0  0  0
 19 24  1  0  0  0
 20 21  2  0  0  0
 20105  1  0  0  0
 21 23  1  0  0  0
 22 28  1  0  0  0
 22 32  2  0  0  0
 26 27  1  0  0  0
 28106  1  0  0  0
 28107  1  0  0  0
 29108  1  0  0  0
 29109  1  0  0  0
 33 34  1  0  0  0
 33 66  1  0  0  0
 33 70  2  0  0  0
 34 36  1  0  0  0
 34 59  1  0  0  0
 34110  1  0  0  0
 35 44  2  0  0  0
 35 45  1  0  0  0
 35 68  1  0  0  0
 36 56  1  0  0  0
 36111  1  0  0  0
 37 39  1  0  0  0
 37 47  1  0  0  0
 37 66  1  0  0  0
 37112  1  0  0  0
 38 43  2  0  0  0
 38 46  1  0  0  0
 38 47  1  0  0  0
 39 64  1  0  0  0
 39 67  2  0  0  0
 40 52  1  0  0  0
 40 53  2  0  0  0
 40 58  1  0  0  0
 41113  1  0  0  0
 41114  1  0  0  0
 41115  1  0  0  0
 41 48  1  0  0  0
 42 43  1  0  0  0
 42 66  1  0  0  0
 42116  1  0  0  0
 42117  1  0  0  0
 43 44  1  0  0  0
 44118  1  0  0  0
 45 46  2  0  0  0
 45119  1  0  0  0
 46120  1  0  0  0
 47121  1  0  0  0
 47122  1  0  0  0
 48 56  1  0  0  0
 48 65  1  0  0  0
 48123  1  0  0  0
 49 50  1  0  0  0
 49 53  1  0  0  0
 49 64  1  0  0  0
 49124  1  0  0  0
 50 51  1  0  0  0
 50125  1  0  0  0
 50126  1  0  0  0
 51 52  1  0  0  0
 51127  1  0  0  0
 51128  1  0  0  0
 52129  1  0  0  0
 52130  1  0  0  0
 53 54  1  0  0  0
 54 55  2  0  0  0
 54131  1  0  0  0
 55 57  1  0  0  0
 55132  1  0  0  0
 56 69  2  0  0  0
 57 58  2  0  0  0
 57133  1  0  0  0
 58134  1  0  0  0
 59 60  1  0  0  0
 59 61  1  0  0  0
 59 62  1  0  0  0
 60135  1  0  0  0
 60136  1  0  0  0
 60137  1  0  0  0
 61138  1  0  0  0
 61139  1  0  0  0
 61140  1  0  0  0
 62141  1  0  0  0
 62142  1  0  0  0
 62143  1  0  0  0
 63 65  1  0  0  0
 63144  1  0  0  0
 63145  1  0  0  0
 63146  1  0  0  0
 64147  1  0  0  0
 65148  1  0  0  0
 68 85  1  0  0  0
 71 72  2  0  0  0
 71 73  1  0  0  0
 71149  1  0  0  0
 72 75  1  0  0  0
 72150  1  0  0  0
 73 76  2  0  0  0
 73151  1  0  0  0
 74 75  2  0  0  0
 74 76  1  0  0  0
 74152  1  0  0  0
 75 82  1  0  0  0
 76 86  1  0  0  0
 77 78  1  0  0  0
 77 79  1  0  0  0
 77 81  2  0  0  0
 78 80  2  0  0  0
 78 83  1  0  0  0
 79 86  1  0  0  0
 79 88  2  0  0  0
 80153  1  0  0  0
 80154  1  0  0  0
 81 85  1  0  0  0
 81155  1  0  0  0
 82 87  1  0  0  0
 82 89  2  0  0  0
 83 84  1  0  0  0
 83156  1  0  0  0
 83157  1  0  0  0
 84 86  1  0  0  0
 84158  1  0  0  0
 84159  1  0  0  0
 85160  1  0  0  0
 85161  1  0  0  0
 87162  1  0  0  0
M  ISO  4   1 100  68 101  85 101  87 100
M  END
> <chiral flag>
0

> <version>
0

> <s_m_source_file>
/data/baiqing/PycharmProjects/Reinvent-master-3.2/result/LINK_invent/BTK/process_docking_weight1_custom_product_contain_oxygen_bond_distance_aromatic_linkinvent_7_9_3/rearranged_h_0078.sdf

> <i_m_source_file_index>
56

> <r_mmod_Potential_Energy-OPLS-2005>
68.1056213378906

> <r_mmod_Stretch_Energy-OPLS-2005>
42.9067840576172

> <r_mmod_Bend_Energy-OPLS-2005>
110.137817382812

> <r_mmod_Torsional_Energy-OPLS-2005>
334.233459472656

> <r_mmod_Improper_Torsional_Energy-OPLS-2005>
6.99888944625854

> <r_mmod_Van_der_Waal_Energy-OPLS-2005>
191.408752441406

> <r_mmod_Electrostatic_Energy-OPLS-2005>
-409.090118408203

> <r_mmod_Solvation_Energy-OPLS-2005>
-223.684585571289

> <b_mmod_Minimization_Converged-OPLS-2005>
0

> <r_mmod_RMS_Derivative-OPLS-2005>
5.54983377456665

$$$$
57
                    3D
 Structure written by MMmdl.
156165  0  0  1  0            999 V2000
  -30.5841  -14.7177   20.4786 C   0  0  0  0  0  0
  -30.4453  -12.4373   19.4667 C   0  0  0  0  0  0
  -29.5145  -12.5133   18.2343 C   0  0  0  0  0  0
  -28.0387  -12.3380   18.6454 C   0  0  0  0  0  0
  -27.6506  -13.2209   19.8607 C   0  0  2  0  0  0
  -28.6949  -13.1055   20.9940 C   0  0  0  0  0  0
  -25.2552  -13.8175   20.5687 C   0  0  0  0  0  0
  -24.1825  -13.0438   20.9199 C   0  0  0  0  0  0
  -24.6397  -11.6910   20.8742 C   0  0  0  0  0  0
  -23.9066  -10.4292   21.0406 C   0  0  0  0  0  0
  -24.3616   -9.4207   21.9184 C   0  0  0  0  0  0
  -23.6291   -8.2243   22.0754 C   0  0  0  0  0  0
  -22.4273   -8.0282   21.3545 C   0  0  0  0  0  0
  -21.9908   -9.0256   20.4647 C   0  0  0  0  0  0
  -22.7238  -10.2135   20.3056 C   0  0  0  0  0  0
  -21.6853   -6.0734   22.5278 C   0  0  0  0  0  0
  -21.4015   -6.5638   23.8212 C   0  0  0  0  0  0
  -21.3659   -5.6791   24.9174 C   0  0  0  0  0  0
  -21.6044   -4.3054   24.7225 C   0  0  0  0  0  0
  -21.8820   -3.8146   23.4346 C   0  0  0  0  0  0
  -21.9193   -4.6962   22.3402 C   0  0  0  0  0  0
  -22.7847  -13.5230   21.1858 C   0  0  0  0  0  0
  -22.1661   -4.2148   21.0979 F   0  0  0  0  0  0
  -21.5628   -3.4538   25.7738 F   0  0  0  0  0  0
  -30.0034  -13.4708   20.4290 N   0  0  0  0  0  0
  -26.2977  -12.9360   20.3305 N   0  0  0  0  0  0
  -25.9326  -11.6513   20.5753 N   0  0  0  0  0  0
  -22.0487  -12.8225   22.0415 N   0  0  0  0  0  0
  -25.4263  -15.1897   20.4092 N   0  0  0  0  0  0
  -31.7497  -14.8803   20.1031 O   0  0  0  0  0  0
  -21.6639   -6.8878   21.4240 O   0  0  0  0  0  0
  -22.3534  -14.5536   20.6702 O   0  0  0  0  0  0
  -24.6304  -31.8558   23.1991 C   0  0  0  0  0  0
  -25.9133  -32.4757   23.8334 C   0  0  1  0  0  0
  -27.2311  -27.2823   20.1066 C   0  0  0  0  0  0
  -25.5932  -33.8559   24.2258 N   0  0  0  0  0  0
  -23.4266  -30.4786   21.5421 C   0  0  2  0  0  0
  -24.8746  -28.9286   20.1076 C   0  0  0  0  0  0
  -22.7499  -29.4603   22.4912 C   0  0  0  0  0  0
  -18.0292  -28.1387   22.8484 C   0  0  0  0  0  0
  -24.1489  -36.7284   23.2639 C   0  0  0  0  0  0
  -25.9716  -30.7724   21.3778 C   0  0  0  0  0  0
  -26.0450  -29.3968   20.7177 C   0  0  0  0  0  0
  -27.2211  -28.5817   20.7160 C   0  0  0  0  0  0
  -26.0261  -26.8669   19.4948 C   0  0  0  0  0  0
  -24.8683  -27.6687   19.4905 C   0  0  0  0  0  0
  -23.6442  -29.8135   20.1574 C   0  0  0  0  0  0
  -25.4116  -36.3071   24.0326 C   0  0  1  0  0  0
  -20.5895  -28.3697   23.1270 C   0  0  2  0  0  0
  -20.6780  -26.9415   22.5408 C   0  0  0  0  0  0
  -19.5754  -26.6383   21.5212 C   0  0  0  0  0  0
  -18.1935  -26.7929   22.1626 C   0  0  0  0  0  0
  -19.1545  -28.8860   23.2872 C   0  0  0  0  0  0
  -18.9467  -30.1460   23.8891 C   0  0  0  0  0  0
  -17.6466  -30.6588   24.0563 C   0  0  0  0  0  0
  -25.9056  -34.9441   23.5095 C   0  0  0  0  0  0
  -16.5357  -29.9085   23.6332 C   0  0  0  0  0  0
  -16.7278  -28.6503   23.0352 C   0  0  0  0  0  0
  -26.4504  -31.6581   25.0721 C   0  0  0  0  0  0
  -25.3728  -31.3731   26.1442 C   0  0  0  0  0  0
  -27.0353  -30.2997   24.6208 C   0  0  0  0  0  0
  -27.6055  -32.4326   25.7496 C   0  0  0  0  0  0
  -27.5578  -37.1798   24.8466 C   0  0  0  0  0  0
  -21.4207  -29.3043   22.3657 N   0  0  0  0  0  0
  -26.4290  -37.3769   23.9408 N   0  0  0  0  0  0
  -24.6951  -31.0532   22.0961 N   0  0  0  0  0  0
  -23.4201  -28.8146   23.3012 O   0  0  0  0  0  0
  -28.3269  -26.3928   20.1882 O   0  0  0  0  0  0
  -26.5630  -34.8916   22.4664 O   0  0  0  0  0  0
  -23.5457  -32.1376   23.7294 O   0  0  0  0  0  0
  -28.4639  -19.4003   20.7155 C   0  0  0  0  0  0
  -30.6575  -19.4096   19.7644 C   0  0  0  0  0  0
  -28.6006  -17.9941   20.9674 C   0  0  0  0  0  0
  -30.7945  -18.0008   20.0118 C   0  0  0  0  0  0
  -29.1331  -23.1627   18.0023 C   0  0  0  0  0  0
  -28.8656  -23.8397   19.2290 C   0  0  0  0  0  0
  -29.4793  -20.1591   20.0745 C   0  0  0  0  0  0
  -29.7518  -17.2319   20.6009 C   0  0  0  0  0  0
  -28.9504  -22.8069   20.1889 C   0  0  0  0  0  0
  -29.3603  -21.8395   18.2240 C   0  0  0  0  0  0
  -28.7595  -22.8855   21.6679 C   0  0  0  0  0  0
  -28.5830  -25.4130   19.1076 C   0  0  0  0  0  0
  -29.2761  -21.5418   19.5736 N   0  0  0  0  0  0
  -29.7510  -15.7659   20.8238 N   0  0  0  0  0  0
  -29.6232  -20.8753   17.2995 O   0  0  0  0  0  0
  -31.4841  -12.5775   19.1632 H   0  0  0  0  0  0
  -30.3995  -11.4483   19.9253 H   0  0  0  0  0  0
  -29.7917  -11.7517   17.5042 H   0  0  0  0  0  0
  -29.6435  -13.4754   17.7359 H   0  0  0  0  0  0
  -27.8887  -11.2863   18.8923 H   0  0  0  0  0  0
  -27.3825  -12.5477   17.7998 H   0  0  0  0  0  0
  -27.6588  -14.2506   19.5031 H   0  0  0  0  0  0
  -28.7238  -12.0886   21.3882 H   0  0  0  0  0  0
  -28.4279  -13.7435   21.8378 H   0  0  0  0  0  0
  -25.2762   -9.5682   22.4758 H   0  0  0  0  0  0
  -24.0001   -7.4634   22.7473 H   0  0  0  0  0  0
  -21.0839   -8.8777   19.8953 H   0  0  0  0  0  0
  -22.3697  -10.9674   19.6166 H   0  0  0  0  0  0
  -21.2008   -7.6146   23.9715 H   0  0  0  0  0  0
  -21.1480   -6.0521   25.9076 H   0  0  0  0  0  0
  -22.0599   -2.7608   23.2847 H   0  0  0  0  0  0
  -22.4100  -11.9887   22.4806 H   0  0  0  0  0  0
  -21.1106  -13.1255   22.2619 H   0  0  0  0  0  0
  -24.6546  -15.8404   20.5068 H   0  0  0  0  0  0
  -26.2637  -15.6236   20.0424 H   0  0  0  0  0  0
  -26.7199  -32.5410   23.1075 H   0  0  0  0  0  0
  -25.0072  -33.9696   25.0398 H   0  0  0  0  0  0
  -22.7225  -31.3006   21.3971 H   0  0  0  0  0  0
  -23.3752  -35.9615   23.3301 H   0  0  0  0  0  0
  -24.3577  -36.8908   22.2053 H   0  0  0  0  0  0
  -23.7243  -37.6484   23.6665 H   0  0  0  0  0  0
  -26.1103  -31.5348   20.6100 H   0  0  0  0  0  0
  -26.8489  -30.8196   22.0113 H   0  0  0  0  0  0
  -28.1151  -28.9338   21.2112 H   0  0  0  0  0  0
  -25.9368  -25.8833   19.0583 H   0  0  0  0  0  0
  -23.9657  -27.2951   19.0265 H   0  0  0  0  0  0
  -23.7671  -30.5907   19.4022 H   0  0  0  0  0  0
  -22.7628  -29.2466   19.8526 H   0  0  0  0  0  0
  -25.1297  -36.1917   25.0818 H   0  0  0  0  0  0
  -20.9988  -28.3277   24.1390 H   0  0  0  0  0  0
  -20.5680  -26.2308   23.3612 H   0  0  0  0  0  0
  -21.6648  -26.7440   22.1201 H   0  0  0  0  0  0
  -19.6915  -25.6293   21.1244 H   0  0  0  0  0  0
  -19.6689  -27.3192   20.6741 H   0  0  0  0  0  0
  -17.4203  -26.6673   21.4030 H   0  0  0  0  0  0
  -18.0337  -26.0072   22.9025 H   0  0  0  0  0  0
  -19.7943  -30.7277   24.2256 H   0  0  0  0  0  0
  -17.5021  -31.6267   24.5165 H   0  0  0  0  0  0
  -15.5357  -30.2985   23.7658 H   0  0  0  0  0  0
  -15.8679  -28.0820   22.7070 H   0  0  0  0  0  0
  -24.5904  -30.7078   25.7772 H   0  0  0  0  0  0
  -24.8919  -32.2902   26.4856 H   0  0  0  0  0  0
  -25.8045  -30.8916   27.0225 H   0  0  0  0  0  0
  -26.2938  -29.6740   24.1227 H   0  0  0  0  0  0
  -27.4029  -29.7265   25.4730 H   0  0  0  0  0  0
  -27.8819  -30.4269   23.9457 H   0  0  0  0  0  0
  -27.2657  -33.3629   26.2060 H   0  0  0  0  0  0
  -28.3872  -32.6882   25.0330 H   0  0  0  0  0  0
  -28.0716  -31.8461   26.5424 H   0  0  0  0  0  0
  -28.2596  -38.0094   24.7511 H   0  0  0  0  0  0
  -28.1073  -36.2625   24.6293 H   0  0  0  0  0  0
  -27.2296  -37.1451   25.8869 H   0  0  0  0  0  0
  -20.9392  -29.8762   21.6859 H   0  0  0  0  0  0
  -26.0169  -38.2843   24.1409 H   0  0  0  0  0  0
  -27.5326  -19.8866   20.9674 H   0  0  0  0  0  0
  -31.4655  -19.9171   19.2575 H   0  0  0  0  0  0
  -27.7641  -17.4868   21.4273 H   0  0  0  0  0  0
  -31.7081  -17.5119   19.7046 H   0  0  0  0  0  0
  -29.1506  -23.6261   17.0250 H   0  0  0  0  0  0
  -28.6951  -23.9219   22.0002 H   0  0  0  0  0  0
  -29.5904  -22.4172   22.1961 H   0  0  0  0  0  0
  -27.8414  -22.3807   21.9690 H   0  0  0  0  0  0
  -27.8728  -25.5341   18.2916 H   0  0  0  0  0  0
  -29.5036  -25.7951   18.6653 H   0  0  0  0  0  0
  -28.8770  -15.4190   21.1882 H   0  0  0  0  0  0
  -29.6087  -21.2851   16.4403 H   0  0  0  0  0  0
  1 25  1  0  0  0
  1 30  2  0  0  0
  1 84  1  0  0  0
  2  3  1  0  0  0
  2 25  1  0  0  0
  2 86  1  0  0  0
  2 87  1  0  0  0
  3  4  1  0  0  0
  3 88  1  0  0  0
  3 89  1  0  0  0
  4  5  1  0  0  0
  4 90  1  0  0  0
  4 91  1  0  0  0
  5  6  1  0  0  0
  5 26  1  0  0  0
  5 92  1  0  0  0
  6 25  1  0  0  0
  6 93  1  0  0  0
  6 94  1  0  0  0
  7  8  2  0  0  0
  7 26  1  0  0  0
  7 29  1  0  0  0
  8  9  1  0  0  0
  8 22  1  0  0  0
  9 10  1  0  0  0
  9 27  2  0  0  0
 10 11  2  0  0  0
 10 15  1  0  0  0
 11 12  1  0  0  0
 11 95  1  0  0  0
 12 13  2  0  0  0
 12 96  1  0  0  0
 13 14  1  0  0  0
 13 31  1  0  0  0
 14 15  2  0  0  0
 14 97  1  0  0  0
 15 98  1  0  0  0
 16 17  2  0  0  0
 16 21  1  0  0  0
 16 31  1  0  0  0
 17 18  1  0  0  0
 17 99  1  0  0  0
 18 19  2  0  0  0
 18100  1  0  0  0
 19 20  1  0  0  0
 19 24  1  0  0  0
 20 21  2  0  0  0
 20101  1  0  0  0
 21 23  1  0  0  0
 22 28  1  0  0  0
 22 32  2  0  0  0
 26 27  1  0  0  0
 28102  1  0  0  0
 28103  1  0  0  0
 29104  1  0  0  0
 29105  1  0  0  0
 33 34  1  0  0  0
 33 66  1  0  0  0
 33 70  2  0  0  0
 34 36  1  0  0  0
 34 59  1  0  0  0
 34106  1  0  0  0
 35 44  2  0  0  0
 35 45  1  0  0  0
 35 68  1  0  0  0
 36 56  1  0  0  0
 36107  1  0  0  0
 37 39  1  0  0  0
 37 47  1  0  0  0
 37 66  1  0  0  0
 37108  1  0  0  0
 38 43  2  0  0  0
 38 46  1  0  0  0
 38 47  1  0  0  0
 39 64  1  0  0  0
 39 67  2  0  0  0
 40 52  1  0  0  0
 40 53  2  0  0  0
 40 58  1  0  0  0
 41109  1  0  0  0
 41110  1  0  0  0
 41111  1  0  0  0
 41 48  1  0  0  0
 42 43  1  0  0  0
 42 66  1  0  0  0
 42112  1  0  0  0
 42113  1  0  0  0
 43 44  1  0  0  0
 44114  1  0  0  0
 45 46  2  0  0  0
 45115  1  0  0  0
 46116  1  0  0  0
 47117  1  0  0  0
 47118  1  0  0  0
 48 56  1  0  0  0
 48 65  1  0  0  0
 48119  1  0  0  0
 49 50  1  0  0  0
 49 53  1  0  0  0
 49 64  1  0  0  0
 49120  1  0  0  0
 50 51  1  0  0  0
 50121  1  0  0  0
 50122  1  0  0  0
 51 52  1  0  0  0
 51123  1  0  0  0
 51124  1  0  0  0
 52125  1  0  0  0
 52126  1  0  0  0
 53 54  1  0  0  0
 54 55  2  0  0  0
 54127  1  0  0  0
 55 57  1  0  0  0
 55128  1  0  0  0
 56 69  2  0  0  0
 57 58  2  0  0  0
 57129  1  0  0  0
 58130  1  0  0  0
 59 60  1  0  0  0
 59 61  1  0  0  0
 59 62  1  0  0  0
 60131  1  0  0  0
 60132  1  0  0  0
 60133  1  0  0  0
 61134  1  0  0  0
 61135  1  0  0  0
 61136  1  0  0  0
 62137  1  0  0  0
 62138  1  0  0  0
 62139  1  0  0  0
 63 65  1  0  0  0
 63140  1  0  0  0
 63141  1  0  0  0
 63142  1  0  0  0
 64143  1  0  0  0
 65144  1  0  0  0
 68 82  1  0  0  0
 71 73  2  0  0  0
 71 77  1  0  0  0
 71145  1  0  0  0
 72 74  1  0  0  0
 72 77  2  0  0  0
 72146  1  0  0  0
 73 78  1  0  0  0
 73147  1  0  0  0
 74 78  2  0  0  0
 74148  1  0  0  0
 75 76  1  0  0  0
 75 80  2  0  0  0
 75149  1  0  0  0
 76 79  2  0  0  0
 76 82  1  0  0  0
 77 83  1  0  0  0
 78 84  1  0  0  0
 79 81  1  0  0  0
 79 83  1  0  0  0
 80 83  1  0  0  0
 80 85  1  0  0  0
 81150  1  0  0  0
 81151  1  0  0  0
 81152  1  0  0  0
 82153  1  0  0  0
 82154  1  0  0  0
 84155  1  0  0  0
 85156  1  0  0  0
M  ISO  4   1 100  68 101  82 101  84 100
M  END
> <chiral flag>
0

> <version>
0

> <s_m_source_file>
/data/baiqing/PycharmProjects/Reinvent-master-3.2/result/LINK_invent/BTK/process_docking_weight1_custom_product_contain_oxygen_bond_distance_aromatic_linkinvent_7_9_3/rearranged_h_0078.sdf

> <i_m_source_file_index>
57

> <r_mmod_Potential_Energy-OPLS-2005>
178.240844726562

> <r_mmod_Stretch_Energy-OPLS-2005>
108.313705444336

> <r_mmod_Bend_Energy-OPLS-2005>
208.920532226562

> <r_mmod_Torsional_Energy-OPLS-2005>
242.131271362305

> <r_mmod_Improper_Torsional_Energy-OPLS-2005>
5.29039287567139

> <r_mmod_Van_der_Waal_Energy-OPLS-2005>
134.663619995117

> <r_mmod_Electrostatic_Energy-OPLS-2005>
-374.483459472656

> <r_mmod_Solvation_Energy-OPLS-2005>
-221.000503540039

> <b_mmod_Minimization_Converged-OPLS-2005>
0

> <r_mmod_RMS_Derivative-OPLS-2005>
0.17594051361084

$$$$
58
                    3D
 Structure written by MMmdl.
159168  0  0  1  0            999 V2000
  -30.5808  -14.7057   20.4816 C   0  0  0  0  0  0
  -30.4482  -12.4323   19.4561 C   0  0  0  0  0  0
  -29.5132  -12.5114   18.2271 C   0  0  0  0  0  0
  -28.0367  -12.3361   18.6399 C   0  0  0  0  0  0
  -27.6499  -13.2155   19.8581 C   0  0  2  0  0  0
  -28.6966  -13.0947   20.9879 C   0  0  0  0  0  0
  -25.2568  -13.8185   20.5681 C   0  0  0  0  0  0
  -24.1834  -13.0449   20.9194 C   0  0  0  0  0  0
  -24.6395  -11.6915   20.8741 C   0  0  0  0  0  0
  -23.9062  -10.4298   21.0408 C   0  0  0  0  0  0
  -24.3615   -9.4214   21.9184 C   0  0  0  0  0  0
  -23.6294   -8.2247   22.0752 C   0  0  0  0  0  0
  -22.4274   -8.0285   21.3545 C   0  0  0  0  0  0
  -21.9908   -9.0258   20.4646 C   0  0  0  0  0  0
  -22.7235  -10.2139   20.3057 C   0  0  0  0  0  0
  -21.6853   -6.0737   22.5281 C   0  0  0  0  0  0
  -21.4013   -6.5639   23.8215 C   0  0  0  0  0  0
  -21.3661   -5.6790   24.9176 C   0  0  0  0  0  0
  -21.6046   -4.3053   24.7225 C   0  0  0  0  0  0
  -21.8819   -3.8147   23.4344 C   0  0  0  0  0  0
  -21.9193   -4.6965   22.3402 C   0  0  0  0  0  0
  -22.7856  -13.5242   21.1858 C   0  0  0  0  0  0
  -22.1662   -4.2152   21.0979 F   0  0  0  0  0  0
  -21.5630   -3.4536   25.7737 F   0  0  0  0  0  0
  -30.0028  -13.4606   20.4186 N   0  0  0  0  0  0
  -26.2977  -12.9349   20.3294 N   0  0  0  0  0  0
  -25.9320  -11.6506   20.5747 N   0  0  0  0  0  0
  -22.0493  -12.8235   22.0414 N   0  0  0  0  0  0
  -25.4254  -15.1919   20.4103 N   0  0  0  0  0  0
  -31.7612  -14.8764   20.1602 O   0  0  0  0  0  0
  -21.6641   -6.8880   21.4241 O   0  0  0  0  0  0
  -22.3538  -14.5547   20.6706 O   0  0  0  0  0  0
  -24.6296  -31.8561   23.1991 C   0  0  0  0  0  0
  -25.9129  -32.4758   23.8332 C   0  0  1  0  0  0
  -27.2312  -27.2863   20.1097 C   0  0  0  0  0  0
  -25.5928  -33.8561   24.2258 N   0  0  0  0  0  0
  -23.4251  -30.4792   21.5429 C   0  0  2  0  0  0
  -24.8714  -28.9280   20.1121 C   0  0  0  0  0  0
  -22.7491  -29.4604   22.4922 C   0  0  0  0  0  0
  -18.0287  -28.1386   22.8484 C   0  0  0  0  0  0
  -24.1489  -36.7287   23.2638 C   0  0  0  0  0  0
  -25.9697  -30.7773   21.3735 C   0  0  0  0  0  0
  -26.0437  -29.4021   20.7133 C   0  0  0  0  0  0
  -27.2237  -28.5938   20.7003 C   0  0  0  0  0  0
  -26.0195  -26.8614   19.5164 C   0  0  0  0  0  0
  -24.8624  -27.6633   19.5060 C   0  0  0  0  0  0
  -23.6415  -29.8127   20.1592 C   0  0  0  0  0  0
  -25.4114  -36.3071   24.0325 C   0  0  1  0  0  0
  -20.5890  -28.3691   23.1277 C   0  0  2  0  0  0
  -20.6773  -26.9409   22.5412 C   0  0  0  0  0  0
  -19.5752  -26.6382   21.5212 C   0  0  0  0  0  0
  -18.1931  -26.7928   22.1620 C   0  0  0  0  0  0
  -19.1541  -28.8856   23.2876 C   0  0  0  0  0  0
  -18.9462  -30.1456   23.8894 C   0  0  0  0  0  0
  -17.6461  -30.6586   24.0562 C   0  0  0  0  0  0
  -25.9056  -34.9441   23.5097 C   0  0  0  0  0  0
  -16.5352  -29.9082   23.6331 C   0  0  0  0  0  0
  -16.7274  -28.6500   23.0351 C   0  0  0  0  0  0
  -26.4500  -31.6576   25.0715 C   0  0  0  0  0  0
  -25.3726  -31.3726   26.1438 C   0  0  0  0  0  0
  -27.0338  -30.2989   24.6190 C   0  0  0  0  0  0
  -27.6057  -32.4311   25.7488 C   0  0  0  0  0  0
  -27.5586  -37.1790   24.8455 C   0  0  0  0  0  0
  -21.4200  -29.3042   22.3669 N   0  0  0  0  0  0
  -26.4286  -37.3774   23.9416 N   0  0  0  0  0  0
  -24.6941  -31.0545   22.0954 N   0  0  0  0  0  0
  -23.4199  -28.8146   23.3016 O   0  0  0  0  0  0
  -28.3563  -26.4292   20.1690 O   0  0  0  0  0  0
  -26.5630  -34.8915   22.4667 O   0  0  0  0  0  0
  -23.5452  -32.1373   23.7300 O   0  0  0  0  0  0
  -30.4684  -19.4922   21.3021 C   0  0  0  0  0  0
  -30.6330  -18.0665   21.3032 C   0  0  0  0  0  0
  -28.6221  -19.2997   19.7879 C   0  0  0  0  0  0
  -29.4540  -20.1680   20.5535 C   0  0  0  0  0  0
  -29.7698  -17.2093   20.5697 C   0  0  0  0  0  0
  -28.7620  -17.8720   19.8116 C   0  0  0  0  0  0
  -28.7099  -23.9389   20.2832 C   0  0  0  0  0  0
  -29.0736  -23.7691   21.6686 C   0  0  0  0  0  0
  -28.8028  -22.5520   19.7095 C   0  0  0  0  0  0
  -29.0053  -24.7053   22.6323 C   0  0  0  0  0  0
  -28.3911  -25.1189   19.6079 C   0  0  0  0  0  0
  -29.5257  -22.3450   21.9149 C   0  0  0  0  0  0
  -28.2218  -25.1698   18.0930 C   0  0  0  0  0  0
  -29.2475  -21.6421   20.6556 N   0  0  0  0  0  0
  -27.8658  -17.0870   19.0852 N   0  0  0  0  0  0
  -29.7091  -15.7448   20.7147 N   0  0  0  0  0  0
  -28.5256  -22.2244   18.5507 O   0  0  0  0  0  0
  -31.4858  -12.5818   19.1523 H   0  0  0  0  0  0
  -30.4074  -11.4420   19.9121 H   0  0  0  0  0  0
  -29.7895  -11.7522   17.4944 H   0  0  0  0  0  0
  -29.6411  -13.4748   17.7307 H   0  0  0  0  0  0
  -27.8851  -11.2839   18.8828 H   0  0  0  0  0  0
  -27.3801  -12.5499   17.7957 H   0  0  0  0  0  0
  -27.6558  -14.2440   19.5012 H   0  0  0  0  0  0
  -28.7260  -12.0766   21.3788 H   0  0  0  0  0  0
  -28.4351  -13.7322   21.8342 H   0  0  0  0  0  0
  -25.2759   -9.5694   22.4758 H   0  0  0  0  0  0
  -24.0008   -7.4637   22.7467 H   0  0  0  0  0  0
  -21.0841   -8.8773   19.8951 H   0  0  0  0  0  0
  -22.3690  -10.9678   19.6168 H   0  0  0  0  0  0
  -21.2002   -7.6147   23.9722 H   0  0  0  0  0  0
  -21.1484   -6.0517   25.9081 H   0  0  0  0  0  0
  -22.0596   -2.7610   23.2842 H   0  0  0  0  0  0
  -22.4100  -11.9895   22.4808 H   0  0  0  0  0  0
  -21.1112  -13.1269   22.2614 H   0  0  0  0  0  0
  -24.6505  -15.8352   20.5263 H   0  0  0  0  0  0
  -26.2615  -15.6564   20.0638 H   0  0  0  0  0  0
  -26.7195  -32.5415   23.1074 H   0  0  0  0  0  0
  -25.0057  -33.9698   25.0391 H   0  0  0  0  0  0
  -22.7208  -31.3009   21.3974 H   0  0  0  0  0  0
  -23.3758  -35.9610   23.3276 H   0  0  0  0  0  0
  -24.3587  -36.8937   22.2058 H   0  0  0  0  0  0
  -23.7229  -37.6474   23.6680 H   0  0  0  0  0  0
  -26.1049  -31.5406   20.6061 H   0  0  0  0  0  0
  -26.8480  -30.8249   22.0056 H   0  0  0  0  0  0
  -28.1245  -28.9550   21.1763 H   0  0  0  0  0  0
  -25.9323  -25.8804   19.0775 H   0  0  0  0  0  0
  -23.9589  -27.2861   19.0469 H   0  0  0  0  0  0
  -23.7643  -30.5884   19.4024 H   0  0  0  0  0  0
  -22.7603  -29.2446   19.8555 H   0  0  0  0  0  0
  -25.1295  -36.1913   25.0816 H   0  0  0  0  0  0
  -20.9981  -28.3264   24.1398 H   0  0  0  0  0  0
  -20.5661  -26.2302   23.3615 H   0  0  0  0  0  0
  -21.6643  -26.7427   22.1213 H   0  0  0  0  0  0
  -19.6911  -25.6291   21.1246 H   0  0  0  0  0  0
  -19.6695  -27.3189   20.6739 H   0  0  0  0  0  0
  -17.4202  -26.6679   21.4020 H   0  0  0  0  0  0
  -18.0328  -26.0068   22.9014 H   0  0  0  0  0  0
  -19.7937  -30.7274   24.2262 H   0  0  0  0  0  0
  -17.5014  -31.6267   24.5161 H   0  0  0  0  0  0
  -15.5351  -30.2983   23.7657 H   0  0  0  0  0  0
  -15.8673  -28.0818   22.7067 H   0  0  0  0  0  0
  -24.5909  -30.7064   25.7770 H   0  0  0  0  0  0
  -24.8908  -32.2893   26.4845 H   0  0  0  0  0  0
  -25.8046  -30.8920   27.0224 H   0  0  0  0  0  0
  -26.2912  -29.6742   24.1210 H   0  0  0  0  0  0
  -27.4013  -29.7248   25.4705 H   0  0  0  0  0  0
  -27.8795  -30.4258   23.9429 H   0  0  0  0  0  0
  -27.2666  -33.3611   26.2062 H   0  0  0  0  0  0
  -28.3870  -32.6869   25.0318 H   0  0  0  0  0  0
  -28.0721  -31.8436   26.5406 H   0  0  0  0  0  0
  -28.2573  -38.0117   24.7542 H   0  0  0  0  0  0
  -28.1111  -36.2651   24.6223 H   0  0  0  0  0  0
  -27.2315  -37.1367   25.8859 H   0  0  0  0  0  0
  -20.9377  -29.8773   21.6886 H   0  0  0  0  0  0
  -26.0161  -38.2841   24.1445 H   0  0  0  0  0  0
  -31.1411  -20.0716   21.9185 H   0  0  0  0  0  0
  -31.3989  -17.6322   21.9299 H   0  0  0  0  0  0
  -27.8210  -19.7347   19.2076 H   0  0  0  0  0  0
  -28.6639  -25.7117   22.4428 H   0  0  0  0  0  0
  -29.2928  -24.4721   23.6477 H   0  0  0  0  0  0
  -28.9689  -21.8955   22.7381 H   0  0  0  0  0  0
  -30.5902  -22.3247   22.1508 H   0  0  0  0  0  0
  -27.3385  -24.6139   17.7785 H   0  0  0  0  0  0
  -29.0908  -24.7311   17.6020 H   0  0  0  0  0  0
  -28.1349  -26.1933   17.7278 H   0  0  0  0  0  0
  -27.3160  -17.5799   18.3900 H   0  0  0  0  0  0
  -28.2722  -16.2489   18.6873 H   0  0  0  0  0  0
  -28.7615  -15.4157   20.8123 H   0  0  0  0  0  0
  1 25  1  0  0  0
  1 30  2  0  0  0
  1 86  1  0  0  0
  2  3  1  0  0  0
  2 25  1  0  0  0
  2 88  1  0  0  0
  2 89  1  0  0  0
  3  4  1  0  0  0
  3 90  1  0  0  0
  3 91  1  0  0  0
  4  5  1  0  0  0
  4 92  1  0  0  0
  4 93  1  0  0  0
  5  6  1  0  0  0
  5 26  1  0  0  0
  5 94  1  0  0  0
  6 25  1  0  0  0
  6 95  1  0  0  0
  6 96  1  0  0  0
  7  8  2  0  0  0
  7 26  1  0  0  0
  7 29  1  0  0  0
  8  9  1  0  0  0
  8 22  1  0  0  0
  9 10  1  0  0  0
  9 27  2  0  0  0
 10 11  2  0  0  0
 10 15  1  0  0  0
 11 12  1  0  0  0
 11 97  1  0  0  0
 12 13  2  0  0  0
 12 98  1  0  0  0
 13 14  1  0  0  0
 13 31  1  0  0  0
 14 15  2  0  0  0
 14 99  1  0  0  0
 15100  1  0  0  0
 16 17  2  0  0  0
 16 21  1  0  0  0
 16 31  1  0  0  0
 17 18  1  0  0  0
 17101  1  0  0  0
 18 19  2  0  0  0
 18102  1  0  0  0
 19 20  1  0  0  0
 19 24  1  0  0  0
 20 21  2  0  0  0
 20103  1  0  0  0
 21 23  1  0  0  0
 22 28  1  0  0  0
 22 32  2  0  0  0
 26 27  1  0  0  0
 28104  1  0  0  0
 28105  1  0  0  0
 29106  1  0  0  0
 29107  1  0  0  0
 33 34  1  0  0  0
 33 66  1  0  0  0
 33 70  2  0  0  0
 34 36  1  0  0  0
 34 59  1  0  0  0
 34108  1  0  0  0
 35 44  2  0  0  0
 35 45  1  0  0  0
 35 68  1  0  0  0
 36 56  1  0  0  0
 36109  1  0  0  0
 37 39  1  0  0  0
 37 47  1  0  0  0
 37 66  1  0  0  0
 37110  1  0  0  0
 38 43  2  0  0  0
 38 46  1  0  0  0
 38 47  1  0  0  0
 39 64  1  0  0  0
 39 67  2  0  0  0
 40 52  1  0  0  0
 40 53  2  0  0  0
 40 58  1  0  0  0
 41111  1  0  0  0
 41112  1  0  0  0
 41113  1  0  0  0
 41 48  1  0  0  0
 42 43  1  0  0  0
 42 66  1  0  0  0
 42114  1  0  0  0
 42115  1  0  0  0
 43 44  1  0  0  0
 44116  1  0  0  0
 45 46  2  0  0  0
 45117  1  0  0  0
 46118  1  0  0  0
 47119  1  0  0  0
 47120  1  0  0  0
 48 56  1  0  0  0
 48 65  1  0  0  0
 48121  1  0  0  0
 49 50  1  0  0  0
 49 53  1  0  0  0
 49 64  1  0  0  0
 49122  1  0  0  0
 50 51  1  0  0  0
 50123  1  0  0  0
 50124  1  0  0  0
 51 52  1  0  0  0
 51125  1  0  0  0
 51126  1  0  0  0
 52127  1  0  0  0
 52128  1  0  0  0
 53 54  1  0  0  0
 54 55  2  0  0  0
 54129  1  0  0  0
 55 57  1  0  0  0
 55130  1  0  0  0
 56 69  2  0  0  0
 57 58  2  0  0  0
 57131  1  0  0  0
 58132  1  0  0  0
 59 60  1  0  0  0
 59 61  1  0  0  0
 59 62  1  0  0  0
 60133  1  0  0  0
 60134  1  0  0  0
 60135  1  0  0  0
 61136  1  0  0  0
 61137  1  0  0  0
 61138  1  0  0  0
 62139  1  0  0  0
 62140  1  0  0  0
 62141  1  0  0  0
 63 65  1  0  0  0
 63142  1  0  0  0
 63143  1  0  0  0
 63144  1  0  0  0
 64145  1  0  0  0
 65146  1  0  0  0
 68 81  1  0  0  0
 71 72  2  0  0  0
 71 74  1  0  0  0
 71147  1  0  0  0
 72 75  1  0  0  0
 72148  1  0  0  0
 73 74  2  0  0  0
 73 76  1  0  0  0
 73149  1  0  0  0
 74 84  1  0  0  0
 75 76  2  0  0  0
 75 86  1  0  0  0
 76 85  1  0  0  0
 77 78  1  0  0  0
 77 79  1  0  0  0
 77 81  2  0  0  0
 78 80  2  0  0  0
 78 82  1  0  0  0
 79 84  1  0  0  0
 79 87  2  0  0  0
 80150  1  0  0  0
 80151  1  0  0  0
 81 83  1  0  0  0
 82 84  1  0  0  0
 82152  1  0  0  0
 82153  1  0  0  0
 83154  1  0  0  0
 83155  1  0  0  0
 83156  1  0  0  0
 85157  1  0  0  0
 85158  1  0  0  0
 86159  1  0  0  0
M  ISO  4   1 100  68 101  81 101  86 100
M  END
> <chiral flag>
0

> <version>
0

> <s_m_source_file>
/data/baiqing/PycharmProjects/Reinvent-master-3.2/result/LINK_invent/BTK/process_docking_weight1_custom_product_contain_oxygen_bond_distance_aromatic_linkinvent_7_9_3/rearranged_h_0078.sdf

> <i_m_source_file_index>
58

> <r_mmod_Potential_Energy-OPLS-2005>
194.813400268555

> <r_mmod_Stretch_Energy-OPLS-2005>
101.865631103516

> <r_mmod_Bend_Energy-OPLS-2005>
197.961685180664

> <r_mmod_Torsional_Energy-OPLS-2005>
296.609191894531

> <r_mmod_Improper_Torsional_Energy-OPLS-2005>
11.9907960891724

> <r_mmod_Van_der_Waal_Energy-OPLS-2005>
142.343765258789

> <r_mmod_Electrostatic_Energy-OPLS-2005>
-420.278656005859

> <r_mmod_Solvation_Energy-OPLS-2005>
-204.667114257812

> <b_mmod_Minimization_Converged-OPLS-2005>
0

> <r_mmod_RMS_Derivative-OPLS-2005>
0.47188076376915

$$$$
59
                    3D
 Structure written by MMmdl.
155164  0  0  1  0            999 V2000
  -30.4922  -15.0123   20.4094 C   0  0  0  0  0  0
  -30.4510  -12.6296   19.4980 C   0  0  0  0  0  0
  -29.5281  -12.5451   18.2582 C   0  0  0  0  0  0
  -28.0603  -12.3212   18.6736 C   0  0  0  0  0  0
  -27.6287  -13.2527   19.8364 C   0  0  2  0  0  0
  -28.6722  -13.2886   20.9732 C   0  0  0  0  0  0
  -25.2451  -13.8229   20.5702 C   0  0  0  0  0  0
  -24.1782  -13.0441   20.9231 C   0  0  0  0  0  0
  -24.6397  -11.6927   20.8744 C   0  0  0  0  0  0
  -23.9071  -10.4293   21.0394 C   0  0  0  0  0  0
  -24.3626   -9.4217   21.9175 C   0  0  0  0  0  0
  -23.6300   -8.2249   22.0758 C   0  0  0  0  0  0
  -22.4284   -8.0274   21.3541 C   0  0  0  0  0  0
  -21.9907   -9.0246   20.4651 C   0  0  0  0  0  0
  -22.7233  -10.2126   20.3053 C   0  0  0  0  0  0
  -21.6862   -6.0728   22.5276 C   0  0  0  0  0  0
  -21.4016   -6.5635   23.8207 C   0  0  0  0  0  0
  -21.3661   -5.6795   24.9173 C   0  0  0  0  0  0
  -21.6058   -4.3056   24.7228 C   0  0  0  0  0  0
  -21.8815   -3.8143   23.4350 C   0  0  0  0  0  0
  -21.9196   -4.6957   22.3405 C   0  0  0  0  0  0
  -22.7794  -13.5199   21.1883 C   0  0  0  0  0  0
  -22.1661   -4.2147   21.0983 F   0  0  0  0  0  0
  -21.5629   -3.4536   25.7733 F   0  0  0  0  0  0
  -29.9407  -13.7261   20.3738 N   0  0  0  0  0  0
  -26.2882  -12.9460   20.3231 N   0  0  0  0  0  0
  -25.9337  -11.6586   20.5724 N   0  0  0  0  0  0
  -22.0443  -12.8195   22.0449 N   0  0  0  0  0  0
  -25.4102  -15.1964   20.4109 N   0  0  0  0  0  0
  -31.6987  -15.1063   20.1528 O   0  0  0  0  0  0
  -21.6653   -6.8872   21.4233 O   0  0  0  0  0  0
  -22.3467  -14.5480   20.6703 O   0  0  0  0  0  0
  -24.6436  -31.8416   23.1843 C   0  0  0  0  0  0
  -25.9203  -32.4683   23.8250 C   0  0  1  0  0  0
  -27.2190  -27.1124   20.1550 C   0  0  0  0  0  0
  -25.5964  -33.8496   24.2188 N   0  0  0  0  0  0
  -23.4497  -30.4569   21.5302 C   0  0  2  0  0  0
  -24.9004  -28.8747   20.1081 C   0  0  0  0  0  0
  -22.7580  -29.4519   22.4850 C   0  0  0  0  0  0
  -18.0315  -28.1391   22.8470 C   0  0  0  0  0  0
  -24.1492  -36.7245   23.2638 C   0  0  0  0  0  0
  -26.0048  -30.7034   21.3883 C   0  0  0  0  0  0
  -26.0739  -29.3116   20.7327 C   0  0  0  0  0  0
  -27.2289  -28.4428   20.7453 C   0  0  0  0  0  0
  -26.0217  -26.7789   19.4875 C   0  0  0  0  0  0
  -24.8864  -27.6219   19.4731 C   0  0  0  0  0  0
  -23.6778  -29.7801   20.1512 C   0  0  0  0  0  0
  -25.4130  -36.3028   24.0313 C   0  0  1  0  0  0
  -20.5925  -28.3718   23.1231 C   0  0  2  0  0  0
  -20.6795  -26.9415   22.5415 C   0  0  0  0  0  0
  -19.5771  -26.6372   21.5218 C   0  0  0  0  0  0
  -18.1951  -26.7928   22.1620 C   0  0  0  0  0  0
  -19.1569  -28.8876   23.2834 C   0  0  0  0  0  0
  -18.9490  -30.1481   23.8847 C   0  0  0  0  0  0
  -17.6479  -30.6581   24.0559 C   0  0  0  0  0  0
  -25.9084  -34.9402   23.5056 C   0  0  0  0  0  0
  -16.5369  -29.9078   23.6333 C   0  0  0  0  0  0
  -16.7296  -28.6506   23.0337 C   0  0  0  0  0  0
  -26.4525  -31.6550   25.0701 C   0  0  0  0  0  0
  -25.3712  -31.3751   26.1409 C   0  0  0  0  0  0
  -27.0401  -30.2941   24.6296 C   0  0  0  0  0  0
  -27.6046  -32.4318   25.7494 C   0  0  0  0  0  0
  -27.5579  -37.1782   24.8467 C   0  0  0  0  0  0
  -21.4267  -29.3039   22.3603 N   0  0  0  0  0  0
  -26.4295  -37.3740   23.9398 N   0  0  0  0  0  0
  -24.7193  -31.0240   22.0888 N   0  0  0  0  0  0
  -23.4216  -28.8078   23.3011 O   0  0  0  0  0  0
  -28.2789  -26.1351   20.2680 O   0  0  0  0  0  0
  -26.5663  -34.8900   22.4632 O   0  0  0  0  0  0
  -23.5553  -32.1310   23.7048 O   0  0  0  0  0  0
  -28.9730  -19.8812   19.1901 C   0  0  0  0  0  0
  -29.8133  -20.1031   21.3580 C   0  0  0  0  0  0
  -29.1294  -18.4275   19.2784 C   0  0  0  0  0  0
  -29.9765  -18.6460   21.4482 C   0  0  0  0  0  0
  -29.2980  -20.8350   20.2214 C   0  0  0  0  0  0
  -29.6726  -17.6999   20.4000 C   0  0  0  0  0  0
  -30.7957  -22.6329   20.0055 C   0  0  0  0  0  0
  -28.8848  -23.5934   20.5288 C   0  0  0  0  0  0
  -31.7093  -22.2622   19.0944 C   0  0  0  0  0  0
  -28.2324  -24.7027   19.9117 C   0  0  0  0  0  0
  -31.1084  -23.4863   21.2193 C   0  0  0  0  0  0
  -29.7367  -23.8959   21.7313 C   0  0  0  0  0  0
  -29.4403  -22.3174   19.9759 N   0  0  0  0  0  0
  -29.6314  -16.1522   20.5359 N   0  0  0  0  0  0
  -31.4790  -12.8151   19.1802 H   0  0  0  0  0  0
  -30.4715  -11.6798   20.0354 H   0  0  0  0  0  0
  -29.8555  -11.7453   17.5922 H   0  0  0  0  0  0
  -29.6075  -13.4722   17.6887 H   0  0  0  0  0  0
  -27.9606  -11.2792   18.9780 H   0  0  0  0  0  0
  -27.3997  -12.4489   17.8143 H   0  0  0  0  0  0
  -27.5837  -14.2524   19.4026 H   0  0  0  0  0  0
  -28.7753  -12.3107   21.4467 H   0  0  0  0  0  0
  -28.3617  -13.9800   21.7582 H   0  0  0  0  0  0
  -25.2762   -9.5698   22.4763 H   0  0  0  0  0  0
  -24.0014   -7.4643   22.7474 H   0  0  0  0  0  0
  -21.0845   -8.8749   19.8961 H   0  0  0  0  0  0
  -22.3673  -10.9663   19.6173 H   0  0  0  0  0  0
  -21.2002   -7.6140   23.9709 H   0  0  0  0  0  0
  -21.1493   -6.0524   25.9080 H   0  0  0  0  0  0
  -22.0596   -2.7603   23.2850 H   0  0  0  0  0  0
  -22.4058  -11.9863   22.4858 H   0  0  0  0  0  0
  -21.1060  -13.1227   22.2642 H   0  0  0  0  0  0
  -24.6324  -15.8405   20.5097 H   0  0  0  0  0  0
  -26.2387  -15.6375   20.0353 H   0  0  0  0  0  0
  -26.7261  -32.5278   23.0962 H   0  0  0  0  0  0
  -25.0107  -33.9615   25.0338 H   0  0  0  0  0  0
  -22.7517  -31.2816   21.3722 H   0  0  0  0  0  0
  -23.3767  -35.9564   23.3297 H   0  0  0  0  0  0
  -24.3560  -36.8883   22.2050 H   0  0  0  0  0  0
  -23.7247  -37.6437   23.6683 H   0  0  0  0  0  0
  -26.1653  -31.4528   20.6123 H   0  0  0  0  0  0
  -26.8725  -30.7540   22.0343 H   0  0  0  0  0  0
  -28.1181  -28.7665   21.2675 H   0  0  0  0  0  0
  -25.9285  -25.8160   19.0085 H   0  0  0  0  0  0
  -23.9871  -27.2816   18.9792 H   0  0  0  0  0  0
  -23.8165  -30.5524   19.3942 H   0  0  0  0  0  0
  -22.7929  -29.2220   19.8407 H   0  0  0  0  0  0
  -25.1314  -36.1847   25.0808 H   0  0  0  0  0  0
  -21.0004  -28.3315   24.1352 H   0  0  0  0  0  0
  -20.5701  -26.2320   23.3641 H   0  0  0  0  0  0
  -21.6658  -26.7427   22.1198 H   0  0  0  0  0  0
  -19.6934  -25.6282   21.1260 H   0  0  0  0  0  0
  -19.6711  -27.3169   20.6745 H   0  0  0  0  0  0
  -17.4222  -26.6668   21.4021 H   0  0  0  0  0  0
  -18.0343  -26.0083   22.9030 H   0  0  0  0  0  0
  -19.7970  -30.7325   24.2158 H   0  0  0  0  0  0
  -17.5036  -31.6250   24.5184 H   0  0  0  0  0  0
  -15.5371  -30.2957   23.7701 H   0  0  0  0  0  0
  -15.8699  -28.0833   22.7034 H   0  0  0  0  0  0
  -24.5885  -30.7099   25.7739 H   0  0  0  0  0  0
  -24.8922  -32.2949   26.4778 H   0  0  0  0  0  0
  -25.8006  -30.8965   27.0223 H   0  0  0  0  0  0
  -26.3034  -29.6646   24.1297 H   0  0  0  0  0  0
  -27.4000  -29.7242   25.4869 H   0  0  0  0  0  0
  -27.8936  -30.4159   23.9625 H   0  0  0  0  0  0
  -27.2623  -33.3625   26.2023 H   0  0  0  0  0  0
  -28.3891  -32.6865   25.0358 H   0  0  0  0  0  0
  -28.0678  -31.8485   26.5460 H   0  0  0  0  0  0
  -28.2589  -38.0084   24.7501 H   0  0  0  0  0  0
  -28.1082  -36.2609   24.6310 H   0  0  0  0  0  0
  -27.2286  -37.1440   25.8869 H   0  0  0  0  0  0
  -20.9487  -29.8738   21.6765 H   0  0  0  0  0  0
  -26.0158  -38.2806   24.1407 H   0  0  0  0  0  0
  -28.6168  -20.2804   18.2515 H   0  0  0  0  0  0
  -30.1437  -20.6866   22.2056 H   0  0  0  0  0  0
  -28.8072  -17.8551   18.4202 H   0  0  0  0  0  0
  -30.3509  -18.2516   22.3829 H   0  0  0  0  0  0
  -32.7439  -22.5604   19.1897 H   0  0  0  0  0  0
  -31.4420  -21.6639   18.2366 H   0  0  0  0  0  0
  -27.8303  -24.5861   18.9149 H   0  0  0  0  0  0
  -31.6912  -24.3578   20.9195 H   0  0  0  0  0  0
  -31.6757  -22.9355   21.9705 H   0  0  0  0  0  0
  -29.4072  -23.2797   22.5686 H   0  0  0  0  0  0
  -29.7075  -24.9422   22.0384 H   0  0  0  0  0  0
  -28.6867  -15.8227   20.6644 H   0  0  0  0  0  0
  1 25  1  0  0  0
  1 30  2  0  0  0
  1 84  1  0  0  0
  2  3  1  0  0  0
  2 25  1  0  0  0
  2 85  1  0  0  0
  2 86  1  0  0  0
  3  4  1  0  0  0
  3 87  1  0  0  0
  3 88  1  0  0  0
  4  5  1  0  0  0
  4 89  1  0  0  0
  4 90  1  0  0  0
  5  6  1  0  0  0
  5 26  1  0  0  0
  5 91  1  0  0  0
  6 25  1  0  0  0
  6 92  1  0  0  0
  6 93  1  0  0  0
  7  8  2  0  0  0
  7 26  1  0  0  0
  7 29  1  0  0  0
  8  9  1  0  0  0
  8 22  1  0  0  0
  9 10  1  0  0  0
  9 27  2  0  0  0
 10 11  2  0  0  0
 10 15  1  0  0  0
 11 12  1  0  0  0
 11 94  1  0  0  0
 12 13  2  0  0  0
 12 95  1  0  0  0
 13 14  1  0  0  0
 13 31  1  0  0  0
 14 15  2  0  0  0
 14 96  1  0  0  0
 15 97  1  0  0  0
 16 17  2  0  0  0
 16 21  1  0  0  0
 16 31  1  0  0  0
 17 18  1  0  0  0
 17 98  1  0  0  0
 18 19  2  0  0  0
 18 99  1  0  0  0
 19 20  1  0  0  0
 19 24  1  0  0  0
 20 21  2  0  0  0
 20100  1  0  0  0
 21 23  1  0  0  0
 22 28  1  0  0  0
 22 32  2  0  0  0
 26 27  1  0  0  0
 28101  1  0  0  0
 28102  1  0  0  0
 29103  1  0  0  0
 29104  1  0  0  0
 33 34  1  0  0  0
 33 66  1  0  0  0
 33 70  2  0  0  0
 34 36  1  0  0  0
 34 59  1  0  0  0
 34105  1  0  0  0
 35 44  2  0  0  0
 35 45  1  0  0  0
 35 68  1  0  0  0
 36 56  1  0  0  0
 36106  1  0  0  0
 37 39  1  0  0  0
 37 47  1  0  0  0
 37 66  1  0  0  0
 37107  1  0  0  0
 38 43  2  0  0  0
 38 46  1  0  0  0
 38 47  1  0  0  0
 39 64  1  0  0  0
 39 67  2  0  0  0
 40 52  1  0  0  0
 40 53  2  0  0  0
 40 58  1  0  0  0
 41108  1  0  0  0
 41109  1  0  0  0
 41110  1  0  0  0
 41 48  1  0  0  0
 42 43  1  0  0  0
 42 66  1  0  0  0
 42111  1  0  0  0
 42112  1  0  0  0
 43 44  1  0  0  0
 44113  1  0  0  0
 45 46  2  0  0  0
 45114  1  0  0  0
 46115  1  0  0  0
 47116  1  0  0  0
 47117  1  0  0  0
 48 56  1  0  0  0
 48 65  1  0  0  0
 48118  1  0  0  0
 49 50  1  0  0  0
 49 53  1  0  0  0
 49 64  1  0  0  0
 49119  1  0  0  0
 50 51  1  0  0  0
 50120  1  0  0  0
 50121  1  0  0  0
 51 52  1  0  0  0
 51122  1  0  0  0
 51123  1  0  0  0
 52124  1  0  0  0
 52125  1  0  0  0
 53 54  1  0  0  0
 54 55  2  0  0  0
 54126  1  0  0  0
 55 57  1  0  0  0
 55127  1  0  0  0
 56 69  2  0  0  0
 57 58  2  0  0  0
 57128  1  0  0  0
 58129  1  0  0  0
 59 60  1  0  0  0
 59 61  1  0  0  0
 59 62  1  0  0  0
 60130  1  0  0  0
 60131  1  0  0  0
 60132  1  0  0  0
 61133  1  0  0  0
 61134  1  0  0  0
 61135  1  0  0  0
 62136  1  0  0  0
 62137  1  0  0  0
 62138  1  0  0  0
 63 65  1  0  0  0
 63139  1  0  0  0
 63140  1  0  0  0
 63141  1  0  0  0
 64142  1  0  0  0
 65143  1  0  0  0
 68 80  1  0  0  0
 71 73  2  0  0  0
 71 75  1  0  0  0
 71144  1  0  0  0
 72 74  1  0  0  0
 72 75  2  0  0  0
 72145  1  0  0  0
 73 76  1  0  0  0
 73146  1  0  0  0
 74 76  2  0  0  0
 74147  1  0  0  0
 75 83  1  0  0  0
 76 84  1  0  0  0
 77 79  2  0  0  0
 77 81  1  0  0  0
 77 83  1  0  0  0
 78 80  2  0  0  0
 78 82  1  0  0  0
 78 83  1  0  0  0
 79148  1  0  0  0
 79149  1  0  0  0
 80150  1  0  0  0
 81 82  1  0  0  0
 81151  1  0  0  0
 81152  1  0  0  0
 82153  1  0  0  0
 82154  1  0  0  0
 84155  1  0  0  0
M  ISO  4   1 100  68 101  80 101  84 100
M  END
> <chiral flag>
0

> <version>
0

> <s_m_source_file>
/data/baiqing/PycharmProjects/Reinvent-master-3.2/result/LINK_invent/BTK/process_docking_weight1_custom_product_contain_oxygen_bond_distance_aromatic_linkinvent_7_9_3/rearranged_h_0078.sdf

> <i_m_source_file_index>
59

> <r_mmod_Potential_Energy-OPLS-2005>
737.233947753906

> <r_mmod_Stretch_Energy-OPLS-2005>
248.170028686523

> <r_mmod_Bend_Energy-OPLS-2005>
338.764862060547

> <r_mmod_Torsional_Energy-OPLS-2005>
364.701202392578

> <r_mmod_Improper_Torsional_Energy-OPLS-2005>
15.3879871368408

> <r_mmod_Van_der_Waal_Energy-OPLS-2005>
126.082221984863

> <r_mmod_Electrostatic_Energy-OPLS-2005>
-380.815093994141

> <r_mmod_Solvation_Energy-OPLS-2005>
-204.677886962891

> <b_mmod_Minimization_Converged-OPLS-2005>
0

> <r_mmod_RMS_Derivative-OPLS-2005>
2.31135034561157

$$$$
60
                    3D
 Structure written by MMmdl.
157166  0  0  1  0            999 V2000
  -30.7045  -14.5700   20.5358 C   0  0  0  0  0  0
  -30.4209  -12.3542   19.4702 C   0  0  0  0  0  0
  -29.5144  -12.5367   18.2380 C   0  0  0  0  0  0
  -28.0376  -12.3593   18.6373 C   0  0  0  0  0  0
  -27.6576  -13.2245   19.8694 C   0  0  2  0  0  0
  -28.6977  -13.0965   21.0047 C   0  0  0  0  0  0
  -25.2560  -13.8204   20.5628 C   0  0  0  0  0  0
  -24.1844  -13.0458   20.9104 C   0  0  0  0  0  0
  -24.6438  -11.6934   20.8735 C   0  0  0  0  0  0
  -23.9088  -10.4314   21.0356 C   0  0  0  0  0  0
  -24.3612   -9.4265   21.9178 C   0  0  0  0  0  0
  -23.6313   -8.2288   22.0744 C   0  0  0  0  0  0
  -22.4311   -8.0299   21.3510 C   0  0  0  0  0  0
  -21.9951   -9.0245   20.4577 C   0  0  0  0  0  0
  -22.7253  -10.2139   20.3004 C   0  0  0  0  0  0
  -21.6921   -6.0749   22.5257 C   0  0  0  0  0  0
  -21.4071   -6.5635   23.8193 C   0  0  0  0  0  0
  -21.3743   -5.6781   24.9152 C   0  0  0  0  0  0
  -21.6053   -4.3037   24.7181 C   0  0  0  0  0  0
  -21.8808   -3.8143   23.4301 C   0  0  0  0  0  0
  -21.9175   -4.6968   22.3373 C   0  0  0  0  0  0
  -22.7850  -13.5208   21.1792 C   0  0  0  0  0  0
  -22.1640   -4.2162   21.0936 F   0  0  0  0  0  0
  -21.5638   -3.4522   25.7700 F   0  0  0  0  0  0
  -30.0219  -13.3903   20.4411 N   0  0  0  0  0  0
  -26.3027  -12.9400   20.3354 N   0  0  0  0  0  0
  -25.9371  -11.6553   20.5799 N   0  0  0  0  0  0
  -22.0478  -12.8230   22.0367 N   0  0  0  0  0  0
  -25.4230  -15.1937   20.4023 N   0  0  0  0  0  0
  -31.8599  -14.6723   20.1156 O   0  0  0  0  0  0
  -21.6679   -6.8893   21.4227 O   0  0  0  0  0  0
  -22.3524  -14.5507   20.6630 O   0  0  0  0  0  0
  -24.6181  -31.8672   23.2017 C   0  0  0  0  0  0
  -25.9043  -32.4814   23.8359 C   0  0  1  0  0  0
  -27.2327  -27.4033   20.1413 C   0  0  0  0  0  0
  -25.5831  -33.8601   24.2258 N   0  0  0  0  0  0
  -23.4081  -30.4802   21.5504 C   0  0  2  0  0  0
  -24.8587  -28.9487   20.1192 C   0  0  0  0  0  0
  -22.7467  -29.4592   22.5023 C   0  0  0  0  0  0
  -18.0258  -28.1424   22.8527 C   0  0  0  0  0  0
  -24.1455  -36.7323   23.2635 C   0  0  0  0  0  0
  -25.9317  -30.8357   21.3498 C   0  0  0  0  0  0
  -26.0188  -29.4658   20.7041 C   0  0  0  0  0  0
  -27.2169  -28.7068   20.7001 C   0  0  0  0  0  0
  -26.0559  -26.9100   19.5405 C   0  0  0  0  0  0
  -24.8708  -27.6733   19.5311 C   0  0  0  0  0  0
  -23.6161  -29.8097   20.1658 C   0  0  0  0  0  0
  -25.4087  -36.3108   24.0326 C   0  0  1  0  0  0
  -20.5869  -28.3659   23.1364 C   0  0  2  0  0  0
  -20.6783  -26.9384   22.5468 C   0  0  0  0  0  0
  -19.5768  -26.6397   21.5296 C   0  0  0  0  0  0
  -18.1923  -26.7963   22.1665 C   0  0  0  0  0  0
  -19.1506  -28.8867   23.2949 C   0  0  0  0  0  0
  -18.9413  -30.1478   23.8970 C   0  0  0  0  0  0
  -17.6400  -30.6625   24.0593 C   0  0  0  0  0  0
  -25.9015  -34.9468   23.5117 C   0  0  0  0  0  0
  -16.5308  -29.9150   23.6328 C   0  0  0  0  0  0
  -16.7229  -28.6579   23.0342 C   0  0  0  0  0  0
  -26.4420  -31.6605   25.0732 C   0  0  0  0  0  0
  -25.3609  -31.3762   26.1415 C   0  0  0  0  0  0
  -27.0216  -30.3027   24.6151 C   0  0  0  0  0  0
  -27.5994  -32.4283   25.7534 C   0  0  0  0  0  0
  -27.5564  -37.1795   24.8448 C   0  0  0  0  0  0
  -21.4191  -29.3000   22.3749 N   0  0  0  0  0  0
  -26.4254  -37.3818   23.9409 N   0  0  0  0  0  0
  -24.6720  -31.0757   22.0922 N   0  0  0  0  0  0
  -23.4221  -28.8126   23.3051 O   0  0  0  0  0  0
  -28.3680  -26.6077   20.1738 O   0  0  0  0  0  0
  -26.5649  -34.8933   22.4719 O   0  0  0  0  0  0
  -23.5366  -32.1358   23.7430 O   0  0  0  0  0  0
  -32.1821  -18.6811   21.6471 C   0  0  0  0  0  0
  -31.2627  -19.7356   21.5470 C   0  0  0  0  0  0
  -31.7718  -17.3538   21.4242 C   0  0  0  0  0  0
  -29.5013  -18.1364   20.9816 C   0  0  0  0  0  0
  -29.9144  -19.4892   21.2106 C   0  0  0  0  0  0
  -30.4305  -17.0441   21.0814 C   0  0  0  0  0  0
  -28.8530  -22.9418   21.1683 C   0  0  0  0  0  0
  -28.5167  -22.4912   22.5093 C   0  0  0  0  0  0
  -29.2379  -21.7355   20.4261 C   0  0  0  0  0  0
  -28.5812  -23.1752   23.6727 C   0  0  0  0  0  0
  -28.8156  -24.1715   20.5756 C   0  0  0  0  0  0
  -28.3175  -20.9974   22.4412 C   0  0  0  0  0  0
  -28.3444  -25.5185   21.1408 C   0  0  0  0  0  0
  -29.0336  -20.6359   21.2111 N   0  0  0  0  0  0
  -29.9894  -15.6693   20.9200 N   0  0  0  0  0  0
  -29.6672  -21.6954   19.2645 O   0  0  0  0  0  0
  -31.4748  -12.4173   19.1846 H   0  0  0  0  0  0
  -30.2848  -11.3624   19.9092 H   0  0  0  0  0  0
  -29.7827  -11.8317   17.4535 H   0  0  0  0  0  0
  -29.6642  -13.5392   17.8306 H   0  0  0  0  0  0
  -27.8875  -11.3031   18.8652 H   0  0  0  0  0  0
  -27.3820  -12.5939   17.7977 H   0  0  0  0  0  0
  -27.6736  -14.2598   19.5333 H   0  0  0  0  0  0
  -28.6924  -12.0931   21.4260 H   0  0  0  0  0  0
  -28.4583  -13.7704   21.8298 H   0  0  0  0  0  0
  -25.2736   -9.5800   22.4766 H   0  0  0  0  0  0
  -24.0028   -7.4717   22.7504 H   0  0  0  0  0  0
  -21.0895   -8.8721   19.8871 H   0  0  0  0  0  0
  -22.3690  -10.9651   19.6092 H   0  0  0  0  0  0
  -21.2126   -7.6168   23.9721 H   0  0  0  0  0  0
  -21.1600   -6.0501   25.9050 H   0  0  0  0  0  0
  -22.0516   -2.7614   23.2763 H   0  0  0  0  0  0
  -22.4135  -11.9966   22.4872 H   0  0  0  0  0  0
  -21.1066  -13.1226   22.2465 H   0  0  0  0  0  0
  -24.6455  -15.8393   20.4854 H   0  0  0  0  0  0
  -26.2824  -15.6467   20.1156 H   0  0  0  0  0  0
  -26.7140  -32.5527   23.1147 H   0  0  0  0  0  0
  -24.9794  -33.9696   25.0276 H   0  0  0  0  0  0
  -22.7021  -31.2995   21.4153 H   0  0  0  0  0  0
  -23.3736  -35.9645   23.3308 H   0  0  0  0  0  0
  -24.3515  -36.8953   22.2041 H   0  0  0  0  0  0
  -23.7174  -37.6516   23.6665 H   0  0  0  0  0  0
  -26.0168  -31.5980   20.5771 H   0  0  0  0  0  0
  -26.8250  -30.9091   21.9581 H   0  0  0  0  0  0
  -28.1139  -29.1053   21.1517 H   0  0  0  0  0  0
  -26.0430  -25.9248   19.0988 H   0  0  0  0  0  0
  -23.9687  -27.2669   19.0949 H   0  0  0  0  0  0
  -23.7035  -30.5770   19.3942 H   0  0  0  0  0  0
  -22.7507  -29.2084   19.8883 H   0  0  0  0  0  0
  -25.1269  -36.1977   25.0822 H   0  0  0  0  0  0
  -20.9930  -28.3205   24.1498 H   0  0  0  0  0  0
  -20.5809  -26.2232   23.3645 H   0  0  0  0  0  0
  -21.6614  -26.7519   22.1160 H   0  0  0  0  0  0
  -19.6887  -25.6321   21.1300 H   0  0  0  0  0  0
  -19.6710  -27.3267   20.6874 H   0  0  0  0  0  0
  -17.4217  -26.6755   21.4045 H   0  0  0  0  0  0
  -18.0238  -26.0115   22.9047 H   0  0  0  0  0  0
  -19.7847  -30.7313   24.2403 H   0  0  0  0  0  0
  -17.4925  -31.6297   24.5179 H   0  0  0  0  0  0
  -15.5319  -30.3078   23.7611 H   0  0  0  0  0  0
  -15.8627  -28.0946   22.7010 H   0  0  0  0  0  0
  -24.5679  -30.7324   25.7579 H   0  0  0  0  0  0
  -24.8948  -32.2983   26.4920 H   0  0  0  0  0  0
  -25.7783  -30.8709   27.0133 H   0  0  0  0  0  0
  -26.2772  -29.6858   24.1097 H   0  0  0  0  0  0
  -27.3826  -29.7203   25.4644 H   0  0  0  0  0  0
  -27.8681  -30.4328   23.9402 H   0  0  0  0  0  0
  -27.2587  -33.3463   26.2330 H   0  0  0  0  0  0
  -28.3703  -32.7015   25.0323 H   0  0  0  0  0  0
  -28.0818  -31.8302   26.5283 H   0  0  0  0  0  0
  -28.2576  -38.0087   24.7507 H   0  0  0  0  0  0
  -28.1050  -36.2621   24.6267 H   0  0  0  0  0  0
  -27.2277  -37.1445   25.8843 H   0  0  0  0  0  0
  -20.9446  -29.8586   21.6808 H   0  0  0  0  0  0
  -26.0171  -38.2891   24.1489 H   0  0  0  0  0  0
  -33.2077  -18.8863   21.9227 H   0  0  0  0  0  0
  -31.5944  -20.7461   21.7497 H   0  0  0  0  0  0
  -32.5171  -16.5842   21.5659 H   0  0  0  0  0  0
  -28.4657  -17.9382   20.7368 H   0  0  0  0  0  0
  -28.8718  -24.2136   23.7483 H   0  0  0  0  0  0
  -28.3855  -22.6707   24.6151 H   0  0  0  0  0  0
  -29.1159  -24.2417   19.5363 H   0  0  0  0  0  0
  -27.2552  -20.7623   22.3368 H   0  0  0  0  0  0
  -28.7190  -20.4787   23.3133 H   0  0  0  0  0  0
  -29.0063  -25.7883   21.9642 H   0  0  0  0  0  0
  -27.3516  -25.3673   21.5670 H   0  0  0  0  0  0
  -29.0042  -15.5059   21.0647 H   0  0  0  0  0  0
  1 25  1  0  0  0
  1 30  2  0  0  0
  1 85  1  0  0  0
  2  3  1  0  0  0
  2 25  1  0  0  0
  2 87  1  0  0  0
  2 88  1  0  0  0
  3  4  1  0  0  0
  3 89  1  0  0  0
  3 90  1  0  0  0
  4  5  1  0  0  0
  4 91  1  0  0  0
  4 92  1  0  0  0
  5  6  1  0  0  0
  5 26  1  0  0  0
  5 93  1  0  0  0
  6 25  1  0  0  0
  6 94  1  0  0  0
  6 95  1  0  0  0
  7  8  2  0  0  0
  7 26  1  0  0  0
  7 29  1  0  0  0
  8  9  1  0  0  0
  8 22  1  0  0  0
  9 10  1  0  0  0
  9 27  2  0  0  0
 10 11  2  0  0  0
 10 15  1  0  0  0
 11 12  1  0  0  0
 11 96  1  0  0  0
 12 13  2  0  0  0
 12 97  1  0  0  0
 13 14  1  0  0  0
 13 31  1  0  0  0
 14 15  2  0  0  0
 14 98  1  0  0  0
 15 99  1  0  0  0
 16 17  2  0  0  0
 16 21  1  0  0  0
 16 31  1  0  0  0
 17 18  1  0  0  0
 17100  1  0  0  0
 18 19  2  0  0  0
 18101  1  0  0  0
 19 20  1  0  0  0
 19 24  1  0  0  0
 20 21  2  0  0  0
 20102  1  0  0  0
 21 23  1  0  0  0
 22 28  1  0  0  0
 22 32  2  0  0  0
 26 27  1  0  0  0
 28103  1  0  0  0
 28104  1  0  0  0
 29105  1  0  0  0
 29106  1  0  0  0
 33 34  1  0  0  0
 33 66  1  0  0  0
 33 70  2  0  0  0
 34 36  1  0  0  0
 34 59  1  0  0  0
 34107  1  0  0  0
 35 44  2  0  0  0
 35 45  1  0  0  0
 35 68  1  0  0  0
 36 56  1  0  0  0
 36108  1  0  0  0
 37 39  1  0  0  0
 37 47  1  0  0  0
 37 66  1  0  0  0
 37109  1  0  0  0
 38 43  2  0  0  0
 38 46  1  0  0  0
 38 47  1  0  0  0
 39 64  1  0  0  0
 39 67  2  0  0  0
 40 52  1  0  0  0
 40 53  2  0  0  0
 40 58  1  0  0  0
 41110  1  0  0  0
 41111  1  0  0  0
 41112  1  0  0  0
 41 48  1  0  0  0
 42 43  1  0  0  0
 42 66  1  0  0  0
 42113  1  0  0  0
 42114  1  0  0  0
 43 44  1  0  0  0
 44115  1  0  0  0
 45 46  2  0  0  0
 45116  1  0  0  0
 46117  1  0  0  0
 47118  1  0  0  0
 47119  1  0  0  0
 48 56  1  0  0  0
 48 65  1  0  0  0
 48120  1  0  0  0
 49 50  1  0  0  0
 49 53  1  0  0  0
 49 64  1  0  0  0
 49121  1  0  0  0
 50 51  1  0  0  0
 50122  1  0  0  0
 50123  1  0  0  0
 51 52  1  0  0  0
 51124  1  0  0  0
 51125  1  0  0  0
 52126  1  0  0  0
 52127  1  0  0  0
 53 54  1  0  0  0
 54 55  2  0  0  0
 54128  1  0  0  0
 55 57  1  0  0  0
 55129  1  0  0  0
 56 69  2  0  0  0
 57 58  2  0  0  0
 57130  1  0  0  0
 58131  1  0  0  0
 59 60  1  0  0  0
 59 61  1  0  0  0
 59 62  1  0  0  0
 60132  1  0  0  0
 60133  1  0  0  0
 60134  1  0  0  0
 61135  1  0  0  0
 61136  1  0  0  0
 61137  1  0  0  0
 62138  1  0  0  0
 62139  1  0  0  0
 62140  1  0  0  0
 63 65  1  0  0  0
 63141  1  0  0  0
 63142  1  0  0  0
 63143  1  0  0  0
 64144  1  0  0  0
 65145  1  0  0  0
 68 83  1  0  0  0
 71 72  2  0  0  0
 71 73  1  0  0  0
 71146  1  0  0  0
 72 75  1  0  0  0
 72147  1  0  0  0
 73 76  2  0  0  0
 73148  1  0  0  0
 74 75  2  0  0  0
 74 76  1  0  0  0
 74149  1  0  0  0
 75 84  1  0  0  0
 76 85  1  0  0  0
 77 78  1  0  0  0
 77 79  1  0  0  0
 77 81  2  0  0  0
 78 80  2  0  0  0
 78 82  1  0  0  0
 79 84  1  0  0  0
 79 86  2  0  0  0
 80150  1  0  0  0
 80151  1  0  0  0
 81 83  1  0  0  0
 81152  1  0  0  0
 82 84  1  0  0  0
 82153  1  0  0  0
 82154  1  0  0  0
 83155  1  0  0  0
 83156  1  0  0  0
 85157  1  0  0  0
M  ISO  4   1 100  68 101  83 101  85 100
M  END
> <chiral flag>
0

> <version>
0

> <s_m_source_file>
/data/baiqing/PycharmProjects/Reinvent-master-3.2/result/LINK_invent/BTK/process_docking_weight1_custom_product_contain_oxygen_bond_distance_aromatic_linkinvent_7_9_3/rearranged_h_0078.sdf

> <i_m_source_file_index>
60

> <r_mmod_Potential_Energy-OPLS-2005>
190.081634521484

> <r_mmod_Stretch_Energy-OPLS-2005>
55.3609428405762

> <r_mmod_Bend_Energy-OPLS-2005>
168.631973266602

> <r_mmod_Torsional_Energy-OPLS-2005>
335.993530273438

> <r_mmod_Improper_Torsional_Energy-OPLS-2005>
7.01975440979004

> <r_mmod_Van_der_Waal_Energy-OPLS-2005>
143.394927978516

> <r_mmod_Electrostatic_Energy-OPLS-2005>
-328.989898681641

> <r_mmod_Solvation_Energy-OPLS-2005>
-219.587554931641

> <b_mmod_Minimization_Converged-OPLS-2005>
0

> <r_mmod_RMS_Derivative-OPLS-2005>
8.43038082122803

$$$$
61
                    3D
 Structure written by MMmdl.
150158  0  0  1  0            999 V2000
  -30.6068  -14.6767   20.4859 C   0  0  0  0  0  0
  -30.4403  -12.4122   19.4593 C   0  0  0  0  0  0
  -29.5106  -12.5080   18.2285 C   0  0  0  0  0  0
  -28.0338  -12.3410   18.6395 C   0  0  0  0  0  0
  -27.6511  -13.2185   19.8608 C   0  0  2  0  0  0
  -28.6960  -13.0917   20.9924 C   0  0  0  0  0  0
  -25.2554  -13.8173   20.5683 C   0  0  0  0  0  0
  -24.1826  -13.0438   20.9196 C   0  0  0  0  0  0
  -24.6396  -11.6908   20.8743 C   0  0  0  0  0  0
  -23.9064  -10.4291   21.0407 C   0  0  0  0  0  0
  -24.3616   -9.4207   21.9184 C   0  0  0  0  0  0
  -23.6290   -8.2243   22.0754 C   0  0  0  0  0  0
  -22.4273   -8.0281   21.3543 C   0  0  0  0  0  0
  -21.9908   -9.0256   20.4647 C   0  0  0  0  0  0
  -22.7236  -10.2135   20.3057 C   0  0  0  0  0  0
  -21.6854   -6.0735   22.5278 C   0  0  0  0  0  0
  -21.4016   -6.5639   23.8211 C   0  0  0  0  0  0
  -21.3659   -5.6791   24.9173 C   0  0  0  0  0  0
  -21.6043   -4.3054   24.7224 C   0  0  0  0  0  0
  -21.8819   -3.8146   23.4345 C   0  0  0  0  0  0
  -21.9193   -4.6962   22.3401 C   0  0  0  0  0  0
  -22.7848  -13.5230   21.1856 C   0  0  0  0  0  0
  -22.1661   -4.2148   21.0978 F   0  0  0  0  0  0
  -21.5628   -3.4538   25.7737 F   0  0  0  0  0  0
  -30.0074  -13.4426   20.4260 N   0  0  0  0  0  0
  -26.2979  -12.9355   20.3306 N   0  0  0  0  0  0
  -25.9324  -11.6510   20.5756 N   0  0  0  0  0  0
  -22.0488  -12.8225   22.0413 N   0  0  0  0  0  0
  -25.4263  -15.1897   20.4085 N   0  0  0  0  0  0
  -31.7770  -14.8269   20.1216 O   0  0  0  0  0  0
  -21.6639   -6.8878   21.4240 O   0  0  0  0  0  0
  -22.3534  -14.5535   20.6701 O   0  0  0  0  0  0
  -24.6279  -31.8583   23.2013 C   0  0  0  0  0  0
  -25.9118  -32.4771   23.8346 C   0  0  1  0  0  0
  -27.2233  -27.3013   20.1185 C   0  0  0  0  0  0
  -25.5926  -33.8572   24.2272 N   0  0  0  0  0  0
  -23.4224  -30.4821   21.5443 C   0  0  2  0  0  0
  -24.8689  -28.9355   20.1105 C   0  0  0  0  0  0
  -22.7483  -29.4617   22.4927 C   0  0  0  0  0  0
  -18.0288  -28.1385   22.8486 C   0  0  0  0  0  0
  -24.1489  -36.7292   23.2639 C   0  0  0  0  0  0
  -25.9655  -30.7838   21.3751 C   0  0  0  0  0  0
  -26.0393  -29.4103   20.7158 C   0  0  0  0  0  0
  -27.2195  -28.6055   20.7085 C   0  0  0  0  0  0
  -26.0280  -26.8849   19.4874 C   0  0  0  0  0  0
  -24.8664  -27.6793   19.4868 C   0  0  0  0  0  0
  -23.6379  -29.8177   20.1596 C   0  0  0  0  0  0
  -25.4114  -36.3079   24.0328 C   0  0  1  0  0  0
  -20.5890  -28.3691   23.1278 C   0  0  2  0  0  0
  -20.6776  -26.9412   22.5409 C   0  0  0  0  0  0
  -19.5751  -26.6383   21.5212 C   0  0  0  0  0  0
  -18.1932  -26.7927   22.1626 C   0  0  0  0  0  0
  -19.1541  -28.8855   23.2878 C   0  0  0  0  0  0
  -18.9463  -30.1457   23.8895 C   0  0  0  0  0  0
  -17.6462  -30.6587   24.0563 C   0  0  0  0  0  0
  -25.9052  -34.9448   23.5101 C   0  0  0  0  0  0
  -16.5354  -29.9085   23.6329 C   0  0  0  0  0  0
  -16.7275  -28.6503   23.0351 C   0  0  0  0  0  0
  -26.4495  -31.6587   25.0724 C   0  0  0  0  0  0
  -25.3724  -31.3732   26.1449 C   0  0  0  0  0  0
  -27.0341  -30.3007   24.6192 C   0  0  0  0  0  0
  -27.6050  -32.4327   25.7497 C   0  0  0  0  0  0
  -27.5579  -37.1801   24.8464 C   0  0  0  0  0  0
  -21.4195  -29.3044   22.3670 N   0  0  0  0  0  0
  -26.4291  -37.3774   23.9407 N   0  0  0  0  0  0
  -24.6909  -31.0582   22.0970 N   0  0  0  0  0  0
  -23.4200  -28.8155   23.3011 O   0  0  0  0  0  0
  -28.3346  -26.4386   20.1737 O   0  0  0  0  0  0
  -26.5622  -34.8918   22.4669 O   0  0  0  0  0  0
  -23.5438  -32.1387   23.7332 O   0  0  0  0  0  0
  -31.0735  -19.3280   20.1619 C   0  0  0  0  0  0
  -28.8199  -19.4610   20.9662 C   0  0  0  0  0  0
  -31.0390  -17.9004   20.2188 C   0  0  0  0  0  0
  -28.7843  -18.0277   21.0253 C   0  0  0  0  0  0
  -29.9793  -20.1639   20.5416 C   0  0  0  0  0  0
  -29.8924  -17.1981   20.6727 C   0  0  0  0  0  0
  -30.1830  -21.7020   20.6515 C   0  0  0  0  0  0
  -29.3055  -24.0265   20.4400 C   0  0  0  0  0  0
  -28.1051  -24.9690   20.0188 C   0  0  0  0  0  0
  -29.7812  -15.7336   20.8002 N   0  0  0  0  0  0
  -29.2078  -22.6402   20.3729 N   0  0  0  0  0  0
  -31.3264  -22.0403   20.9800 O   0  0  0  0  0  0
  -30.3264  -24.6080   20.8290 O   0  0  0  0  0  0
  -31.4808  -12.5424   19.1569 H   0  0  0  0  0  0
  -30.3822  -11.4208   19.9114 H   0  0  0  0  0  0
  -29.7809  -11.7508   17.4914 H   0  0  0  0  0  0
  -29.6475  -13.4737   17.7388 H   0  0  0  0  0  0
  -27.8758  -11.2886   18.8782 H   0  0  0  0  0  0
  -27.3792  -12.5619   17.7955 H   0  0  0  0  0  0
  -27.6629  -14.2502   19.5094 H   0  0  0  0  0  0
  -28.7157  -12.0742   21.3857 H   0  0  0  0  0  0
  -28.4372  -13.7320   21.8371 H   0  0  0  0  0  0
  -25.2763   -9.5681   22.4757 H   0  0  0  0  0  0
  -23.9999   -7.4635   22.7474 H   0  0  0  0  0  0
  -21.0838   -8.8777   19.8954 H   0  0  0  0  0  0
  -22.3696  -10.9675   19.6166 H   0  0  0  0  0  0
  -21.2011   -7.6147   23.9714 H   0  0  0  0  0  0
  -21.1480   -6.0522   25.9076 H   0  0  0  0  0  0
  -22.0599   -2.7608   23.2847 H   0  0  0  0  0  0
  -22.4103  -11.9889   22.4805 H   0  0  0  0  0  0
  -21.1107  -13.1257   22.2617 H   0  0  0  0  0  0
  -24.6543  -15.8401   20.5078 H   0  0  0  0  0  0
  -26.2636  -15.6250   20.0439 H   0  0  0  0  0  0
  -26.7186  -32.5435   23.1093 H   0  0  0  0  0  0
  -25.0067  -33.9712   25.0412 H   0  0  0  0  0  0
  -22.7170  -31.3033   21.4009 H   0  0  0  0  0  0
  -23.3749  -35.9627   23.3302 H   0  0  0  0  0  0
  -24.3580  -36.8914   22.2054 H   0  0  0  0  0  0
  -23.7245  -37.6495   23.6662 H   0  0  0  0  0  0
  -26.1000  -31.5474   20.6076 H   0  0  0  0  0  0
  -26.8447  -30.8314   22.0061 H   0  0  0  0  0  0
  -28.1166  -28.9648   21.1932 H   0  0  0  0  0  0
  -25.9595  -25.9267   18.9951 H   0  0  0  0  0  0
  -23.9699  -27.3109   19.0072 H   0  0  0  0  0  0
  -23.7587  -30.5946   19.4038 H   0  0  0  0  0  0
  -22.7572  -29.2488   19.8561 H   0  0  0  0  0  0
  -25.1295  -36.1930   25.0820 H   0  0  0  0  0  0
  -20.9983  -28.3268   24.1398 H   0  0  0  0  0  0
  -20.5678  -26.2301   23.3610 H   0  0  0  0  0  0
  -21.6645  -26.7440   22.1202 H   0  0  0  0  0  0
  -19.6912  -25.6294   21.1242 H   0  0  0  0  0  0
  -19.6687  -27.3192   20.6742 H   0  0  0  0  0  0
  -17.4199  -26.6671   21.4032 H   0  0  0  0  0  0
  -18.0336  -26.0071   22.9026 H   0  0  0  0  0  0
  -19.7938  -30.7274   24.2263 H   0  0  0  0  0  0
  -17.5016  -31.6266   24.5165 H   0  0  0  0  0  0
  -15.5354  -30.2987   23.7653 H   0  0  0  0  0  0
  -15.8676  -28.0821   22.7067 H   0  0  0  0  0  0
  -24.5895  -30.7087   25.7777 H   0  0  0  0  0  0
  -24.8923  -32.2903   26.4872 H   0  0  0  0  0  0
  -25.8044  -30.8908   27.0225 H   0  0  0  0  0  0
  -26.2921  -29.6756   24.1209 H   0  0  0  0  0  0
  -27.4025  -29.7265   25.4703 H   0  0  0  0  0  0
  -27.8796  -30.4288   23.9429 H   0  0  0  0  0  0
  -27.2653  -33.3625   26.2072 H   0  0  0  0  0  0
  -28.3860  -32.6892   25.0327 H   0  0  0  0  0  0
  -28.0717  -31.8456   26.5416 H   0  0  0  0  0  0
  -28.2594  -38.0101   24.7513 H   0  0  0  0  0  0
  -28.1079  -36.2632   24.6286 H   0  0  0  0  0  0
  -27.2298  -37.1445   25.8867 H   0  0  0  0  0  0
  -20.9373  -29.8771   21.6884 H   0  0  0  0  0  0
  -26.0172  -38.2849   24.1409 H   0  0  0  0  0  0
  -31.9968  -19.7957   19.8482 H   0  0  0  0  0  0
  -27.9556  -20.0182   21.2998 H   0  0  0  0  0  0
  -31.9261  -17.3565   19.9275 H   0  0  0  0  0  0
  -27.8748  -17.5622   21.3794 H   0  0  0  0  0  0
  -27.2398  -24.6693   20.6114 H   0  0  0  0  0  0
  -27.8774  -24.7506   18.9752 H   0  0  0  0  0  0
  -28.8733  -15.4168   21.1032 H   0  0  0  0  0  0
  -28.3231  -22.2684   20.0655 H   0  0  0  0  0  0
  1 25  1  0  0  0
  1 30  2  0  0  0
  1 80  1  0  0  0
  2  3  1  0  0  0
  2 25  1  0  0  0
  2 84  1  0  0  0
  2 85  1  0  0  0
  3  4  1  0  0  0
  3 86  1  0  0  0
  3 87  1  0  0  0
  4  5  1  0  0  0
  4 88  1  0  0  0
  4 89  1  0  0  0
  5  6  1  0  0  0
  5 26  1  0  0  0
  5 90  1  0  0  0
  6 25  1  0  0  0
  6 91  1  0  0  0
  6 92  1  0  0  0
  7  8  2  0  0  0
  7 26  1  0  0  0
  7 29  1  0  0  0
  8  9  1  0  0  0
  8 22  1  0  0  0
  9 10  1  0  0  0
  9 27  2  0  0  0
 10 11  2  0  0  0
 10 15  1  0  0  0
 11 12  1  0  0  0
 11 93  1  0  0  0
 12 13  2  0  0  0
 12 94  1  0  0  0
 13 14  1  0  0  0
 13 31  1  0  0  0
 14 15  2  0  0  0
 14 95  1  0  0  0
 15 96  1  0  0  0
 16 17  2  0  0  0
 16 21  1  0  0  0
 16 31  1  0  0  0
 17 18  1  0  0  0
 17 97  1  0  0  0
 18 19  2  0  0  0
 18 98  1  0  0  0
 19 20  1  0  0  0
 19 24  1  0  0  0
 20 21  2  0  0  0
 20 99  1  0  0  0
 21 23  1  0  0  0
 22 28  1  0  0  0
 22 32  2  0  0  0
 26 27  1  0  0  0
 28100  1  0  0  0
 28101  1  0  0  0
 29102  1  0  0  0
 29103  1  0  0  0
 33 34  1  0  0  0
 33 66  1  0  0  0
 33 70  2  0  0  0
 34 36  1  0  0  0
 34 59  1  0  0  0
 34104  1  0  0  0
 35 44  2  0  0  0
 35 45  1  0  0  0
 35 68  1  0  0  0
 36 56  1  0  0  0
 36105  1  0  0  0
 37 39  1  0  0  0
 37 47  1  0  0  0
 37 66  1  0  0  0
 37106  1  0  0  0
 38 43  2  0  0  0
 38 46  1  0  0  0
 38 47  1  0  0  0
 39 64  1  0  0  0
 39 67  2  0  0  0
 40 52  1  0  0  0
 40 53  2  0  0  0
 40 58  1  0  0  0
 41107  1  0  0  0
 41108  1  0  0  0
 41109  1  0  0  0
 41 48  1  0  0  0
 42 43  1  0  0  0
 42 66  1  0  0  0
 42110  1  0  0  0
 42111  1  0  0  0
 43 44  1  0  0  0
 44112  1  0  0  0
 45 46  2  0  0  0
 45113  1  0  0  0
 46114  1  0  0  0
 47115  1  0  0  0
 47116  1  0  0  0
 48 56  1  0  0  0
 48 65  1  0  0  0
 48117  1  0  0  0
 49 50  1  0  0  0
 49 53  1  0  0  0
 49 64  1  0  0  0
 49118  1  0  0  0
 50 51  1  0  0  0
 50119  1  0  0  0
 50120  1  0  0  0
 51 52  1  0  0  0
 51121  1  0  0  0
 51122  1  0  0  0
 52123  1  0  0  0
 52124  1  0  0  0
 53 54  1  0  0  0
 54 55  2  0  0  0
 54125  1  0  0  0
 55 57  1  0  0  0
 55126  1  0  0  0
 56 69  2  0  0  0
 57 58  2  0  0  0
 57127  1  0  0  0
 58128  1  0  0  0
 59 60  1  0  0  0
 59 61  1  0  0  0
 59 62  1  0  0  0
 60129  1  0  0  0
 60130  1  0  0  0
 60131  1  0  0  0
 61132  1  0  0  0
 61133  1  0  0  0
 61134  1  0  0  0
 62135  1  0  0  0
 62136  1  0  0  0
 62137  1  0  0  0
 63 65  1  0  0  0
 63138  1  0  0  0
 63139  1  0  0  0
 63140  1  0  0  0
 64141  1  0  0  0
 65142  1  0  0  0
 68 79  1  0  0  0
 71 73  2  0  0  0
 71 75  1  0  0  0
 71143  1  0  0  0
 72 74  1  0  0  0
 72 75  2  0  0  0
 72144  1  0  0  0
 73 76  1  0  0  0
 73145  1  0  0  0
 74 76  2  0  0  0
 74146  1  0  0  0
 75 77  1  0  0  0
 76 80  1  0  0  0
 77 81  1  0  0  0
 77 82  2  0  0  0
 78 79  1  0  0  0
 78 81  1  0  0  0
 78 83  2  0  0  0
 79147  1  0  0  0
 79148  1  0  0  0
 80149  1  0  0  0
 81150  1  0  0  0
M  ISO  4   1 100  68 101  79 101  80 100
M  END
> <chiral flag>
0

> <version>
0

> <s_m_source_file>
/data/baiqing/PycharmProjects/Reinvent-master-3.2/result/LINK_invent/BTK/process_docking_weight1_custom_product_contain_oxygen_bond_distance_aromatic_linkinvent_7_9_3/rearranged_h_0078.sdf

> <i_m_source_file_index>
61

> <r_mmod_Potential_Energy-OPLS-2005>
-55.1184234619141

> <r_mmod_Stretch_Energy-OPLS-2005>
92.2701950073242

> <r_mmod_Bend_Energy-OPLS-2005>
148.72624206543

> <r_mmod_Torsional_Energy-OPLS-2005>
220.304656982422

> <r_mmod_Improper_Torsional_Energy-OPLS-2005>
5.15767621994019

> <r_mmod_Van_der_Waal_Energy-OPLS-2005>
152.321136474609

> <r_mmod_Electrostatic_Energy-OPLS-2005>
-438.132751464844

> <r_mmod_Solvation_Energy-OPLS-2005>
-295.065979003906

> <b_mmod_Minimization_Converged-OPLS-2005>
0

> <r_mmod_RMS_Derivative-OPLS-2005>
0.221084013581276

$$$$
62
                    3D
 Structure written by MMmdl.
163172  0  0  1  0            999 V2000
  -30.7747  -14.4917   20.5779 C   0  0  0  0  0  0
  -30.3934  -12.3202   19.4486 C   0  0  0  0  0  0
  -29.5005  -12.5140   18.2081 C   0  0  0  0  0  0
  -28.0149  -12.3817   18.6013 C   0  0  0  0  0  0
  -27.6459  -13.2301   19.8463 C   0  0  2  0  0  0
  -28.6792  -13.0688   20.9755 C   0  0  0  0  0  0
  -25.2529  -13.8231   20.5655 C   0  0  0  0  0  0
  -24.1801  -13.0484   20.9143 C   0  0  0  0  0  0
  -24.6366  -11.6954   20.8623 C   0  0  0  0  0  0
  -23.9033  -10.4317   21.0307 C   0  0  0  0  0  0
  -24.3594   -9.4261   21.9115 C   0  0  0  0  0  0
  -23.6275   -8.2292   22.0721 C   0  0  0  0  0  0
  -22.4252   -8.0303   21.3520 C   0  0  0  0  0  0
  -21.9873   -9.0259   20.4611 C   0  0  0  0  0  0
  -22.7189  -10.2146   20.2980 C   0  0  0  0  0  0
  -21.6876   -6.0744   22.5286 C   0  0  0  0  0  0
  -21.4049   -6.5651   23.8229 C   0  0  0  0  0  0
  -21.3638   -5.6791   24.9182 C   0  0  0  0  0  0
  -21.6024   -4.3050   24.7227 C   0  0  0  0  0  0
  -21.8830   -3.8151   23.4348 C   0  0  0  0  0  0
  -21.9198   -4.6966   22.3411 C   0  0  0  0  0  0
  -22.7835  -13.5255   21.1847 C   0  0  0  0  0  0
  -22.1657   -4.2167   21.0984 F   0  0  0  0  0  0
  -21.5583   -3.4523   25.7722 F   0  0  0  0  0  0
  -30.0101  -13.3638   20.4202 N   0  0  0  0  0  0
  -26.2938  -12.9421   20.3185 N   0  0  0  0  0  0
  -25.9293  -11.6563   20.5608 N   0  0  0  0  0  0
  -22.0492  -12.8203   22.0387 N   0  0  0  0  0  0
  -25.4259  -15.1971   20.4148 N   0  0  0  0  0  0
  -31.9504  -14.4664   20.2272 O   0  0  0  0  0  0
  -21.6642   -6.8885   21.4240 O   0  0  0  0  0  0
  -22.3507  -14.5554   20.6712 O   0  0  0  0  0  0
  -24.6182  -31.8679   23.2086 C   0  0  0  0  0  0
  -25.9068  -32.4815   23.8390 C   0  0  1  0  0  0
  -27.2165  -27.4078   20.0959 C   0  0  0  0  0  0
  -25.5937  -33.8613   24.2330 N   0  0  0  0  0  0
  -23.4042  -30.4947   21.5516 C   0  0  2  0  0  0
  -24.8433  -28.9572   20.1137 C   0  0  0  0  0  0
  -22.7415  -29.4676   22.4984 C   0  0  0  0  0  0
  -18.0285  -28.1375   22.8493 C   0  0  0  0  0  0
  -24.1495  -36.7314   23.2635 C   0  0  0  0  0  0
  -25.9350  -30.8232   21.3623 C   0  0  0  0  0  0
  -26.0053  -29.4561   20.7119 C   0  0  0  0  0  0
  -27.1936  -28.6910   20.6966 C   0  0  0  0  0  0
  -26.0314  -26.9290   19.4877 C   0  0  0  0  0  0
  -24.8523  -27.6957   19.4987 C   0  0  0  0  0  0
  -23.6097  -29.8298   20.1640 C   0  0  0  0  0  0
  -25.4117  -36.3101   24.0337 C   0  0  1  0  0  0
  -20.5867  -28.3669   23.1298 C   0  0  2  0  0  0
  -20.6773  -26.9398   22.5411 C   0  0  0  0  0  0
  -19.5755  -26.6386   21.5207 C   0  0  0  0  0  0
  -18.1934  -26.7928   22.1613 C   0  0  0  0  0  0
  -19.1526  -28.8838   23.2905 C   0  0  0  0  0  0
  -18.9455  -30.1442   23.8921 C   0  0  0  0  0  0
  -17.6452  -30.6579   24.0561 C   0  0  0  0  0  0
  -25.9048  -34.9467   23.5127 C   0  0  0  0  0  0
  -16.5350  -29.9084   23.6306 C   0  0  0  0  0  0
  -16.7272  -28.6496   23.0337 C   0  0  0  0  0  0
  -26.4490  -31.6587   25.0727 C   0  0  0  0  0  0
  -25.3760  -31.3673   26.1479 C   0  0  0  0  0  0
  -27.0300  -30.3035   24.6068 C   0  0  0  0  0  0
  -27.6085  -32.4291   25.7486 C   0  0  0  0  0  0
  -27.5587  -37.1818   24.8466 C   0  0  0  0  0  0
  -21.4142  -29.3052   22.3717 N   0  0  0  0  0  0
  -26.4301  -37.3793   23.9407 N   0  0  0  0  0  0
  -24.6723  -31.0764   22.0994 N   0  0  0  0  0  0
  -23.4186  -28.8211   23.3021 O   0  0  0  0  0  0
  -28.4020  -26.6946   20.0947 O   0  0  0  0  0  0
  -26.5586  -34.8920   22.4676 O   0  0  0  0  0  0
  -23.5377  -32.1452   23.7472 O   0  0  0  0  0  0
  -31.1862  -18.8738   19.2113 C   0  0  0  0  0  0
  -29.2904  -19.1895   20.6013 C   0  0  0  0  0  0
  -31.1946  -17.5006   19.5375 C   0  0  0  0  0  0
  -30.2593  -19.7808   19.7596 C   0  0  0  0  0  0
  -30.2165  -16.9874   20.4612 C   0  0  0  0  0  0
  -30.1479  -23.4820   19.3135 C   0  0  0  0  0  0
  -31.3586  -23.1406   18.6248 C   0  0  0  0  0  0
  -29.5670  -22.2346   19.8265 C   0  0  0  0  0  0
  -32.2008  -23.9865   18.0041 C   0  0  0  0  0  0
  -33.5870  -17.0659   19.0147 C   0  0  0  0  0  0
  -32.2824  -16.7663   18.8781 C   0  0  0  0  0  0
  -29.6572  -24.7432   19.4237 C   0  0  0  0  0  0
  -31.5454  -21.6658   18.6843 C   0  0  0  0  0  0
  -29.8792  -15.6284   22.4959 C   0  0  0  0  0  0
  -28.3856  -25.2504   20.0766 C   0  0  0  0  0  0
  -29.2775  -17.8675   20.9222 N   0  0  0  0  0  0
  -30.3822  -21.1980   19.4582 N   0  0  0  0  0  0
  -30.2009  -15.6416   21.0573 N   0  0  0  0  0  0
  -28.5215  -22.1259   20.4719 O   0  0  0  0  0  0
  -31.4481  -12.3509   19.1696 H   0  0  0  0  0  0
  -30.2354  -11.3283   19.8733 H   0  0  0  0  0  0
  -29.7543  -11.7838   17.4377 H   0  0  0  0  0  0
  -29.6889  -13.4972   17.7703 H   0  0  0  0  0  0
  -27.8178  -11.3274   18.7962 H   0  0  0  0  0  0
  -27.3826  -12.6559   17.7587 H   0  0  0  0  0  0
  -27.6673  -14.2732   19.5340 H   0  0  0  0  0  0
  -28.6576  -12.0509   21.3705 H   0  0  0  0  0  0
  -28.4000  -13.7067   21.8102 H   0  0  0  0  0  0
  -25.2738   -9.5783   22.4674 H   0  0  0  0  0  0
  -24.0000   -7.4702   22.7452 H   0  0  0  0  0  0
  -21.0808   -8.8749   19.8935 H   0  0  0  0  0  0
  -22.3599  -10.9659   19.6081 H   0  0  0  0  0  0
  -21.2090   -7.6166   23.9753 H   0  0  0  0  0  0
  -21.1418   -6.0509   25.9086 H   0  0  0  0  0  0
  -22.0620   -2.7617   23.2838 H   0  0  0  0  0  0
  -22.4083  -11.9831   22.4724 H   0  0  0  0  0  0
  -21.1124  -13.1229   22.2636 H   0  0  0  0  0  0
  -24.6699  -15.8589   20.5468 H   0  0  0  0  0  0
  -26.2934  -15.6422   20.1415 H   0  0  0  0  0  0
  -26.7129  -32.5489   23.1138 H   0  0  0  0  0  0
  -25.0141  -33.9775   25.0506 H   0  0  0  0  0  0
  -22.6974  -31.3147   21.4142 H   0  0  0  0  0  0
  -23.3756  -35.9649   23.3304 H   0  0  0  0  0  0
  -24.3594  -36.8934   22.2051 H   0  0  0  0  0  0
  -23.7250  -37.6527   23.6644 H   0  0  0  0  0  0
  -26.0461  -31.5831   20.5877 H   0  0  0  0  0  0
  -26.8240  -30.8775   21.9780 H   0  0  0  0  0  0
  -28.0929  -29.0770   21.1558 H   0  0  0  0  0  0
  -25.9829  -25.9808   18.9749 H   0  0  0  0  0  0
  -23.9608  -27.3116   19.0242 H   0  0  0  0  0  0
  -23.7192  -30.6052   19.4050 H   0  0  0  0  0  0
  -22.7314  -29.2546   19.8663 H   0  0  0  0  0  0
  -25.1290  -36.1985   25.0833 H   0  0  0  0  0  0
  -20.9965  -28.3238   24.1414 H   0  0  0  0  0  0
  -20.5649  -26.2291   23.3613 H   0  0  0  0  0  0
  -21.6649  -26.7439   22.1212 H   0  0  0  0  0  0
  -19.6912  -25.6299   21.1241 H   0  0  0  0  0  0
  -19.6693  -27.3188   20.6732 H   0  0  0  0  0  0
  -17.4208  -26.6678   21.4012 H   0  0  0  0  0  0
  -18.0333  -26.0062   22.8997 H   0  0  0  0  0  0
  -19.7929  -30.7252   24.2308 H   0  0  0  0  0  0
  -17.5005  -31.6252   24.5166 H   0  0  0  0  0  0
  -15.5347  -30.2985   23.7617 H   0  0  0  0  0  0
  -15.8679  -28.0817   22.7033 H   0  0  0  0  0  0
  -24.5958  -30.7000   25.7818 H   0  0  0  0  0  0
  -24.8917  -32.2804   26.4943 H   0  0  0  0  0  0
  -25.8130  -30.8847   27.0223 H   0  0  0  0  0  0
  -26.2811  -29.6821   24.1152 H   0  0  0  0  0  0
  -27.4125  -29.7266   25.4493 H   0  0  0  0  0  0
  -27.8624  -30.4391   23.9163 H   0  0  0  0  0  0
  -27.2736  -33.3594   26.2078 H   0  0  0  0  0  0
  -28.3874  -32.6839   25.0292 H   0  0  0  0  0  0
  -28.0752  -31.8391   26.5380 H   0  0  0  0  0  0
  -28.2610  -38.0105   24.7493 H   0  0  0  0  0  0
  -28.1069  -36.2643   24.6303 H   0  0  0  0  0  0
  -27.2299  -37.1478   25.8864 H   0  0  0  0  0  0
  -20.9318  -29.8798   21.6948 H   0  0  0  0  0  0
  -26.0195  -38.2881   24.1388 H   0  0  0  0  0  0
  -31.9490  -19.2208   18.5311 H   0  0  0  0  0  0
  -28.5123  -19.7664   21.0747 H   0  0  0  0  0  0
  -32.0386  -25.0534   17.9719 H   0  0  0  0  0  0
  -33.0872  -23.6194   17.5061 H   0  0  0  0  0  0
  -33.9254  -17.8734   19.6508 H   0  0  0  0  0  0
  -34.3460  -16.4979   18.4971 H   0  0  0  0  0  0
  -31.9992  -15.9530   18.2257 H   0  0  0  0  0  0
  -30.2136  -25.5459   18.9639 H   0  0  0  0  0  0
  -32.4901  -21.4229   19.1762 H   0  0  0  0  0  0
  -31.5491  -21.2596   17.6719 H   0  0  0  0  0  0
  -30.4660  -16.3847   23.0205 H   0  0  0  0  0  0
  -30.0971  -14.6765   22.9826 H   0  0  0  0  0  0
  -28.8232  -15.8505   22.6523 H   0  0  0  0  0  0
  -28.3321  -24.8813   21.1002 H   0  0  0  0  0  0
  -27.5574  -24.8046   19.5320 H   0  0  0  0  0  0
  1 25  1  0  0  0
  1 30  2  0  0  0
  1 88  1  0  0  0
  2  3  1  0  0  0
  2 25  1  0  0  0
  2 90  1  0  0  0
  2 91  1  0  0  0
  3  4  1  0  0  0
  3 92  1  0  0  0
  3 93  1  0  0  0
  4  5  1  0  0  0
  4 94  1  0  0  0
  4 95  1  0  0  0
  5  6  1  0  0  0
  5 26  1  0  0  0
  5 96  1  0  0  0
  6 25  1  0  0  0
  6 97  1  0  0  0
  6 98  1  0  0  0
  7  8  2  0  0  0
  7 26  1  0  0  0
  7 29  1  0  0  0
  8  9  1  0  0  0
  8 22  1  0  0  0
  9 10  1  0  0  0
  9 27  2  0  0  0
 10 11  2  0  0  0
 10 15  1  0  0  0
 11 12  1  0  0  0
 11 99  1  0  0  0
 12 13  2  0  0  0
 12100  1  0  0  0
 13 14  1  0  0  0
 13 31  1  0  0  0
 14 15  2  0  0  0
 14101  1  0  0  0
 15102  1  0  0  0
 16 17  2  0  0  0
 16 21  1  0  0  0
 16 31  1  0  0  0
 17 18  1  0  0  0
 17103  1  0  0  0
 18 19  2  0  0  0
 18104  1  0  0  0
 19 20  1  0  0  0
 19 24  1  0  0  0
 20 21  2  0  0  0
 20105  1  0  0  0
 21 23  1  0  0  0
 22 28  1  0  0  0
 22 32  2  0  0  0
 26 27  1  0  0  0
 28106  1  0  0  0
 28107  1  0  0  0
 29108  1  0  0  0
 29109  1  0  0  0
 33 34  1  0  0  0
 33 66  1  0  0  0
 33 70  2  0  0  0
 34 36  1  0  0  0
 34 59  1  0  0  0
 34110  1  0  0  0
 35 44  2  0  0  0
 35 45  1  0  0  0
 35 68  1  0  0  0
 36 56  1  0  0  0
 36111  1  0  0  0
 37 39  1  0  0  0
 37 47  1  0  0  0
 37 66  1  0  0  0
 37112  1  0  0  0
 38 43  2  0  0  0
 38 46  1  0  0  0
 38 47  1  0  0  0
 39 64  1  0  0  0
 39 67  2  0  0  0
 40 52  1  0  0  0
 40 53  2  0  0  0
 40 58  1  0  0  0
 41113  1  0  0  0
 41114  1  0  0  0
 41115  1  0  0  0
 41 48  1  0  0  0
 42 43  1  0  0  0
 42 66  1  0  0  0
 42116  1  0  0  0
 42117  1  0  0  0
 43 44  1  0  0  0
 44118  1  0  0  0
 45 46  2  0  0  0
 45119  1  0  0  0
 46120  1  0  0  0
 47121  1  0  0  0
 47122  1  0  0  0
 48 56  1  0  0  0
 48 65  1  0  0  0
 48123  1  0  0  0
 49 50  1  0  0  0
 49 53  1  0  0  0
 49 64  1  0  0  0
 49124  1  0  0  0
 50 51  1  0  0  0
 50125  1  0  0  0
 50126  1  0  0  0
 51 52  1  0  0  0
 51127  1  0  0  0
 51128  1  0  0  0
 52129  1  0  0  0
 52130  1  0  0  0
 53 54  1  0  0  0
 54 55  2  0  0  0
 54131  1  0  0  0
 55 57  1  0  0  0
 55132  1  0  0  0
 56 69  2  0  0  0
 57 58  2  0  0  0
 57133  1  0  0  0
 58134  1  0  0  0
 59 60  1  0  0  0
 59 61  1  0  0  0
 59 62  1  0  0  0
 60135  1  0  0  0
 60136  1  0  0  0
 60137  1  0  0  0
 61138  1  0  0  0
 61139  1  0  0  0
 61140  1  0  0  0
 62141  1  0  0  0
 62142  1  0  0  0
 62143  1  0  0  0
 63 65  1  0  0  0
 63144  1  0  0  0
 63145  1  0  0  0
 63146  1  0  0  0
 64147  1  0  0  0
 65148  1  0  0  0
 68 85  1  0  0  0
 71 73  2  0  0  0
 71 74  1  0  0  0
 71149  1  0  0  0
 72 74  2  0  0  0
 72 86  1  0  0  0
 72150  1  0  0  0
 73 75  1  0  0  0
 73 81  1  0  0  0
 74 87  1  0  0  0
 75 86  2  0  0  0
 75 88  1  0  0  0
 76 77  1  0  0  0
 76 78  1  0  0  0
 76 82  2  0  0  0
 77 79  2  0  0  0
 77 83  1  0  0  0
 78 87  1  0  0  0
 78 89  2  0  0  0
 79151  1  0  0  0
 79152  1  0  0  0
 80 81  2  0  0  0
 80153  1  0  0  0
 80154  1  0  0  0
 81155  1  0  0  0
 82 85  1  0  0  0
 82156  1  0  0  0
 83 87  1  0  0  0
 83157  1  0  0  0
 83158  1  0  0  0
 84 88  1  0  0  0
 84159  1  0  0  0
 84160  1  0  0  0
 84161  1  0  0  0
 85162  1  0  0  0
 85163  1  0  0  0
M  ISO  4   1 100  68 101  85 101  88 100
M  END
> <chiral flag>
0

> <version>
0

> <s_m_source_file>
/data/baiqing/PycharmProjects/Reinvent-master-3.2/result/LINK_invent/BTK/process_docking_weight1_custom_product_contain_oxygen_bond_distance_aromatic_linkinvent_7_9_3/rearranged_h_0078.sdf

> <i_m_source_file_index>
62

> <r_mmod_Potential_Energy-OPLS-2005>
218.294494628906

> <r_mmod_Stretch_Energy-OPLS-2005>
60.4806022644043

> <r_mmod_Bend_Energy-OPLS-2005>
210.858428955078

> <r_mmod_Torsional_Energy-OPLS-2005>
349.783569335938

> <r_mmod_Improper_Torsional_Energy-OPLS-2005>
3.13997054100037

> <r_mmod_Van_der_Waal_Energy-OPLS-2005>
188.986175537109

> <r_mmod_Electrostatic_Energy-OPLS-2005>
-426.744567871094

> <r_mmod_Solvation_Energy-OPLS-2005>
-195.854095458984

> <b_mmod_Minimization_Converged-OPLS-2005>
0

> <r_mmod_RMS_Derivative-OPLS-2005>
3.39245438575745

$$$$
63
                    3D
 Structure written by MMmdl.
143150  0  0  1  0            999 V2000
  -30.1351  -16.0783   20.2718 C   0  0  0  0  0  0
  -30.3923  -13.4052   19.5657 C   0  0  0  0  0  0
  -29.5764  -12.7795   18.3809 C   0  0  0  0  0  0
  -28.1822  -12.3249   18.8313 C   0  0  0  0  0  0
  -27.5779  -13.3615   19.7958 C   0  0  2  0  0  0
  -28.5515  -13.8853   20.8867 C   0  0  0  0  0  0
  -25.2248  -13.8373   20.5843 C   0  0  0  0  0  0
  -24.1683  -13.0450   20.9291 C   0  0  0  0  0  0
  -24.6453  -11.6984   20.8731 C   0  0  0  0  0  0
  -23.9163  -10.4307   21.0368 C   0  0  0  0  0  0
  -24.3678   -9.4222   21.9167 C   0  0  0  0  0  0
  -23.6322   -8.2268   22.0755 C   0  0  0  0  0  0
  -22.4301   -8.0308   21.3546 C   0  0  0  0  0  0
  -21.9956   -9.0285   20.4647 C   0  0  0  0  0  0
  -22.7315  -10.2147   20.3037 C   0  0  0  0  0  0
  -21.6864   -6.0750   22.5279 C   0  0  0  0  0  0
  -21.4036   -6.5651   23.8213 C   0  0  0  0  0  0
  -21.3666   -5.6800   24.9173 C   0  0  0  0  0  0
  -21.6042   -4.3060   24.7219 C   0  0  0  0  0  0
  -21.8815   -3.8152   23.4338 C   0  0  0  0  0  0
  -21.9192   -4.6976   22.3397 C   0  0  0  0  0  0
  -22.7685  -13.5140   21.1928 C   0  0  0  0  0  0
  -22.1660   -4.2159   21.0975 F   0  0  0  0  0  0
  -21.5617   -3.4540   25.7730 F   0  0  0  0  0  0
  -29.6764  -14.6283   20.2304 N   0  0  0  0  0  0
  -26.2741  -12.9802   20.3224 N   0  0  0  0  0  0
  -25.9413  -11.6809   20.5605 N   0  0  0  0  0  0
  -22.0369  -12.8108   22.0486 N   0  0  0  0  0  0
  -25.3792  -15.2133   20.4353 N   0  0  0  0  0  0
  -31.3766  -15.9216   20.2227 O   0  0  0  0  0  0
  -21.6660   -6.8903   21.4245 O   0  0  0  0  0  0
  -22.3341  -14.5432   20.6766 O   0  0  0  0  0  0
  -24.7140  -31.7639   23.1254 C   0  0  0  0  0  0
  -25.9569  -32.4289   23.7919 C   0  0  1  0  0  0
  -27.2396  -26.3878   20.2555 C   0  0  0  0  0  0
  -25.6015  -33.8132   24.1773 N   0  0  0  0  0  0
  -23.5536  -30.3516   21.4880 C   0  0  2  0  0  0
  -25.0126  -28.6229   20.1363 C   0  0  0  0  0  0
  -22.7905  -29.4119   22.4634 C   0  0  0  0  0  0
  -18.0358  -28.1433   22.8428 C   0  0  0  0  0  0
  -24.1505  -36.7088   23.2663 C   0  0  0  0  0  0
  -26.1471  -30.3940   21.4364 C   0  0  0  0  0  0
  -26.2091  -28.9220   20.7981 C   0  0  0  0  0  0
  -27.2947  -27.8461   20.8088 C   0  0  0  0  0  0
  -26.0030  -26.3763   19.5354 C   0  0  0  0  0  0
  -24.9667  -27.3776   19.4810 C   0  0  0  0  0  0
  -23.8259  -29.6186   20.1387 C   0  0  0  0  0  0
  -25.4169  -36.2796   24.0256 C   0  0  1  0  0  0
  -20.6008  -28.3807   23.1080 C   0  0  2  0  0  0
  -20.6810  -26.9435   22.5402 C   0  0  0  0  0  0
  -19.5791  -26.6354   21.5216 C   0  0  0  0  0  0
  -18.1976  -26.7950   22.1613 C   0  0  0  0  0  0
  -19.1630  -28.8951   23.2726 C   0  0  0  0  0  0
  -18.9529  -30.1528   23.8786 C   0  0  0  0  0  0
  -17.6514  -30.6604   24.0539 C   0  0  0  0  0  0
  -25.9158  -34.9191   23.4873 C   0  0  0  0  0  0
  -16.5404  -29.9078   23.6355 C   0  0  0  0  0  0
  -16.7335  -28.6508   23.0361 C   0  0  0  0  0  0
  -26.4643  -31.6453   25.0671 C   0  0  0  0  0  0
  -25.3624  -31.3860   26.1225 C   0  0  0  0  0  0
  -27.0628  -30.2762   24.6788 C   0  0  0  0  0  0
  -27.6031  -32.4385   25.7515 C   0  0  0  0  0  0
  -27.5550  -37.1719   24.8480 C   0  0  0  0  0  0
  -21.4524  -29.2998   22.3377 N   0  0  0  0  0  0
  -26.4283  -37.3578   23.9377 N   0  0  0  0  0  0
  -24.8324  -30.8775   22.0683 N   0  0  0  0  0  0
  -23.4210  -28.7759   23.3113 O   0  0  0  0  0  0
  -28.1978  -25.0514   20.2252 O   0  0  0  0  0  0
  -26.5844  -34.8825   22.4521 O   0  0  0  0  0  0
  -23.6097  -32.0861   23.6012 O   0  0  0  0  0  0
  -29.4543  -19.1980   20.3921 C   0  0  0  0  0  0
  -29.9115  -21.5361   18.9301 C   0  0  0  0  0  0
  -29.5133  -21.8277   17.4880 C   0  0  0  0  0  0
  -28.2622  -23.1437   20.5191 C   0  0  0  0  0  0
  -28.8112  -21.1663   19.9241 C   0  0  2  0  0  0
  -29.3132  -17.6325   20.1776 N   0  0  0  0  0  0
  -31.0908  -21.6280   19.2830 O   0  0  0  0  0  0
  -31.3582  -13.7162   19.1670 H   0  0  0  0  0  0
  -30.6397  -12.6417   20.3058 H   0  0  0  0  0  0
  -30.1195  -11.9441   17.9379 H   0  0  0  0  0  0
  -29.4720  -13.5282   17.5948 H   0  0  0  0  0  0
  -28.2852  -11.3692   19.3463 H   0  0  0  0  0  0
  -27.5300  -12.1510   17.9745 H   0  0  0  0  0  0
  -27.3809  -14.2186   19.1497 H   0  0  0  0  0  0
  -28.8916  -13.0824   21.5426 H   0  0  0  0  0  0
  -28.0309  -14.5909   21.5350 H   0  0  0  0  0  0
  -25.2820   -9.5689   22.4754 H   0  0  0  0  0  0
  -24.0017   -7.4664   22.7488 H   0  0  0  0  0  0
  -21.0880   -8.8818   19.8960 H   0  0  0  0  0  0
  -22.3776  -10.9682   19.6142 H   0  0  0  0  0  0
  -21.2051   -7.6161   23.9720 H   0  0  0  0  0  0
  -21.1490   -6.0530   25.9076 H   0  0  0  0  0  0
  -22.0583   -2.7611   23.2837 H   0  0  0  0  0  0
  -22.4027  -11.9794   22.4894 H   0  0  0  0  0  0
  -21.0973  -13.1088   22.2694 H   0  0  0  0  0  0
  -24.6137  -15.8642   20.5709 H   0  0  0  0  0  0
  -26.2396  -15.6632   20.1474 H   0  0  0  0  0  0
  -26.7686  -32.4689   23.0656 H   0  0  0  0  0  0
  -25.0018  -33.9116   24.9830 H   0  0  0  0  0  0
  -22.8973  -31.1967   21.2706 H   0  0  0  0  0  0
  -23.3757  -35.9430   23.3327 H   0  0  0  0  0  0
  -24.3543  -36.8762   22.2074 H   0  0  0  0  0  0
  -23.7301  -37.6275   23.6762 H   0  0  0  0  0  0
  -26.3797  -31.0940   20.6328 H   0  0  0  0  0  0
  -26.9882  -30.4769   22.1112 H   0  0  0  0  0  0
  -28.1987  -28.1034   21.3429 H   0  0  0  0  0  0
  -25.7886  -25.4601   19.0032 H   0  0  0  0  0  0
  -24.0732  -27.1308   18.9245 H   0  0  0  0  0  0
  -24.0314  -30.3641   19.3700 H   0  0  0  0  0  0
  -22.9238  -29.1036   19.8046 H   0  0  0  0  0  0
  -25.1401  -36.1528   25.0750 H   0  0  0  0  0  0
  -21.0078  -28.3453   24.1212 H   0  0  0  0  0  0
  -20.5649  -26.2438   23.3691 H   0  0  0  0  0  0
  -21.6667  -26.7333   22.1237 H   0  0  0  0  0  0
  -19.6941  -25.6239   21.1311 H   0  0  0  0  0  0
  -19.6737  -27.3110   20.6706 H   0  0  0  0  0  0
  -17.4239  -26.6677   21.4024 H   0  0  0  0  0  0
  -18.0361  -26.0131   22.9049 H   0  0  0  0  0  0
  -19.8004  -30.7369   24.2114 H   0  0  0  0  0  0
  -17.5061  -31.6271   24.5161 H   0  0  0  0  0  0
  -15.5399  -30.2941   23.7744 H   0  0  0  0  0  0
  -15.8740  -28.0793   22.7132 H   0  0  0  0  0  0
  -24.5832  -30.7198   25.7500 H   0  0  0  0  0  0
  -24.8800  -32.3116   26.4376 H   0  0  0  0  0  0
  -25.7721  -30.9182   27.0187 H   0  0  0  0  0  0
  -26.3407  -29.6276   24.1823 H   0  0  0  0  0  0
  -27.3981  -29.7335   25.5638 H   0  0  0  0  0  0
  -27.9409  -30.3824   24.0419 H   0  0  0  0  0  0
  -27.2517  -33.3770   26.1816 H   0  0  0  0  0  0
  -28.3984  -32.6814   25.0456 H   0  0  0  0  0  0
  -28.0546  -31.8710   26.5664 H   0  0  0  0  0  0
  -28.2581  -37.9992   24.7426 H   0  0  0  0  0  0
  -28.1028  -36.2505   24.6445 H   0  0  0  0  0  0
  -27.2241  -37.1519   25.8879 H   0  0  0  0  0  0
  -20.9905  -29.8617   21.6358 H   0  0  0  0  0  0
  -26.0088  -38.2631   24.1315 H   0  0  0  0  0  0
  -30.3649  -19.4081   20.9586 H   0  0  0  0  0  0
  -28.5082  -21.4663   17.2745 H   0  0  0  0  0  0
  -30.2057  -21.3403   16.8017 H   0  0  0  0  0  0
  -29.5416  -22.9008   17.3013 H   0  0  0  0  0  0
  -28.7655  -23.1725   21.4856 H   0  0  0  0  0  0
  -27.2195  -22.9814   20.7917 H   0  0  0  0  0  0
  -27.9458  -20.9306   19.3058 H   0  0  0  0  0  0
  1 25  1  0  0  0
  1 30  2  0  0  0
  1 76  1  0  0  0
  2  3  1  0  0  0
  2 25  1  0  0  0
  2 78  1  0  0  0
  2 79  1  0  0  0
  3  4  1  0  0  0
  3 80  1  0  0  0
  3 81  1  0  0  0
  4  5  1  0  0  0
  4 82  1  0  0  0
  4 83  1  0  0  0
  5  6  1  0  0  0
  5 26  1  0  0  0
  5 84  1  0  0  0
  6 25  1  0  0  0
  6 85  1  0  0  0
  6 86  1  0  0  0
  7  8  2  0  0  0
  7 26  1  0  0  0
  7 29  1  0  0  0
  8  9  1  0  0  0
  8 22  1  0  0  0
  9 10  1  0  0  0
  9 27  2  0  0  0
 10 11  2  0  0  0
 10 15  1  0  0  0
 11 12  1  0  0  0
 11 87  1  0  0  0
 12 13  2  0  0  0
 12 88  1  0  0  0
 13 14  1  0  0  0
 13 31  1  0  0  0
 14 15  2  0  0  0
 14 89  1  0  0  0
 15 90  1  0  0  0
 16 17  2  0  0  0
 16 21  1  0  0  0
 16 31  1  0  0  0
 17 18  1  0  0  0
 17 91  1  0  0  0
 18 19  2  0  0  0
 18 92  1  0  0  0
 19 20  1  0  0  0
 19 24  1  0  0  0
 20 21  2  0  0  0
 20 93  1  0  0  0
 21 23  1  0  0  0
 22 28  1  0  0  0
 22 32  2  0  0  0
 26 27  1  0  0  0
 28 94  1  0  0  0
 28 95  1  0  0  0
 29 96  1  0  0  0
 29 97  1  0  0  0
 33 34  1  0  0  0
 33 66  1  0  0  0
 33 70  2  0  0  0
 34 36  1  0  0  0
 34 59  1  0  0  0
 34 98  1  0  0  0
 35 44  2  0  0  0
 35 45  1  0  0  0
 35 68  1  0  0  0
 36 56  1  0  0  0
 36 99  1  0  0  0
 37 39  1  0  0  0
 37 47  1  0  0  0
 37 66  1  0  0  0
 37100  1  0  0  0
 38 43  2  0  0  0
 38 46  1  0  0  0
 38 47  1  0  0  0
 39 64  1  0  0  0
 39 67  2  0  0  0
 40 52  1  0  0  0
 40 53  2  0  0  0
 40 58  1  0  0  0
 41101  1  0  0  0
 41102  1  0  0  0
 41103  1  0  0  0
 41 48  1  0  0  0
 42 43  1  0  0  0
 42 66  1  0  0  0
 42104  1  0  0  0
 42105  1  0  0  0
 43 44  1  0  0  0
 44106  1  0  0  0
 45 46  2  0  0  0
 45107  1  0  0  0
 46108  1  0  0  0
 47109  1  0  0  0
 47110  1  0  0  0
 48 56  1  0  0  0
 48 65  1  0  0  0
 48111  1  0  0  0
 49 50  1  0  0  0
 49 53  1  0  0  0
 49 64  1  0  0  0
 49112  1  0  0  0
 50 51  1  0  0  0
 50113  1  0  0  0
 50114  1  0  0  0
 51 52  1  0  0  0
 51115  1  0  0  0
 51116  1  0  0  0
 52117  1  0  0  0
 52118  1  0  0  0
 53 54  1  0  0  0
 54 55  2  0  0  0
 54119  1  0  0  0
 55 57  1  0  0  0
 55120  1  0  0  0
 56 69  2  0  0  0
 57 58  2  0  0  0
 57121  1  0  0  0
 58122  1  0  0  0
 59 60  1  0  0  0
 59 61  1  0  0  0
 59 62  1  0  0  0
 60123  1  0  0  0
 60124  1  0  0  0
 60125  1  0  0  0
 61126  1  0  0  0
 61127  1  0  0  0
 61128  1  0  0  0
 62129  1  0  0  0
 62130  1  0  0  0
 62131  1  0  0  0
 63 65  1  0  0  0
 63132  1  0  0  0
 63133  1  0  0  0
 63134  1  0  0  0
 64135  1  0  0  0
 65136  1  0  0  0
 68 74  1  0  0  0
 71 75  1  0  0  0
 71 76  2  0  0  0
 71137  1  0  0  0
 72 73  1  0  0  0
 72 75  1  0  0  0
 72 77  2  0  0  0
 73138  1  0  0  0
 73139  1  0  0  0
 73140  1  0  0  0
 74141  1  0  0  0
 74142  1  0  0  0
 74 75  1  0  0  0
 75143  1  0  0  0
M  ISO  4   1 100  68 101  74 101  76 100
M  END
> <chiral flag>
0

> <version>
0

> <s_m_source_file>
/data/baiqing/PycharmProjects/Reinvent-master-3.2/result/LINK_invent/BTK/process_docking_weight1_custom_product_contain_oxygen_bond_distance_aromatic_linkinvent_7_9_3/rearranged_h_0078.sdf

> <i_m_source_file_index>
63

> <r_mmod_Potential_Energy-OPLS-2005>
4499.66357421875

> <r_mmod_Stretch_Energy-OPLS-2005>
2083.94116210938

> <r_mmod_Bend_Energy-OPLS-2005>
942.421447753906

> <r_mmod_Torsional_Energy-OPLS-2005>
230.038345336914

> <r_mmod_Improper_Torsional_Energy-OPLS-2005>
5.33896064758301

> <r_mmod_Van_der_Waal_Energy-OPLS-2005>
111.312782287598

> <r_mmod_Electrostatic_Energy-OPLS-2005>
-337.569488525391

> <r_mmod_Solvation_Energy-OPLS-2005>
-208.443710327148

> <b_mmod_Minimization_Converged-OPLS-2005>
0

> <r_mmod_RMS_Derivative-OPLS-2005>
1.33780825138092

$$$$
64
                    3D
 Structure written by MMmdl.
158167  0  0  1  0            999 V2000
  -30.6523  -14.7007   20.4332 C   0  0  0  0  0  0
  -30.4182  -12.4202   19.4795 C   0  0  0  0  0  0
  -29.5088  -12.4926   18.2363 C   0  0  0  0  0  0
  -28.0309  -12.3380   18.6436 C   0  0  0  0  0  0
  -27.6391  -13.2369   19.8484 C   0  0  2  0  0  0
  -28.6823  -13.1782   20.9847 C   0  0  0  0  0  0
  -25.2492  -13.8218   20.5686 C   0  0  0  0  0  0
  -24.1793  -13.0455   20.9204 C   0  0  0  0  0  0
  -24.6387  -11.6935   20.8737 C   0  0  0  0  0  0
  -23.9066  -10.4312   21.0407 C   0  0  0  0  0  0
  -24.3617   -9.4229   21.9181 C   0  0  0  0  0  0
  -23.6300   -8.2260   22.0754 C   0  0  0  0  0  0
  -22.4282   -8.0289   21.3542 C   0  0  0  0  0  0
  -21.9909   -9.0259   20.4643 C   0  0  0  0  0  0
  -22.7235  -10.2146   20.3056 C   0  0  0  0  0  0
  -21.6863   -6.0732   22.5274 C   0  0  0  0  0  0
  -21.4021   -6.5634   23.8207 C   0  0  0  0  0  0
  -21.3675   -5.6787   24.9167 C   0  0  0  0  0  0
  -21.6049   -4.3046   24.7215 C   0  0  0  0  0  0
  -21.8824   -3.8141   23.4335 C   0  0  0  0  0  0
  -21.9194   -4.6957   22.3393 C   0  0  0  0  0  0
  -22.7810  -13.5235   21.1862 C   0  0  0  0  0  0
  -22.1657   -4.2138   21.0967 F   0  0  0  0  0  0
  -21.5634   -3.4534   25.7729 F   0  0  0  0  0  0
  -29.9890  -13.4983   20.3994 N   0  0  0  0  0  0
  -26.2918  -12.9428   20.3262 N   0  0  0  0  0  0
  -25.9314  -11.6569   20.5734 N   0  0  0  0  0  0
  -22.0442  -12.8241   22.0421 N   0  0  0  0  0  0
  -25.4186  -15.1945   20.4101 N   0  0  0  0  0  0
  -31.8536  -14.7385   20.1594 O   0  0  0  0  0  0
  -21.6658   -6.8874   21.4236 O   0  0  0  0  0  0
  -22.3493  -14.5524   20.6684 O   0  0  0  0  0  0
  -24.6272  -31.8582   23.1997 C   0  0  0  0  0  0
  -25.9104  -32.4773   23.8333 C   0  0  1  0  0  0
  -27.2246  -27.2987   20.1076 C   0  0  0  0  0  0
  -25.5898  -33.8575   24.2252 N   0  0  0  0  0  0
  -23.4225  -30.4802   21.5440 C   0  0  2  0  0  0
  -24.8706  -28.9335   20.1074 C   0  0  0  0  0  0
  -22.7478  -29.4613   22.4933 C   0  0  0  0  0  0
  -18.0285  -28.1380   22.8494 C   0  0  0  0  0  0
  -24.1478  -36.7290   23.2648 C   0  0  0  0  0  0
  -25.9664  -30.7797   21.3762 C   0  0  0  0  0  0
  -26.0404  -29.4052   20.7164 C   0  0  0  0  0  0
  -27.2187  -28.5959   20.7149 C   0  0  0  0  0  0
  -26.0266  -26.8799   19.4855 C   0  0  0  0  0  0
  -24.8657  -27.6759   19.4844 C   0  0  0  0  0  0
  -23.6379  -29.8139   20.1600 C   0  0  0  0  0  0
  -25.4108  -36.3085   24.0331 C   0  0  1  0  0  0
  -20.5892  -28.3682   23.1288 C   0  0  2  0  0  0
  -20.6774  -26.9402   22.5420 C   0  0  0  0  0  0
  -19.5752  -26.6375   21.5222 C   0  0  0  0  0  0
  -18.1930  -26.7920   22.1632 C   0  0  0  0  0  0
  -19.1541  -28.8847   23.2884 C   0  0  0  0  0  0
  -18.9465  -30.1448   23.8898 C   0  0  0  0  0  0
  -17.6468  -30.6588   24.0558 C   0  0  0  0  0  0
  -25.9052  -34.9453   23.5106 C   0  0  0  0  0  0
  -16.5355  -29.9088   23.6331 C   0  0  0  0  0  0
  -16.7272  -28.6502   23.0358 C   0  0  0  0  0  0
  -26.4470  -31.6591   25.0713 C   0  0  0  0  0  0
  -25.3685  -31.3749   26.1426 C   0  0  0  0  0  0
  -27.0326  -30.3012   24.6193 C   0  0  0  0  0  0
  -27.6023  -32.4327   25.7488 C   0  0  0  0  0  0
  -27.5570  -37.1805   24.8467 C   0  0  0  0  0  0
  -21.4190  -29.3024   22.3670 N   0  0  0  0  0  0
  -26.4286  -37.3779   23.9404 N   0  0  0  0  0  0
  -24.6912  -31.0557   22.0971 N   0  0  0  0  0  0
  -23.4184  -28.8169   23.3041 O   0  0  0  0  0  0
  -28.3028  -26.3955   20.1855 O   0  0  0  0  0  0
  -26.5646  -34.8930   22.4688 O   0  0  0  0  0  0
  -23.5426  -32.1396   23.7306 O   0  0  0  0  0  0
  -28.8130  -19.3002   19.4960 C   0  0  0  0  0  0
  -28.6592  -20.7286   19.4486 C   0  0  0  0  0  0
  -30.5006  -20.9774   20.9050 C   0  0  0  0  0  0
  -29.8837  -18.6607   20.1892 C   0  0  0  0  0  0
  -29.5545  -21.6515   20.0734 C   0  0  0  0  0  0
  -30.6775  -19.5574   20.9581 C   0  0  0  0  0  0
  -29.5527  -23.7787   17.8715 C   0  0  0  0  0  0
  -29.1252  -24.2406   19.0485 C   0  0  0  0  0  0
  -29.4129  -24.0687   16.5665 C   0  0  0  0  0  0
  -28.5224  -25.4878   19.1383 C   0  0  0  0  0  0
  -30.5544  -22.9429   18.5731 C   0  0  0  0  0  0
  -30.3665  -17.0202   18.2989 C   0  0  0  0  0  0
  -30.4041  -17.1884   19.8351 C   0  0  2  0  0  0
  -29.6967  -23.1034   19.7706 N   0  0  0  0  0  0
  -29.9245  -15.8809   20.4617 N   0  0  0  0  0  0
  -31.7131  -19.0683   21.6833 F   0  0  0  0  0  0
  -31.4645  -12.5095   19.1840 H   0  0  0  0  0  0
  -30.3281  -11.4471   19.9644 H   0  0  0  0  0  0
  -29.7818  -11.7129   17.5233 H   0  0  0  0  0  0
  -29.6570  -13.4439   17.7231 H   0  0  0  0  0  0
  -27.8719  -11.2900   18.8980 H   0  0  0  0  0  0
  -27.3829  -12.5450   17.7913 H   0  0  0  0  0  0
  -27.6318  -14.2593   19.4698 H   0  0  0  0  0  0
  -28.7031  -12.1892   21.4446 H   0  0  0  0  0  0
  -28.4277  -13.8832   21.7779 H   0  0  0  0  0  0
  -25.2760   -9.5715   22.4760 H   0  0  0  0  0  0
  -24.0010   -7.4659   22.7481 H   0  0  0  0  0  0
  -21.0835   -8.8771   19.8955 H   0  0  0  0  0  0
  -22.3672  -10.9683   19.6171 H   0  0  0  0  0  0
  -21.2012   -7.6141   23.9696 H   0  0  0  0  0  0
  -21.1496   -6.0520   25.9070 H   0  0  0  0  0  0
  -22.0585   -2.7601   23.2836 H   0  0  0  0  0  0
  -22.4051  -11.9921   22.4861 H   0  0  0  0  0  0
  -21.1049  -13.1268   22.2577 H   0  0  0  0  0  0
  -24.6537  -15.8492   20.5288 H   0  0  0  0  0  0
  -26.2604  -15.6335   20.0606 H   0  0  0  0  0  0
  -26.7171  -32.5429   23.1078 H   0  0  0  0  0  0
  -24.9956  -33.9707   25.0335 H   0  0  0  0  0  0
  -22.7168  -31.3013   21.3995 H   0  0  0  0  0  0
  -23.3743  -35.9623   23.3330 H   0  0  0  0  0  0
  -24.3556  -36.8892   22.2056 H   0  0  0  0  0  0
  -23.7231  -37.6497   23.6660 H   0  0  0  0  0  0
  -26.1015  -31.5427   20.6081 H   0  0  0  0  0  0
  -26.8456  -30.8280   22.0080 H   0  0  0  0  0  0
  -28.1115  -28.9458   21.2141 H   0  0  0  0  0  0
  -25.9641  -25.9044   19.0254 H   0  0  0  0  0  0
  -23.9671  -27.3036   19.0128 H   0  0  0  0  0  0
  -23.7523  -30.5895   19.4022 H   0  0  0  0  0  0
  -22.7578  -29.2420   19.8607 H   0  0  0  0  0  0
  -25.1296  -36.1940   25.0826 H   0  0  0  0  0  0
  -20.9982  -28.3258   24.1410 H   0  0  0  0  0  0
  -20.5678  -26.2291   23.3621 H   0  0  0  0  0  0
  -21.6643  -26.7434   22.1211 H   0  0  0  0  0  0
  -19.6916  -25.6287   21.1250 H   0  0  0  0  0  0
  -19.6691  -27.3189   20.6755 H   0  0  0  0  0  0
  -17.4201  -26.6665   21.4029 H   0  0  0  0  0  0
  -18.0326  -26.0055   22.9024 H   0  0  0  0  0  0
  -19.7944  -30.7259   24.2264 H   0  0  0  0  0  0
  -17.5029  -31.6273   24.5149 H   0  0  0  0  0  0
  -15.5359  -30.2998   23.7649 H   0  0  0  0  0  0
  -15.8666  -28.0819   22.7085 H   0  0  0  0  0  0
  -24.5833  -30.7139   25.7733 H   0  0  0  0  0  0
  -24.8905  -32.2931   26.4852 H   0  0  0  0  0  0
  -25.7970  -30.8895   27.0201 H   0  0  0  0  0  0
  -26.2927  -29.6761   24.1179 H   0  0  0  0  0  0
  -27.3979  -29.7265   25.4714 H   0  0  0  0  0  0
  -27.8806  -30.4295   23.9462 H   0  0  0  0  0  0
  -27.2626  -33.3624   26.2061 H   0  0  0  0  0  0
  -28.3832  -32.6889   25.0318 H   0  0  0  0  0  0
  -28.0686  -31.8452   26.5404 H   0  0  0  0  0  0
  -28.2614  -38.0079   24.7495 H   0  0  0  0  0  0
  -28.1043  -36.2613   24.6320 H   0  0  0  0  0  0
  -27.2287  -37.1487   25.8872 H   0  0  0  0  0  0
  -20.9372  -29.8704   21.6841 H   0  0  0  0  0  0
  -26.0174  -38.2860   24.1391 H   0  0  0  0  0  0
  -28.1591  -18.7029   18.8766 H   0  0  0  0  0  0
  -27.8931  -21.1276   18.7977 H   0  0  0  0  0  0
  -31.2214  -21.5784   21.4403 H   0  0  0  0  0  0
  -28.6983  -24.8017   16.2218 H   0  0  0  0  0  0
  -30.0132  -23.5684   15.8202 H   0  0  0  0  0  0
  -28.3140  -26.0039   18.2102 H   0  0  0  0  0  0
  -31.5332  -23.4052   18.7239 H   0  0  0  0  0  0
  -30.7102  -21.9417   18.1606 H   0  0  0  0  0  0
  -30.8274  -17.8737   17.7998 H   0  0  0  0  0  0
  -29.3454  -16.9367   17.9275 H   0  0  0  0  0  0
  -30.9043  -16.1325   17.9659 H   0  0  0  0  0  0
  -31.4648  -17.2380   20.0883 H   0  0  0  0  0  0
  -28.9429  -15.8102   20.6803 H   0  0  0  0  0  0
  1 25  1  0  0  0
  1 30  2  0  0  0
  1 85  1  0  0  0
  2  3  1  0  0  0
  2 25  1  0  0  0
  2 87  1  0  0  0
  2 88  1  0  0  0
  3  4  1  0  0  0
  3 89  1  0  0  0
  3 90  1  0  0  0
  4  5  1  0  0  0
  4 91  1  0  0  0
  4 92  1  0  0  0
  5  6  1  0  0  0
  5 26  1  0  0  0
  5 93  1  0  0  0
  6 25  1  0  0  0
  6 94  1  0  0  0
  6 95  1  0  0  0
  7  8  2  0  0  0
  7 26  1  0  0  0
  7 29  1  0  0  0
  8  9  1  0  0  0
  8 22  1  0  0  0
  9 10  1  0  0  0
  9 27  2  0  0  0
 10 11  2  0  0  0
 10 15  1  0  0  0
 11 12  1  0  0  0
 11 96  1  0  0  0
 12 13  2  0  0  0
 12 97  1  0  0  0
 13 14  1  0  0  0
 13 31  1  0  0  0
 14 15  2  0  0  0
 14 98  1  0  0  0
 15 99  1  0  0  0
 16 17  2  0  0  0
 16 21  1  0  0  0
 16 31  1  0  0  0
 17 18  1  0  0  0
 17100  1  0  0  0
 18 19  2  0  0  0
 18101  1  0  0  0
 19 20  1  0  0  0
 19 24  1  0  0  0
 20 21  2  0  0  0
 20102  1  0  0  0
 21 23  1  0  0  0
 22 28  1  0  0  0
 22 32  2  0  0  0
 26 27  1  0  0  0
 28103  1  0  0  0
 28104  1  0  0  0
 29105  1  0  0  0
 29106  1  0  0  0
 33 34  1  0  0  0
 33 66  1  0  0  0
 33 70  2  0  0  0
 34 36  1  0  0  0
 34 59  1  0  0  0
 34107  1  0  0  0
 35 44  2  0  0  0
 35 45  1  0  0  0
 35 68  1  0  0  0
 36 56  1  0  0  0
 36108  1  0  0  0
 37 39  1  0  0  0
 37 47  1  0  0  0
 37 66  1  0  0  0
 37109  1  0  0  0
 38 43  2  0  0  0
 38 46  1  0  0  0
 38 47  1  0  0  0
 39 64  1  0  0  0
 39 67  2  0  0  0
 40 52  1  0  0  0
 40 53  2  0  0  0
 40 58  1  0  0  0
 41110  1  0  0  0
 41111  1  0  0  0
 41112  1  0  0  0
 41 48  1  0  0  0
 42 43  1  0  0  0
 42 66  1  0  0  0
 42113  1  0  0  0
 42114  1  0  0  0
 43 44  1  0  0  0
 44115  1  0  0  0
 45 46  2  0  0  0
 45116  1  0  0  0
 46117  1  0  0  0
 47118  1  0  0  0
 47119  1  0  0  0
 48 56  1  0  0  0
 48 65  1  0  0  0
 48120  1  0  0  0
 49 50  1  0  0  0
 49 53  1  0  0  0
 49 64  1  0  0  0
 49121  1  0  0  0
 50 51  1  0  0  0
 50122  1  0  0  0
 50123  1  0  0  0
 51 52  1  0  0  0
 51124  1  0  0  0
 51125  1  0  0  0
 52126  1  0  0  0
 52127  1  0  0  0
 53 54  1  0  0  0
 54 55  2  0  0  0
 54128  1  0  0  0
 55 57  1  0  0  0
 55129  1  0  0  0
 56 69  2  0  0  0
 57 58  2  0  0  0
 57130  1  0  0  0
 58131  1  0  0  0
 59 60  1  0  0  0
 59 61  1  0  0  0
 59 62  1  0  0  0
 60132  1  0  0  0
 60133  1  0  0  0
 60134  1  0  0  0
 61135  1  0  0  0
 61136  1  0  0  0
 61137  1  0  0  0
 62138  1  0  0  0
 62139  1  0  0  0
 62140  1  0  0  0
 63 65  1  0  0  0
 63141  1  0  0  0
 63142  1  0  0  0
 63143  1  0  0  0
 64144  1  0  0  0
 65145  1  0  0  0
 68 80  1  0  0  0
 71 72  2  0  0  0
 71 74  1  0  0  0
 71146  1  0  0  0
 72 75  1  0  0  0
 72147  1  0  0  0
 73 75  2  0  0  0
 73 76  1  0  0  0
 73148  1  0  0  0
 74 76  2  0  0  0
 74 83  1  0  0  0
 75 84  1  0  0  0
 76 86  1  0  0  0
 77 78  1  0  0  0
 77 79  2  0  0  0
 77 81  1  0  0  0
 78 80  2  0  0  0
 78 84  1  0  0  0
 79149  1  0  0  0
 79150  1  0  0  0
 80151  1  0  0  0
 81 84  1  0  0  0
 81152  1  0  0  0
 81153  1  0  0  0
 82154  1  0  0  0
 82155  1  0  0  0
 82156  1  0  0  0
 82 83  1  0  0  0
 83 85  1  0  0  0
 83157  1  0  0  0
 85158  1  0  0  0
M  ISO  4   1 100  68 101  80 101  85 100
M  END
> <chiral flag>
0

> <version>
0

> <s_m_source_file>
/data/baiqing/PycharmProjects/Reinvent-master-3.2/result/LINK_invent/BTK/process_docking_weight1_custom_product_contain_oxygen_bond_distance_aromatic_linkinvent_7_9_3/rearranged_h_0078.sdf

> <i_m_source_file_index>
64

> <r_mmod_Potential_Energy-OPLS-2005>
362.130493164062

> <r_mmod_Stretch_Energy-OPLS-2005>
112.750511169434

> <r_mmod_Bend_Energy-OPLS-2005>
240.989303588867

> <r_mmod_Torsional_Energy-OPLS-2005>
334.969879150391

> <r_mmod_Improper_Torsional_Energy-OPLS-2005>
22.8037586212158

> <r_mmod_Van_der_Waal_Energy-OPLS-2005>
156.007598876953

> <r_mmod_Electrostatic_Energy-OPLS-2005>
-369.936004638672

> <r_mmod_Solvation_Energy-OPLS-2005>
-208.483917236328

> <b_mmod_Minimization_Converged-OPLS-2005>
0

> <r_mmod_RMS_Derivative-OPLS-2005>
1.56864500045776

$$$$
65
                    3D
 Structure written by MMmdl.
158167  0  0  1  0            999 V2000
  -30.5894  -14.7898   20.4458 C   0  0  0  0  0  0
  -30.4349  -12.4788   19.4998 C   0  0  0  0  0  0
  -29.5227  -12.5316   18.2537 C   0  0  0  0  0  0
  -28.0451  -12.3508   18.6476 C   0  0  0  0  0  0
  -27.6439  -13.2417   19.8533 C   0  0  2  0  0  0
  -28.6806  -13.1846   20.9959 C   0  0  0  0  0  0
  -25.2525  -13.8212   20.5674 C   0  0  0  0  0  0
  -24.1818  -13.0449   20.9166 C   0  0  0  0  0  0
  -24.6407  -11.6924   20.8709 C   0  0  0  0  0  0
  -23.9078  -10.4303   21.0386 C   0  0  0  0  0  0
  -24.3637   -9.4226   21.9163 C   0  0  0  0  0  0
  -23.6318   -8.2263   22.0725 C   0  0  0  0  0  0
  -22.4296   -8.0304   21.3527 C   0  0  0  0  0  0
  -21.9916   -9.0277   20.4629 C   0  0  0  0  0  0
  -22.7239  -10.2160   20.3051 C   0  0  0  0  0  0
  -21.6859   -6.0748   22.5267 C   0  0  0  0  0  0
  -21.4018   -6.5642   23.8204 C   0  0  0  0  0  0
  -21.3648   -5.6795   24.9163 C   0  0  0  0  0  0
  -21.6057   -4.3060   24.7218 C   0  0  0  0  0  0
  -21.8820   -3.8144   23.4334 C   0  0  0  0  0  0
  -21.9192   -4.6969   22.3383 C   0  0  0  0  0  0
  -22.7855  -13.5237   21.1856 C   0  0  0  0  0  0
  -22.1675   -4.2163   21.0956 F   0  0  0  0  0  0
  -21.5622   -3.4526   25.7716 F   0  0  0  0  0  0
  -29.9881  -13.5447   20.4328 N   0  0  0  0  0  0
  -26.2949  -12.9423   20.3257 N   0  0  0  0  0  0
  -25.9336  -11.6553   20.5709 N   0  0  0  0  0  0
  -22.0526  -12.8232   22.0450 N   0  0  0  0  0  0
  -25.4270  -15.1924   20.4109 N   0  0  0  0  0  0
  -31.7527  -14.8938   20.0427 O   0  0  0  0  0  0
  -21.6663   -6.8901   21.4236 O   0  0  0  0  0  0
  -22.3533  -14.5528   20.6675 O   0  0  0  0  0  0
  -24.6336  -31.8512   23.1980 C   0  0  0  0  0  0
  -25.9146  -32.4737   23.8327 C   0  0  1  0  0  0
  -27.2217  -27.2141   20.1265 C   0  0  0  0  0  0
  -25.5933  -33.8534   24.2246 N   0  0  0  0  0  0
  -23.4349  -30.4748   21.5404 C   0  0  2  0  0  0
  -24.8852  -28.9203   20.1053 C   0  0  0  0  0  0
  -22.7518  -29.4570   22.4873 C   0  0  0  0  0  0
  -18.0306  -28.1408   22.8473 C   0  0  0  0  0  0
  -24.1492  -36.7287   23.2631 C   0  0  0  0  0  0
  -25.9863  -30.7438   21.3943 C   0  0  0  0  0  0
  -26.0553  -29.3626   20.7350 C   0  0  0  0  0  0
  -27.2197  -28.5184   20.7451 C   0  0  0  0  0  0
  -26.0368  -26.8758   19.4301 C   0  0  0  0  0  0
  -24.8858  -27.6877   19.4388 C   0  0  0  0  0  0
  -23.6580  -29.8138   20.1546 C   0  0  0  0  0  0
  -25.4119  -36.3054   24.0315 C   0  0  1  0  0  0
  -20.5902  -28.3712   23.1254 C   0  0  2  0  0  0
  -20.6789  -26.9420   22.5409 C   0  0  0  0  0  0
  -19.5766  -26.6386   21.5210 C   0  0  0  0  0  0
  -18.1951  -26.7942   22.1619 C   0  0  0  0  0  0
  -19.1559  -28.8882   23.2864 C   0  0  0  0  0  0
  -18.9468  -30.1472   23.8903 C   0  0  0  0  0  0
  -17.6466  -30.6595   24.0573 C   0  0  0  0  0  0
  -25.9059  -34.9419   23.5093 C   0  0  0  0  0  0
  -16.5357  -29.9101   23.6331 C   0  0  0  0  0  0
  -16.7290  -28.6522   23.0344 C   0  0  0  0  0  0
  -26.4496  -31.6581   25.0734 C   0  0  0  0  0  0
  -25.3713  -31.3810   26.1466 C   0  0  0  0  0  0
  -27.0300  -30.2949   24.6305 C   0  0  0  0  0  0
  -27.6068  -32.4309   25.7486 C   0  0  0  0  0  0
  -27.5590  -37.1799   24.8463 C   0  0  0  0  0  0
  -21.4218  -29.3041   22.3629 N   0  0  0  0  0  0
  -26.4302  -37.3749   23.9399 N   0  0  0  0  0  0
  -24.7039  -31.0425   22.0998 N   0  0  0  0  0  0
  -23.4196  -28.8099   23.2975 O   0  0  0  0  0  0
  -28.3071  -26.2858   20.1845 O   0  0  0  0  0  0
  -26.5640  -34.8896   22.4660 O   0  0  0  0  0  0
  -23.5463  -32.1357   23.7229 O   0  0  0  0  0  0
  -29.1294  -18.3525   17.9945 C   0  0  0  0  0  0
  -29.0755  -19.6270   18.5974 C   0  0  0  0  0  0
  -29.4461  -17.1928   18.7274 C   0  0  0  0  0  0
  -29.6429  -18.5829   20.7175 C   0  0  0  0  0  0
  -29.3432  -19.8198   19.9734 C   0  0  0  0  0  0
  -29.7056  -17.2430   20.1138 C   0  0  0  0  0  0
  -30.3953  -23.9632   20.7500 C   0  0  0  0  0  0
  -28.9979  -23.7760   20.3485 C   0  0  0  0  0  0
  -31.0584  -22.8682   21.4653 C   0  0  0  0  0  0
  -28.5796  -22.3253   20.0724 C   0  0  0  0  0  0
  -31.0828  -25.0556   20.3467 C   0  0  0  0  0  0
  -32.2668  -23.0117   22.0472 C   0  0  0  0  0  0
  -28.1245  -24.8504   20.0979 C   0  0  0  0  0  0
  -30.3937  -21.4975   21.5330 C   0  0  0  0  0  0
  -29.3957  -21.2444   20.4844 N   0  0  0  0  0  0
  -29.8552  -15.9219   20.8077 N   0  0  0  0  0  0
  -27.5221  -22.0871   19.4815 O   0  0  0  0  0  0
  -31.4781  -12.5973   19.2015 H   0  0  0  0  0  0
  -30.3754  -11.5046   19.9862 H   0  0  0  0  0  0
  -29.8134  -11.7676   17.5304 H   0  0  0  0  0  0
  -29.6497  -13.4935   17.7542 H   0  0  0  0  0  0
  -27.8925  -11.2982   18.8910 H   0  0  0  0  0  0
  -27.4048  -12.5632   17.7911 H   0  0  0  0  0  0
  -27.6331  -14.2652   19.4764 H   0  0  0  0  0  0
  -28.7103  -12.1860   21.4329 H   0  0  0  0  0  0
  -28.4006  -13.8651   21.8003 H   0  0  0  0  0  0
  -25.2782   -9.5709   22.4741 H   0  0  0  0  0  0
  -24.0020   -7.4654   22.7441 H   0  0  0  0  0  0
  -21.0831   -8.8822   19.8954 H   0  0  0  0  0  0
  -22.3689  -10.9718   19.6194 H   0  0  0  0  0  0
  -21.2026   -7.6152   23.9712 H   0  0  0  0  0  0
  -21.1468   -6.0519   25.9064 H   0  0  0  0  0  0
  -22.0601   -2.7597   23.2839 H   0  0  0  0  0  0
  -22.4145  -11.9897   22.4829 H   0  0  0  0  0  0
  -21.1155  -13.1251   22.2708 H   0  0  0  0  0  0
  -24.6681  -15.8553   20.5204 H   0  0  0  0  0  0
  -26.2694  -15.6120   20.0357 H   0  0  0  0  0  0
  -26.7212  -32.5384   23.1060 H   0  0  0  0  0  0
  -25.0068  -33.9679   25.0384 H   0  0  0  0  0  0
  -22.7330  -31.2990   21.3955 H   0  0  0  0  0  0
  -23.3736  -35.9643   23.3300 H   0  0  0  0  0  0
  -24.3580  -36.8897   22.2048 H   0  0  0  0  0  0
  -23.7279  -37.6501   23.6650 H   0  0  0  0  0  0
  -26.1375  -31.5020   20.6242 H   0  0  0  0  0  0
  -26.8556  -30.7894   22.0386 H   0  0  0  0  0  0
  -28.1104  -28.8410   21.2666 H   0  0  0  0  0  0
  -25.9639  -25.9613   18.8633 H   0  0  0  0  0  0
  -23.9994  -27.3574   18.9140 H   0  0  0  0  0  0
  -23.7914  -30.5955   19.4057 H   0  0  0  0  0  0
  -22.7719  -29.2570   19.8439 H   0  0  0  0  0  0
  -25.1296  -36.1909   25.0809 H   0  0  0  0  0  0
  -21.0010  -28.3317   24.1362 H   0  0  0  0  0  0
  -20.5684  -26.2324   23.3627 H   0  0  0  0  0  0
  -21.6664  -26.7442   22.1210 H   0  0  0  0  0  0
  -19.6931  -25.6292   21.1265 H   0  0  0  0  0  0
  -19.6715  -27.3179   20.6732 H   0  0  0  0  0  0
  -17.4210  -26.6663   21.4041 H   0  0  0  0  0  0
  -18.0360  -26.0110   22.9041 H   0  0  0  0  0  0
  -19.7940  -30.7288   24.2275 H   0  0  0  0  0  0
  -17.5016  -31.6271   24.5175 H   0  0  0  0  0  0
  -15.5357  -30.3002   23.7650 H   0  0  0  0  0  0
  -15.8689  -28.0844   22.7050 H   0  0  0  0  0  0
  -24.5829  -30.7223   25.7812 H   0  0  0  0  0  0
  -24.8993  -32.3024   26.4882 H   0  0  0  0  0  0
  -25.7987  -30.8976   27.0259 H   0  0  0  0  0  0
  -26.2885  -29.6718   24.1294 H   0  0  0  0  0  0
  -27.3848  -29.7210   25.4879 H   0  0  0  0  0  0
  -27.8837  -30.4119   23.9626 H   0  0  0  0  0  0
  -27.2674  -33.3571   26.2128 H   0  0  0  0  0  0
  -28.3833  -32.6935   25.0290 H   0  0  0  0  0  0
  -28.0800  -31.8421   26.5355 H   0  0  0  0  0  0
  -28.2621  -38.0079   24.7458 H   0  0  0  0  0  0
  -28.1067  -36.2611   24.6326 H   0  0  0  0  0  0
  -27.2313  -37.1495   25.8868 H   0  0  0  0  0  0
  -20.9408  -29.8772   21.6844 H   0  0  0  0  0  0
  -26.0182  -38.2823   24.1382 H   0  0  0  0  0  0
  -28.9216  -18.2664   16.9368 H   0  0  0  0  0  0
  -28.8456  -20.4701   17.9628 H   0  0  0  0  0  0
  -29.4451  -16.2443   18.2104 H   0  0  0  0  0  0
  -29.8233  -18.6684   21.7785 H   0  0  0  0  0  0
  -30.6229  -25.8285   19.7541 H   0  0  0  0  0  0
  -32.1297  -25.2063   20.5600 H   0  0  0  0  0  0
  -32.8127  -23.9419   22.0596 H   0  0  0  0  0  0
  -32.7390  -22.1792   22.5489 H   0  0  0  0  0  0
  -27.1254  -24.5977   19.7877 H   0  0  0  0  0  0
  -29.9130  -21.3921   22.5063 H   0  0  0  0  0  0
  -31.1753  -20.7376   21.4823 H   0  0  0  0  0  0
  -29.0777  -15.7009   21.4120 H   0  0  0  0  0  0
  1 25  1  0  0  0
  1 30  2  0  0  0
  1 86  1  0  0  0
  2  3  1  0  0  0
  2 25  1  0  0  0
  2 88  1  0  0  0
  2 89  1  0  0  0
  3  4  1  0  0  0
  3 90  1  0  0  0
  3 91  1  0  0  0
  4  5  1  0  0  0
  4 92  1  0  0  0
  4 93  1  0  0  0
  5  6  1  0  0  0
  5 26  1  0  0  0
  5 94  1  0  0  0
  6 25  1  0  0  0
  6 95  1  0  0  0
  6 96  1  0  0  0
  7  8  2  0  0  0
  7 26  1  0  0  0
  7 29  1  0  0  0
  8  9  1  0  0  0
  8 22  1  0  0  0
  9 10  1  0  0  0
  9 27  2  0  0  0
 10 11  2  0  0  0
 10 15  1  0  0  0
 11 12  1  0  0  0
 11 97  1  0  0  0
 12 13  2  0  0  0
 12 98  1  0  0  0
 13 14  1  0  0  0
 13 31  1  0  0  0
 14 15  2  0  0  0
 14 99  1  0  0  0
 15100  1  0  0  0
 16 17  2  0  0  0
 16 21  1  0  0  0
 16 31  1  0  0  0
 17 18  1  0  0  0
 17101  1  0  0  0
 18 19  2  0  0  0
 18102  1  0  0  0
 19 20  1  0  0  0
 19 24  1  0  0  0
 20 21  2  0  0  0
 20103  1  0  0  0
 21 23  1  0  0  0
 22 28  1  0  0  0
 22 32  2  0  0  0
 26 27  1  0  0  0
 28104  1  0  0  0
 28105  1  0  0  0
 29106  1  0  0  0
 29107  1  0  0  0
 33 34  1  0  0  0
 33 66  1  0  0  0
 33 70  2  0  0  0
 34 36  1  0  0  0
 34 59  1  0  0  0
 34108  1  0  0  0
 35 44  2  0  0  0
 35 45  1  0  0  0
 35 68  1  0  0  0
 36 56  1  0  0  0
 36109  1  0  0  0
 37 39  1  0  0  0
 37 47  1  0  0  0
 37 66  1  0  0  0
 37110  1  0  0  0
 38 43  2  0  0  0
 38 46  1  0  0  0
 38 47  1  0  0  0
 39 64  1  0  0  0
 39 67  2  0  0  0
 40 52  1  0  0  0
 40 53  2  0  0  0
 40 58  1  0  0  0
 41111  1  0  0  0
 41112  1  0  0  0
 41113  1  0  0  0
 41 48  1  0  0  0
 42 43  1  0  0  0
 42 66  1  0  0  0
 42114  1  0  0  0
 42115  1  0  0  0
 43 44  1  0  0  0
 44116  1  0  0  0
 45 46  2  0  0  0
 45117  1  0  0  0
 46118  1  0  0  0
 47119  1  0  0  0
 47120  1  0  0  0
 48 56  1  0  0  0
 48 65  1  0  0  0
 48121  1  0  0  0
 49 50  1  0  0  0
 49 53  1  0  0  0
 49 64  1  0  0  0
 49122  1  0  0  0
 50 51  1  0  0  0
 50123  1  0  0  0
 50124  1  0  0  0
 51 52  1  0  0  0
 51125  1  0  0  0
 51126  1  0  0  0
 52127  1  0  0  0
 52128  1  0  0  0
 53 54  1  0  0  0
 54 55  2  0  0  0
 54129  1  0  0  0
 55 57  1  0  0  0
 55130  1  0  0  0
 56 69  2  0  0  0
 57 58  2  0  0  0
 57131  1  0  0  0
 58132  1  0  0  0
 59 60  1  0  0  0
 59 61  1  0  0  0
 59 62  1  0  0  0
 60133  1  0  0  0
 60134  1  0  0  0
 60135  1  0  0  0
 61136  1  0  0  0
 61137  1  0  0  0
 61138  1  0  0  0
 62139  1  0  0  0
 62140  1  0  0  0
 62141  1  0  0  0
 63 65  1  0  0  0
 63142  1  0  0  0
 63143  1  0  0  0
 63144  1  0  0  0
 64145  1  0  0  0
 65146  1  0  0  0
 68 83  1  0  0  0
 71 72  2  0  0  0
 71 73  1  0  0  0
 71147  1  0  0  0
 72 75  1  0  0  0
 72148  1  0  0  0
 73 76  2  0  0  0
 73149  1  0  0  0
 74 75  2  0  0  0
 74 76  1  0  0  0
 74150  1  0  0  0
 75 85  1  0  0  0
 76 86  1  0  0  0
 77 78  1  0  0  0
 77 79  1  0  0  0
 77 81  2  0  0  0
 78 80  1  0  0  0
 78 83  2  0  0  0
 79 82  2  0  0  0
 79 84  1  0  0  0
 80 85  1  0  0  0
 80 87  2  0  0  0
 81151  1  0  0  0
 81152  1  0  0  0
 82153  1  0  0  0
 82154  1  0  0  0
 83155  1  0  0  0
 84 85  1  0  0  0
 84156  1  0  0  0
 84157  1  0  0  0
 86158  1  0  0  0
M  ISO  4   1 100  68 101  83 101  86 100
M  END
> <chiral flag>
0

> <version>
0

> <s_m_source_file>
/data/baiqing/PycharmProjects/Reinvent-master-3.2/result/LINK_invent/BTK/process_docking_weight1_custom_product_contain_oxygen_bond_distance_aromatic_linkinvent_7_9_3/rearranged_h_0078.sdf

> <i_m_source_file_index>
65

> <r_mmod_Potential_Energy-OPLS-2005>
411.330627441406

> <r_mmod_Stretch_Energy-OPLS-2005>
167.310760498047

> <r_mmod_Bend_Energy-OPLS-2005>
180.892807006836

> <r_mmod_Torsional_Energy-OPLS-2005>
319.162628173828

> <r_mmod_Improper_Torsional_Energy-OPLS-2005>
5.39212274551392

> <r_mmod_Van_der_Waal_Energy-OPLS-2005>
169.786270141602

> <r_mmod_Electrostatic_Energy-OPLS-2005>
-327.235015869141

> <r_mmod_Solvation_Energy-OPLS-2005>
-214.652359008789

> <b_mmod_Minimization_Converged-OPLS-2005>
0

> <r_mmod_RMS_Derivative-OPLS-2005>
3.6633152961731

$$$$
66
                    3D
 Structure written by MMmdl.
157166  0  0  1  0            999 V2000
  -30.7045  -14.5700   20.5358 C   0  0  0  0  0  0
  -30.4209  -12.3542   19.4702 C   0  0  0  0  0  0
  -29.5144  -12.5367   18.2380 C   0  0  0  0  0  0
  -28.0376  -12.3593   18.6373 C   0  0  0  0  0  0
  -27.6576  -13.2245   19.8694 C   0  0  2  0  0  0
  -28.6977  -13.0965   21.0047 C   0  0  0  0  0  0
  -25.2560  -13.8204   20.5628 C   0  0  0  0  0  0
  -24.1844  -13.0458   20.9104 C   0  0  0  0  0  0
  -24.6438  -11.6934   20.8735 C   0  0  0  0  0  0
  -23.9088  -10.4314   21.0356 C   0  0  0  0  0  0
  -24.3612   -9.4265   21.9178 C   0  0  0  0  0  0
  -23.6313   -8.2288   22.0744 C   0  0  0  0  0  0
  -22.4311   -8.0299   21.3510 C   0  0  0  0  0  0
  -21.9951   -9.0245   20.4577 C   0  0  0  0  0  0
  -22.7253  -10.2139   20.3004 C   0  0  0  0  0  0
  -21.6921   -6.0749   22.5257 C   0  0  0  0  0  0
  -21.4071   -6.5635   23.8193 C   0  0  0  0  0  0
  -21.3743   -5.6781   24.9152 C   0  0  0  0  0  0
  -21.6053   -4.3037   24.7181 C   0  0  0  0  0  0
  -21.8808   -3.8143   23.4301 C   0  0  0  0  0  0
  -21.9175   -4.6968   22.3373 C   0  0  0  0  0  0
  -22.7850  -13.5208   21.1792 C   0  0  0  0  0  0
  -22.1640   -4.2162   21.0936 F   0  0  0  0  0  0
  -21.5638   -3.4522   25.7700 F   0  0  0  0  0  0
  -30.0219  -13.3903   20.4411 N   0  0  0  0  0  0
  -26.3027  -12.9400   20.3354 N   0  0  0  0  0  0
  -25.9371  -11.6553   20.5799 N   0  0  0  0  0  0
  -22.0478  -12.8230   22.0367 N   0  0  0  0  0  0
  -25.4230  -15.1937   20.4023 N   0  0  0  0  0  0
  -31.8599  -14.6723   20.1156 O   0  0  0  0  0  0
  -21.6679   -6.8893   21.4227 O   0  0  0  0  0  0
  -22.3524  -14.5507   20.6630 O   0  0  0  0  0  0
  -24.6181  -31.8672   23.2017 C   0  0  0  0  0  0
  -25.9043  -32.4814   23.8359 C   0  0  1  0  0  0
  -27.2327  -27.4033   20.1413 C   0  0  0  0  0  0
  -25.5831  -33.8601   24.2258 N   0  0  0  0  0  0
  -23.4081  -30.4802   21.5504 C   0  0  2  0  0  0
  -24.8587  -28.9487   20.1192 C   0  0  0  0  0  0
  -22.7467  -29.4592   22.5023 C   0  0  0  0  0  0
  -18.0258  -28.1424   22.8527 C   0  0  0  0  0  0
  -24.1455  -36.7323   23.2635 C   0  0  0  0  0  0
  -25.9317  -30.8357   21.3498 C   0  0  0  0  0  0
  -26.0188  -29.4658   20.7041 C   0  0  0  0  0  0
  -27.2169  -28.7068   20.7001 C   0  0  0  0  0  0
  -26.0559  -26.9100   19.5405 C   0  0  0  0  0  0
  -24.8708  -27.6733   19.5311 C   0  0  0  0  0  0
  -23.6161  -29.8097   20.1658 C   0  0  0  0  0  0
  -25.4087  -36.3108   24.0326 C   0  0  1  0  0  0
  -20.5869  -28.3659   23.1364 C   0  0  2  0  0  0
  -20.6783  -26.9384   22.5468 C   0  0  0  0  0  0
  -19.5768  -26.6397   21.5296 C   0  0  0  0  0  0
  -18.1923  -26.7963   22.1665 C   0  0  0  0  0  0
  -19.1506  -28.8867   23.2949 C   0  0  0  0  0  0
  -18.9413  -30.1478   23.8970 C   0  0  0  0  0  0
  -17.6400  -30.6625   24.0593 C   0  0  0  0  0  0
  -25.9015  -34.9468   23.5117 C   0  0  0  0  0  0
  -16.5308  -29.9150   23.6328 C   0  0  0  0  0  0
  -16.7229  -28.6579   23.0342 C   0  0  0  0  0  0
  -26.4420  -31.6605   25.0732 C   0  0  0  0  0  0
  -25.3609  -31.3762   26.1415 C   0  0  0  0  0  0
  -27.0216  -30.3027   24.6151 C   0  0  0  0  0  0
  -27.5994  -32.4283   25.7534 C   0  0  0  0  0  0
  -27.5564  -37.1795   24.8448 C   0  0  0  0  0  0
  -21.4191  -29.3000   22.3749 N   0  0  0  0  0  0
  -26.4254  -37.3818   23.9409 N   0  0  0  0  0  0
  -24.6720  -31.0757   22.0922 N   0  0  0  0  0  0
  -23.4221  -28.8126   23.3051 O   0  0  0  0  0  0
  -28.3680  -26.6077   20.1738 O   0  0  0  0  0  0
  -26.5649  -34.8933   22.4719 O   0  0  0  0  0  0
  -23.5366  -32.1358   23.7430 O   0  0  0  0  0  0
  -32.1821  -18.6811   21.6471 C   0  0  0  0  0  0
  -31.2627  -19.7356   21.5470 C   0  0  0  0  0  0
  -31.7718  -17.3538   21.4242 C   0  0  0  0  0  0
  -29.5013  -18.1364   20.9816 C   0  0  0  0  0  0
  -29.9144  -19.4892   21.2106 C   0  0  0  0  0  0
  -30.4305  -17.0441   21.0814 C   0  0  0  0  0  0
  -28.8530  -22.9418   21.1683 C   0  0  0  0  0  0
  -28.5167  -22.4912   22.5093 C   0  0  0  0  0  0
  -29.2379  -21.7355   20.4261 C   0  0  0  0  0  0
  -28.5812  -23.1752   23.6727 C   0  0  0  0  0  0
  -28.8156  -24.1715   20.5756 C   0  0  0  0  0  0
  -28.3175  -20.9974   22.4412 C   0  0  0  0  0  0
  -28.3444  -25.5185   21.1408 C   0  0  0  0  0  0
  -29.0336  -20.6359   21.2111 N   0  0  0  0  0  0
  -29.9894  -15.6693   20.9200 N   0  0  0  0  0  0
  -29.6672  -21.6954   19.2645 O   0  0  0  0  0  0
  -31.4748  -12.4173   19.1846 H   0  0  0  0  0  0
  -30.2848  -11.3624   19.9092 H   0  0  0  0  0  0
  -29.7827  -11.8317   17.4535 H   0  0  0  0  0  0
  -29.6642  -13.5392   17.8306 H   0  0  0  0  0  0
  -27.8875  -11.3031   18.8652 H   0  0  0  0  0  0
  -27.3820  -12.5939   17.7977 H   0  0  0  0  0  0
  -27.6736  -14.2598   19.5333 H   0  0  0  0  0  0
  -28.6924  -12.0931   21.4260 H   0  0  0  0  0  0
  -28.4583  -13.7704   21.8298 H   0  0  0  0  0  0
  -25.2736   -9.5800   22.4766 H   0  0  0  0  0  0
  -24.0028   -7.4717   22.7504 H   0  0  0  0  0  0
  -21.0895   -8.8721   19.8871 H   0  0  0  0  0  0
  -22.3690  -10.9651   19.6092 H   0  0  0  0  0  0
  -21.2126   -7.6168   23.9721 H   0  0  0  0  0  0
  -21.1600   -6.0501   25.9050 H   0  0  0  0  0  0
  -22.0516   -2.7614   23.2763 H   0  0  0  0  0  0
  -22.4135  -11.9966   22.4872 H   0  0  0  0  0  0
  -21.1066  -13.1226   22.2465 H   0  0  0  0  0  0
  -24.6455  -15.8393   20.4854 H   0  0  0  0  0  0
  -26.2824  -15.6467   20.1156 H   0  0  0  0  0  0
  -26.7140  -32.5527   23.1147 H   0  0  0  0  0  0
  -24.9794  -33.9696   25.0276 H   0  0  0  0  0  0
  -22.7021  -31.2995   21.4153 H   0  0  0  0  0  0
  -23.3736  -35.9645   23.3308 H   0  0  0  0  0  0
  -24.3515  -36.8953   22.2041 H   0  0  0  0  0  0
  -23.7174  -37.6516   23.6665 H   0  0  0  0  0  0
  -26.0168  -31.5980   20.5771 H   0  0  0  0  0  0
  -26.8250  -30.9091   21.9581 H   0  0  0  0  0  0
  -28.1139  -29.1053   21.1517 H   0  0  0  0  0  0
  -26.0430  -25.9248   19.0988 H   0  0  0  0  0  0
  -23.9687  -27.2669   19.0949 H   0  0  0  0  0  0
  -23.7035  -30.5770   19.3942 H   0  0  0  0  0  0
  -22.7507  -29.2084   19.8883 H   0  0  0  0  0  0
  -25.1269  -36.1977   25.0822 H   0  0  0  0  0  0
  -20.9930  -28.3205   24.1498 H   0  0  0  0  0  0
  -20.5809  -26.2232   23.3645 H   0  0  0  0  0  0
  -21.6614  -26.7519   22.1160 H   0  0  0  0  0  0
  -19.6887  -25.6321   21.1300 H   0  0  0  0  0  0
  -19.6710  -27.3267   20.6874 H   0  0  0  0  0  0
  -17.4217  -26.6755   21.4045 H   0  0  0  0  0  0
  -18.0238  -26.0115   22.9047 H   0  0  0  0  0  0
  -19.7847  -30.7313   24.2403 H   0  0  0  0  0  0
  -17.4925  -31.6297   24.5179 H   0  0  0  0  0  0
  -15.5319  -30.3078   23.7611 H   0  0  0  0  0  0
  -15.8627  -28.0946   22.7010 H   0  0  0  0  0  0
  -24.5679  -30.7324   25.7579 H   0  0  0  0  0  0
  -24.8948  -32.2983   26.4920 H   0  0  0  0  0  0
  -25.7783  -30.8709   27.0133 H   0  0  0  0  0  0
  -26.2772  -29.6858   24.1097 H   0  0  0  0  0  0
  -27.3826  -29.7203   25.4644 H   0  0  0  0  0  0
  -27.8681  -30.4328   23.9402 H   0  0  0  0  0  0
  -27.2587  -33.3463   26.2330 H   0  0  0  0  0  0
  -28.3703  -32.7015   25.0323 H   0  0  0  0  0  0
  -28.0818  -31.8302   26.5283 H   0  0  0  0  0  0
  -28.2576  -38.0087   24.7507 H   0  0  0  0  0  0
  -28.1050  -36.2621   24.6267 H   0  0  0  0  0  0
  -27.2277  -37.1445   25.8843 H   0  0  0  0  0  0
  -20.9446  -29.8586   21.6808 H   0  0  0  0  0  0
  -26.0171  -38.2891   24.1489 H   0  0  0  0  0  0
  -33.2077  -18.8863   21.9227 H   0  0  0  0  0  0
  -31.5944  -20.7461   21.7497 H   0  0  0  0  0  0
  -32.5171  -16.5842   21.5659 H   0  0  0  0  0  0
  -28.4657  -17.9382   20.7368 H   0  0  0  0  0  0
  -28.8718  -24.2136   23.7483 H   0  0  0  0  0  0
  -28.3855  -22.6707   24.6151 H   0  0  0  0  0  0
  -29.1159  -24.2417   19.5363 H   0  0  0  0  0  0
  -27.2552  -20.7623   22.3368 H   0  0  0  0  0  0
  -28.7190  -20.4787   23.3133 H   0  0  0  0  0  0
  -29.0063  -25.7883   21.9642 H   0  0  0  0  0  0
  -27.3516  -25.3673   21.5670 H   0  0  0  0  0  0
  -29.0042  -15.5059   21.0647 H   0  0  0  0  0  0
  1 25  1  0  0  0
  1 30  2  0  0  0
  1 85  1  0  0  0
  2  3  1  0  0  0
  2 25  1  0  0  0
  2 87  1  0  0  0
  2 88  1  0  0  0
  3  4  1  0  0  0
  3 89  1  0  0  0
  3 90  1  0  0  0
  4  5  1  0  0  0
  4 91  1  0  0  0
  4 92  1  0  0  0
  5  6  1  0  0  0
  5 26  1  0  0  0
  5 93  1  0  0  0
  6 25  1  0  0  0
  6 94  1  0  0  0
  6 95  1  0  0  0
  7  8  2  0  0  0
  7 26  1  0  0  0
  7 29  1  0  0  0
  8  9  1  0  0  0
  8 22  1  0  0  0
  9 10  1  0  0  0
  9 27  2  0  0  0
 10 11  2  0  0  0
 10 15  1  0  0  0
 11 12  1  0  0  0
 11 96  1  0  0  0
 12 13  2  0  0  0
 12 97  1  0  0  0
 13 14  1  0  0  0
 13 31  1  0  0  0
 14 15  2  0  0  0
 14 98  1  0  0  0
 15 99  1  0  0  0
 16 17  2  0  0  0
 16 21  1  0  0  0
 16 31  1  0  0  0
 17 18  1  0  0  0
 17100  1  0  0  0
 18 19  2  0  0  0
 18101  1  0  0  0
 19 20  1  0  0  0
 19 24  1  0  0  0
 20 21  2  0  0  0
 20102  1  0  0  0
 21 23  1  0  0  0
 22 28  1  0  0  0
 22 32  2  0  0  0
 26 27  1  0  0  0
 28103  1  0  0  0
 28104  1  0  0  0
 29105  1  0  0  0
 29106  1  0  0  0
 33 34  1  0  0  0
 33 66  1  0  0  0
 33 70  2  0  0  0
 34 36  1  0  0  0
 34 59  1  0  0  0
 34107  1  0  0  0
 35 44  2  0  0  0
 35 45  1  0  0  0
 35 68  1  0  0  0
 36 56  1  0  0  0
 36108  1  0  0  0
 37 39  1  0  0  0
 37 47  1  0  0  0
 37 66  1  0  0  0
 37109  1  0  0  0
 38 43  2  0  0  0
 38 46  1  0  0  0
 38 47  1  0  0  0
 39 64  1  0  0  0
 39 67  2  0  0  0
 40 52  1  0  0  0
 40 53  2  0  0  0
 40 58  1  0  0  0
 41110  1  0  0  0
 41111  1  0  0  0
 41112  1  0  0  0
 41 48  1  0  0  0
 42 43  1  0  0  0
 42 66  1  0  0  0
 42113  1  0  0  0
 42114  1  0  0  0
 43 44  1  0  0  0
 44115  1  0  0  0
 45 46  2  0  0  0
 45116  1  0  0  0
 46117  1  0  0  0
 47118  1  0  0  0
 47119  1  0  0  0
 48 56  1  0  0  0
 48 65  1  0  0  0
 48120  1  0  0  0
 49 50  1  0  0  0
 49 53  1  0  0  0
 49 64  1  0  0  0
 49121  1  0  0  0
 50 51  1  0  0  0
 50122  1  0  0  0
 50123  1  0  0  0
 51 52  1  0  0  0
 51124  1  0  0  0
 51125  1  0  0  0
 52126  1  0  0  0
 52127  1  0  0  0
 53 54  1  0  0  0
 54 55  2  0  0  0
 54128  1  0  0  0
 55 57  1  0  0  0
 55129  1  0  0  0
 56 69  2  0  0  0
 57 58  2  0  0  0
 57130  1  0  0  0
 58131  1  0  0  0
 59 60  1  0  0  0
 59 61  1  0  0  0
 59 62  1  0  0  0
 60132  1  0  0  0
 60133  1  0  0  0
 60134  1  0  0  0
 61135  1  0  0  0
 61136  1  0  0  0
 61137  1  0  0  0
 62138  1  0  0  0
 62139  1  0  0  0
 62140  1  0  0  0
 63 65  1  0  0  0
 63141  1  0  0  0
 63142  1  0  0  0
 63143  1  0  0  0
 64144  1  0  0  0
 65145  1  0  0  0
 68 83  1  0  0  0
 71 72  2  0  0  0
 71 73  1  0  0  0
 71146  1  0  0  0
 72 75  1  0  0  0
 72147  1  0  0  0
 73 76  2  0  0  0
 73148  1  0  0  0
 74 75  2  0  0  0
 74 76  1  0  0  0
 74149  1  0  0  0
 75 84  1  0  0  0
 76 85  1  0  0  0
 77 78  1  0  0  0
 77 79  1  0  0  0
 77 81  2  0  0  0
 78 80  2  0  0  0
 78 82  1  0  0  0
 79 84  1  0  0  0
 79 86  2  0  0  0
 80150  1  0  0  0
 80151  1  0  0  0
 81 83  1  0  0  0
 81152  1  0  0  0
 82 84  1  0  0  0
 82153  1  0  0  0
 82154  1  0  0  0
 83155  1  0  0  0
 83156  1  0  0  0
 85157  1  0  0  0
M  ISO  4   1 100  68 101  83 101  85 100
M  END
> <chiral flag>
0

> <version>
0

> <s_m_source_file>
/data/baiqing/PycharmProjects/Reinvent-master-3.2/result/LINK_invent/BTK/process_docking_weight1_custom_product_contain_oxygen_bond_distance_aromatic_linkinvent_7_9_3/rearranged_h_0078.sdf

> <i_m_source_file_index>
66

> <r_mmod_Potential_Energy-OPLS-2005>
190.081634521484

> <r_mmod_Stretch_Energy-OPLS-2005>
55.3609428405762

> <r_mmod_Bend_Energy-OPLS-2005>
168.631973266602

> <r_mmod_Torsional_Energy-OPLS-2005>
335.993530273438

> <r_mmod_Improper_Torsional_Energy-OPLS-2005>
7.01975440979004

> <r_mmod_Van_der_Waal_Energy-OPLS-2005>
143.394927978516

> <r_mmod_Electrostatic_Energy-OPLS-2005>
-328.989898681641

> <r_mmod_Solvation_Energy-OPLS-2005>
-219.587554931641

> <b_mmod_Minimization_Converged-OPLS-2005>
0

> <r_mmod_RMS_Derivative-OPLS-2005>
8.43038082122803

$$$$
67
                    3D
 Structure written by MMmdl.
148155  0  0  1  0            999 V2000
  -30.4909  -14.9401   20.4513 C   0  0  0  0  0  0
  -30.4424  -12.5651   19.5284 C   0  0  0  0  0  0
  -29.5419  -12.5330   18.2704 C   0  0  0  0  0  0
  -28.0617  -12.3291   18.6552 C   0  0  0  0  0  0
  -27.6314  -13.2398   19.8359 C   0  0  2  0  0  0
  -28.6629  -13.2337   20.9844 C   0  0  0  0  0  0
  -25.2479  -13.8168   20.5668 C   0  0  0  0  0  0
  -24.1777  -13.0416   20.9171 C   0  0  0  0  0  0
  -24.6358  -11.6883   20.8690 C   0  0  0  0  0  0
  -23.9043  -10.4269   21.0332 C   0  0  0  0  0  0
  -24.3602   -9.4204   21.9104 C   0  0  0  0  0  0
  -23.6281   -8.2241   22.0688 C   0  0  0  0  0  0
  -22.4263   -8.0252   21.3508 C   0  0  0  0  0  0
  -21.9894   -9.0207   20.4597 C   0  0  0  0  0  0
  -22.7211  -10.2083   20.2989 C   0  0  0  0  0  0
  -21.6873   -6.0699   22.5236 C   0  0  0  0  0  0
  -21.4046   -6.5600   23.8177 C   0  0  0  0  0  0
  -21.3681   -5.6747   24.9125 C   0  0  0  0  0  0
  -21.6062   -4.3007   24.7173 C   0  0  0  0  0  0
  -21.8830   -3.8101   23.4304 C   0  0  0  0  0  0
  -21.9195   -4.6934   22.3351 C   0  0  0  0  0  0
  -22.7793  -13.5188   21.1808 C   0  0  0  0  0  0
  -22.1660   -4.2097   21.0940 F   0  0  0  0  0  0
  -21.5626   -3.4510   25.7705 F   0  0  0  0  0  0
  -29.9518  -13.6527   20.4212 N   0  0  0  0  0  0
  -26.2872  -12.9388   20.3149 N   0  0  0  0  0  0
  -25.9276  -11.6524   20.5615 N   0  0  0  0  0  0
  -22.0492  -12.8190   22.0423 N   0  0  0  0  0  0
  -25.4209  -15.1913   20.4199 N   0  0  0  0  0  0
  -31.6711  -15.0454   20.0933 O   0  0  0  0  0  0
  -21.6656   -6.8841   21.4199 O   0  0  0  0  0  0
  -22.3458  -14.5445   20.6560 O   0  0  0  0  0  0
  -24.6482  -31.8404   23.1872 C   0  0  0  0  0  0
  -25.9248  -32.4693   23.8241 C   0  0  1  0  0  0
  -27.2226  -27.1352   20.1618 C   0  0  0  0  0  0
  -25.5954  -33.8493   24.2160 N   0  0  0  0  0  0
  -23.4511  -30.4676   21.5291 C   0  0  2  0  0  0
  -24.9000  -28.8913   20.1078 C   0  0  0  0  0  0
  -22.7565  -29.4586   22.4782 C   0  0  0  0  0  0
  -18.0304  -28.1426   22.8474 C   0  0  0  0  0  0
  -24.1475  -36.7245   23.2649 C   0  0  0  0  0  0
  -26.0101  -30.7155   21.3879 C   0  0  0  0  0  0
  -26.0788  -29.3309   20.7251 C   0  0  0  0  0  0
  -27.2426  -28.4712   20.7284 C   0  0  0  0  0  0
  -26.0214  -26.8005   19.4987 C   0  0  0  0  0  0
  -24.8867  -27.6411   19.4747 C   0  0  0  0  0  0
  -23.6783  -29.7955   20.1494 C   0  0  0  0  0  0
  -25.4109  -36.3044   24.0344 C   0  0  1  0  0  0
  -20.5936  -28.3778   23.1170 C   0  0  2  0  0  0
  -20.6781  -26.9464   22.5390 C   0  0  0  0  0  0
  -19.5750  -26.6392   21.5213 C   0  0  0  0  0  0
  -18.1945  -26.7960   22.1629 C   0  0  0  0  0  0
  -19.1577  -28.8914   23.2816 C   0  0  0  0  0  0
  -18.9513  -30.1495   23.8849 C   0  0  0  0  0  0
  -17.6514  -30.6618   24.0601 C   0  0  0  0  0  0
  -25.9058  -34.9424   23.5063 C   0  0  0  0  0  0
  -16.5395  -29.9137   23.6368 C   0  0  0  0  0  0
  -16.7292  -28.6562   23.0367 C   0  0  0  0  0  0
  -26.4511  -31.6604   25.0720 C   0  0  0  0  0  0
  -25.3677  -31.3860   26.1405 C   0  0  0  0  0  0
  -27.0403  -30.2990   24.6383 C   0  0  0  0  0  0
  -27.5999  -32.4410   25.7491 C   0  0  0  0  0  0
  -27.5567  -37.1779   24.8454 C   0  0  0  0  0  0
  -21.4260  -29.3099   22.3525 N   0  0  0  0  0  0
  -26.4251  -37.3782   23.9446 N   0  0  0  0  0  0
  -24.7228  -31.0305   22.0881 N   0  0  0  0  0  0
  -23.4196  -28.8113   23.2928 O   0  0  0  0  0  0
  -28.2771  -26.1469   20.2064 O   0  0  0  0  0  0
  -26.5652  -34.8955   22.4634 O   0  0  0  0  0  0
  -23.5603  -32.1211   23.7134 O   0  0  0  0  0  0
  -28.6794  -21.7628   20.6875 C   0  0  0  0  0  0
  -28.9342  -23.3579   20.2181 C   0  0  0  0  0  0
  -29.0141  -19.2106   20.7444 C   0  0  0  0  0  0
  -27.5177  -21.6979   21.6814 C   0  0  0  0  0  0
  -27.9437  -24.6585   20.5396 C   0  0  0  0  0  0
  -29.9937  -17.9235   20.3927 C   0  0  0  0  0  0
  -29.6385  -16.3223   20.8192 C   0  0  0  0  0  0
  -29.3440  -20.6084   20.3542 N   0  0  0  0  0  0
  -29.9433  -23.5990   19.5431 O   0  0  0  0  0  0
  -27.9849  -18.8903   21.3361 O   0  0  0  0  0  0
  -31.4873  -12.7013   19.2483 H   0  0  0  0  0  0
  -30.4027  -11.6043   20.0472 H   0  0  0  0  0  0
  -29.8601  -11.7379   17.5971 H   0  0  0  0  0  0
  -29.6616  -13.4687   17.7228 H   0  0  0  0  0  0
  -27.9327  -11.2784   18.9254 H   0  0  0  0  0  0
  -27.4212  -12.4947   17.7875 H   0  0  0  0  0  0
  -27.6018  -14.2491   19.4297 H   0  0  0  0  0  0
  -28.7391  -12.2405   21.4304 H   0  0  0  0  0  0
  -28.3523  -13.9076   21.7829 H   0  0  0  0  0  0
  -25.2762   -9.5654   22.4642 H   0  0  0  0  0  0
  -23.9978   -7.4634   22.7404 H   0  0  0  0  0  0
  -21.0824   -8.8692   19.8921 H   0  0  0  0  0  0
  -22.3658  -10.9569   19.6063 H   0  0  0  0  0  0
  -21.2082   -7.6110   23.9655 H   0  0  0  0  0  0
  -21.1508   -6.0479   25.9025 H   0  0  0  0  0  0
  -22.0613   -2.7553   23.2807 H   0  0  0  0  0  0
  -22.4232  -11.9968   22.4913 H   0  0  0  0  0  0
  -21.1038  -13.1029   22.2529 H   0  0  0  0  0  0
  -24.6615  -15.8488   20.5570 H   0  0  0  0  0  0
  -26.2812  -15.6340   20.1228 H   0  0  0  0  0  0
  -26.7316  -32.5290   23.0979 H   0  0  0  0  0  0
  -25.0126  -33.9562   25.0322 H   0  0  0  0  0  0
  -22.7612  -31.3014   21.3738 H   0  0  0  0  0  0
  -23.3776  -35.9536   23.3265 H   0  0  0  0  0  0
  -24.3553  -36.8914   22.2066 H   0  0  0  0  0  0
  -23.7187  -37.6424   23.6674 H   0  0  0  0  0  0
  -26.1789  -31.4775   20.6244 H   0  0  0  0  0  0
  -26.8749  -30.7481   22.0404 H   0  0  0  0  0  0
  -28.1415  -28.8086   21.2237 H   0  0  0  0  0  0
  -25.9329  -25.8508   18.9933 H   0  0  0  0  0  0
  -23.9927  -27.3045   18.9675 H   0  0  0  0  0  0
  -23.8230  -30.5664   19.3925 H   0  0  0  0  0  0
  -22.7887  -29.2460   19.8321 H   0  0  0  0  0  0
  -25.1316  -36.1851   25.0849 H   0  0  0  0  0  0
  -21.0048  -28.3401   24.1280 H   0  0  0  0  0  0
  -20.5681  -26.2414   23.3640 H   0  0  0  0  0  0
  -21.6656  -26.7461   22.1198 H   0  0  0  0  0  0
  -19.6928  -25.6287   21.1282 H   0  0  0  0  0  0
  -19.6677  -27.3172   20.6723 H   0  0  0  0  0  0
  -17.4204  -26.6699   21.4039 H   0  0  0  0  0  0
  -18.0334  -26.0104   22.9029 H   0  0  0  0  0  0
  -19.8002  -30.7328   24.2158 H   0  0  0  0  0  0
  -17.5098  -31.6290   24.5234 H   0  0  0  0  0  0
  -15.5406  -30.3069   23.7700 H   0  0  0  0  0  0
  -15.8677  -28.0908   22.7076 H   0  0  0  0  0  0
  -24.5764  -30.7326   25.7697 H   0  0  0  0  0  0
  -24.8990  -32.3102   26.4794 H   0  0  0  0  0  0
  -25.7916  -30.8986   27.0201 H   0  0  0  0  0  0
  -26.3070  -29.6689   24.1332 H   0  0  0  0  0  0
  -27.3898  -29.7331   25.5038 H   0  0  0  0  0  0
  -27.9013  -30.4199   23.9804 H   0  0  0  0  0  0
  -27.2511  -33.3707   26.2004 H   0  0  0  0  0  0
  -28.3795  -32.7016   25.0316 H   0  0  0  0  0  0
  -28.0664  -31.8612   26.5461 H   0  0  0  0  0  0
  -28.2579  -38.0087   24.7585 H   0  0  0  0  0  0
  -28.1086  -36.2648   24.6179 H   0  0  0  0  0  0
  -27.2295  -37.1303   25.8854 H   0  0  0  0  0  0
  -20.9439  -29.8792   21.6709 H   0  0  0  0  0  0
  -26.0124  -38.2853   24.1504 H   0  0  0  0  0  0
  -27.7251  -21.0054   22.4951 H   0  0  0  0  0  0
  -26.6070  -21.3796   21.1770 H   0  0  0  0  0  0
  -27.3307  -22.6500   22.1732 H   0  0  0  0  0  0
  -27.7673  -24.6520   21.6139 H   0  0  0  0  0  0
  -26.9927  -24.4128   20.0755 H   0  0  0  0  0  0
  -30.9649  -18.1711   20.8209 H   0  0  0  0  0  0
  -30.1430  -17.9503   19.3146 H   0  0  0  0  0  0
  -28.6233  -16.1335   20.4726 H   0  0  0  0  0  0
  -29.5564  -16.3171   21.9045 H   0  0  0  0  0  0
  1 25  1  0  0  0
  1 30  2  0  0  0
  1 77  1  0  0  0
  2  3  1  0  0  0
  2 25  1  0  0  0
  2 81  1  0  0  0
  2 82  1  0  0  0
  3  4  1  0  0  0
  3 83  1  0  0  0
  3 84  1  0  0  0
  4  5  1  0  0  0
  4 85  1  0  0  0
  4 86  1  0  0  0
  5  6  1  0  0  0
  5 26  1  0  0  0
  5 87  1  0  0  0
  6 25  1  0  0  0
  6 88  1  0  0  0
  6 89  1  0  0  0
  7  8  2  0  0  0
  7 26  1  0  0  0
  7 29  1  0  0  0
  8  9  1  0  0  0
  8 22  1  0  0  0
  9 10  1  0  0  0
  9 27  2  0  0  0
 10 11  2  0  0  0
 10 15  1  0  0  0
 11 12  1  0  0  0
 11 90  1  0  0  0
 12 13  2  0  0  0
 12 91  1  0  0  0
 13 14  1  0  0  0
 13 31  1  0  0  0
 14 15  2  0  0  0
 14 92  1  0  0  0
 15 93  1  0  0  0
 16 17  2  0  0  0
 16 21  1  0  0  0
 16 31  1  0  0  0
 17 18  1  0  0  0
 17 94  1  0  0  0
 18 19  2  0  0  0
 18 95  1  0  0  0
 19 20  1  0  0  0
 19 24  1  0  0  0
 20 21  2  0  0  0
 20 96  1  0  0  0
 21 23  1  0  0  0
 22 28  1  0  0  0
 22 32  2  0  0  0
 26 27  1  0  0  0
 28 97  1  0  0  0
 28 98  1  0  0  0
 29 99  1  0  0  0
 29100  1  0  0  0
 33 34  1  0  0  0
 33 66  1  0  0  0
 33 70  2  0  0  0
 34 36  1  0  0  0
 34 59  1  0  0  0
 34101  1  0  0  0
 35 44  2  0  0  0
 35 45  1  0  0  0
 35 68  1  0  0  0
 36 56  1  0  0  0
 36102  1  0  0  0
 37 39  1  0  0  0
 37 47  1  0  0  0
 37 66  1  0  0  0
 37103  1  0  0  0
 38 43  2  0  0  0
 38 46  1  0  0  0
 38 47  1  0  0  0
 39 64  1  0  0  0
 39 67  2  0  0  0
 40 52  1  0  0  0
 40 53  2  0  0  0
 40 58  1  0  0  0
 41104  1  0  0  0
 41105  1  0  0  0
 41106  1  0  0  0
 41 48  1  0  0  0
 42 43  1  0  0  0
 42 66  1  0  0  0
 42107  1  0  0  0
 42108  1  0  0  0
 43 44  1  0  0  0
 44109  1  0  0  0
 45 46  2  0  0  0
 45110  1  0  0  0
 46111  1  0  0  0
 47112  1  0  0  0
 47113  1  0  0  0
 48 56  1  0  0  0
 48 65  1  0  0  0
 48114  1  0  0  0
 49 50  1  0  0  0
 49 53  1  0  0  0
 49 64  1  0  0  0
 49115  1  0  0  0
 50 51  1  0  0  0
 50116  1  0  0  0
 50117  1  0  0  0
 51 52  1  0  0  0
 51118  1  0  0  0
 51119  1  0  0  0
 52120  1  0  0  0
 52121  1  0  0  0
 53 54  1  0  0  0
 54 55  2  0  0  0
 54122  1  0  0  0
 55 57  1  0  0  0
 55123  1  0  0  0
 56 69  2  0  0  0
 57 58  2  0  0  0
 57124  1  0  0  0
 58125  1  0  0  0
 59 60  1  0  0  0
 59 61  1  0  0  0
 59 62  1  0  0  0
 60126  1  0  0  0
 60127  1  0  0  0
 60128  1  0  0  0
 61129  1  0  0  0
 61130  1  0  0  0
 61131  1  0  0  0
 62132  1  0  0  0
 62133  1  0  0  0
 62134  1  0  0  0
 63 65  1  0  0  0
 63135  1  0  0  0
 63136  1  0  0  0
 63137  1  0  0  0
 64138  1  0  0  0
 65139  1  0  0  0
 68 75  1  0  0  0
 71 72  1  0  0  0
 71 74  1  0  0  0
 71 78  2  0  0  0
 72 75  1  0  0  0
 72 79  2  0  0  0
 73 76  1  0  0  0
 73 78  1  0  0  0
 73 80  2  0  0  0
 74140  1  0  0  0
 74141  1  0  0  0
 74142  1  0  0  0
 75143  1  0  0  0
 75144  1  0  0  0
 76 77  1  0  0  0
 76145  1  0  0  0
 76146  1  0  0  0
 77147  1  0  0  0
 77148  1  0  0  0
M  ISO  4   1 100  68 101  75 101  77 100
M  END
> <chiral flag>
0

> <version>
0

> <s_m_source_file>
/data/baiqing/PycharmProjects/Reinvent-master-3.2/result/LINK_invent/BTK/process_docking_weight1_custom_product_contain_oxygen_bond_distance_aromatic_linkinvent_7_9_3/rearranged_h_0078.sdf

> <i_m_source_file_index>
67

> <r_mmod_Potential_Energy-OPLS-2005>
490.478118896484

> <r_mmod_Stretch_Energy-OPLS-2005>
294.825744628906

> <r_mmod_Bend_Energy-OPLS-2005>
253.654663085938

> <r_mmod_Torsional_Energy-OPLS-2005>
187.132553100586

> <r_mmod_Improper_Torsional_Energy-OPLS-2005>
2.5460958480835

> <r_mmod_Van_der_Waal_Energy-OPLS-2005>
124.850486755371

> <r_mmod_Electrostatic_Energy-OPLS-2005>
-332.190307617188

> <r_mmod_Solvation_Energy-OPLS-2005>
-229.485946655273

> <b_mmod_Minimization_Converged-OPLS-2005>
0

> <r_mmod_RMS_Derivative-OPLS-2005>
5.09614753723145

$$$$
68
                    3D
 Structure written by MMmdl.
157165  0  0  1  0            999 V2000
  -30.5794  -14.8691   20.3959 C   0  0  0  0  0  0
  -30.4411  -12.5238   19.4622 C   0  0  0  0  0  0
  -29.5017  -12.4434   18.2366 C   0  0  0  0  0  0
  -28.0348  -12.2664   18.6745 C   0  0  0  0  0  0
  -27.6205  -13.2113   19.8318 C   0  0  2  0  0  0
  -28.6797  -13.2598   20.9504 C   0  0  0  0  0  0
  -25.2452  -13.8089   20.5780 C   0  0  0  0  0  0
  -24.1736  -13.0353   20.9252 C   0  0  0  0  0  0
  -24.6326  -11.6844   20.8793 C   0  0  0  0  0  0
  -23.9020  -10.4236   21.0423 C   0  0  0  0  0  0
  -24.3601   -9.4160   21.9191 C   0  0  0  0  0  0
  -23.6277   -8.2200   22.0751 C   0  0  0  0  0  0
  -22.4259   -8.0248   21.3535 C   0  0  0  0  0  0
  -21.9879   -9.0216   20.4647 C   0  0  0  0  0  0
  -22.7200  -10.2088   20.3063 C   0  0  0  0  0  0
  -21.6850   -6.0722   22.5271 C   0  0  0  0  0  0
  -21.4012   -6.5640   23.8193 C   0  0  0  0  0  0
  -21.3661   -5.6795   24.9159 C   0  0  0  0  0  0
  -21.6053   -4.3055   24.7212 C   0  0  0  0  0  0
  -21.8820   -3.8147   23.4331 C   0  0  0  0  0  0
  -21.9184   -4.6958   22.3391 C   0  0  0  0  0  0
  -22.7781  -13.5149   21.1913 C   0  0  0  0  0  0
  -22.1663   -4.2144   21.0967 F   0  0  0  0  0  0
  -21.5621   -3.4545   25.7725 F   0  0  0  0  0  0
  -29.9524  -13.6304   20.3181 N   0  0  0  0  0  0
  -26.2837  -12.9258   20.3329 N   0  0  0  0  0  0
  -25.9249  -11.6435   20.5821 N   0  0  0  0  0  0
  -22.0455  -12.8126   22.0478 N   0  0  0  0  0  0
  -25.4130  -15.1815   20.4281 N   0  0  0  0  0  0
  -31.8117  -14.8906   20.3243 O   0  0  0  0  0  0
  -21.6626   -6.8852   21.4226 O   0  0  0  0  0  0
  -22.3473  -14.5467   20.6760 O   0  0  0  0  0  0
  -24.6322  -31.8558   23.1943 C   0  0  0  0  0  0
  -25.9121  -32.4776   23.8331 C   0  0  1  0  0  0
  -27.2127  -27.2376   20.1468 C   0  0  0  0  0  0
  -25.5892  -33.8572   24.2286 N   0  0  0  0  0  0
  -23.4328  -30.4756   21.5365 C   0  0  2  0  0  0
  -24.8784  -28.9146   20.1104 C   0  0  0  0  0  0
  -22.7518  -29.4590   22.4862 C   0  0  0  0  0  0
  -18.0280  -28.1392   22.8483 C   0  0  0  0  0  0
  -24.1470  -36.7314   23.2652 C   0  0  0  0  0  0
  -25.9759  -30.7653   21.3692 C   0  0  0  0  0  0
  -26.0512  -29.3795   20.7223 C   0  0  0  0  0  0
  -27.2250  -28.5541   20.7261 C   0  0  0  0  0  0
  -26.0181  -26.8387   19.5166 C   0  0  0  0  0  0
  -24.8673  -27.6524   19.4959 C   0  0  0  0  0  0
  -23.6529  -29.8106   20.1511 C   0  0  0  0  0  0
  -25.4091  -36.3096   24.0360 C   0  0  1  0  0  0
  -20.5888  -28.3708   23.1245 C   0  0  2  0  0  0
  -20.6731  -26.9416   22.5401 C   0  0  0  0  0  0
  -19.5699  -26.6369   21.5212 C   0  0  0  0  0  0
  -18.1894  -26.7930   22.1637 C   0  0  0  0  0  0
  -19.1539  -28.8863   23.2863 C   0  0  0  0  0  0
  -18.9465  -30.1456   23.8898 C   0  0  0  0  0  0
  -17.6467  -30.6581   24.0575 C   0  0  0  0  0  0
  -25.9029  -34.9468   23.5143 C   0  0  0  0  0  0
  -16.5357  -29.9101   23.6313 C   0  0  0  0  0  0
  -16.7275  -28.6517   23.0344 C   0  0  0  0  0  0
  -26.4501  -31.6572   25.0709 C   0  0  0  0  0  0
  -25.3732  -31.3674   26.1430 C   0  0  0  0  0  0
  -27.0346  -30.3005   24.6152 C   0  0  0  0  0  0
  -27.6088  -32.4282   25.7458 C   0  0  0  0  0  0
  -27.5571  -37.1802   24.8475 C   0  0  0  0  0  0
  -21.4209  -29.3084   22.3659 N   0  0  0  0  0  0
  -26.4280  -37.3791   23.9421 N   0  0  0  0  0  0
  -24.7001  -31.0509   22.0915 N   0  0  0  0  0  0
  -23.4216  -28.8104   23.2938 O   0  0  0  0  0  0
  -28.2940  -26.3223   20.1357 O   0  0  0  0  0  0
  -26.5624  -34.8945   22.4720 O   0  0  0  0  0  0
  -23.5455  -32.1369   23.7228 O   0  0  0  0  0  0
  -29.3665  -18.4885   22.9741 C   0  0  0  0  0  0
  -29.2126  -19.7558   22.3675 C   0  0  0  0  0  0
  -29.6134  -17.3133   22.2253 C   0  0  0  0  0  0
  -29.6069  -18.6985   20.2296 C   0  0  0  0  0  0
  -29.3113  -19.9280   20.9677 C   0  0  0  0  0  0
  -29.7326  -17.3492   20.8170 C   0  0  0  0  0  0
  -28.1218  -24.9749   20.5974 C   0  0  0  0  0  0
  -28.7321  -23.7974   20.1508 C   0  0  0  0  0  0
  -28.5218  -22.4546   20.8450 C   0  0  0  0  0  0
  -29.3630  -16.0920   18.7888 C   0  0  0  0  0  0
  -29.6585  -23.8341   18.9484 C   0  0  0  0  0  0
  -27.9687  -16.6879   18.5620 C   0  0  0  0  0  0
  -29.1740  -21.3047   20.3734 N   0  0  0  0  0  0
  -29.8548  -16.0441   20.0552 N   0  0  0  0  0  0
  -27.7619  -22.3616   21.8120 O   0  0  0  0  0  0
  -30.0156  -15.7714   17.7901 O   0  0  0  0  0  0
  -31.4690  -12.6840   19.1316 H   0  0  0  0  0  0
  -30.4431  -11.5849   20.0181 H   0  0  0  0  0  0
  -29.7936  -11.6109   17.5948 H   0  0  0  0  0  0
  -29.5947  -13.3336   17.6206 H   0  0  0  0  0  0
  -27.9234  -11.2320   18.9995 H   0  0  0  0  0  0
  -27.3623  -12.3839   17.8225 H   0  0  0  0  0  0
  -27.5595  -14.1965   19.3904 H   0  0  0  0  0  0
  -28.7506  -12.3011   21.4652 H   0  0  0  0  0  0
  -28.4057  -14.0030   21.7015 H   0  0  0  0  0  0
  -25.2756   -9.5632   22.4742 H   0  0  0  0  0  0
  -23.9999   -7.4586   22.7464 H   0  0  0  0  0  0
  -21.0805   -8.8717   19.8964 H   0  0  0  0  0  0
  -22.3660  -10.9624   19.6167 H   0  0  0  0  0  0
  -21.2019   -7.6153   23.9682 H   0  0  0  0  0  0
  -21.1485   -6.0537   25.9051 H   0  0  0  0  0  0
  -22.0599   -2.7613   23.2823 H   0  0  0  0  0  0
  -22.4097  -11.9763   22.4803 H   0  0  0  0  0  0
  -21.1093  -13.1125   22.2771 H   0  0  0  0  0  0
  -24.6523  -15.8380   20.5626 H   0  0  0  0  0  0
  -26.2780  -15.6295   20.1666 H   0  0  0  0  0  0
  -26.7212  -32.5442   23.1092 H   0  0  0  0  0  0
  -24.9985  -33.9710   25.0397 H   0  0  0  0  0  0
  -22.7341  -31.3001   21.3889 H   0  0  0  0  0  0
  -23.3745  -35.9635   23.3291 H   0  0  0  0  0  0
  -24.3557  -36.8954   22.2067 H   0  0  0  0  0  0
  -23.7198  -37.6508   23.6678 H   0  0  0  0  0  0
  -26.0982  -31.5146   20.5861 H   0  0  0  0  0  0
  -26.8613  -30.8342   21.9899 H   0  0  0  0  0  0
  -28.1256  -28.9057   21.2073 H   0  0  0  0  0  0
  -25.9637  -25.8597   19.0621 H   0  0  0  0  0  0
  -23.9717  -27.2856   19.0163 H   0  0  0  0  0  0
  -23.7906  -30.5923   19.4017 H   0  0  0  0  0  0
  -22.7693  -29.2520   19.8357 H   0  0  0  0  0  0
  -25.1261  -36.1985   25.0857 H   0  0  0  0  0  0
  -21.0001  -28.3268   24.1355 H   0  0  0  0  0  0
  -20.5550  -26.2363   23.3636 H   0  0  0  0  0  0
  -21.6599  -26.7357   22.1249 H   0  0  0  0  0  0
  -19.6849  -25.6277   21.1246 H   0  0  0  0  0  0
  -19.6602  -27.3174   20.6739 H   0  0  0  0  0  0
  -17.4149  -26.6694   21.4048 H   0  0  0  0  0  0
  -18.0276  -26.0086   22.9045 H   0  0  0  0  0  0
  -19.7945  -30.7259   24.2274 H   0  0  0  0  0  0
  -17.5025  -31.6254   24.5193 H   0  0  0  0  0  0
  -15.5360  -30.3016   23.7594 H   0  0  0  0  0  0
  -15.8680  -28.0830   22.7056 H   0  0  0  0  0  0
  -24.5963  -30.6971   25.7730 H   0  0  0  0  0  0
  -24.8850  -32.2807   26.4845 H   0  0  0  0  0  0
  -25.8050  -30.8859   27.0217 H   0  0  0  0  0  0
  -26.2905  -29.6747   24.1219 H   0  0  0  0  0  0
  -27.4089  -29.7272   25.4642 H   0  0  0  0  0  0
  -27.8753  -30.4296   23.9332 H   0  0  0  0  0  0
  -27.2777  -33.3658   26.1936 H   0  0  0  0  0  0
  -28.3924  -32.6709   25.0266 H   0  0  0  0  0  0
  -28.0727  -31.8453   26.5429 H   0  0  0  0  0  0
  -28.2601  -38.0089   24.7526 H   0  0  0  0  0  0
  -28.1050  -36.2628   24.6285 H   0  0  0  0  0  0
  -27.2294  -37.1432   25.8880 H   0  0  0  0  0  0
  -20.9383  -29.9003   21.7036 H   0  0  0  0  0  0
  -26.0186  -38.2888   24.1392 H   0  0  0  0  0  0
  -29.2854  -18.4174   24.0515 H   0  0  0  0  0  0
  -29.0328  -20.6065   23.0101 H   0  0  0  0  0  0
  -29.6829  -16.3743   22.7554 H   0  0  0  0  0  0
  -29.7027  -18.8080   19.1603 H   0  0  0  0  0  0
  -27.4312  -24.9543   21.4297 H   0  0  0  0  0  0
  -29.6335  -24.8044   18.4516 H   0  0  0  0  0  0
  -29.3727  -23.0884   18.2068 H   0  0  0  0  0  0
  -30.6827  -23.6344   19.2592 H   0  0  0  0  0  0
  -27.4140  -16.7458   19.4964 H   0  0  0  0  0  0
  -27.3961  -16.0577   17.8804 H   0  0  0  0  0  0
  -28.0144  -17.6869   18.1287 H   0  0  0  0  0  0
  -29.6555  -21.4440   19.4972 H   0  0  0  0  0  0
  1 25  1  0  0  0
  1 30  2  0  0  0
  1 84  1  0  0  0
  2  3  1  0  0  0
  2 25  1  0  0  0
  2 87  1  0  0  0
  2 88  1  0  0  0
  3  4  1  0  0  0
  3 89  1  0  0  0
  3 90  1  0  0  0
  4  5  1  0  0  0
  4 91  1  0  0  0
  4 92  1  0  0  0
  5  6  1  0  0  0
  5 26  1  0  0  0
  5 93  1  0  0  0
  6 25  1  0  0  0
  6 94  1  0  0  0
  6 95  1  0  0  0
  7  8  2  0  0  0
  7 26  1  0  0  0
  7 29  1  0  0  0
  8  9  1  0  0  0
  8 22  1  0  0  0
  9 10  1  0  0  0
  9 27  2  0  0  0
 10 11  2  0  0  0
 10 15  1  0  0  0
 11 12  1  0  0  0
 11 96  1  0  0  0
 12 13  2  0  0  0
 12 97  1  0  0  0
 13 14  1  0  0  0
 13 31  1  0  0  0
 14 15  2  0  0  0
 14 98  1  0  0  0
 15 99  1  0  0  0
 16 17  2  0  0  0
 16 21  1  0  0  0
 16 31  1  0  0  0
 17 18  1  0  0  0
 17100  1  0  0  0
 18 19  2  0  0  0
 18101  1  0  0  0
 19 20  1  0  0  0
 19 24  1  0  0  0
 20 21  2  0  0  0
 20102  1  0  0  0
 21 23  1  0  0  0
 22 28  1  0  0  0
 22 32  2  0  0  0
 26 27  1  0  0  0
 28103  1  0  0  0
 28104  1  0  0  0
 29105  1  0  0  0
 29106  1  0  0  0
 33 34  1  0  0  0
 33 66  1  0  0  0
 33 70  2  0  0  0
 34 36  1  0  0  0
 34 59  1  0  0  0
 34107  1  0  0  0
 35 44  2  0  0  0
 35 45  1  0  0  0
 35 68  1  0  0  0
 36 56  1  0  0  0
 36108  1  0  0  0
 37 39  1  0  0  0
 37 47  1  0  0  0
 37 66  1  0  0  0
 37109  1  0  0  0
 38 43  2  0  0  0
 38 46  1  0  0  0
 38 47  1  0  0  0
 39 64  1  0  0  0
 39 67  2  0  0  0
 40 52  1  0  0  0
 40 53  2  0  0  0
 40 58  1  0  0  0
 41110  1  0  0  0
 41111  1  0  0  0
 41112  1  0  0  0
 41 48  1  0  0  0
 42 43  1  0  0  0
 42 66  1  0  0  0
 42113  1  0  0  0
 42114  1  0  0  0
 43 44  1  0  0  0
 44115  1  0  0  0
 45 46  2  0  0  0
 45116  1  0  0  0
 46117  1  0  0  0
 47118  1  0  0  0
 47119  1  0  0  0
 48 56  1  0  0  0
 48 65  1  0  0  0
 48120  1  0  0  0
 49 50  1  0  0  0
 49 53  1  0  0  0
 49 64  1  0  0  0
 49121  1  0  0  0
 50 51  1  0  0  0
 50122  1  0  0  0
 50123  1  0  0  0
 51 52  1  0  0  0
 51124  1  0  0  0
 51125  1  0  0  0
 52126  1  0  0  0
 52127  1  0  0  0
 53 54  1  0  0  0
 54 55  2  0  0  0
 54128  1  0  0  0
 55 57  1  0  0  0
 55129  1  0  0  0
 56 69  2  0  0  0
 57 58  2  0  0  0
 57130  1  0  0  0
 58131  1  0  0  0
 59 60  1  0  0  0
 59 61  1  0  0  0
 59 62  1  0  0  0
 60132  1  0  0  0
 60133  1  0  0  0
 60134  1  0  0  0
 61135  1  0  0  0
 61136  1  0  0  0
 61137  1  0  0  0
 62138  1  0  0  0
 62139  1  0  0  0
 62140  1  0  0  0
 63 65  1  0  0  0
 63141  1  0  0  0
 63142  1  0  0  0
 63143  1  0  0  0
 64144  1  0  0  0
 65145  1  0  0  0
 68 77  1  0  0  0
 71 72  2  0  0  0
 71 73  1  0  0  0
 71146  1  0  0  0
 72 75  1  0  0  0
 72147  1  0  0  0
 73 76  2  0  0  0
 73148  1  0  0  0
 74 75  2  0  0  0
 74 76  1  0  0  0
 74149  1  0  0  0
 75 83  1  0  0  0
 76 84  1  0  0  0
 77 78  2  0  0  0
 77150  1  0  0  0
 78 79  1  0  0  0
 78 81  1  0  0  0
 79 83  1  0  0  0
 79 85  2  0  0  0
 80 82  1  0  0  0
 80 84  1  0  0  0
 80 86  2  0  0  0
 81151  1  0  0  0
 81152  1  0  0  0
 81153  1  0  0  0
 82154  1  0  0  0
 82155  1  0  0  0
 82156  1  0  0  0
 83157  1  0  0  0
M  ISO  4   1 100  68 101  77 101  84 100
M  END
> <chiral flag>
0

> <version>
0

> <s_m_source_file>
/data/baiqing/PycharmProjects/Reinvent-master-3.2/result/LINK_invent/BTK/process_docking_weight1_custom_product_contain_oxygen_bond_distance_aromatic_linkinvent_7_9_3/rearranged_h_0078.sdf

> <i_m_source_file_index>
68

> <r_mmod_Potential_Energy-OPLS-2005>
415.344177246094

> <r_mmod_Stretch_Energy-OPLS-2005>
159.075653076172

> <r_mmod_Bend_Energy-OPLS-2005>
166.915969848633

> <r_mmod_Torsional_Energy-OPLS-2005>
354.408386230469

> <r_mmod_Improper_Torsional_Energy-OPLS-2005>
17.0829544067383

> <r_mmod_Van_der_Waal_Energy-OPLS-2005>
149.397872924805

> <r_mmod_Electrostatic_Energy-OPLS-2005>
-351.456695556641

> <r_mmod_Solvation_Energy-OPLS-2005>
-216.4169921875

> <b_mmod_Minimization_Converged-OPLS-2005>
0

> <r_mmod_RMS_Derivative-OPLS-2005>
3.83999991416931

$$$$
69
                    3D
 Structure written by MMmdl.
161170  0  0  1  0            999 V2000
  -30.6845  -14.4813   20.6697 C   0  0  0  0  0  0
  -30.4176  -12.3455   19.4279 C   0  0  0  0  0  0
  -29.4856  -12.5281   18.2129 C   0  0  0  0  0  0
  -28.0069  -12.3770   18.6244 C   0  0  0  0  0  0
  -27.6523  -13.2169   19.8807 C   0  0  2  0  0  0
  -28.6825  -12.9921   21.0040 C   0  0  0  0  0  0
  -25.2452  -13.8163   20.5699 C   0  0  0  0  0  0
  -24.1778  -13.0389   20.9222 C   0  0  0  0  0  0
  -24.6404  -11.6885   20.8760 C   0  0  0  0  0  0
  -23.9064  -10.4279   21.0369 C   0  0  0  0  0  0
  -24.3641   -9.4208   21.9146 C   0  0  0  0  0  0
  -23.6325   -8.2251   22.0764 C   0  0  0  0  0  0
  -22.4294   -8.0262   21.3554 C   0  0  0  0  0  0
  -21.9919   -9.0226   20.4653 C   0  0  0  0  0  0
  -22.7234  -10.2095   20.3026 C   0  0  0  0  0  0
  -21.6823   -6.0757   22.5252 C   0  0  0  0  0  0
  -21.4000   -6.5662   23.8186 C   0  0  0  0  0  0
  -21.3673   -5.6806   24.9157 C   0  0  0  0  0  0
  -21.6048   -4.3074   24.7191 C   0  0  0  0  0  0
  -21.8820   -3.8153   23.4316 C   0  0  0  0  0  0
  -21.9205   -4.6998   22.3363 C   0  0  0  0  0  0
  -22.7782  -13.5139   21.1839 C   0  0  0  0  0  0
  -22.1646   -4.2182   21.0957 F   0  0  0  0  0  0
  -21.5635   -3.4545   25.7721 F   0  0  0  0  0  0
  -30.0192  -13.3101   20.4743 N   0  0  0  0  0  0
  -26.2941  -12.9378   20.3355 N   0  0  0  0  0  0
  -25.9315  -11.6522   20.5776 N   0  0  0  0  0  0
  -22.0455  -12.8130   22.0466 N   0  0  0  0  0  0
  -25.3880  -15.1928   20.4108 N   0  0  0  0  0  0
  -31.7181  -14.7666   20.0569 O   0  0  0  0  0  0
  -21.6617   -6.8893   21.4223 O   0  0  0  0  0  0
  -22.3457  -14.5482   20.6738 O   0  0  0  0  0  0
  -24.6188  -31.8701   23.2018 C   0  0  0  0  0  0
  -25.9038  -32.4831   23.8359 C   0  0  1  0  0  0
  -27.2062  -27.3882   20.1426 C   0  0  0  0  0  0
  -25.5866  -33.8609   24.2368 N   0  0  0  0  0  0
  -23.4168  -30.4957   21.5472 C   0  0  2  0  0  0
  -24.8557  -28.9639   20.1057 C   0  0  0  0  0  0
  -22.7454  -29.4751   22.4971 C   0  0  0  0  0  0
  -18.0192  -28.1274   22.8832 C   0  0  0  0  0  0
  -24.1452  -36.7325   23.2669 C   0  0  0  0  0  0
  -25.9432  -30.8447   21.3415 C   0  0  0  0  0  0
  -26.0224  -29.4686   20.7005 C   0  0  0  0  0  0
  -27.2088  -28.6881   20.7060 C   0  0  0  0  0  0
  -26.0354  -26.9238   19.5162 C   0  0  0  0  0  0
  -24.8645  -27.6982   19.5000 C   0  0  0  0  0  0
  -23.6229  -29.8337   20.1571 C   0  0  0  0  0  0
  -25.4065  -36.3143   24.0407 C   0  0  1  0  0  0
  -20.5822  -28.3729   23.1158 C   0  0  2  0  0  0
  -20.6781  -26.9533   22.4985 C   0  0  0  0  0  0
  -19.5279  -26.6043   21.5501 C   0  0  0  0  0  0
  -18.1742  -26.7572   22.2525 C   0  0  0  0  0  0
  -19.1499  -28.8861   23.2914 C   0  0  0  0  0  0
  -18.9462  -30.1542   23.8753 C   0  0  0  0  0  0
  -17.6490  -30.6707   24.0380 C   0  0  0  0  0  0
  -25.8976  -34.9497   23.5192 C   0  0  0  0  0  0
  -16.5328  -29.9156   23.6374 C   0  0  0  0  0  0
  -16.7206  -28.6449   23.0677 C   0  0  0  0  0  0
  -26.4454  -31.6494   25.0598 C   0  0  0  0  0  0
  -25.3710  -31.3483   26.1302 C   0  0  0  0  0  0
  -27.0371  -30.3015   24.5848 C   0  0  0  0  0  0
  -27.6077  -32.4159   25.7325 C   0  0  0  0  0  0
  -27.5597  -37.1812   24.8512 C   0  0  0  0  0  0
  -21.4164  -29.3291   22.3860 N   0  0  0  0  0  0
  -26.4292  -37.3782   23.9456 N   0  0  0  0  0  0
  -24.6839  -31.0743   22.0948 N   0  0  0  0  0  0
  -23.4232  -28.8162   23.2964 O   0  0  0  0  0  0
  -28.3302  -26.5791   20.1533 O   0  0  0  0  0  0
  -26.5535  -34.8969   22.4745 O   0  0  0  0  0  0
  -23.5362  -32.1534   23.7318 O   0  0  0  0  0  0
  -30.5616  -18.9673   22.1158 C   0  0  0  0  0  0
  -28.2535  -18.4997   21.5277 C   0  0  0  0  0  0
  -30.8973  -17.5966   21.9753 C   0  0  0  0  0  0
  -28.5888  -17.1181   21.3936 C   0  0  0  0  0  0
  -29.2377  -19.4407   21.9293 C   0  0  0  0  0  0
  -29.9112  -16.6468   21.6293 C   0  0  0  0  0  0
  -26.7261  -23.4183   21.2444 C   0  0  0  0  0  0
  -29.0024  -22.9125   21.1279 C   0  0  0  0  0  0
  -25.6769  -24.0586   21.7902 C   0  0  0  0  0  0
  -28.9259  -20.8728   22.3554 C   0  0  0  0  0  0
  -26.9331  -21.9185   21.3346 C   0  0  0  0  0  0
  -27.9990  -24.0073   20.6562 C   0  0  1  0  0  0
  -27.9318  -23.9113   19.1140 C   0  0  0  0  0  0
  -28.3518  -25.4900   21.1302 C   0  0  0  0  0  0
  -28.3840  -21.7532   21.4727 N   0  0  0  0  0  0
  -30.2404  -15.2486   21.6929 N   0  0  0  0  0  0
  -30.2292  -23.0964   21.1372 O   0  0  0  0  0  0
  -29.2579  -21.2183   23.4961 O   0  0  0  0  0  0
  -31.4574  -12.4743   19.1247 H   0  0  0  0  0  0
  -30.3430  -11.3255   19.8098 H   0  0  0  0  0  0
  -29.7320  -11.8034   17.4374 H   0  0  0  0  0  0
  -29.6379  -13.5102   17.7654 H   0  0  0  0  0  0
  -27.8186  -11.3196   18.8139 H   0  0  0  0  0  0
  -27.3575  -12.6537   17.7952 H   0  0  0  0  0  0
  -27.6981  -14.2674   19.5963 H   0  0  0  0  0  0
  -28.6548  -11.9599   21.3484 H   0  0  0  0  0  0
  -28.4085  -13.5850   21.8758 H   0  0  0  0  0  0
  -25.2806   -9.5637   22.4687 H   0  0  0  0  0  0
  -24.0028   -7.4635   22.7480 H   0  0  0  0  0  0
  -21.0846   -8.8735   19.8936 H   0  0  0  0  0  0
  -22.3717  -10.9641   19.6104 H   0  0  0  0  0  0
  -21.1963   -7.6157   23.9728 H   0  0  0  0  0  0
  -21.1483   -6.0502   25.9072 H   0  0  0  0  0  0
  -22.0611   -2.7631   23.2755 H   0  0  0  0  0  0
  -22.4164  -11.9863   22.4911 H   0  0  0  0  0  0
  -21.1030  -13.1044   22.2657 H   0  0  0  0  0  0
  -24.5747  -15.7936   20.5128 H   0  0  0  0  0  0
  -26.2025  -15.6791   20.0671 H   0  0  0  0  0  0
  -26.7118  -32.5623   23.1151 H   0  0  0  0  0  0
  -24.9929  -33.9683   25.0470 H   0  0  0  0  0  0
  -22.7152  -31.3234   21.4027 H   0  0  0  0  0  0
  -23.3734  -35.9627   23.3345 H   0  0  0  0  0  0
  -24.3549  -36.8906   22.2084 H   0  0  0  0  0  0
  -23.7180  -37.6536   23.6631 H   0  0  0  0  0  0
  -26.0323  -31.6138   20.5709 H   0  0  0  0  0  0
  -26.8420  -30.9216   21.9445 H   0  0  0  0  0  0
  -28.1128  -29.0637   21.1618 H   0  0  0  0  0  0
  -26.0032  -25.9585   19.0447 H   0  0  0  0  0  0
  -23.9695  -27.3057   19.0313 H   0  0  0  0  0  0
  -23.7483  -30.6176   19.4090 H   0  0  0  0  0  0
  -22.7478  -29.2642   19.8374 H   0  0  0  0  0  0
  -25.1214  -36.2078   25.0900 H   0  0  0  0  0  0
  -20.9912  -28.3322   24.1272 H   0  0  0  0  0  0
  -20.6583  -26.2288   23.3094 H   0  0  0  0  0  0
  -21.6407  -26.7824   22.0141 H   0  0  0  0  0  0
  -19.6369  -25.5771   21.1883 H   0  0  0  0  0  0
  -19.5618  -27.2606   20.6821 H   0  0  0  0  0  0
  -17.3513  -26.5697   21.5606 H   0  0  0  0  0  0
  -18.0782  -26.0206   23.0545 H   0  0  0  0  0  0
  -19.8026  -30.7430   24.1868 H   0  0  0  0  0  0
  -17.5035  -31.6577   24.4576 H   0  0  0  0  0  0
  -15.5340  -30.3086   23.7697 H   0  0  0  0  0  0
  -15.8517  -28.0764   22.7612 H   0  0  0  0  0  0
  -24.5859  -30.6912   25.7542 H   0  0  0  0  0  0
  -24.8878  -32.2551   26.4909 H   0  0  0  0  0  0
  -25.7990  -30.8464   26.9969 H   0  0  0  0  0  0
  -26.2938  -29.6667   24.0989 H   0  0  0  0  0  0
  -27.4450  -29.7303   25.4203 H   0  0  0  0  0  0
  -27.8575  -30.4535   23.8832 H   0  0  0  0  0  0
  -27.2785  -33.3491   26.1881 H   0  0  0  0  0  0
  -28.3780  -32.6610   25.0011 H   0  0  0  0  0  0
  -28.0779  -31.8224   26.5167 H   0  0  0  0  0  0
  -28.2606  -38.0114   24.7500 H   0  0  0  0  0  0
  -28.1096  -36.2638   24.6379 H   0  0  0  0  0  0
  -27.2296  -37.1505   25.8907 H   0  0  0  0  0  0
  -20.9326  -29.9648   21.7697 H   0  0  0  0  0  0
  -26.0262  -38.2877   24.1426 H   0  0  0  0  0  0
  -31.3194  -19.6745   22.4181 H   0  0  0  0  0  0
  -27.2221  -18.8142   21.4046 H   0  0  0  0  0  0
  -31.9095  -17.2777   22.1940 H   0  0  0  0  0  0
  -27.7952  -16.4125   21.1769 H   0  0  0  0  0  0
  -24.8788  -23.4986   22.2633 H   0  0  0  0  0  0
  -25.5838  -25.1322   21.8056 H   0  0  0  0  0  0
  -26.5788  -21.4736   20.3965 H   0  0  0  0  0  0
  -26.3595  -21.4898   22.1559 H   0  0  0  0  0  0
  -26.9487  -24.1864   18.7442 H   0  0  0  0  0  0
  -28.0856  -22.8917   18.7550 H   0  0  0  0  0  0
  -28.6752  -24.5552   18.6396 H   0  0  0  0  0  0
  -29.3818  -25.4955   21.4971 H   0  0  0  0  0  0
  -27.7724  -25.7767   22.0154 H   0  0  0  0  0  0
  -30.7346  -14.9846   22.5411 H   0  0  0  0  0  0
  1 25  1  0  0  0
  1 30  2  0  0  0
  1 86  1  0  0  0
  2  3  1  0  0  0
  2 25  1  0  0  0
  2 89  1  0  0  0
  2 90  1  0  0  0
  3  4  1  0  0  0
  3 91  1  0  0  0
  3 92  1  0  0  0
  4  5  1  0  0  0
  4 93  1  0  0  0
  4 94  1  0  0  0
  5  6  1  0  0  0
  5 26  1  0  0  0
  5 95  1  0  0  0
  6 25  1  0  0  0
  6 96  1  0  0  0
  6 97  1  0  0  0
  7  8  2  0  0  0
  7 26  1  0  0  0
  7 29  1  0  0  0
  8  9  1  0  0  0
  8 22  1  0  0  0
  9 10  1  0  0  0
  9 27  2  0  0  0
 10 11  2  0  0  0
 10 15  1  0  0  0
 11 12  1  0  0  0
 11 98  1  0  0  0
 12 13  2  0  0  0
 12 99  1  0  0  0
 13 14  1  0  0  0
 13 31  1  0  0  0
 14 15  2  0  0  0
 14100  1  0  0  0
 15101  1  0  0  0
 16 17  2  0  0  0
 16 21  1  0  0  0
 16 31  1  0  0  0
 17 18  1  0  0  0
 17102  1  0  0  0
 18 19  2  0  0  0
 18103  1  0  0  0
 19 20  1  0  0  0
 19 24  1  0  0  0
 20 21  2  0  0  0
 20104  1  0  0  0
 21 23  1  0  0  0
 22 28  1  0  0  0
 22 32  2  0  0  0
 26 27  1  0  0  0
 28105  1  0  0  0
 28106  1  0  0  0
 29107  1  0  0  0
 29108  1  0  0  0
 33 34  1  0  0  0
 33 66  1  0  0  0
 33 70  2  0  0  0
 34 36  1  0  0  0
 34 59  1  0  0  0
 34109  1  0  0  0
 35 44  2  0  0  0
 35 45  1  0  0  0
 35 68  1  0  0  0
 36 56  1  0  0  0
 36110  1  0  0  0
 37 39  1  0  0  0
 37 47  1  0  0  0
 37 66  1  0  0  0
 37111  1  0  0  0
 38 43  2  0  0  0
 38 46  1  0  0  0
 38 47  1  0  0  0
 39 64  1  0  0  0
 39 67  2  0  0  0
 40 52  1  0  0  0
 40 53  2  0  0  0
 40 58  1  0  0  0
 41112  1  0  0  0
 41113  1  0  0  0
 41114  1  0  0  0
 41 48  1  0  0  0
 42 43  1  0  0  0
 42 66  1  0  0  0
 42115  1  0  0  0
 42116  1  0  0  0
 43 44  1  0  0  0
 44117  1  0  0  0
 45 46  2  0  0  0
 45118  1  0  0  0
 46119  1  0  0  0
 47120  1  0  0  0
 47121  1  0  0  0
 48 56  1  0  0  0
 48 65  1  0  0  0
 48122  1  0  0  0
 49 50  1  0  0  0
 49 53  1  0  0  0
 49 64  1  0  0  0
 49123  1  0  0  0
 50 51  1  0  0  0
 50124  1  0  0  0
 50125  1  0  0  0
 51 52  1  0  0  0
 51126  1  0  0  0
 51127  1  0  0  0
 52128  1  0  0  0
 52129  1  0  0  0
 53 54  1  0  0  0
 54 55  2  0  0  0
 54130  1  0  0  0
 55 57  1  0  0  0
 55131  1  0  0  0
 56 69  2  0  0  0
 57 58  2  0  0  0
 57132  1  0  0  0
 58133  1  0  0  0
 59 60  1  0  0  0
 59 61  1  0  0  0
 59 62  1  0  0  0
 60134  1  0  0  0
 60135  1  0  0  0
 60136  1  0  0  0
 61137  1  0  0  0
 61138  1  0  0  0
 61139  1  0  0  0
 62140  1  0  0  0
 62141  1  0  0  0
 62142  1  0  0  0
 63 65  1  0  0  0
 63143  1  0  0  0
 63144  1  0  0  0
 63145  1  0  0  0
 64146  1  0  0  0
 65147  1  0  0  0
 68 84  1  0  0  0
 71 73  2  0  0  0
 71 75  1  0  0  0
 71148  1  0  0  0
 72 74  1  0  0  0
 72 75  2  0  0  0
 72149  1  0  0  0
 73 76  1  0  0  0
 73150  1  0  0  0
 74 76  2  0  0  0
 74151  1  0  0  0
 75 80  1  0  0  0
 76 86  1  0  0  0
 77 79  2  0  0  0
 77 81  1  0  0  0
 77 82  1  0  0  0
 78 82  1  0  0  0
 78 85  1  0  0  0
 78 87  2  0  0  0
 79152  1  0  0  0
 79153  1  0  0  0
 80 85  1  0  0  0
 80 88  2  0  0  0
 81 85  1  0  0  0
 81154  1  0  0  0
 81155  1  0  0  0
 82 83  1  0  0  0
 82 84  1  0  0  0
 83156  1  0  0  0
 83157  1  0  0  0
 83158  1  0  0  0
 84159  1  0  0  0
 84160  1  0  0  0
 86161  1  0  0  0
M  ISO  4   1 100  68 101  84 101  86 100
M  END
> <chiral flag>
0

> <version>
0

> <s_m_source_file>
/data/baiqing/PycharmProjects/Reinvent-master-3.2/result/LINK_invent/BTK/process_docking_weight1_custom_product_contain_oxygen_bond_distance_aromatic_linkinvent_7_9_3/rearranged_h_0078.sdf

> <i_m_source_file_index>
69

> <r_mmod_Potential_Energy-OPLS-2005>
234.541488647461

> <r_mmod_Stretch_Energy-OPLS-2005>
55.4204902648926

> <r_mmod_Bend_Energy-OPLS-2005>
169.033889770508

> <r_mmod_Torsional_Energy-OPLS-2005>
434.040191650391

> <r_mmod_Improper_Torsional_Energy-OPLS-2005>
11.4888019561768

> <r_mmod_Van_der_Waal_Energy-OPLS-2005>
139.735931396484

> <r_mmod_Electrostatic_Energy-OPLS-2005>
-377.257415771484

> <r_mmod_Solvation_Energy-OPLS-2005>
-219.136337280273

> <b_mmod_Minimization_Converged-OPLS-2005>
0

> <r_mmod_RMS_Derivative-OPLS-2005>
10.8355808258057

$$$$
70
                    3D
 Structure written by MMmdl.
161170  0  0  1  0            999 V2000
  -29.7470  -14.6744   19.8256 C   0  0  0  0  0  0
  -30.4683  -12.4098   19.3816 C   0  0  0  0  0  0
  -29.4162  -12.2518   18.2802 C   0  0  0  0  0  0
  -27.9561  -12.2595   18.8423 C   0  0  0  0  0  0
  -27.6762  -12.8208   20.3538 C   0  0  2  0  0  0
  -28.9335  -12.7193   21.1918 C   0  0  0  0  0  0
  -24.8427  -14.7080   20.4887 C   0  0  0  0  0  0
  -24.2319  -14.2513   20.7527 C   0  0  0  0  0  0
  -25.4067  -12.3200   20.8589 C   0  0  0  0  0  0
  -24.6063  -10.6262   20.9781 C   0  0  0  0  0  0
  -24.6776   -9.6436   22.0502 C   0  0  0  0  0  0
  -23.8488   -8.4474   22.2411 C   0  0  0  0  0  0
  -22.7112   -8.1367   21.4366 C   0  0  0  0  0  0
  -22.5450   -9.0158   20.3762 C   0  0  0  0  0  0
  -23.5289  -10.0192   20.1277 C   0  0  0  0  0  0
  -21.7803   -6.1569   22.5553 C   0  0  0  0  0  0
  -21.4668   -6.6073   23.8567 C   0  0  0  0  0  0
  -21.3837   -5.6964   24.9299 C   0  0  0  0  0  0
  -21.5973   -4.3225   24.7088 C   0  0  0  0  0  0
  -21.8666   -3.8558   23.4108 C   0  0  0  0  0  0
  -21.9461   -4.7642   22.3360 C   0  0  0  0  0  0
  -22.5751  -14.5901   20.8711 C   0  0  0  0  0  0
  -22.1763   -4.2865   21.0879 F   0  0  0  0  0  0
  -21.5449   -3.4526   25.7442 F   0  0  0  0  0  0
  -29.8900  -13.3855   20.3035 N   0  0  0  0  0  0
  -26.1898  -13.2446   20.8124 N   0  0  0  0  0  0
  -26.3196  -12.1867   21.5321 N   0  0  0  0  0  0
  -21.6468  -13.7961   21.4781 N   0  0  0  0  0  0
  -24.6346  -16.0070   19.9022 N   0  0  0  0  0  0
  -30.8722  -15.2306   19.7645 O   0  0  0  0  0  0
  -21.8400   -7.0417   21.4991 O   0  0  0  0  0  0
  -22.0641  -15.4879   20.2739 O   0  0  0  0  0  0
  -24.7228  -31.7422   23.1217 C   0  0  0  0  0  0
  -25.9635  -32.4133   23.7869 C   0  0  1  0  0  0
  -26.8140  -26.0291   20.4652 C   0  0  0  0  0  0
  -25.6054  -33.8014   24.1681 N   0  0  0  0  0  0
  -23.5535  -30.3456   21.4839 C   0  0  2  0  0  0
  -24.9503  -28.5704   20.1230 C   0  0  0  0  0  0
  -22.7862  -29.4051   22.4557 C   0  0  0  0  0  0
  -18.0354  -28.1437   22.8443 C   0  0  0  0  0  0
  -24.1504  -36.6989   23.2665 C   0  0  0  0  0  0
  -26.1343  -30.2426   21.4960 C   0  0  0  0  0  0
  -26.1092  -28.7437   20.8803 C   0  0  0  0  0  0
  -27.0225  -27.5075   21.0109 C   0  0  0  0  0  0
  -25.7658  -26.2461   19.5231 C   0  0  0  0  0  0
  -24.8726  -27.3697   19.3927 C   0  0  0  0  0  0
  -23.8223  -29.6302   20.1201 C   0  0  0  0  0  0
  -25.4174  -36.2697   24.0244 C   0  0  1  0  0  0
  -20.5996  -28.3793   23.1067 C   0  0  2  0  0  0
  -20.6782  -26.9414   22.5414 C   0  0  0  0  0  0
  -19.5766  -26.6350   21.5219 C   0  0  0  0  0  0
  -18.1954  -26.7960   22.1619 C   0  0  0  0  0  0
  -19.1629  -28.8945   23.2736 C   0  0  0  0  0  0
  -18.9536  -30.1522   23.8790 C   0  0  0  0  0  0
  -17.6524  -30.6603   24.0545 C   0  0  0  0  0  0
  -25.9199  -34.9107   23.4836 C   0  0  0  0  0  0
  -16.5409  -29.9084   23.6364 C   0  0  0  0  0  0
  -16.7336  -28.6515   23.0370 C   0  0  0  0  0  0
  -26.4676  -31.6424   25.0719 C   0  0  0  0  0  0
  -25.3615  -31.3877   26.1238 C   0  0  0  0  0  0
  -27.0713  -30.2704   24.7071 C   0  0  0  0  0  0
  -27.6024  -32.4442   25.7529 C   0  0  0  0  0  0
  -27.5559  -37.1640   24.8463 C   0  0  0  0  0  0
  -21.4485  -29.2960   22.3309 N   0  0  0  0  0  0
  -26.4246  -37.3525   23.9422 N   0  0  0  0  0  0
  -24.8372  -30.8317   22.0800 N   0  0  0  0  0  0
  -23.4133  -28.7702   23.3073 O   0  0  0  0  0  0
  -27.3764  -24.4488   20.7365 O   0  0  0  0  0  0
  -26.5908  -34.8777   22.4504 O   0  0  0  0  0  0
  -23.6184  -32.0828   23.5864 O   0  0  0  0  0  0
  -25.3706  -14.3620   22.7418 C   0  0  0  0  0  0
  -23.5742  -12.5168   19.7099 C   0  0  0  0  0  0
  -23.8080  -12.8057   22.2672 C   0  0  0  0  0  0
  -26.6411  -15.6242   21.4283 C   0  0  0  0  0  0
  -26.8159  -14.9555   19.4458 C   0  0  0  0  0  0
  -25.2632  -13.4984   18.6472 C   0  0  0  0  0  0
  -21.4755  -11.8185   24.4651 C   0  0  0  0  0  0
  -22.6868  -12.5791   24.6232 C   0  0  0  0  0  0
  -20.3703  -11.7181   25.2218 C   0  0  0  0  0  0
  -26.9875  -22.6665   20.6019 C   0  0  0  0  0  0
  -27.1061  -21.0701   21.2092 C   0  0  0  0  0  0
  -26.7886  -19.1904   20.8674 C   0  0  0  0  0  0
  -21.9232  -11.2716   23.1348 C   0  0  0  0  0  0
  -27.7209  -21.0917   22.5950 C   0  0  0  0  0  0
  -23.0473  -12.2055   23.3308 N   0  0  0  0  0  0
  -26.8539  -17.5896   21.5499 N   0  0  0  0  0  0
  -28.4364  -15.1259   19.1932 N   0  0  0  0  0  0
  -23.0692  -13.3358   25.4914 O   0  0  0  0  0  0
  -26.3964  -19.0447   19.7090 O   0  0  0  0  0  0
  -25.3373  -13.2184   17.3233 F   0  0  0  0  0  0
  -31.4181  -12.7587   18.9695 H   0  0  0  0  0  0
  -30.6888  -11.4558   19.8634 H   0  0  0  0  0  0
  -29.5987  -11.3335   17.7195 H   0  0  0  0  0  0
  -29.5286  -13.0552   17.5508 H   0  0  0  0  0  0
  -27.5789  -11.2370   18.8144 H   0  0  0  0  0  0
  -27.4324  -12.7782   18.0580 H   0  0  0  0  0  0
  -27.8707  -13.7237   20.8697 H   0  0  0  0  0  0
  -29.1655  -11.6623   21.3409 H   0  0  0  0  0  0
  -28.9492  -13.1314   22.2157 H   0  0  0  0  0  0
  -25.4322   -9.8298   22.8004 H   0  0  0  0  0  0
  -24.0815   -7.8028   23.0743 H   0  0  0  0  0  0
  -21.7860   -8.8118   19.6336 H   0  0  0  0  0  0
  -23.4557  -10.3001   19.0904 H   0  0  0  0  0  0
  -21.3010   -7.6595   24.0403 H   0  0  0  0  0  0
  -21.1648   -6.0525   25.9260 H   0  0  0  0  0  0
  -22.0073   -2.8005   23.2330 H   0  0  0  0  0  0
  -21.9458  -13.0064   22.0360 H   0  0  0  0  0  0
  -20.6674  -14.0337   21.4265 H   0  0  0  0  0  0
  -23.6941  -16.3892   19.8471 H   0  0  0  0  0  0
  -25.3428  -16.6337   19.5398 H   0  0  0  0  0  0
  -26.7741  -32.4417   23.0574 H   0  0  0  0  0  0
  -25.0003  -33.8978   24.9703 H   0  0  0  0  0  0
  -22.9096  -31.2030   21.2776 H   0  0  0  0  0  0
  -23.3819  -35.9260   23.3205 H   0  0  0  0  0  0
  -24.3561  -36.8805   22.2105 H   0  0  0  0  0  0
  -23.7212  -37.6089   23.6867 H   0  0  0  0  0  0
  -26.4270  -30.9040   20.6797 H   0  0  0  0  0  0
  -26.9694  -30.2995   22.1783 H   0  0  0  0  0  0
  -27.8509  -27.6267   21.6947 H   0  0  0  0  0  0
  -25.4899  -25.3776   18.9412 H   0  0  0  0  0  0
  -24.0335  -27.2445   18.7230 H   0  0  0  0  0  0
  -24.0792  -30.3807   19.3714 H   0  0  0  0  0  0
  -22.9013  -29.1657   19.7619 H   0  0  0  0  0  0
  -25.1408  -36.1376   25.0729 H   0  0  0  0  0  0
  -21.0094  -28.3459   24.1187 H   0  0  0  0  0  0
  -20.5596  -26.2428   23.3709 H   0  0  0  0  0  0
  -21.6640  -26.7275   22.1261 H   0  0  0  0  0  0
  -19.6902  -25.6237   21.1298 H   0  0  0  0  0  0
  -19.6724  -27.3116   20.6714 H   0  0  0  0  0  0
  -17.4226  -26.6725   21.4016 H   0  0  0  0  0  0
  -18.0319  -26.0124   22.9030 H   0  0  0  0  0  0
  -19.8010  -30.7365   24.2112 H   0  0  0  0  0  0
  -17.5069  -31.6270   24.5170 H   0  0  0  0  0  0
  -15.5403  -30.2950   23.7732 H   0  0  0  0  0  0
  -15.8743  -28.0789   22.7137 H   0  0  0  0  0  0
  -24.5893  -30.7121   25.7534 H   0  0  0  0  0  0
  -24.8701  -32.3124   26.4271 H   0  0  0  0  0  0
  -25.7686  -30.9312   27.0270 H   0  0  0  0  0  0
  -26.3482  -29.6073   24.2311 H   0  0  0  0  0  0
  -27.4117  -29.7465   25.6017 H   0  0  0  0  0  0
  -27.9495  -30.3695   24.0687 H   0  0  0  0  0  0
  -27.2491  -33.3879   26.1700 H   0  0  0  0  0  0
  -28.4004  -32.6796   25.0472 H   0  0  0  0  0  0
  -28.0512  -31.8876   26.5768 H   0  0  0  0  0  0
  -28.2470  -38.0034   24.7582 H   0  0  0  0  0  0
  -28.1164  -36.2556   24.6205 H   0  0  0  0  0  0
  -27.2282  -37.1141   25.8862 H   0  0  0  0  0  0
  -20.9863  -29.8561   21.6276 H   0  0  0  0  0  0
  -26.0020  -38.2539   24.1483 H   0  0  0  0  0  0
  -25.3588  -14.6688   23.7785 H   0  0  0  0  0  0
  -22.7322  -12.0788   19.1885 H   0  0  0  0  0  0
  -20.2823  -12.2512   26.1572 H   0  0  0  0  0  0
  -19.5312  -11.1185   24.8990 H   0  0  0  0  0  0
  -26.4982  -22.6112   19.6403 H   0  0  0  0  0  0
  -21.2779  -11.4512   22.2746 H   0  0  0  0  0  0
  -22.2246  -10.2286   23.1484 H   0  0  0  0  0  0
  -28.0047  -22.0989   22.8996 H   0  0  0  0  0  0
  -28.6057  -20.4579   22.6352 H   0  0  0  0  0  0
  -26.9993  -20.7158   23.3222 H   0  0  0  0  0  0
  -27.0865  -17.7817   22.5157 H   0  0  0  0  0  0
  -28.6190  -15.9536   18.6461 H   0  0  0  0  0  0
  1 25  1  0  0  0
  1 30  2  0  0  0
  1 87  1  0  0  0
  2  3  1  0  0  0
  2 25  1  0  0  0
  2 91  1  0  0  0
  2 92  1  0  0  0
  3  4  1  0  0  0
  3 93  1  0  0  0
  3 94  1  0  0  0
  4  5  1  0  0  0
  4 95  1  0  0  0
  4 96  1  0  0  0
  5  6  1  0  0  0
  5 26  1  0  0  0
  5 97  1  0  0  0
  6 25  1  0  0  0
  6 98  1  0  0  0
  6 99  1  0  0  0
  7  8  2  0  0  0
  7 26  1  0  0  0
  7 29  1  0  0  0
  8  9  1  0  0  0
  8 22  1  0  0  0
  9 10  1  0  0  0
  9 27  2  0  0  0
 10 11  2  0  0  0
 10 15  1  0  0  0
 11 12  1  0  0  0
 11100  1  0  0  0
 12 13  2  0  0  0
 12101  1  0  0  0
 13 14  1  0  0  0
 13 31  1  0  0  0
 14 15  2  0  0  0
 14102  1  0  0  0
 15103  1  0  0  0
 16 17  2  0  0  0
 16 21  1  0  0  0
 16 31  1  0  0  0
 17 18  1  0  0  0
 17104  1  0  0  0
 18 19  2  0  0  0
 18105  1  0  0  0
 19 20  1  0  0  0
 19 24  1  0  0  0
 20 21  2  0  0  0
 20106  1  0  0  0
 21 23  1  0  0  0
 22 28  1  0  0  0
 22 32  2  0  0  0
 26 27  1  0  0  0
 28107  1  0  0  0
 28108  1  0  0  0
 29109  1  0  0  0
 29110  1  0  0  0
 33 34  1  0  0  0
 33 66  1  0  0  0
 33 70  2  0  0  0
 34 36  1  0  0  0
 34 59  1  0  0  0
 34111  1  0  0  0
 35 44  2  0  0  0
 35 45  1  0  0  0
 35 68  1  0  0  0
 36 56  1  0  0  0
 36112  1  0  0  0
 37 39  1  0  0  0
 37 47  1  0  0  0
 37 66  1  0  0  0
 37113  1  0  0  0
 38 43  2  0  0  0
 38 46  1  0  0  0
 38 47  1  0  0  0
 39 64  1  0  0  0
 39 67  2  0  0  0
 40 52  1  0  0  0
 40 53  2  0  0  0
 40 58  1  0  0  0
 41114  1  0  0  0
 41115  1  0  0  0
 41116  1  0  0  0
 41 48  1  0  0  0
 42 43  1  0  0  0
 42 66  1  0  0  0
 42117  1  0  0  0
 42118  1  0  0  0
 43 44  1  0  0  0
 44119  1  0  0  0
 45 46  2  0  0  0
 45120  1  0  0  0
 46121  1  0  0  0
 47122  1  0  0  0
 47123  1  0  0  0
 48 56  1  0  0  0
 48 65  1  0  0  0
 48124  1  0  0  0
 49 50  1  0  0  0
 49 53  1  0  0  0
 49 64  1  0  0  0
 49125  1  0  0  0
 50 51  1  0  0  0
 50126  1  0  0  0
 50127  1  0  0  0
 51 52  1  0  0  0
 51128  1  0  0  0
 51129  1  0  0  0
 52130  1  0  0  0
 52131  1  0  0  0
 53 54  1  0  0  0
 54 55  2  0  0  0
 54132  1  0  0  0
 55 57  1  0  0  0
 55133  1  0  0  0
 56 69  2  0  0  0
 57 58  2  0  0  0
 57134  1  0  0  0
 58135  1  0  0  0
 59 60  1  0  0  0
 59 61  1  0  0  0
 59 62  1  0  0  0
 60136  1  0  0  0
 60137  1  0  0  0
 60138  1  0  0  0
 61139  1  0  0  0
 61140  1  0  0  0
 61141  1  0  0  0
 62142  1  0  0  0
 62143  1  0  0  0
 62144  1  0  0  0
 63 65  1  0  0  0
 63145  1  0  0  0
 63146  1  0  0  0
 63147  1  0  0  0
 64148  1  0  0  0
 65149  1  0  0  0
 68 80  1  0  0  0
 71 73  2  0  0  0
 71 74  1  0  0  0
 71150  1  0  0  0
 72 73  1  0  0  0
 72 76  2  0  0  0
 72151  1  0  0  0
 73 85  1  0  0  0
 74 75  2  0  0  0
 74 86  1  0  0  0
 75 76  1  0  0  0
 75 87  1  0  0  0
 76 90  1  0  0  0
 77 78  1  0  0  0
 77 79  2  0  0  0
 77 83  1  0  0  0
 78 85  1  0  0  0
 78 88  2  0  0  0
 79152  1  0  0  0
 79153  1  0  0  0
 80 81  2  0  0  0
 80154  1  0  0  0
 81 82  1  0  0  0
 81 84  1  0  0  0
 82 86  1  0  0  0
 82 89  2  0  0  0
 83 85  1  0  0  0
 83155  1  0  0  0
 83156  1  0  0  0
 84157  1  0  0  0
 84158  1  0  0  0
 84159  1  0  0  0
 86160  1  0  0  0
 87161  1  0  0  0
M  ISO  4   1 100  68 101  80 101  87 100
M  END
> <chiral flag>
0

> <version>
0

> <s_m_source_file>
/data/baiqing/PycharmProjects/Reinvent-master-3.2/result/LINK_invent/BTK/process_docking_weight1_custom_product_contain_oxygen_bond_distance_aromatic_linkinvent_7_9_3/rearranged_h_0078.sdf

> <i_m_source_file_index>
70

> <r_mmod_Potential_Energy-OPLS-2005>
24820.7734375

> <r_mmod_Stretch_Energy-OPLS-2005>
15151.6044921875

> <r_mmod_Bend_Energy-OPLS-2005>
1908.48059082031

> <r_mmod_Torsional_Energy-OPLS-2005>
654.326721191406

> <r_mmod_Improper_Torsional_Energy-OPLS-2005>
54.1194915771484

> <r_mmod_Van_der_Waal_Energy-OPLS-2005>
4784.6962890625

> <r_mmod_Electrostatic_Energy-OPLS-2005>
-482.636810302734

> <r_mmod_Solvation_Energy-OPLS-2005>
-230.578598022461

> <b_mmod_Minimization_Converged-OPLS-2005>
0

> <r_mmod_RMS_Derivative-OPLS-2005>
6.76787042617798

$$$$
71
                    3D
 Structure written by MMmdl.
159167  0  0  1  0            999 V2000
  -30.6545  -14.5058   20.5962 C   0  0  0  0  0  0
  -30.4320  -12.3299   19.4267 C   0  0  0  0  0  0
  -29.4959  -12.5064   18.2103 C   0  0  0  0  0  0
  -28.0149  -12.3644   18.6195 C   0  0  0  0  0  0
  -27.6590  -13.2016   19.8779 C   0  0  2  0  0  0
  -28.6996  -12.9660   20.9964 C   0  0  0  0  0  0
  -25.2579  -13.8153   20.5710 C   0  0  0  0  0  0
  -24.1817  -13.0448   20.9201 C   0  0  0  0  0  0
  -24.6367  -11.6914   20.8748 C   0  0  0  0  0  0
  -23.9033  -10.4308   21.0435 C   0  0  0  0  0  0
  -24.3593   -9.4208   21.9192 C   0  0  0  0  0  0
  -23.6281   -8.2235   22.0749 C   0  0  0  0  0  0
  -22.4252   -8.0279   21.3551 C   0  0  0  0  0  0
  -21.9888   -9.0250   20.4645 C   0  0  0  0  0  0
  -22.7215  -10.2144   20.3068 C   0  0  0  0  0  0
  -21.6846   -6.0741   22.5287 C   0  0  0  0  0  0
  -21.4004   -6.5637   23.8221 C   0  0  0  0  0  0
  -21.3658   -5.6787   24.9178 C   0  0  0  0  0  0
  -21.6052   -4.3054   24.7231 C   0  0  0  0  0  0
  -21.8807   -3.8154   23.4345 C   0  0  0  0  0  0
  -21.9181   -4.6973   22.3405 C   0  0  0  0  0  0
  -22.7842  -13.5254   21.1871 C   0  0  0  0  0  0
  -22.1651   -4.2161   21.0989 F   0  0  0  0  0  0
  -21.5630   -3.4535   25.7743 F   0  0  0  0  0  0
  -30.0255  -13.3039   20.4526 N   0  0  0  0  0  0
  -26.2987  -12.9306   20.3361 N   0  0  0  0  0  0
  -25.9270  -11.6472   20.5748 N   0  0  0  0  0  0
  -22.0473  -12.8261   22.0446 N   0  0  0  0  0  0
  -25.4342  -15.1867   20.4142 N   0  0  0  0  0  0
  -31.7803  -14.7182   20.1328 O   0  0  0  0  0  0
  -21.6619   -6.8878   21.4247 O   0  0  0  0  0  0
  -22.3545  -14.5577   20.6753 O   0  0  0  0  0  0
  -24.6175  -31.8669   23.2094 C   0  0  0  0  0  0
  -25.9073  -32.4818   23.8379 C   0  0  1  0  0  0
  -27.2287  -27.3926   20.0818 C   0  0  0  0  0  0
  -25.5940  -33.8614   24.2319 N   0  0  0  0  0  0
  -23.4041  -30.4920   21.5532 C   0  0  2  0  0  0
  -24.8496  -28.9567   20.1151 C   0  0  0  0  0  0
  -22.7433  -29.4656   22.5014 C   0  0  0  0  0  0
  -18.0272  -28.1390   22.8500 C   0  0  0  0  0  0
  -24.1488  -36.7293   23.2637 C   0  0  0  0  0  0
  -25.9411  -30.8153   21.3745 C   0  0  0  0  0  0
  -26.0143  -29.4493   20.7158 C   0  0  0  0  0  0
  -27.2018  -28.6735   20.6978 C   0  0  0  0  0  0
  -26.0364  -26.9322   19.4706 C   0  0  0  0  0  0
  -24.8589  -27.7006   19.4923 C   0  0  0  0  0  0
  -23.6148  -29.8297   20.1675 C   0  0  0  0  0  0
  -25.4114  -36.3102   24.0331 C   0  0  1  0  0  0
  -20.5859  -28.3672   23.1322 C   0  0  2  0  0  0
  -20.6748  -26.9397   22.5423 C   0  0  0  0  0  0
  -19.5720  -26.6390   21.5218 C   0  0  0  0  0  0
  -18.1908  -26.7938   22.1636 C   0  0  0  0  0  0
  -19.1520  -28.8848   23.2910 C   0  0  0  0  0  0
  -18.9454  -30.1464   23.8907 C   0  0  0  0  0  0
  -17.6447  -30.6596   24.0564 C   0  0  0  0  0  0
  -25.9048  -34.9472   23.5123 C   0  0  0  0  0  0
  -16.5339  -29.9087   23.6340 C   0  0  0  0  0  0
  -16.7262  -28.6515   23.0348 C   0  0  0  0  0  0
  -26.4485  -31.6610   25.0726 C   0  0  0  0  0  0
  -25.3739  -31.3740   26.1475 C   0  0  0  0  0  0
  -27.0318  -30.3043   24.6131 C   0  0  0  0  0  0
  -27.6057  -32.4337   25.7501 C   0  0  0  0  0  0
  -27.5582  -37.1813   24.8477 C   0  0  0  0  0  0
  -21.4161  -29.3030   22.3752 N   0  0  0  0  0  0
  -26.4302  -37.3780   23.9412 N   0  0  0  0  0  0
  -24.6723  -31.0721   22.1040 N   0  0  0  0  0  0
  -23.4204  -28.8182   23.3046 O   0  0  0  0  0  0
  -28.4091  -26.6569   20.0966 O   0  0  0  0  0  0
  -26.5583  -34.8927   22.4670 O   0  0  0  0  0  0
  -23.5363  -32.1463   23.7450 O   0  0  0  0  0  0
  -31.3831  -18.9700   21.2338 C   0  0  0  0  0  0
  -29.0299  -19.0854   21.7865 C   0  0  0  0  0  0
  -31.2850  -17.5687   21.0678 C   0  0  0  0  0  0
  -28.9321  -17.6797   21.6272 C   0  0  0  0  0  0
  -30.2634  -19.7530   21.6013 C   0  0  0  0  0  0
  -30.0570  -16.8943   21.2710 C   0  0  0  0  0  0
  -30.4666  -21.2037   21.9967 C   0  0  0  0  0  0
  -28.9880  -24.3062   20.7415 C   0  0  0  0  0  0
  -30.0244  -22.4584   19.3057 C   0  0  0  0  0  0
  -27.6700  -22.1883   20.1686 C   0  0  0  0  0  0
  -28.4485  -25.2681   19.6483 C   0  0  0  0  0  0
  -29.0658  -22.7579   20.4811 C   0  0  0  0  0  0
  -29.8920  -15.4667   21.1737 N   0  0  0  0  0  0
  -29.5463  -22.1560   21.7449 N   0  0  0  0  0  0
  -31.4658  -21.4964   22.6541 O   0  0  0  0  0  0
  -29.3611  -24.7617   21.8316 O   0  0  0  0  0  0
  -31.4725  -12.4579   19.1258 H   0  0  0  0  0  0
  -30.3605  -11.3160   19.8236 H   0  0  0  0  0  0
  -29.7377  -11.7752   17.4373 H   0  0  0  0  0  0
  -29.6578  -13.4894   17.7661 H   0  0  0  0  0  0
  -27.8241  -11.3077   18.8120 H   0  0  0  0  0  0
  -27.3674  -12.6434   17.7879 H   0  0  0  0  0  0
  -27.7035  -14.2509   19.5856 H   0  0  0  0  0  0
  -28.6900  -11.9178   21.2990 H   0  0  0  0  0  0
  -28.4502  -13.5223   21.9016 H   0  0  0  0  0  0
  -25.2722   -9.5684   22.4771 H   0  0  0  0  0  0
  -23.9989   -7.4617   22.7451 H   0  0  0  0  0  0
  -21.0810   -8.8771   19.8945 H   0  0  0  0  0  0
  -22.3655  -10.9688   19.6186 H   0  0  0  0  0  0
  -21.1990   -7.6150   23.9735 H   0  0  0  0  0  0
  -21.1493   -6.0518   25.9088 H   0  0  0  0  0  0
  -22.0588   -2.7621   23.2843 H   0  0  0  0  0  0
  -22.4041  -11.9891   22.4813 H   0  0  0  0  0  0
  -21.1103  -13.1336   22.2687 H   0  0  0  0  0  0
  -24.6761  -15.8485   20.5309 H   0  0  0  0  0  0
  -26.2849  -15.6177   20.0773 H   0  0  0  0  0  0
  -26.7130  -32.5507   23.1125 H   0  0  0  0  0  0
  -25.0127  -33.9765   25.0486 H   0  0  0  0  0  0
  -22.6924  -31.3091   21.4121 H   0  0  0  0  0  0
  -23.3766  -35.9618   23.3338 H   0  0  0  0  0  0
  -24.3565  -36.8866   22.2044 H   0  0  0  0  0  0
  -23.7219  -37.6497   23.6629 H   0  0  0  0  0  0
  -26.0608  -31.5833   20.6090 H   0  0  0  0  0  0
  -26.8248  -30.8612   22.0001 H   0  0  0  0  0  0
  -28.1009  -29.0522   21.1651 H   0  0  0  0  0  0
  -25.9682  -25.9903   18.9514 H   0  0  0  0  0  0
  -23.9620  -27.3211   19.0224 H   0  0  0  0  0  0
  -23.7278  -30.6059   19.4101 H   0  0  0  0  0  0
  -22.7357  -29.2566   19.8670 H   0  0  0  0  0  0
  -25.1282  -36.1971   25.0816 H   0  0  0  0  0  0
  -20.9928  -28.3228   24.1448 H   0  0  0  0  0  0
  -20.5634  -26.2263   23.3608 H   0  0  0  0  0  0
  -21.6618  -26.7423   22.1211 H   0  0  0  0  0  0
  -19.6861  -25.6300   21.1239 H   0  0  0  0  0  0
  -19.6669  -27.3214   20.6758 H   0  0  0  0  0  0
  -17.4166  -26.6708   21.4053 H   0  0  0  0  0  0
  -18.0313  -26.0081   22.9029 H   0  0  0  0  0  0
  -19.7919  -30.7290   24.2288 H   0  0  0  0  0  0
  -17.4991  -31.6269   24.5161 H   0  0  0  0  0  0
  -15.5334  -30.2973   23.7671 H   0  0  0  0  0  0
  -15.8672  -28.0831   22.7044 H   0  0  0  0  0  0
  -24.5891  -30.7105   25.7828 H   0  0  0  0  0  0
  -24.8955  -32.2905   26.4941 H   0  0  0  0  0  0
  -25.8081  -30.8895   27.0228 H   0  0  0  0  0  0
  -26.2879  -29.6835   24.1124 H   0  0  0  0  0  0
  -27.4007  -29.7254   25.4607 H   0  0  0  0  0  0
  -27.8749  -30.4357   23.9344 H   0  0  0  0  0  0
  -27.2665  -33.3614   26.2127 H   0  0  0  0  0  0
  -28.3854  -32.6946   25.0333 H   0  0  0  0  0  0
  -28.0752  -31.8439   26.5384 H   0  0  0  0  0  0
  -28.2628  -38.0084   24.7493 H   0  0  0  0  0  0
  -28.1046  -36.2613   24.6348 H   0  0  0  0  0  0
  -27.2294  -37.1521   25.8878 H   0  0  0  0  0  0
  -20.9346  -29.8776   21.6986 H   0  0  0  0  0  0
  -26.0206  -38.2867   24.1404 H   0  0  0  0  0  0
  -32.3501  -19.4423   21.1263 H   0  0  0  0  0  0
  -28.1606  -19.6390   22.1100 H   0  0  0  0  0  0
  -32.1840  -17.0265   20.8229 H   0  0  0  0  0  0
  -27.9762  -17.2080   21.8079 H   0  0  0  0  0  0
  -30.0831  -21.3879   19.1024 H   0  0  0  0  0  0
  -31.0363  -22.8148   19.5031 H   0  0  0  0  0  0
  -29.6891  -22.9365   18.3854 H   0  0  0  0  0  0
  -27.3224  -22.4987   19.1828 H   0  0  0  0  0  0
  -26.9299  -22.5112   20.9017 H   0  0  0  0  0  0
  -27.6802  -21.0981   20.1697 H   0  0  0  0  0  0
  -29.1094  -25.2126   18.7830 H   0  0  0  0  0  0
  -27.4938  -24.8677   19.3328 H   0  0  0  0  0  0
  -28.9954  -15.1205   21.4790 H   0  0  0  0  0  0
  -29.6522  -22.9260   22.3960 H   0  0  0  0  0  0
  1 25  1  0  0  0
  1 30  2  0  0  0
  1 83  1  0  0  0
  2  3  1  0  0  0
  2 25  1  0  0  0
  2 87  1  0  0  0
  2 88  1  0  0  0
  3  4  1  0  0  0
  3 89  1  0  0  0
  3 90  1  0  0  0
  4  5  1  0  0  0
  4 91  1  0  0  0
  4 92  1  0  0  0
  5  6  1  0  0  0
  5 26  1  0  0  0
  5 93  1  0  0  0
  6 25  1  0  0  0
  6 94  1  0  0  0
  6 95  1  0  0  0
  7  8  2  0  0  0
  7 26  1  0  0  0
  7 29  1  0  0  0
  8  9  1  0  0  0
  8 22  1  0  0  0
  9 10  1  0  0  0
  9 27  2  0  0  0
 10 11  2  0  0  0
 10 15  1  0  0  0
 11 12  1  0  0  0
 11 96  1  0  0  0
 12 13  2  0  0  0
 12 97  1  0  0  0
 13 14  1  0  0  0
 13 31  1  0  0  0
 14 15  2  0  0  0
 14 98  1  0  0  0
 15 99  1  0  0  0
 16 17  2  0  0  0
 16 21  1  0  0  0
 16 31  1  0  0  0
 17 18  1  0  0  0
 17100  1  0  0  0
 18 19  2  0  0  0
 18101  1  0  0  0
 19 20  1  0  0  0
 19 24  1  0  0  0
 20 21  2  0  0  0
 20102  1  0  0  0
 21 23  1  0  0  0
 22 28  1  0  0  0
 22 32  2  0  0  0
 26 27  1  0  0  0
 28103  1  0  0  0
 28104  1  0  0  0
 29105  1  0  0  0
 29106  1  0  0  0
 33 34  1  0  0  0
 33 66  1  0  0  0
 33 70  2  0  0  0
 34 36  1  0  0  0
 34 59  1  0  0  0
 34107  1  0  0  0
 35 44  2  0  0  0
 35 45  1  0  0  0
 35 68  1  0  0  0
 36 56  1  0  0  0
 36108  1  0  0  0
 37 39  1  0  0  0
 37 47  1  0  0  0
 37 66  1  0  0  0
 37109  1  0  0  0
 38 43  2  0  0  0
 38 46  1  0  0  0
 38 47  1  0  0  0
 39 64  1  0  0  0
 39 67  2  0  0  0
 40 52  1  0  0  0
 40 53  2  0  0  0
 40 58  1  0  0  0
 41110  1  0  0  0
 41111  1  0  0  0
 41112  1  0  0  0
 41 48  1  0  0  0
 42 43  1  0  0  0
 42 66  1  0  0  0
 42113  1  0  0  0
 42114  1  0  0  0
 43 44  1  0  0  0
 44115  1  0  0  0
 45 46  2  0  0  0
 45116  1  0  0  0
 46117  1  0  0  0
 47118  1  0  0  0
 47119  1  0  0  0
 48 56  1  0  0  0
 48 65  1  0  0  0
 48120  1  0  0  0
 49 50  1  0  0  0
 49 53  1  0  0  0
 49 64  1  0  0  0
 49121  1  0  0  0
 50 51  1  0  0  0
 50122  1  0  0  0
 50123  1  0  0  0
 51 52  1  0  0  0
 51124  1  0  0  0
 51125  1  0  0  0
 52126  1  0  0  0
 52127  1  0  0  0
 53 54  1  0  0  0
 54 55  2  0  0  0
 54128  1  0  0  0
 55 57  1  0  0  0
 55129  1  0  0  0
 56 69  2  0  0  0
 57 58  2  0  0  0
 57130  1  0  0  0
 58131  1  0  0  0
 59 60  1  0  0  0
 59 61  1  0  0  0
 59 62  1  0  0  0
 60132  1  0  0  0
 60133  1  0  0  0
 60134  1  0  0  0
 61135  1  0  0  0
 61136  1  0  0  0
 61137  1  0  0  0
 62138  1  0  0  0
 62139  1  0  0  0
 62140  1  0  0  0
 63 65  1  0  0  0
 63141  1  0  0  0
 63142  1  0  0  0
 63143  1  0  0  0
 64144  1  0  0  0
 65145  1  0  0  0
 68 81  1  0  0  0
 71 73  2  0  0  0
 71 75  1  0  0  0
 71146  1  0  0  0
 72 74  1  0  0  0
 72 75  2  0  0  0
 72147  1  0  0  0
 73 76  1  0  0  0
 73148  1  0  0  0
 74 76  2  0  0  0
 74149  1  0  0  0
 75 77  1  0  0  0
 76 83  1  0  0  0
 77 84  1  0  0  0
 77 85  2  0  0  0
 78 81  1  0  0  0
 78 82  1  0  0  0
 78 86  2  0  0  0
 79150  1  0  0  0
 79151  1  0  0  0
 79152  1  0  0  0
 79 82  1  0  0  0
 80 82  1  0  0  0
 80153  1  0  0  0
 80154  1  0  0  0
 80155  1  0  0  0
 81156  1  0  0  0
 81157  1  0  0  0
 82 84  1  0  0  0
 83158  1  0  0  0
 84159  1  0  0  0
M  ISO  4   1 100  68 101  81 101  83 100
M  END
> <chiral flag>
0

> <version>
0

> <s_m_source_file>
/data/baiqing/PycharmProjects/Reinvent-master-3.2/result/LINK_invent/BTK/process_docking_weight1_custom_product_contain_oxygen_bond_distance_aromatic_linkinvent_7_9_3/rearranged_h_0078.sdf

> <i_m_source_file_index>
71

> <r_mmod_Potential_Energy-OPLS-2005>
-6.47134971618652

> <r_mmod_Stretch_Energy-OPLS-2005>
49.7229194641113

> <r_mmod_Bend_Energy-OPLS-2005>
139.51481628418

> <r_mmod_Torsional_Energy-OPLS-2005>
267.297760009766

> <r_mmod_Improper_Torsional_Energy-OPLS-2005>
9.09561920166016

> <r_mmod_Van_der_Waal_Energy-OPLS-2005>
158.66682434082

> <r_mmod_Electrostatic_Energy-OPLS-2005>
-404.416320800781

> <r_mmod_Solvation_Energy-OPLS-2005>
-244.201904296875

> <b_mmod_Minimization_Converged-OPLS-2005>
0

> <r_mmod_RMS_Derivative-OPLS-2005>
3.23018598556519

$$$$
72
                    3D
 Structure written by MMmdl.
165174  0  0  1  0            999 V2000
  -30.7925  -14.6040   20.5146 C   0  0  0  0  0  0
  -30.4118  -12.3929   19.4574 C   0  0  0  0  0  0
  -29.5026  -12.5212   18.2218 C   0  0  0  0  0  0
  -28.0332  -12.3316   18.6400 C   0  0  0  0  0  0
  -27.6492  -13.2216   19.8521 C   0  0  2  0  0  0
  -28.7086  -13.1880   20.9851 C   0  0  0  0  0  0
  -25.2596  -13.8198   20.5781 C   0  0  0  0  0  0
  -24.1836  -13.0466   20.9159 C   0  0  0  0  0  0
  -24.6383  -11.6927   20.8674 C   0  0  0  0  0  0
  -23.9055  -10.4330   21.0320 C   0  0  0  0  0  0
  -24.3616   -9.4260   21.9116 C   0  0  0  0  0  0
  -23.6285   -8.2310   22.0743 C   0  0  0  0  0  0
  -22.4254   -8.0323   21.3549 C   0  0  0  0  0  0
  -21.9891   -9.0294   20.4640 C   0  0  0  0  0  0
  -22.7216  -10.2160   20.2997 C   0  0  0  0  0  0
  -21.6889   -6.0748   22.5259 C   0  0  0  0  0  0
  -21.4041   -6.5640   23.8197 C   0  0  0  0  0  0
  -21.3646   -5.6781   24.9155 C   0  0  0  0  0  0
  -21.6024   -4.3044   24.7190 C   0  0  0  0  0  0
  -21.8831   -3.8148   23.4309 C   0  0  0  0  0  0
  -21.9205   -4.6973   22.3368 C   0  0  0  0  0  0
  -22.7852  -13.5289   21.1767 C   0  0  0  0  0  0
  -22.1668   -4.2169   21.0944 F   0  0  0  0  0  0
  -21.5596   -3.4520   25.7706 F   0  0  0  0  0  0
  -30.0262  -13.4679   20.3969 N   0  0  0  0  0  0
  -26.2998  -12.9353   20.3351 N   0  0  0  0  0  0
  -25.9312  -11.6469   20.5716 N   0  0  0  0  0  0
  -22.0428  -12.8358   22.0299 N   0  0  0  0  0  0
  -25.4360  -15.1934   20.4317 N   0  0  0  0  0  0
  -31.9347  -14.6310   20.0542 O   0  0  0  0  0  0
  -21.6629   -6.8896   21.4239 O   0  0  0  0  0  0
  -22.3557  -14.5590   20.6580 O   0  0  0  0  0  0
  -24.6258  -31.8642   23.2048 C   0  0  0  0  0  0
  -25.9132  -32.4802   23.8354 C   0  0  1  0  0  0
  -27.2367  -27.3691   20.0898 C   0  0  0  0  0  0
  -25.5936  -33.8584   24.2310 N   0  0  0  0  0  0
  -23.4159  -30.4868   21.5495 C   0  0  2  0  0  0
  -24.8622  -28.9443   20.1131 C   0  0  0  0  0  0
  -22.7455  -29.4658   22.4996 C   0  0  0  0  0  0
  -18.0281  -28.1420   22.8490 C   0  0  0  0  0  0
  -24.1458  -36.7269   23.2609 C   0  0  0  0  0  0
  -25.9526  -30.8050   21.3678 C   0  0  0  0  0  0
  -26.0283  -29.4342   20.7140 C   0  0  0  0  0  0
  -27.2186  -28.6534   20.7048 C   0  0  0  0  0  0
  -26.0396  -26.9050   19.4987 C   0  0  0  0  0  0
  -24.8638  -27.6797   19.5035 C   0  0  0  0  0  0
  -23.6252  -29.8179   20.1655 C   0  0  0  0  0  0
  -25.4070  -36.3081   24.0331 C   0  0  1  0  0  0
  -20.5875  -28.3706   23.1314 C   0  0  2  0  0  0
  -20.6775  -26.9424   22.5440 C   0  0  0  0  0  0
  -19.5758  -26.6404   21.5215 C   0  0  0  0  0  0
  -18.1925  -26.7965   22.1600 C   0  0  0  0  0  0
  -19.1538  -28.8876   23.2892 C   0  0  0  0  0  0
  -18.9467  -30.1479   23.8919 C   0  0  0  0  0  0
  -17.6468  -30.6606   24.0583 C   0  0  0  0  0  0
  -25.9047  -34.9452   23.5118 C   0  0  0  0  0  0
  -16.5352  -29.9120   23.6334 C   0  0  0  0  0  0
  -16.7270  -28.6532   23.0356 C   0  0  0  0  0  0
  -26.4496  -31.6584   25.0715 C   0  0  0  0  0  0
  -25.3705  -31.3761   26.1421 C   0  0  0  0  0  0
  -27.0328  -30.3014   24.6131 C   0  0  0  0  0  0
  -27.6086  -32.4254   25.7496 C   0  0  0  0  0  0
  -27.5606  -37.1723   24.8390 C   0  0  0  0  0  0
  -21.4175  -29.3060   22.3713 N   0  0  0  0  0  0
  -26.4230  -37.3815   23.9461 N   0  0  0  0  0  0
  -24.6832  -31.0664   22.0985 N   0  0  0  0  0  0
  -23.4192  -28.8188   23.3065 O   0  0  0  0  0  0
  -28.3625  -26.5435   20.0979 O   0  0  0  0  0  0
  -26.5623  -34.8938   22.4698 O   0  0  0  0  0  0
  -23.5432  -32.1428   23.7409 O   0  0  0  0  0  0
  -31.0675  -18.8624   20.3582 C   0  0  0  0  0  0
  -28.6606  -19.0541   20.3267 C   0  0  0  0  0  0
  -31.1758  -20.2551   20.0673 C   0  0  0  0  0  0
  -28.7633  -20.4456   20.0483 C   0  0  0  0  0  0
  -29.8021  -18.2114   20.4501 C   0  0  0  0  0  0
  -30.0252  -21.0735   19.8639 C   0  0  0  0  0  0
  -29.1390  -24.5805   18.7157 C   0  0  0  0  0  0
  -29.3276  -24.1582   17.3367 C   0  0  0  0  0  0
  -29.4217  -23.5287   19.7361 C   0  0  0  0  0  0
  -28.3462  -24.2948   16.4188 C   0  0  0  0  0  0
  -28.6602  -25.8494   18.9314 C   0  0  0  0  0  0
  -29.6146  -16.6781   20.3618 C   0  0  0  0  0  0
  -30.6356  -23.4965   16.9955 C   0  0  0  0  0  0
  -31.0491  -22.5117   18.1188 C   0  0  0  0  0  0
  -30.1590  -16.2914   23.5366 C   0  0  0  0  0  0
  -31.0792  -16.1433   22.3168 C   0  0  0  0  0  0
  -30.1225  -22.4177   19.2815 N   0  0  0  0  0  0
  -30.3267  -15.7548   21.1014 N   0  0  0  0  0  0
  -29.0409  -23.6104   20.9076 O   0  0  0  0  0  0
  -28.7714  -16.3083   19.5376 O   0  0  0  0  0  0
  -31.4624  -12.4292   19.1609 H   0  0  0  0  0  0
  -30.2769  -11.4202   19.9318 H   0  0  0  0  0  0
  -29.7753  -11.7854   17.4636 H   0  0  0  0  0  0
  -29.6403  -13.4994   17.7568 H   0  0  0  0  0  0
  -27.8923  -11.2804   18.8960 H   0  0  0  0  0  0
  -27.3795  -12.5311   17.7921 H   0  0  0  0  0  0
  -27.6136  -14.2253   19.4454 H   0  0  0  0  0  0
  -28.7336  -12.2161   21.4776 H   0  0  0  0  0  0
  -28.4600  -13.9214   21.7533 H   0  0  0  0  0  0
  -25.2772   -9.5783   22.4659 H   0  0  0  0  0  0
  -24.0026   -7.4725   22.7475 H   0  0  0  0  0  0
  -21.0809   -8.8803   19.8937 H   0  0  0  0  0  0
  -22.3673  -10.9688   19.6092 H   0  0  0  0  0  0
  -21.2054   -7.6146   23.9711 H   0  0  0  0  0  0
  -21.1439   -6.0489   25.9057 H   0  0  0  0  0  0
  -22.0614   -2.7604   23.2788 H   0  0  0  0  0  0
  -22.3991  -12.0116   22.4909 H   0  0  0  0  0  0
  -21.1013  -13.1420   22.2310 H   0  0  0  0  0  0
  -24.6720  -15.8508   20.5450 H   0  0  0  0  0  0
  -26.3215  -15.6406   20.2263 H   0  0  0  0  0  0
  -26.7201  -32.5490   23.1109 H   0  0  0  0  0  0
  -25.0044  -33.9707   25.0420 H   0  0  0  0  0  0
  -22.7091  -31.3067   21.4091 H   0  0  0  0  0  0
  -23.3778  -35.9534   23.3175 H   0  0  0  0  0  0
  -24.3596  -36.8982   22.2045 H   0  0  0  0  0  0
  -23.7112  -37.6397   23.6689 H   0  0  0  0  0  0
  -26.0721  -31.5653   20.5951 H   0  0  0  0  0  0
  -26.8385  -30.8652   21.9876 H   0  0  0  0  0  0
  -28.1159  -29.0217   21.1803 H   0  0  0  0  0  0
  -26.0020  -25.9230   19.0475 H   0  0  0  0  0  0
  -23.9638  -27.2936   19.0465 H   0  0  0  0  0  0
  -23.7305  -30.5877   19.4000 H   0  0  0  0  0  0
  -22.7469  -29.2379   19.8766 H   0  0  0  0  0  0
  -25.1193  -36.1932   25.0816 H   0  0  0  0  0  0
  -20.9961  -28.3298   24.1430 H   0  0  0  0  0  0
  -20.5676  -26.2286   23.3633 H   0  0  0  0  0  0
  -21.6663  -26.7471   22.1248 H   0  0  0  0  0  0
  -19.6917  -25.6325   21.1221 H   0  0  0  0  0  0
  -19.6694  -27.3223   20.6753 H   0  0  0  0  0  0
  -17.4202  -26.6775   21.3988 H   0  0  0  0  0  0
  -18.0267  -26.0099   22.8982 H   0  0  0  0  0  0
  -19.7961  -30.7312   24.2274 H   0  0  0  0  0  0
  -17.5033  -31.6283   24.5202 H   0  0  0  0  0  0
  -15.5368  -30.3033   23.7656 H   0  0  0  0  0  0
  -15.8663  -28.0852   22.7070 H   0  0  0  0  0  0
  -24.5907  -30.7065   25.7765 H   0  0  0  0  0  0
  -24.8854  -32.2952   26.4730 H   0  0  0  0  0  0
  -25.8012  -30.9036   27.0267 H   0  0  0  0  0  0
  -26.2919  -29.6794   24.1109 H   0  0  0  0  0  0
  -27.3998  -29.7230   25.4630 H   0  0  0  0  0  0
  -27.8776  -30.4311   23.9362 H   0  0  0  0  0  0
  -27.2757  -33.3574   26.2073 H   0  0  0  0  0  0
  -28.3929  -32.6762   25.0339 H   0  0  0  0  0  0
  -28.0703  -31.8335   26.5417 H   0  0  0  0  0  0
  -28.2414  -38.0224   24.7804 H   0  0  0  0  0  0
  -28.1303  -36.2814   24.5722 H   0  0  0  0  0  0
  -27.2422  -37.0794   25.8788 H   0  0  0  0  0  0
  -20.9350  -29.8770   21.6907 H   0  0  0  0  0  0
  -26.0106  -38.2823   24.1694 H   0  0  0  0  0  0
  -31.9807  -18.2856   20.4025 H   0  0  0  0  0  0
  -27.6735  -18.6006   20.3331 H   0  0  0  0  0  0
  -32.1718  -20.6715   19.9217 H   0  0  0  0  0  0
  -27.8542  -21.0049   19.8655 H   0  0  0  0  0  0
  -27.3897  -24.7291   16.6742 H   0  0  0  0  0  0
  -28.4638  -23.9506   15.3997 H   0  0  0  0  0  0
  -28.4720  -26.4905   18.0799 H   0  0  0  0  0  0
  -31.3971  -24.2666   16.8314 H   0  0  0  0  0  0
  -30.5443  -22.9680   16.0429 H   0  0  0  0  0  0
  -32.0605  -22.7336   18.4652 H   0  0  0  0  0  0
  -31.1170  -21.5247   17.6619 H   0  0  0  0  0  0
  -30.7513  -16.3911   24.4472 H   0  0  0  0  0  0
  -29.5239  -15.4152   23.6560 H   0  0  0  0  0  0
  -29.5277  -17.1759   23.4606 H   0  0  0  0  0  0
  -31.8140  -15.3754   22.5845 H   0  0  0  0  0  0
  -31.6848  -17.0386   22.1789 H   0  0  0  0  0  0
  1 25  1  0  0  0
  1 30  2  0  0  0
  1 88  1  0  0  0
  2  3  1  0  0  0
  2 25  1  0  0  0
  2 91  1  0  0  0
  2 92  1  0  0  0
  3  4  1  0  0  0
  3 93  1  0  0  0
  3 94  1  0  0  0
  4  5  1  0  0  0
  4 95  1  0  0  0
  4 96  1  0  0  0
  5  6  1  0  0  0
  5 26  1  0  0  0
  5 97  1  0  0  0
  6 25  1  0  0  0
  6 98  1  0  0  0
  6 99  1  0  0  0
  7  8  2  0  0  0
  7 26  1  0  0  0
  7 29  1  0  0  0
  8  9  1  0  0  0
  8 22  1  0  0  0
  9 10  1  0  0  0
  9 27  2  0  0  0
 10 11  2  0  0  0
 10 15  1  0  0  0
 11 12  1  0  0  0
 11100  1  0  0  0
 12 13  2  0  0  0
 12101  1  0  0  0
 13 14  1  0  0  0
 13 31  1  0  0  0
 14 15  2  0  0  0
 14102  1  0  0  0
 15103  1  0  0  0
 16 17  2  0  0  0
 16 21  1  0  0  0
 16 31  1  0  0  0
 17 18  1  0  0  0
 17104  1  0  0  0
 18 19  2  0  0  0
 18105  1  0  0  0
 19 20  1  0  0  0
 19 24  1  0  0  0
 20 21  2  0  0  0
 20106  1  0  0  0
 21 23  1  0  0  0
 22 28  1  0  0  0
 22 32  2  0  0  0
 26 27  1  0  0  0
 28107  1  0  0  0
 28108  1  0  0  0
 29109  1  0  0  0
 29110  1  0  0  0
 33 34  1  0  0  0
 33 66  1  0  0  0
 33 70  2  0  0  0
 34 36  1  0  0  0
 34 59  1  0  0  0
 34111  1  0  0  0
 35 44  2  0  0  0
 35 45  1  0  0  0
 35 68  1  0  0  0
 36 56  1  0  0  0
 36112  1  0  0  0
 37 39  1  0  0  0
 37 47  1  0  0  0
 37 66  1  0  0  0
 37113  1  0  0  0
 38 43  2  0  0  0
 38 46  1  0  0  0
 38 47  1  0  0  0
 39 64  1  0  0  0
 39 67  2  0  0  0
 40 52  1  0  0  0
 40 53  2  0  0  0
 40 58  1  0  0  0
 41114  1  0  0  0
 41115  1  0  0  0
 41116  1  0  0  0
 41 48  1  0  0  0
 42 43  1  0  0  0
 42 66  1  0  0  0
 42117  1  0  0  0
 42118  1  0  0  0
 43 44  1  0  0  0
 44119  1  0  0  0
 45 46  2  0  0  0
 45120  1  0  0  0
 46121  1  0  0  0
 47122  1  0  0  0
 47123  1  0  0  0
 48 56  1  0  0  0
 48 65  1  0  0  0
 48124  1  0  0  0
 49 50  1  0  0  0
 49 53  1  0  0  0
 49 64  1  0  0  0
 49125  1  0  0  0
 50 51  1  0  0  0
 50126  1  0  0  0
 50127  1  0  0  0
 51 52  1  0  0  0
 51128  1  0  0  0
 51129  1  0  0  0
 52130  1  0  0  0
 52131  1  0  0  0
 53 54  1  0  0  0
 54 55  2  0  0  0
 54132  1  0  0  0
 55 57  1  0  0  0
 55133  1  0  0  0
 56 69  2  0  0  0
 57 58  2  0  0  0
 57134  1  0  0  0
 58135  1  0  0  0
 59 60  1  0  0  0
 59 61  1  0  0  0
 59 62  1  0  0  0
 60136  1  0  0  0
 60137  1  0  0  0
 60138  1  0  0  0
 61139  1  0  0  0
 61140  1  0  0  0
 61141  1  0  0  0
 62142  1  0  0  0
 62143  1  0  0  0
 62144  1  0  0  0
 63 65  1  0  0  0
 63145  1  0  0  0
 63146  1  0  0  0
 63147  1  0  0  0
 64148  1  0  0  0
 65149  1  0  0  0
 68 81  1  0  0  0
 71 73  2  0  0  0
 71 75  1  0  0  0
 71150  1  0  0  0
 72 74  1  0  0  0
 72 75  2  0  0  0
 72151  1  0  0  0
 73 76  1  0  0  0
 73152  1  0  0  0
 74 76  2  0  0  0
 74153  1  0  0  0
 75 82  1  0  0  0
 76 87  1  0  0  0
 77 78  1  0  0  0
 77 79  1  0  0  0
 77 81  2  0  0  0
 78 80  2  0  0  0
 78 83  1  0  0  0
 79 87  1  0  0  0
 79 89  2  0  0  0
 80154  1  0  0  0
 80155  1  0  0  0
 81156  1  0  0  0
 82 88  1  0  0  0
 82 90  2  0  0  0
 83 84  1  0  0  0
 83157  1  0  0  0
 83158  1  0  0  0
 84 87  1  0  0  0
 84159  1  0  0  0
 84160  1  0  0  0
 85 86  1  0  0  0
 85161  1  0  0  0
 85162  1  0  0  0
 85163  1  0  0  0
 86 88  1  0  0  0
 86164  1  0  0  0
 86165  1  0  0  0
M  ISO  4   1 100  68 101  81 101  88 100
M  END
> <chiral flag>
0

> <version>
0

> <s_m_source_file>
/data/baiqing/PycharmProjects/Reinvent-master-3.2/result/LINK_invent/BTK/process_docking_weight1_custom_product_contain_oxygen_bond_distance_aromatic_linkinvent_7_9_3/rearranged_h_0078.sdf

> <i_m_source_file_index>
72

> <r_mmod_Potential_Energy-OPLS-2005>
483.272033691406

> <r_mmod_Stretch_Energy-OPLS-2005>
82.3226470947266

> <r_mmod_Bend_Energy-OPLS-2005>
170.634460449219

> <r_mmod_Torsional_Energy-OPLS-2005>
428.233093261719

> <r_mmod_Improper_Torsional_Energy-OPLS-2005>
6.48266315460205

> <r_mmod_Van_der_Waal_Energy-OPLS-2005>
169.813690185547

> <r_mmod_Electrostatic_Energy-OPLS-2005>
-223.205657958984

> <r_mmod_Solvation_Energy-OPLS-2005>
-194.504776000977

> <b_mmod_Minimization_Converged-OPLS-2005>
0

> <r_mmod_RMS_Derivative-OPLS-2005>
6.7345232963562

$$$$
73
                    3D
 Structure written by MMmdl.
160169  0  0  1  0            999 V2000
  -30.6448  -14.6282   20.4524 C   0  0  0  0  0  0
  -30.4611  -12.3896   19.4150 C   0  0  0  0  0  0
  -29.4947  -12.4285   18.2104 C   0  0  0  0  0  0
  -28.0140  -12.3559   18.6426 C   0  0  0  0  0  0
  -27.6627  -13.2135   19.8873 C   0  0  2  0  0  0
  -28.7300  -13.0563   20.9907 C   0  0  0  0  0  0
  -25.2602  -13.8137   20.5799 C   0  0  0  0  0  0
  -24.1826  -13.0421   20.9220 C   0  0  0  0  0  0
  -24.6398  -11.6899   20.8828 C   0  0  0  0  0  0
  -23.9051  -10.4288   21.0460 C   0  0  0  0  0  0
  -24.3614   -9.4186   21.9210 C   0  0  0  0  0  0
  -23.6292   -8.2214   22.0741 C   0  0  0  0  0  0
  -22.4278   -8.0265   21.3514 C   0  0  0  0  0  0
  -21.9904   -9.0267   20.4652 C   0  0  0  0  0  0
  -22.7230  -10.2151   20.3088 C   0  0  0  0  0  0
  -21.6850   -6.0709   22.5261 C   0  0  0  0  0  0
  -21.4005   -6.5612   23.8194 C   0  0  0  0  0  0
  -21.3652   -5.6765   24.9157 C   0  0  0  0  0  0
  -21.6060   -4.3028   24.7217 C   0  0  0  0  0  0
  -21.8823   -3.8119   23.4338 C   0  0  0  0  0  0
  -21.9188   -4.6931   22.3401 C   0  0  0  0  0  0
  -22.7838  -13.5241   21.1827 C   0  0  0  0  0  0
  -22.1672   -4.2109   21.0976 F   0  0  0  0  0  0
  -21.5651   -3.4525   25.7735 F   0  0  0  0  0  0
  -30.0324  -13.4052   20.3999 N   0  0  0  0  0  0
  -26.3078  -12.9332   20.3586 N   0  0  0  0  0  0
  -25.9345  -11.6495   20.5940 N   0  0  0  0  0  0
  -22.0395  -12.8264   22.0352 N   0  0  0  0  0  0
  -25.4319  -15.1857   20.4208 N   0  0  0  0  0  0
  -31.8175  -14.7708   20.0945 O   0  0  0  0  0  0
  -21.6631   -6.8859   21.4230 O   0  0  0  0  0  0
  -22.3577  -14.5576   20.6682 O   0  0  0  0  0  0
  -24.6199  -31.8607   23.2054 C   0  0  0  0  0  0
  -25.9106  -32.4742   23.8329 C   0  0  1  0  0  0
  -27.2281  -27.3800   20.1285 C   0  0  0  0  0  0
  -25.5934  -33.8541   24.2263 N   0  0  0  0  0  0
  -23.4061  -30.4900   21.5438 C   0  0  2  0  0  0
  -24.8534  -28.9518   20.1051 C   0  0  0  0  0  0
  -22.7379  -29.4662   22.4921 C   0  0  0  0  0  0
  -18.0263  -28.1379   22.8460 C   0  0  0  0  0  0
  -24.1483  -36.7307   23.2632 C   0  0  0  0  0  0
  -25.9378  -30.8208   21.3563 C   0  0  0  0  0  0
  -26.0172  -29.4516   20.7044 C   0  0  0  0  0  0
  -27.2072  -28.6798   20.7015 C   0  0  0  0  0  0
  -26.0502  -26.9190   19.4954 C   0  0  0  0  0  0
  -24.8704  -27.6870   19.4912 C   0  0  0  0  0  0
  -23.6157  -29.8236   20.1565 C   0  0  0  0  0  0
  -25.4097  -36.3056   24.0313 C   0  0  1  0  0  0
  -20.5853  -28.3663   23.1296 C   0  0  2  0  0  0
  -20.6745  -26.9385   22.5410 C   0  0  0  0  0  0
  -19.5741  -26.6375   21.5187 C   0  0  0  0  0  0
  -18.1930  -26.7913   22.1613 C   0  0  0  0  0  0
  -19.1510  -28.8830   23.2883 C   0  0  0  0  0  0
  -18.9444  -30.1445   23.8883 C   0  0  0  0  0  0
  -17.6450  -30.6572   24.0573 C   0  0  0  0  0  0
  -25.9043  -34.9425   23.5072 C   0  0  0  0  0  0
  -16.5343  -29.9080   23.6334 C   0  0  0  0  0  0
  -16.7260  -28.6515   23.0317 C   0  0  0  0  0  0
  -26.4524  -31.6517   25.0659 C   0  0  0  0  0  0
  -25.3792  -31.3614   26.1399 C   0  0  0  0  0  0
  -27.0336  -30.2953   24.6010 C   0  0  0  0  0  0
  -27.6045  -32.4237   25.7484 C   0  0  0  0  0  0
  -27.5577  -37.1808   24.8455 C   0  0  0  0  0  0
  -21.4094  -29.3035   22.3673 N   0  0  0  0  0  0
  -26.4279  -37.3756   23.9407 N   0  0  0  0  0  0
  -24.6739  -31.0688   22.0957 N   0  0  0  0  0  0
  -23.4121  -28.8208   23.2980 O   0  0  0  0  0  0
  -28.3665  -26.5824   20.2048 O   0  0  0  0  0  0
  -26.5622  -34.8925   22.4643 O   0  0  0  0  0  0
  -23.5399  -32.1373   23.7468 O   0  0  0  0  0  0
  -29.5562  -18.4007   18.0641 C   0  0  0  0  0  0
  -29.5641  -19.5767   18.8154 C   0  0  0  0  0  0
  -29.8581  -18.2549   20.8406 C   0  0  0  0  0  0
  -29.6701  -17.1393   18.6748 C   0  0  0  0  0  0
  -29.6912  -19.5466   20.2187 C   0  0  0  0  0  0
  -29.8474  -17.0256   20.0867 C   0  0  0  0  0  0
  -29.5826  -23.1182   21.3007 C   0  0  0  0  0  0
  -30.5462  -22.5571   22.2161 C   0  0  0  0  0  0
  -29.0570  -21.9874   20.5265 C   0  0  0  0  0  0
  -31.3349  -23.2503   23.0571 C   0  0  0  0  0  0
  -29.2189  -24.4364   21.2075 C   0  0  0  0  0  0
  -30.5729  -21.0572   22.0721 C   0  0  0  0  0  0
  -29.5403  -15.9521   17.7445 C   0  0  0  0  0  0
  -28.1737  -25.1359   20.3157 C   0  0  0  0  0  0
  -29.6960  -20.8259   20.9222 N   0  0  0  0  0  0
  -29.8617  -15.7127   20.7376 N   0  0  0  0  0  0
  -28.1589  -22.0549   19.6805 O   0  0  0  0  0  0
  -31.4787  -12.5594   19.0532 H   0  0  0  0  0  0
  -30.4746  -11.3984   19.8661 H   0  0  0  0  0  0
  -29.7163  -11.5846   17.5548 H   0  0  0  0  0  0
  -29.6714  -13.3070   17.5971 H   0  0  0  0  0  0
  -27.8033  -11.3109   18.8631 H   0  0  0  0  0  0
  -27.3627  -12.6268   17.8096 H   0  0  0  0  0  0
  -27.6702  -14.2555   19.5853 H   0  0  0  0  0  0
  -28.7489  -12.0289   21.3588 H   0  0  0  0  0  0
  -28.5036  -13.6838   21.8528 H   0  0  0  0  0  0
  -25.2750   -9.5655   22.4792 H   0  0  0  0  0  0
  -23.9991   -7.4594   22.7455 H   0  0  0  0  0  0
  -21.0808   -8.8821   19.8998 H   0  0  0  0  0  0
  -22.3682  -10.9715   19.6232 H   0  0  0  0  0  0
  -21.1989   -7.6112   23.9685 H   0  0  0  0  0  0
  -21.1485   -6.0491   25.9059 H   0  0  0  0  0  0
  -22.0618   -2.7569   23.2843 H   0  0  0  0  0  0
  -22.3900  -11.9924   22.4829 H   0  0  0  0  0  0
  -21.1007  -13.1352   22.2456 H   0  0  0  0  0  0
  -24.6638  -15.8414   20.5148 H   0  0  0  0  0  0
  -26.2969  -15.6275   20.1373 H   0  0  0  0  0  0
  -26.7154  -32.5478   23.1063 H   0  0  0  0  0  0
  -25.0052  -33.9629   25.0398 H   0  0  0  0  0  0
  -22.7006  -31.3130   21.4086 H   0  0  0  0  0  0
  -23.3699  -35.9688   23.3251 H   0  0  0  0  0  0
  -24.3613  -36.8957   22.2063 H   0  0  0  0  0  0
  -23.7270  -37.6509   23.6676 H   0  0  0  0  0  0
  -26.0469  -31.5838   20.5847 H   0  0  0  0  0  0
  -26.8286  -30.8809   21.9676 H   0  0  0  0  0  0
  -28.1018  -29.0636   21.1720 H   0  0  0  0  0  0
  -26.0314  -25.9491   19.0204 H   0  0  0  0  0  0
  -23.9813  -27.2914   19.0190 H   0  0  0  0  0  0
  -23.7260  -30.6030   19.4001 H   0  0  0  0  0  0
  -22.7334  -29.2510   19.8593 H   0  0  0  0  0  0
  -25.1270  -36.1883   25.0802 H   0  0  0  0  0  0
  -21.0006  -28.3234   24.1400 H   0  0  0  0  0  0
  -20.5594  -26.2262   23.3589 H   0  0  0  0  0  0
  -21.6630  -26.7400   22.1253 H   0  0  0  0  0  0
  -19.6884  -25.6277   21.1229 H   0  0  0  0  0  0
  -19.6693  -27.3166   20.6697 H   0  0  0  0  0  0
  -17.4190  -26.6621   21.4038 H   0  0  0  0  0  0
  -18.0379  -26.0070   22.9032 H   0  0  0  0  0  0
  -19.7927  -30.7281   24.2224 H   0  0  0  0  0  0
  -17.5013  -31.6262   24.5166 H   0  0  0  0  0  0
  -15.5351  -30.2995   23.7668 H   0  0  0  0  0  0
  -15.8660  -28.0887   22.6974 H   0  0  0  0  0  0
  -24.5962  -30.6931   25.7769 H   0  0  0  0  0  0
  -24.9017  -32.2773   26.4898 H   0  0  0  0  0  0
  -25.8220  -30.8772   27.0111 H   0  0  0  0  0  0
  -26.2872  -29.6702   24.1074 H   0  0  0  0  0  0
  -27.4086  -29.7188   25.4471 H   0  0  0  0  0  0
  -27.8729  -30.4212   23.9159 H   0  0  0  0  0  0
  -27.2584  -33.3501   26.2088 H   0  0  0  0  0  0
  -28.3929  -32.6821   25.0397 H   0  0  0  0  0  0
  -28.0610  -31.8307   26.5405 H   0  0  0  0  0  0
  -28.2555  -38.0143   24.7528 H   0  0  0  0  0  0
  -28.1105  -36.2662   24.6236 H   0  0  0  0  0  0
  -27.2317  -37.1448   25.8868 H   0  0  0  0  0  0
  -20.9202  -29.8774   21.6950 H   0  0  0  0  0  0
  -26.0112  -38.2810   24.1417 H   0  0  0  0  0  0
  -29.4230  -18.4861   16.9957 H   0  0  0  0  0  0
  -29.4722  -20.5091   18.2755 H   0  0  0  0  0  0
  -29.9730  -18.2087   21.9147 H   0  0  0  0  0  0
  -31.3022  -24.3279   23.1308 H   0  0  0  0  0  0
  -32.0403  -22.7407   23.6987 H   0  0  0  0  0  0
  -29.6732  -25.1197   21.9082 H   0  0  0  0  0  0
  -30.1845  -20.5873   22.9774 H   0  0  0  0  0  0
  -31.5781  -20.6862   21.8682 H   0  0  0  0  0  0
  -30.5017  -15.4560   17.6201 H   0  0  0  0  0  0
  -29.1802  -16.2426   16.7553 H   0  0  0  0  0  0
  -28.8136  -15.2543   18.1370 H   0  0  0  0  0  0
  -27.2108  -24.9173   20.7791 H   0  0  0  0  0  0
  -28.1552  -24.6839   19.3242 H   0  0  0  0  0  0
  -29.0100  -15.4859   21.2280 H   0  0  0  0  0  0
  1 25  1  0  0  0
  1 30  2  0  0  0
  1 86  1  0  0  0
  2  3  1  0  0  0
  2 25  1  0  0  0
  2 88  1  0  0  0
  2 89  1  0  0  0
  3  4  1  0  0  0
  3 90  1  0  0  0
  3 91  1  0  0  0
  4  5  1  0  0  0
  4 92  1  0  0  0
  4 93  1  0  0  0
  5  6  1  0  0  0
  5 26  1  0  0  0
  5 94  1  0  0  0
  6 25  1  0  0  0
  6 95  1  0  0  0
  6 96  1  0  0  0
  7  8  2  0  0  0
  7 26  1  0  0  0
  7 29  1  0  0  0
  8  9  1  0  0  0
  8 22  1  0  0  0
  9 10  1  0  0  0
  9 27  2  0  0  0
 10 11  2  0  0  0
 10 15  1  0  0  0
 11 12  1  0  0  0
 11 97  1  0  0  0
 12 13  2  0  0  0
 12 98  1  0  0  0
 13 14  1  0  0  0
 13 31  1  0  0  0
 14 15  2  0  0  0
 14 99  1  0  0  0
 15100  1  0  0  0
 16 17  2  0  0  0
 16 21  1  0  0  0
 16 31  1  0  0  0
 17 18  1  0  0  0
 17101  1  0  0  0
 18 19  2  0  0  0
 18102  1  0  0  0
 19 20  1  0  0  0
 19 24  1  0  0  0
 20 21  2  0  0  0
 20103  1  0  0  0
 21 23  1  0  0  0
 22 28  1  0  0  0
 22 32  2  0  0  0
 26 27  1  0  0  0
 28104  1  0  0  0
 28105  1  0  0  0
 29106  1  0  0  0
 29107  1  0  0  0
 33 34  1  0  0  0
 33 66  1  0  0  0
 33 70  2  0  0  0
 34 36  1  0  0  0
 34 59  1  0  0  0
 34108  1  0  0  0
 35 44  2  0  0  0
 35 45  1  0  0  0
 35 68  1  0  0  0
 36 56  1  0  0  0
 36109  1  0  0  0
 37 39  1  0  0  0
 37 47  1  0  0  0
 37 66  1  0  0  0
 37110  1  0  0  0
 38 43  2  0  0  0
 38 46  1  0  0  0
 38 47  1  0  0  0
 39 64  1  0  0  0
 39 67  2  0  0  0
 40 52  1  0  0  0
 40 53  2  0  0  0
 40 58  1  0  0  0
 41111  1  0  0  0
 41112  1  0  0  0
 41113  1  0  0  0
 41 48  1  0  0  0
 42 43  1  0  0  0
 42 66  1  0  0  0
 42114  1  0  0  0
 42115  1  0  0  0
 43 44  1  0  0  0
 44116  1  0  0  0
 45 46  2  0  0  0
 45117  1  0  0  0
 46118  1  0  0  0
 47119  1  0  0  0
 47120  1  0  0  0
 48 56  1  0  0  0
 48 65  1  0  0  0
 48121  1  0  0  0
 49 50  1  0  0  0
 49 53  1  0  0  0
 49 64  1  0  0  0
 49122  1  0  0  0
 50 51  1  0  0  0
 50123  1  0  0  0
 50124  1  0  0  0
 51 52  1  0  0  0
 51125  1  0  0  0
 51126  1  0  0  0
 52127  1  0  0  0
 52128  1  0  0  0
 53 54  1  0  0  0
 54 55  2  0  0  0
 54129  1  0  0  0
 55 57  1  0  0  0
 55130  1  0  0  0
 56 69  2  0  0  0
 57 58  2  0  0  0
 57131  1  0  0  0
 58132  1  0  0  0
 59 60  1  0  0  0
 59 61  1  0  0  0
 59 62  1  0  0  0
 60133  1  0  0  0
 60134  1  0  0  0
 60135  1  0  0  0
 61136  1  0  0  0
 61137  1  0  0  0
 61138  1  0  0  0
 62139  1  0  0  0
 62140  1  0  0  0
 62141  1  0  0  0
 63 65  1  0  0  0
 63142  1  0  0  0
 63143  1  0  0  0
 63144  1  0  0  0
 64145  1  0  0  0
 65146  1  0  0  0
 68 84  1  0  0  0
 71 72  2  0  0  0
 71 74  1  0  0  0
 71147  1  0  0  0
 72 75  1  0  0  0
 72148  1  0  0  0
 73 75  2  0  0  0
 73 76  1  0  0  0
 73149  1  0  0  0
 74 76  2  0  0  0
 74 83  1  0  0  0
 75 85  1  0  0  0
 76 86  1  0  0  0
 77 78  1  0  0  0
 77 79  1  0  0  0
 77 81  2  0  0  0
 78 80  2  0  0  0
 78 82  1  0  0  0
 79 85  1  0  0  0
 79 87  2  0  0  0
 80150  1  0  0  0
 80151  1  0  0  0
 81 84  1  0  0  0
 81152  1  0  0  0
 82 85  1  0  0  0
 82153  1  0  0  0
 82154  1  0  0  0
 83155  1  0  0  0
 83156  1  0  0  0
 83157  1  0  0  0
 84158  1  0  0  0
 84159  1  0  0  0
 86160  1  0  0  0
M  ISO  4   1 100  68 101  84 101  86 100
M  END
> <chiral flag>
0

> <version>
0

> <s_m_source_file>
/data/baiqing/PycharmProjects/Reinvent-master-3.2/result/LINK_invent/BTK/process_docking_weight1_custom_product_contain_oxygen_bond_distance_aromatic_linkinvent_7_9_3/rearranged_h_0078.sdf

> <i_m_source_file_index>
73

> <r_mmod_Potential_Energy-OPLS-2005>
172.87629699707

> <r_mmod_Stretch_Energy-OPLS-2005>
69.2163772583008

> <r_mmod_Bend_Energy-OPLS-2005>
168.746429443359

> <r_mmod_Torsional_Energy-OPLS-2005>
309.981964111328

> <r_mmod_Improper_Torsional_Energy-OPLS-2005>
6.08660268783569

> <r_mmod_Van_der_Waal_Energy-OPLS-2005>
153.805587768555

> <r_mmod_Electrostatic_Energy-OPLS-2005>
-359.741333007812

> <r_mmod_Solvation_Energy-OPLS-2005>
-214.185363769531

> <b_mmod_Minimization_Converged-OPLS-2005>
0

> <r_mmod_RMS_Derivative-OPLS-2005>
5.01156091690063

$$$$
74
                    3D
 Structure written by MMmdl.
152160  0  0  1  0            999 V2000
  -30.6156  -14.6536   20.4952 C   0  0  0  0  0  0
  -30.4398  -12.3994   19.4542 C   0  0  0  0  0  0
  -29.5082  -12.5043   18.2255 C   0  0  0  0  0  0
  -28.0311  -12.3415   18.6375 C   0  0  0  0  0  0
  -27.6524  -13.2158   19.8622 C   0  0  2  0  0  0
  -28.6975  -13.0776   20.9924 C   0  0  0  0  0  0
  -25.2560  -13.8167   20.5682 C   0  0  0  0  0  0
  -24.1830  -13.0436   20.9200 C   0  0  0  0  0  0
  -24.6394  -11.6905   20.8746 C   0  0  0  0  0  0
  -23.9061  -10.4290   21.0411 C   0  0  0  0  0  0
  -24.3614   -9.4205   21.9186 C   0  0  0  0  0  0
  -23.6291   -8.2240   22.0755 C   0  0  0  0  0  0
  -22.4274   -8.0278   21.3544 C   0  0  0  0  0  0
  -21.9908   -9.0251   20.4645 C   0  0  0  0  0  0
  -22.7236  -10.2131   20.3057 C   0  0  0  0  0  0
  -21.6850   -6.0735   22.5279 C   0  0  0  0  0  0
  -21.4014   -6.5639   23.8213 C   0  0  0  0  0  0
  -21.3659   -5.6792   24.9175 C   0  0  0  0  0  0
  -21.6045   -4.3055   24.7226 C   0  0  0  0  0  0
  -21.8819   -3.8146   23.4347 C   0  0  0  0  0  0
  -21.9194   -4.6963   22.3404 C   0  0  0  0  0  0
  -22.7852  -13.5231   21.1861 C   0  0  0  0  0  0
  -22.1661   -4.2148   21.0981 F   0  0  0  0  0  0
  -21.5629   -3.4538   25.7739 F   0  0  0  0  0  0
  -30.0113  -13.4240   20.4276 N   0  0  0  0  0  0
  -26.2983  -12.9343   20.3312 N   0  0  0  0  0  0
  -25.9322  -11.6500   20.5758 N   0  0  0  0  0  0
  -22.0492  -12.8221   22.0412 N   0  0  0  0  0  0
  -25.4275  -15.1886   20.4074 N   0  0  0  0  0  0
  -31.7839  -14.8080   20.1265 O   0  0  0  0  0  0
  -21.6639   -6.8876   21.4239 O   0  0  0  0  0  0
  -22.3541  -14.5541   20.6713 O   0  0  0  0  0  0
  -24.6265  -31.8599   23.2029 C   0  0  0  0  0  0
  -25.9109  -32.4782   23.8359 C   0  0  1  0  0  0
  -27.2225  -27.3158   20.1135 C   0  0  0  0  0  0
  -25.5929  -33.8582   24.2286 N   0  0  0  0  0  0
  -23.4203  -30.4849   21.5455 C   0  0  2  0  0  0
  -24.8659  -28.9416   20.1105 C   0  0  0  0  0  0
  -22.7478  -29.4629   22.4932 C   0  0  0  0  0  0
  -18.0290  -28.1384   22.8486 C   0  0  0  0  0  0
  -24.1490  -36.7288   23.2639 C   0  0  0  0  0  0
  -25.9627  -30.7894   21.3751 C   0  0  0  0  0  0
  -26.0361  -29.4174   20.7158 C   0  0  0  0  0  0
  -27.2172  -28.6164   20.7080 C   0  0  0  0  0  0
  -26.0272  -26.8969   19.4824 C   0  0  0  0  0  0
  -24.8638  -27.6868   19.4857 C   0  0  0  0  0  0
  -23.6350  -29.8228   20.1599 C   0  0  0  0  0  0
  -25.4115  -36.3085   24.0333 C   0  0  1  0  0  0
  -20.5891  -28.3685   23.1281 C   0  0  2  0  0  0
  -20.6782  -26.9410   22.5407 C   0  0  0  0  0  0
  -19.5758  -26.6385   21.5210 C   0  0  0  0  0  0
  -18.1937  -26.7927   22.1618 C   0  0  0  0  0  0
  -19.1543  -28.8851   23.2881 C   0  0  0  0  0  0
  -18.9467  -30.1454   23.8895 C   0  0  0  0  0  0
  -17.6468  -30.6589   24.0564 C   0  0  0  0  0  0
  -25.9049  -34.9454   23.5108 C   0  0  0  0  0  0
  -16.5359  -29.9088   23.6330 C   0  0  0  0  0  0
  -16.7277  -28.6504   23.0353 C   0  0  0  0  0  0
  -26.4493  -31.6591   25.0726 C   0  0  0  0  0  0
  -25.3731  -31.3731   26.1455 C   0  0  0  0  0  0
  -27.0338  -30.3019   24.6170 C   0  0  0  0  0  0
  -27.6055  -32.4325   25.7496 C   0  0  0  0  0  0
  -27.5579  -37.1805   24.8467 C   0  0  0  0  0  0
  -21.4190  -29.3043   22.3676 N   0  0  0  0  0  0
  -26.4292  -37.3781   23.9408 N   0  0  0  0  0  0
  -24.6886  -31.0612   22.0980 N   0  0  0  0  0  0
  -23.4204  -28.8163   23.3008 O   0  0  0  0  0  0
  -28.3368  -26.4590   20.1675 O   0  0  0  0  0  0
  -26.5616  -34.8920   22.4672 O   0  0  0  0  0  0
  -23.5426  -32.1394   23.7356 O   0  0  0  0  0  0
  -31.1414  -19.2958   20.3626 C   0  0  0  0  0  0
  -28.7974  -19.4122   20.8658 C   0  0  0  0  0  0
  -31.1064  -17.8692   20.4103 C   0  0  0  0  0  0
  -28.7623  -17.9814   20.9183 C   0  0  0  0  0  0
  -29.9985  -20.1192   20.5921 C   0  0  0  0  0  0
  -29.9111  -17.1637   20.7035 C   0  0  0  0  0  0
  -30.1614  -21.6605   20.6838 C   0  0  0  0  0  0
  -29.2454  -24.0396   20.4005 C   0  0  0  0  0  0
  -28.1005  -24.9989   19.9998 C   0  0  0  0  0  0
  -29.7914  -15.7045   20.8177 N   0  0  0  0  0  0
  -29.1217  -22.6518   20.3428 N   0  0  0  0  0  0
  -30.3576  -24.6811   20.8024 N   0  3  0  0  0  0
  -31.2697  -22.0904   21.0322 O   0  0  0  0  0  0
  -31.4797  -12.5300   19.1497 H   0  0  0  0  0  0
  -30.3818  -11.4054   19.9003 H   0  0  0  0  0  0
  -29.7738  -11.7481   17.4853 H   0  0  0  0  0  0
  -29.6489  -13.4705   17.7383 H   0  0  0  0  0  0
  -27.8693  -11.2888   18.8730 H   0  0  0  0  0  0
  -27.3764  -12.5670   17.7946 H   0  0  0  0  0  0
  -27.6679  -14.2495   19.5164 H   0  0  0  0  0  0
  -28.7121  -12.0572   21.3784 H   0  0  0  0  0  0
  -28.4418  -13.7123   21.8425 H   0  0  0  0  0  0
  -25.2758   -9.5681   22.4762 H   0  0  0  0  0  0
  -24.0001   -7.4630   22.7472 H   0  0  0  0  0  0
  -21.0841   -8.8768   19.8950 H   0  0  0  0  0  0
  -22.3693  -10.9671   19.6166 H   0  0  0  0  0  0
  -21.2004   -7.6147   23.9715 H   0  0  0  0  0  0
  -21.1482   -6.0523   25.9078 H   0  0  0  0  0  0
  -22.0599   -2.7608   23.2848 H   0  0  0  0  0  0
  -22.4104  -11.9875   22.4792 H   0  0  0  0  0  0
  -21.1109  -13.1245   22.2619 H   0  0  0  0  0  0
  -24.6557  -15.8394   20.5055 H   0  0  0  0  0  0
  -26.2618  -15.6196   20.0303 H   0  0  0  0  0  0
  -26.7170  -32.5445   23.1101 H   0  0  0  0  0  0
  -25.0095  -33.9736   25.0444 H   0  0  0  0  0  0
  -22.7145  -31.3060   21.4036 H   0  0  0  0  0  0
  -23.3757  -35.9613   23.3305 H   0  0  0  0  0  0
  -24.3579  -36.8899   22.2051 H   0  0  0  0  0  0
  -23.7239  -37.6491   23.6653 H   0  0  0  0  0  0
  -26.0974  -31.5540   20.6089 H   0  0  0  0  0  0
  -26.8421  -30.8350   22.0058 H   0  0  0  0  0  0
  -28.1137  -28.9767   21.1928 H   0  0  0  0  0  0
  -25.9568  -25.9416   18.9857 H   0  0  0  0  0  0
  -23.9673  -27.3174   19.0067 H   0  0  0  0  0  0
  -23.7564  -30.6009   19.4050 H   0  0  0  0  0  0
  -22.7541  -29.2546   19.8553 H   0  0  0  0  0  0
  -25.1302  -36.1936   25.0827 H   0  0  0  0  0  0
  -20.9984  -28.3250   24.1401 H   0  0  0  0  0  0
  -20.5684  -26.2293   23.3603 H   0  0  0  0  0  0
  -21.6651  -26.7446   22.1201 H   0  0  0  0  0  0
  -19.6921  -25.6297   21.1236 H   0  0  0  0  0  0
  -19.6695  -27.3197   20.6741 H   0  0  0  0  0  0
  -17.4209  -26.6673   21.4018 H   0  0  0  0  0  0
  -18.0335  -26.0076   22.9019 H   0  0  0  0  0  0
  -19.7946  -30.7271   24.2262 H   0  0  0  0  0  0
  -17.5027  -31.6269   24.5164 H   0  0  0  0  0  0
  -15.5360  -30.2995   23.7662 H   0  0  0  0  0  0
  -15.8673  -28.0827   22.7071 H   0  0  0  0  0  0
  -24.5912  -30.7068   25.7792 H   0  0  0  0  0  0
  -24.8916  -32.2900   26.4868 H   0  0  0  0  0  0
  -25.8066  -30.8927   27.0235 H   0  0  0  0  0  0
  -26.2909  -29.6772   24.1198 H   0  0  0  0  0  0
  -27.4053  -29.7272   25.4663 H   0  0  0  0  0  0
  -27.8770  -30.4321   23.9383 H   0  0  0  0  0  0
  -27.2668  -33.3628   26.2070 H   0  0  0  0  0  0
  -28.3871  -32.6877   25.0328 H   0  0  0  0  0  0
  -28.0712  -31.8449   26.5419 H   0  0  0  0  0  0
  -28.2609  -38.0092   24.7519 H   0  0  0  0  0  0
  -28.1072  -36.2630   24.6301 H   0  0  0  0  0  0
  -27.2299  -37.1458   25.8872 H   0  0  0  0  0  0
  -20.9360  -29.8773   21.6895 H   0  0  0  0  0  0
  -26.0174  -38.2856   24.1413 H   0  0  0  0  0  0
  -32.0950  -19.7692   20.1717 H   0  0  0  0  0  0
  -27.8898  -19.9597   21.0782 H   0  0  0  0  0  0
  -32.0272  -17.3295   20.2413 H   0  0  0  0  0  0
  -27.8178  -17.5086   21.1497 H   0  0  0  0  0  0
  -27.2244  -24.7097   20.5828 H   0  0  0  0  0  0
  -27.8697  -24.8013   18.9526 H   0  0  0  0  0  0
  -28.8755  -15.3880   21.0956 H   0  0  0  0  0  0
  -28.2181  -22.3455   20.0248 H   0  0  0  0  0  0
  -30.3599  -25.6912   20.8106 H   0  0  0  0  0  0
  -31.1829  -24.1675   21.0821 H   0  0  0  0  0  0
  1 25  1  0  0  0
  1 30  2  0  0  0
  1 80  1  0  0  0
  2  3  1  0  0  0
  2 25  1  0  0  0
  2 84  1  0  0  0
  2 85  1  0  0  0
  3  4  1  0  0  0
  3 86  1  0  0  0
  3 87  1  0  0  0
  4  5  1  0  0  0
  4 88  1  0  0  0
  4 89  1  0  0  0
  5  6  1  0  0  0
  5 26  1  0  0  0
  5 90  1  0  0  0
  6 25  1  0  0  0
  6 91  1  0  0  0
  6 92  1  0  0  0
  7  8  2  0  0  0
  7 26  1  0  0  0
  7 29  1  0  0  0
  8  9  1  0  0  0
  8 22  1  0  0  0
  9 10  1  0  0  0
  9 27  2  0  0  0
 10 11  2  0  0  0
 10 15  1  0  0  0
 11 12  1  0  0  0
 11 93  1  0  0  0
 12 13  2  0  0  0
 12 94  1  0  0  0
 13 14  1  0  0  0
 13 31  1  0  0  0
 14 15  2  0  0  0
 14 95  1  0  0  0
 15 96  1  0  0  0
 16 17  2  0  0  0
 16 21  1  0  0  0
 16 31  1  0  0  0
 17 18  1  0  0  0
 17 97  1  0  0  0
 18 19  2  0  0  0
 18 98  1  0  0  0
 19 20  1  0  0  0
 19 24  1  0  0  0
 20 21  2  0  0  0
 20 99  1  0  0  0
 21 23  1  0  0  0
 22 28  1  0  0  0
 22 32  2  0  0  0
 26 27  1  0  0  0
 28100  1  0  0  0
 28101  1  0  0  0
 29102  1  0  0  0
 29103  1  0  0  0
 33 34  1  0  0  0
 33 66  1  0  0  0
 33 70  2  0  0  0
 34 36  1  0  0  0
 34 59  1  0  0  0
 34104  1  0  0  0
 35 44  2  0  0  0
 35 45  1  0  0  0
 35 68  1  0  0  0
 36 56  1  0  0  0
 36105  1  0  0  0
 37 39  1  0  0  0
 37 47  1  0  0  0
 37 66  1  0  0  0
 37106  1  0  0  0
 38 43  2  0  0  0
 38 46  1  0  0  0
 38 47  1  0  0  0
 39 64  1  0  0  0
 39 67  2  0  0  0
 40 52  1  0  0  0
 40 53  2  0  0  0
 40 58  1  0  0  0
 41107  1  0  0  0
 41108  1  0  0  0
 41109  1  0  0  0
 41 48  1  0  0  0
 42 43  1  0  0  0
 42 66  1  0  0  0
 42110  1  0  0  0
 42111  1  0  0  0
 43 44  1  0  0  0
 44112  1  0  0  0
 45 46  2  0  0  0
 45113  1  0  0  0
 46114  1  0  0  0
 47115  1  0  0  0
 47116  1  0  0  0
 48 56  1  0  0  0
 48 65  1  0  0  0
 48117  1  0  0  0
 49 50  1  0  0  0
 49 53  1  0  0  0
 49 64  1  0  0  0
 49118  1  0  0  0
 50 51  1  0  0  0
 50119  1  0  0  0
 50120  1  0  0  0
 51 52  1  0  0  0
 51121  1  0  0  0
 51122  1  0  0  0
 52123  1  0  0  0
 52124  1  0  0  0
 53 54  1  0  0  0
 54 55  2  0  0  0
 54125  1  0  0  0
 55 57  1  0  0  0
 55126  1  0  0  0
 56 69  2  0  0  0
 57 58  2  0  0  0
 57127  1  0  0  0
 58128  1  0  0  0
 59 60  1  0  0  0
 59 61  1  0  0  0
 59 62  1  0  0  0
 60129  1  0  0  0
 60130  1  0  0  0
 60131  1  0  0  0
 61132  1  0  0  0
 61133  1  0  0  0
 61134  1  0  0  0
 62135  1  0  0  0
 62136  1  0  0  0
 62137  1  0  0  0
 63 65  1  0  0  0
 63138  1  0  0  0
 63139  1  0  0  0
 63140  1  0  0  0
 64141  1  0  0  0
 65142  1  0  0  0
 68 79  1  0  0  0
 71 73  2  0  0  0
 71 75  1  0  0  0
 71143  1  0  0  0
 72 74  1  0  0  0
 72 75  2  0  0  0
 72144  1  0  0  0
 73 76  1  0  0  0
 73145  1  0  0  0
 74 76  2  0  0  0
 74146  1  0  0  0
 75 77  1  0  0  0
 76 80  1  0  0  0
 77 81  1  0  0  0
 77 83  2  0  0  0
 78 79  1  0  0  0
 78 81  1  0  0  0
 78 82  2  0  0  0
 79147  1  0  0  0
 79148  1  0  0  0
 80149  1  0  0  0
 81150  1  0  0  0
 82151  1  0  0  0
 82152  1  0  0  0
M  CHG  1  82   1
M  ISO  4   1 100  68 101  79 101  80 100
M  END
> <chiral flag>
0

> <version>
0

> <s_m_source_file>
/data/baiqing/PycharmProjects/Reinvent-master-3.2/result/LINK_invent/BTK/process_docking_weight1_custom_product_contain_oxygen_bond_distance_aromatic_linkinvent_7_9_3/rearranged_h_0078.sdf

> <i_m_source_file_index>
74

> <r_mmod_Potential_Energy-OPLS-2005>
-182.17204284668

> <r_mmod_Stretch_Energy-OPLS-2005>
84.9363632202148

> <r_mmod_Bend_Energy-OPLS-2005>
144.954391479492

> <r_mmod_Torsional_Energy-OPLS-2005>
217.55891418457

> <r_mmod_Improper_Torsional_Energy-OPLS-2005>
5.11100387573242

> <r_mmod_Van_der_Waal_Energy-OPLS-2005>
156.665588378906

> <r_mmod_Electrostatic_Energy-OPLS-2005>
-353.999114990234

> <r_mmod_Solvation_Energy-OPLS-2005>
-489.502716064453

> <b_mmod_Minimization_Converged-OPLS-2005>
0

> <r_mmod_RMS_Derivative-OPLS-2005>
0.672048687934875

$$$$
75
                    3D
 Structure written by MMmdl.
162171  0  0  1  0            999 V2000
  -30.6765  -14.5690   20.5208 C   0  0  0  0  0  0
  -30.4287  -12.3447   19.4689 C   0  0  0  0  0  0
  -29.5139  -12.4960   18.2324 C   0  0  0  0  0  0
  -28.0318  -12.3641   18.6318 C   0  0  0  0  0  0
  -27.6594  -13.2238   19.8707 C   0  0  2  0  0  0
  -28.6984  -13.0616   21.0062 C   0  0  0  0  0  0
  -25.2553  -13.8199   20.5662 C   0  0  0  0  0  0
  -24.1820  -13.0457   20.9159 C   0  0  0  0  0  0
  -24.6401  -11.6931   20.8699 C   0  0  0  0  0  0
  -23.9078  -10.4307   21.0400 C   0  0  0  0  0  0
  -24.3621   -9.4223   21.9177 C   0  0  0  0  0  0
  -23.6285   -8.2252   22.0749 C   0  0  0  0  0  0
  -22.4252   -8.0287   21.3551 C   0  0  0  0  0  0
  -21.9903   -9.0264   20.4652 C   0  0  0  0  0  0
  -22.7246  -10.2133   20.3062 C   0  0  0  0  0  0
  -21.6847   -6.0731   22.5273 C   0  0  0  0  0  0
  -21.4022   -6.5636   23.8208 C   0  0  0  0  0  0
  -21.3658   -5.6784   24.9167 C   0  0  0  0  0  0
  -21.6042   -4.3050   24.7219 C   0  0  0  0  0  0
  -21.8815   -3.8142   23.4340 C   0  0  0  0  0  0
  -21.9184   -4.6965   22.3399 C   0  0  0  0  0  0
  -22.7833  -13.5241   21.1837 C   0  0  0  0  0  0
  -22.1646   -4.2170   21.0969 F   0  0  0  0  0  0
  -21.5637   -3.4534   25.7737 F   0  0  0  0  0  0
  -30.0257  -13.3672   20.4541 N   0  0  0  0  0  0
  -26.3007  -12.9403   20.3309 N   0  0  0  0  0  0
  -25.9330  -11.6553   20.5707 N   0  0  0  0  0  0
  -22.0482  -12.8223   22.0400 N   0  0  0  0  0  0
  -25.4305  -15.1927   20.4145 N   0  0  0  0  0  0
  -31.8187  -14.7122   20.0750 O   0  0  0  0  0  0
  -21.6636   -6.8868   21.4229 O   0  0  0  0  0  0
  -22.3513  -14.5540   20.6701 O   0  0  0  0  0  0
  -24.6211  -31.8607   23.2029 C   0  0  0  0  0  0
  -25.9064  -32.4795   23.8352 C   0  0  1  0  0  0
  -27.2331  -27.3564   20.1320 C   0  0  0  0  0  0
  -25.5879  -33.8595   24.2275 N   0  0  0  0  0  0
  -23.4144  -30.4820   21.5446 C   0  0  2  0  0  0
  -24.8630  -28.9391   20.1123 C   0  0  0  0  0  0
  -22.7448  -29.4614   22.4951 C   0  0  0  0  0  0
  -18.0283  -28.1375   22.8497 C   0  0  0  0  0  0
  -24.1481  -36.7315   23.2642 C   0  0  0  0  0  0
  -25.9489  -30.8071   21.3655 C   0  0  0  0  0  0
  -26.0272  -29.4355   20.7139 C   0  0  0  0  0  0
  -27.2139  -28.6553   20.7133 C   0  0  0  0  0  0
  -26.0528  -26.9024   19.5003 C   0  0  0  0  0  0
  -24.8765  -27.6773   19.4960 C   0  0  0  0  0  0
  -23.6269  -29.8117   20.1603 C   0  0  0  0  0  0
  -25.4101  -36.3095   24.0328 C   0  0  1  0  0  0
  -20.5878  -28.3673   23.1297 C   0  0  2  0  0  0
  -20.6767  -26.9397   22.5413 C   0  0  0  0  0  0
  -19.5737  -26.6379   21.5214 C   0  0  0  0  0  0
  -18.1925  -26.7917   22.1634 C   0  0  0  0  0  0
  -19.1531  -28.8839   23.2901 C   0  0  0  0  0  0
  -18.9461  -30.1442   23.8916 C   0  0  0  0  0  0
  -17.6461  -30.6584   24.0562 C   0  0  0  0  0  0
  -25.9036  -34.9467   23.5111 C   0  0  0  0  0  0
  -16.5350  -29.9082   23.6326 C   0  0  0  0  0  0
  -16.7273  -28.6493   23.0362 C   0  0  0  0  0  0
  -26.4466  -31.6605   25.0719 C   0  0  0  0  0  0
  -25.3723  -31.3768   26.1476 C   0  0  0  0  0  0
  -27.0288  -30.3033   24.6150 C   0  0  0  0  0  0
  -27.6033  -32.4343   25.7480 C   0  0  0  0  0  0
  -27.5571  -37.1808   24.8460 C   0  0  0  0  0  0
  -21.4167  -29.3030   22.3691 N   0  0  0  0  0  0
  -26.4283  -37.3778   23.9402 N   0  0  0  0  0  0
  -24.6803  -31.0655   22.0957 N   0  0  0  0  0  0
  -23.4197  -28.8165   23.3021 O   0  0  0  0  0  0
  -28.3751  -26.5564   20.2026 O   0  0  0  0  0  0
  -26.5617  -34.8918   22.4685 O   0  0  0  0  0  0
  -23.5386  -32.1378   23.7386 O   0  0  0  0  0  0
  -29.5193  -19.3252   18.7794 C   0  0  0  0  0  0
  -29.6997  -16.8957   18.8627 C   0  0  0  0  0  0
  -29.8423  -18.1966   20.9174 C   0  0  0  0  0  0
  -29.5313  -18.0782   18.1149 C   0  0  0  0  0  0
  -29.6624  -19.4227   20.1862 C   0  0  0  0  0  0
  -29.8731  -16.9205   20.2619 C   0  0  0  0  0  0
  -29.5475  -23.0358   21.2243 C   0  0  0  0  0  0
  -30.4456  -22.4570   22.1951 C   0  0  0  0  0  0
  -29.0862  -21.9135   20.3897 C   0  0  0  0  0  0
  -31.1706  -23.1231   23.1132 C   0  0  0  0  0  0
  -29.1975  -24.3612   21.1367 C   0  0  0  0  0  0
  -29.3056  -17.9498   16.6471 C   0  0  0  0  0  0
  -30.4946  -20.9654   22.0170 C   0  0  0  0  0  0
  -29.6868  -19.1112   15.7341 C   0  0  0  0  0  0
  -28.2170  -25.0980   20.1976 C   0  0  0  0  0  0
  -29.6851  -20.7420   20.8183 N   0  0  0  0  0  0
  -29.9675  -15.6496   20.9562 N   0  0  0  0  0  0
  -28.2712  -21.9979   19.4665 O   0  0  0  0  0  0
  -28.8709  -16.9186   16.1269 O   0  0  0  0  0  0
  -31.4794  -12.4287   19.1845 H   0  0  0  0  0  0
  -30.3199  -11.3493   19.9042 H   0  0  0  0  0  0
  -29.7652  -11.7425   17.4856 H   0  0  0  0  0  0
  -29.6892  -13.4628   17.7567 H   0  0  0  0  0  0
  -27.8361  -11.3116   18.8373 H   0  0  0  0  0  0
  -27.3928  -12.6280   17.7887 H   0  0  0  0  0  0
  -27.6889  -14.2634   19.5434 H   0  0  0  0  0  0
  -28.6848  -12.0421   21.3924 H   0  0  0  0  0  0
  -28.4552  -13.7004   21.8557 H   0  0  0  0  0  0
  -25.2774   -9.5711   22.4737 H   0  0  0  0  0  0
  -24.0020   -7.4641   22.7451 H   0  0  0  0  0  0
  -21.0835   -8.8775   19.8943 H   0  0  0  0  0  0
  -22.3704  -10.9657   19.6161 H   0  0  0  0  0  0
  -21.2019   -7.6149   23.9724 H   0  0  0  0  0  0
  -21.1484   -6.0515   25.9070 H   0  0  0  0  0  0
  -22.0597   -2.7614   23.2836 H   0  0  0  0  0  0
  -22.4084  -11.9898   22.4827 H   0  0  0  0  0  0
  -21.1106  -13.1258   22.2599 H   0  0  0  0  0  0
  -24.6822  -15.8584   20.5709 H   0  0  0  0  0  0
  -26.2932  -15.6297   20.1157 H   0  0  0  0  0  0
  -26.7142  -32.5483   23.1119 H   0  0  0  0  0  0
  -24.9982  -33.9739   25.0389 H   0  0  0  0  0  0
  -22.7065  -31.3007   21.4015 H   0  0  0  0  0  0
  -23.3724  -35.9669   23.3316 H   0  0  0  0  0  0
  -24.3578  -36.8928   22.2060 H   0  0  0  0  0  0
  -23.7266  -37.6528   23.6665 H   0  0  0  0  0  0
  -26.0701  -31.5687   20.5936 H   0  0  0  0  0  0
  -26.8328  -30.8619   21.9895 H   0  0  0  0  0  0
  -28.1074  -29.0297   21.1937 H   0  0  0  0  0  0
  -26.0192  -25.9377   19.0143 H   0  0  0  0  0  0
  -23.9851  -27.2908   19.0213 H   0  0  0  0  0  0
  -23.7384  -30.5846   19.3982 H   0  0  0  0  0  0
  -22.7485  -29.2334   19.8656 H   0  0  0  0  0  0
  -25.1283  -36.1948   25.0817 H   0  0  0  0  0  0
  -20.9987  -28.3246   24.1409 H   0  0  0  0  0  0
  -20.5672  -26.2272   23.3613 H   0  0  0  0  0  0
  -21.6641  -26.7424   22.1206 H   0  0  0  0  0  0
  -19.6898  -25.6292   21.1244 H   0  0  0  0  0  0
  -19.6669  -27.3187   20.6745 H   0  0  0  0  0  0
  -17.4186  -26.6665   21.4047 H   0  0  0  0  0  0
  -18.0326  -26.0062   22.9033 H   0  0  0  0  0  0
  -19.7938  -30.7249   24.2306 H   0  0  0  0  0  0
  -17.5018  -31.6270   24.5148 H   0  0  0  0  0  0
  -15.5354  -30.2993   23.7630 H   0  0  0  0  0  0
  -15.8674  -28.0808   22.7090 H   0  0  0  0  0  0
  -24.5773  -30.7273   25.7798 H   0  0  0  0  0  0
  -24.9078  -32.2970   26.5039 H   0  0  0  0  0  0
  -25.8037  -30.8795   27.0175 H   0  0  0  0  0  0
  -26.2838  -29.6812   24.1186 H   0  0  0  0  0  0
  -27.3994  -29.7279   25.4641 H   0  0  0  0  0  0
  -27.8704  -30.4317   23.9347 H   0  0  0  0  0  0
  -27.2631  -33.3631   26.2083 H   0  0  0  0  0  0
  -28.3823  -32.6938   25.0296 H   0  0  0  0  0  0
  -28.0724  -31.8466   26.5386 H   0  0  0  0  0  0
  -28.2596  -38.0097   24.7487 H   0  0  0  0  0  0
  -28.1058  -36.2631   24.6296 H   0  0  0  0  0  0
  -27.2298  -37.1478   25.8866 H   0  0  0  0  0  0
  -20.9336  -29.8746   21.6901 H   0  0  0  0  0  0
  -26.0170  -38.2853   24.1392 H   0  0  0  0  0  0
  -29.3977  -20.2241   18.1967 H   0  0  0  0  0  0
  -29.6816  -15.9481   18.3431 H   0  0  0  0  0  0
  -29.9559  -18.2333   21.9929 H   0  0  0  0  0  0
  -31.1359  -24.1965   23.2188 H   0  0  0  0  0  0
  -31.8342  -22.5924   23.7823 H   0  0  0  0  0  0
  -29.6226  -25.0297   21.8692 H   0  0  0  0  0  0
  -30.0658  -20.4619   22.8844 H   0  0  0  0  0  0
  -31.5220  -20.6266   21.8725 H   0  0  0  0  0  0
  -29.1051  -19.0496   14.8162 H   0  0  0  0  0  0
  -30.7421  -19.0425   15.4738 H   0  0  0  0  0  0
  -29.4940  -20.0849   16.1746 H   0  0  0  0  0  0
  -27.2229  -24.8102   20.5432 H   0  0  0  0  0  0
  -28.3283  -24.7212   19.1816 H   0  0  0  0  0  0
  -29.1830  -15.4306   21.5501 H   0  0  0  0  0  0
  1 25  1  0  0  0
  1 30  2  0  0  0
  1 87  1  0  0  0
  2  3  1  0  0  0
  2 25  1  0  0  0
  2 90  1  0  0  0
  2 91  1  0  0  0
  3  4  1  0  0  0
  3 92  1  0  0  0
  3 93  1  0  0  0
  4  5  1  0  0  0
  4 94  1  0  0  0
  4 95  1  0  0  0
  5  6  1  0  0  0
  5 26  1  0  0  0
  5 96  1  0  0  0
  6 25  1  0  0  0
  6 97  1  0  0  0
  6 98  1  0  0  0
  7  8  2  0  0  0
  7 26  1  0  0  0
  7 29  1  0  0  0
  8  9  1  0  0  0
  8 22  1  0  0  0
  9 10  1  0  0  0
  9 27  2  0  0  0
 10 11  2  0  0  0
 10 15  1  0  0  0
 11 12  1  0  0  0
 11 99  1  0  0  0
 12 13  2  0  0  0
 12100  1  0  0  0
 13 14  1  0  0  0
 13 31  1  0  0  0
 14 15  2  0  0  0
 14101  1  0  0  0
 15102  1  0  0  0
 16 17  2  0  0  0
 16 21  1  0  0  0
 16 31  1  0  0  0
 17 18  1  0  0  0
 17103  1  0  0  0
 18 19  2  0  0  0
 18104  1  0  0  0
 19 20  1  0  0  0
 19 24  1  0  0  0
 20 21  2  0  0  0
 20105  1  0  0  0
 21 23  1  0  0  0
 22 28  1  0  0  0
 22 32  2  0  0  0
 26 27  1  0  0  0
 28106  1  0  0  0
 28107  1  0  0  0
 29108  1  0  0  0
 29109  1  0  0  0
 33 34  1  0  0  0
 33 66  1  0  0  0
 33 70  2  0  0  0
 34 36  1  0  0  0
 34 59  1  0  0  0
 34110  1  0  0  0
 35 44  2  0  0  0
 35 45  1  0  0  0
 35 68  1  0  0  0
 36 56  1  0  0  0
 36111  1  0  0  0
 37 39  1  0  0  0
 37 47  1  0  0  0
 37 66  1  0  0  0
 37112  1  0  0  0
 38 43  2  0  0  0
 38 46  1  0  0  0
 38 47  1  0  0  0
 39 64  1  0  0  0
 39 67  2  0  0  0
 40 52  1  0  0  0
 40 53  2  0  0  0
 40 58  1  0  0  0
 41113  1  0  0  0
 41114  1  0  0  0
 41115  1  0  0  0
 41 48  1  0  0  0
 42 43  1  0  0  0
 42 66  1  0  0  0
 42116  1  0  0  0
 42117  1  0  0  0
 43 44  1  0  0  0
 44118  1  0  0  0
 45 46  2  0  0  0
 45119  1  0  0  0
 46120  1  0  0  0
 47121  1  0  0  0
 47122  1  0  0  0
 48 56  1  0  0  0
 48 65  1  0  0  0
 48123  1  0  0  0
 49 50  1  0  0  0
 49 53  1  0  0  0
 49 64  1  0  0  0
 49124  1  0  0  0
 50 51  1  0  0  0
 50125  1  0  0  0
 50126  1  0  0  0
 51 52  1  0  0  0
 51127  1  0  0  0
 51128  1  0  0  0
 52129  1  0  0  0
 52130  1  0  0  0
 53 54  1  0  0  0
 54 55  2  0  0  0
 54131  1  0  0  0
 55 57  1  0  0  0
 55132  1  0  0  0
 56 69  2  0  0  0
 57 58  2  0  0  0
 57133  1  0  0  0
 58134  1  0  0  0
 59 60  1  0  0  0
 59 61  1  0  0  0
 59 62  1  0  0  0
 60135  1  0  0  0
 60136  1  0  0  0
 60137  1  0  0  0
 61138  1  0  0  0
 61139  1  0  0  0
 61140  1  0  0  0
 62141  1  0  0  0
 62142  1  0  0  0
 62143  1  0  0  0
 63 65  1  0  0  0
 63144  1  0  0  0
 63145  1  0  0  0
 63146  1  0  0  0
 64147  1  0  0  0
 65148  1  0  0  0
 68 85  1  0  0  0
 71 74  2  0  0  0
 71 75  1  0  0  0
 71149  1  0  0  0
 72 74  1  0  0  0
 72 76  2  0  0  0
 72150  1  0  0  0
 73 75  2  0  0  0
 73 76  1  0  0  0
 73151  1  0  0  0
 74 82  1  0  0  0
 75 86  1  0  0  0
 76 87  1  0  0  0
 77 78  1  0  0  0
 77 79  1  0  0  0
 77 81  2  0  0  0
 78 80  2  0  0  0
 78 83  1  0  0  0
 79 86  1  0  0  0
 79 88  2  0  0  0
 80152  1  0  0  0
 80153  1  0  0  0
 81 85  1  0  0  0
 81154  1  0  0  0
 82 84  1  0  0  0
 82 89  2  0  0  0
 83 86  1  0  0  0
 83155  1  0  0  0
 83156  1  0  0  0
 84157  1  0  0  0
 84158  1  0  0  0
 84159  1  0  0  0
 85160  1  0  0  0
 85161  1  0  0  0
 87162  1  0  0  0
M  ISO  4   1 100  68 101  85 101  87 100
M  END
> <chiral flag>
0

> <version>
0

> <s_m_source_file>
/data/baiqing/PycharmProjects/Reinvent-master-3.2/result/LINK_invent/BTK/process_docking_weight1_custom_product_contain_oxygen_bond_distance_aromatic_linkinvent_7_9_3/rearranged_h_0078.sdf

> <i_m_source_file_index>
75

> <r_mmod_Potential_Energy-OPLS-2005>
145.255569458008

> <r_mmod_Stretch_Energy-OPLS-2005>
67.483154296875

> <r_mmod_Bend_Energy-OPLS-2005>
167.948776245117

> <r_mmod_Torsional_Energy-OPLS-2005>
321.725860595703

> <r_mmod_Improper_Torsional_Energy-OPLS-2005>
5.82562255859375

> <r_mmod_Van_der_Waal_Energy-OPLS-2005>
151.608413696289

> <r_mmod_Electrostatic_Energy-OPLS-2005>
-376.366851806641

> <r_mmod_Solvation_Energy-OPLS-2005>
-224.901977539062

> <b_mmod_Minimization_Converged-OPLS-2005>
0

> <r_mmod_RMS_Derivative-OPLS-2005>
3.10898947715759

$$$$
76
                    3D
 Structure written by MMmdl.
175184  0  0  1  0            999 V2000
  -30.8153  -14.3165   20.7541 C   0  0  0  0  0  0
  -30.4115  -12.3007   19.3889 C   0  0  0  0  0  0
  -29.4787  -12.5303   18.1873 C   0  0  0  0  0  0
  -28.0057  -12.3709   18.6013 C   0  0  0  0  0  0
  -27.6621  -13.1985   19.8631 C   0  0  2  0  0  0
  -28.6957  -12.9561   20.9821 C   0  0  0  0  0  0
  -25.2599  -13.8146   20.5613 C   0  0  0  0  0  0
  -24.1863  -13.0441   20.9176 C   0  0  0  0  0  0
  -24.6398  -11.6904   20.8741 C   0  0  0  0  0  0
  -23.9067  -10.4293   21.0422 C   0  0  0  0  0  0
  -24.3625   -9.4210   21.9195 C   0  0  0  0  0  0
  -23.6306   -8.2242   22.0760 C   0  0  0  0  0  0
  -22.4294   -8.0285   21.3546 C   0  0  0  0  0  0
  -21.9934   -9.0255   20.4648 C   0  0  0  0  0  0
  -22.7250  -10.2137   20.3060 C   0  0  0  0  0  0
  -21.6852   -6.0754   22.5289 C   0  0  0  0  0  0
  -21.4005   -6.5650   23.8227 C   0  0  0  0  0  0
  -21.3651   -5.6797   24.9183 C   0  0  0  0  0  0
  -21.6043   -4.3058   24.7225 C   0  0  0  0  0  0
  -21.8816   -3.8163   23.4342 C   0  0  0  0  0  0
  -21.9195   -4.6980   22.3406 C   0  0  0  0  0  0
  -22.7891  -13.5254   21.1846 C   0  0  0  0  0  0
  -22.1666   -4.2172   21.0978 F   0  0  0  0  0  0
  -21.5633   -3.4537   25.7731 F   0  0  0  0  0  0
  -30.0502  -13.2278   20.4734 N   0  0  0  0  0  0
  -26.3017  -12.9302   20.3272 N   0  0  0  0  0  0
  -25.9312  -11.6477   20.5723 N   0  0  0  0  0  0
  -22.0543  -12.8231   22.0397 N   0  0  0  0  0  0
  -25.4303  -15.1843   20.3900 N   0  0  0  0  0  0
  -31.7410  -14.6817   20.0213 O   0  0  0  0  0  0
  -21.6646   -6.8891   21.4247 O   0  0  0  0  0  0
  -22.3577  -14.5557   20.6694 O   0  0  0  0  0  0
  -24.6131  -31.8694   23.2122 C   0  0  0  0  0  0
  -25.9028  -32.4835   23.8412 C   0  0  1  0  0  0
  -27.2343  -27.4646   20.0902 C   0  0  0  0  0  0
  -25.5891  -33.8634   24.2333 N   0  0  0  0  0  0
  -23.4001  -30.4929   21.5524 C   0  0  2  0  0  0
  -24.8474  -28.9643   20.1129 C   0  0  0  0  0  0
  -22.7394  -29.4666   22.5001 C   0  0  0  0  0  0
  -18.0270  -28.1377   22.8502 C   0  0  0  0  0  0
  -24.1480  -36.7316   23.2631 C   0  0  0  0  0  0
  -25.9258  -30.8448   21.3606 C   0  0  0  0  0  0
  -26.0061  -29.4816   20.7076 C   0  0  0  0  0  0
  -27.2069  -28.7388   20.6934 C   0  0  0  0  0  0
  -26.0635  -26.9544   19.4906 C   0  0  0  0  0  0
  -24.8686  -27.6975   19.5030 C   0  0  0  0  0  0
  -23.6070  -29.8259   20.1665 C   0  0  0  0  0  0
  -25.4104  -36.3119   24.0334 C   0  0  1  0  0  0
  -20.5854  -28.3664   23.1329 C   0  0  2  0  0  0
  -20.6756  -26.9400   22.5425 C   0  0  0  0  0  0
  -19.5735  -26.6390   21.5216 C   0  0  0  0  0  0
  -18.1911  -26.7930   22.1626 C   0  0  0  0  0  0
  -19.1516  -28.8837   23.2914 C   0  0  0  0  0  0
  -18.9446  -30.1448   23.8916 C   0  0  0  0  0  0
  -17.6450  -30.6590   24.0577 C   0  0  0  0  0  0
  -25.9041  -34.9482   23.5128 C   0  0  0  0  0  0
  -16.5347  -29.9097   23.6331 C   0  0  0  0  0  0
  -16.7264  -28.6515   23.0355 C   0  0  0  0  0  0
  -26.4457  -31.6614   25.0734 C   0  0  0  0  0  0
  -25.3729  -31.3702   26.1487 C   0  0  0  0  0  0
  -27.0282  -30.3068   24.6079 C   0  0  0  0  0  0
  -27.6041  -32.4328   25.7485 C   0  0  0  0  0  0
  -27.5593  -37.1786   24.8443 C   0  0  0  0  0  0
  -21.4126  -29.3032   22.3737 N   0  0  0  0  0  0
  -26.4274  -37.3820   23.9439 N   0  0  0  0  0  0
  -24.6645  -31.0820   22.1007 N   0  0  0  0  0  0
  -23.4168  -28.8205   23.3038 O   0  0  0  0  0  0
  -28.3744  -26.7015   20.1081 O   0  0  0  0  0  0
  -26.5603  -34.8930   22.4690 O   0  0  0  0  0  0
  -23.5332  -32.1419   23.7540 O   0  0  0  0  0  0
  -30.1003  -18.4706   20.8737 C   0  0  0  0  0  0
  -30.2137  -19.8529   20.6334 C   0  0  0  0  0  0
  -27.9336  -20.1642   21.4050 C   0  0  0  0  0  0
  -28.9019  -17.9157   21.3718 C   0  0  0  0  0  0
  -27.8081  -18.7784   21.6437 C   0  0  0  0  0  0
  -29.1310  -20.7221   20.8953 C   0  0  0  0  0  0
  -28.8590  -24.3615   20.4824 C   0  0  0  0  0  0
  -29.7577  -24.0489   19.4065 C   0  0  0  0  0  0
  -28.6073  -23.1392   21.2267 C   0  0  0  0  0  0
  -30.2718  -24.9061   18.5070 C   0  0  0  0  0  0
  -28.7202  -17.5528   24.7819 C   0  0  0  0  0  0
  -28.2549  -25.5238   20.8031 C   0  0  0  0  0  0
  -28.4040  -16.2452   24.7362 C   0  0  0  0  0  0
  -29.1152  -15.2870   23.8502 C   0  0  0  0  0  0
  -30.0585  -22.5804   19.4555 C   0  0  0  0  0  0
  -26.4720  -18.2632   22.1533 C   0  0  0  0  0  0
  -27.2961  -15.6558   25.5943 C   0  0  0  0  0  0
  -32.0349  -14.6296   22.7818 C   0  0  0  0  0  0
  -28.8311  -16.3981   21.5466 C   0  0  0  0  0  0
  -29.8560  -15.7985   22.5754 C   0  0  2  0  0  0
  -29.2384  -22.1191   20.5837 N   0  0  0  0  0  0
  -30.7722  -14.7508   22.0348 N   0  0  0  0  0  0
  -27.9459  -23.0427   22.2677 O   0  0  0  0  0  0
  -29.1141  -14.0841   24.1325 O   0  0  0  0  0  0
  -31.4524  -12.4079   19.0797 H   0  0  0  0  0  0
  -30.3200  -11.2757   19.7497 H   0  0  0  0  0  0
  -29.7172  -11.8282   17.3872 H   0  0  0  0  0  0
  -29.6414  -13.5290   17.7781 H   0  0  0  0  0  0
  -27.8176  -11.3120   18.7842 H   0  0  0  0  0  0
  -27.3508  -12.6561   17.7762 H   0  0  0  0  0  0
  -27.7137  -14.2477   19.5750 H   0  0  0  0  0  0
  -28.6456  -11.9258   21.3350 H   0  0  0  0  0  0
  -28.4232  -13.5717   21.8289 H   0  0  0  0  0  0
  -25.2772   -9.5687   22.4765 H   0  0  0  0  0  0
  -24.0031   -7.4623   22.7455 H   0  0  0  0  0  0
  -21.0894   -8.8760   19.8922 H   0  0  0  0  0  0
  -22.3731  -10.9677   19.6162 H   0  0  0  0  0  0
  -21.1991   -7.6160   23.9730 H   0  0  0  0  0  0
  -21.1471   -6.0530   25.9089 H   0  0  0  0  0  0
  -22.0599   -2.7623   23.2836 H   0  0  0  0  0  0
  -22.4191  -11.9903   22.4787 H   0  0  0  0  0  0
  -21.1132  -13.1209   22.2544 H   0  0  0  0  0  0
  -24.6415  -15.8194   20.4438 H   0  0  0  0  0  0
  -26.2487  -15.6048   19.9711 H   0  0  0  0  0  0
  -26.7115  -32.5556   23.1199 H   0  0  0  0  0  0
  -25.0034  -33.9805   25.0472 H   0  0  0  0  0  0
  -22.6880  -31.3089   21.4145 H   0  0  0  0  0  0
  -23.3772  -35.9612   23.3228 H   0  0  0  0  0  0
  -24.3588  -36.9010   22.2059 H   0  0  0  0  0  0
  -23.7181  -37.6475   23.6698 H   0  0  0  0  0  0
  -26.0304  -31.6112   20.5912 H   0  0  0  0  0  0
  -26.8165  -30.9024   21.9747 H   0  0  0  0  0  0
  -28.1025  -29.1284   21.1569 H   0  0  0  0  0  0
  -26.0768  -25.9788   19.0254 H   0  0  0  0  0  0
  -23.9778  -27.2922   19.0447 H   0  0  0  0  0  0
  -23.7110  -30.6012   19.4068 H   0  0  0  0  0  0
  -22.7321  -29.2435   19.8728 H   0  0  0  0  0  0
  -25.1268  -36.1971   25.0822 H   0  0  0  0  0  0
  -20.9949  -28.3229   24.1452 H   0  0  0  0  0  0
  -20.5675  -26.2260   23.3609 H   0  0  0  0  0  0
  -21.6628  -26.7443   22.1212 H   0  0  0  0  0  0
  -19.6891  -25.6305   21.1235 H   0  0  0  0  0  0
  -19.6683  -27.3216   20.6764 H   0  0  0  0  0  0
  -17.4185  -26.6706   21.4019 H   0  0  0  0  0  0
  -18.0298  -26.0062   22.9007 H   0  0  0  0  0  0
  -19.7923  -30.7269   24.2287 H   0  0  0  0  0  0
  -17.5007  -31.6265   24.5178 H   0  0  0  0  0  0
  -15.5351  -30.3010   23.7633 H   0  0  0  0  0  0
  -15.8664  -28.0849   22.7047 H   0  0  0  0  0  0
  -24.5893  -30.7066   25.7818 H   0  0  0  0  0  0
  -24.8929  -32.2849   26.4971 H   0  0  0  0  0  0
  -25.8086  -30.8837   27.0220 H   0  0  0  0  0  0
  -26.2812  -29.6840   24.1143 H   0  0  0  0  0  0
  -27.4085  -29.7300   25.4517 H   0  0  0  0  0  0
  -27.8631  -30.4419   23.9200 H   0  0  0  0  0  0
  -27.2682  -33.3641   26.2056 H   0  0  0  0  0  0
  -28.3839  -32.6863   25.0292 H   0  0  0  0  0  0
  -28.0707  -31.8446   26.5392 H   0  0  0  0  0  0
  -28.2533  -38.0165   24.7637 H   0  0  0  0  0  0
  -28.1169  -36.2705   24.6086 H   0  0  0  0  0  0
  -27.2332  -37.1222   25.8844 H   0  0  0  0  0  0
  -20.9276  -29.8764   21.6980 H   0  0  0  0  0  0
  -26.0152  -38.2870   24.1551 H   0  0  0  0  0  0
  -30.9438  -17.8286   20.6565 H   0  0  0  0  0  0
  -31.1475  -20.2321   20.2430 H   0  0  0  0  0  0
  -27.0757  -20.7967   21.5888 H   0  0  0  0  0  0
  -30.0339  -25.9592   18.5112 H   0  0  0  0  0  0
  -30.9525  -24.5599   17.7423 H   0  0  0  0  0  0
  -29.5030  -17.9952   24.1860 H   0  0  0  0  0  0
  -28.1824  -18.2234   25.4358 H   0  0  0  0  0  0
  -27.5782  -25.6111   21.6447 H   0  0  0  0  0  0
  -31.1221  -22.4190   19.6327 H   0  0  0  0  0  0
  -29.7630  -22.0880   18.5283 H   0  0  0  0  0  0
  -25.8416  -19.0788   22.5082 H   0  0  0  0  0  0
  -26.5882  -17.5691   22.9828 H   0  0  0  0  0  0
  -25.9367  -17.7606   21.3503 H   0  0  0  0  0  0
  -26.7002  -16.4398   26.0633 H   0  0  0  0  0  0
  -27.7171  -15.0301   26.3829 H   0  0  0  0  0  0
  -26.6258  -15.0416   24.9905 H   0  0  0  0  0  0
  -31.8874  -14.7229   23.8578 H   0  0  0  0  0  0
  -32.7382  -15.4044   22.4735 H   0  0  0  0  0  0
  -32.5079  -13.6606   22.6105 H   0  0  0  0  0  0
  -28.9534  -16.0198   20.5353 H   0  0  0  0  0  0
  -27.8201  -16.0823   21.8000 H   0  0  0  0  0  0
  -30.5249  -16.6021   22.8818 H   0  0  0  0  0  0
  1 25  1  0  0  0
  1 30  2  0  0  0
  1 92  1  0  0  0
  2  3  1  0  0  0
  2 25  1  0  0  0
  2 95  1  0  0  0
  2 96  1  0  0  0
  3  4  1  0  0  0
  3 97  1  0  0  0
  3 98  1  0  0  0
  4  5  1  0  0  0
  4 99  1  0  0  0
  4100  1  0  0  0
  5  6  1  0  0  0
  5 26  1  0  0  0
  5101  1  0  0  0
  6 25  1  0  0  0
  6102  1  0  0  0
  6103  1  0  0  0
  7  8  2  0  0  0
  7 26  1  0  0  0
  7 29  1  0  0  0
  8  9  1  0  0  0
  8 22  1  0  0  0
  9 10  1  0  0  0
  9 27  2  0  0  0
 10 11  2  0  0  0
 10 15  1  0  0  0
 11 12  1  0  0  0
 11104  1  0  0  0
 12 13  2  0  0  0
 12105  1  0  0  0
 13 14  1  0  0  0
 13 31  1  0  0  0
 14 15  2  0  0  0
 14106  1  0  0  0
 15107  1  0  0  0
 16 17  2  0  0  0
 16 21  1  0  0  0
 16 31  1  0  0  0
 17 18  1  0  0  0
 17108  1  0  0  0
 18 19  2  0  0  0
 18109  1  0  0  0
 19 20  1  0  0  0
 19 24  1  0  0  0
 20 21  2  0  0  0
 20110  1  0  0  0
 21 23  1  0  0  0
 22 28  1  0  0  0
 22 32  2  0  0  0
 26 27  1  0  0  0
 28111  1  0  0  0
 28112  1  0  0  0
 29113  1  0  0  0
 29114  1  0  0  0
 33 34  1  0  0  0
 33 66  1  0  0  0
 33 70  2  0  0  0
 34 36  1  0  0  0
 34 59  1  0  0  0
 34115  1  0  0  0
 35 44  2  0  0  0
 35 45  1  0  0  0
 35 68  1  0  0  0
 36 56  1  0  0  0
 36116  1  0  0  0
 37 39  1  0  0  0
 37 47  1  0  0  0
 37 66  1  0  0  0
 37117  1  0  0  0
 38 43  2  0  0  0
 38 46  1  0  0  0
 38 47  1  0  0  0
 39 64  1  0  0  0
 39 67  2  0  0  0
 40 52  1  0  0  0
 40 53  2  0  0  0
 40 58  1  0  0  0
 41118  1  0  0  0
 41119  1  0  0  0
 41120  1  0  0  0
 41 48  1  0  0  0
 42 43  1  0  0  0
 42 66  1  0  0  0
 42121  1  0  0  0
 42122  1  0  0  0
 43 44  1  0  0  0
 44123  1  0  0  0
 45 46  2  0  0  0
 45124  1  0  0  0
 46125  1  0  0  0
 47126  1  0  0  0
 47127  1  0  0  0
 48 56  1  0  0  0
 48 65  1  0  0  0
 48128  1  0  0  0
 49 50  1  0  0  0
 49 53  1  0  0  0
 49 64  1  0  0  0
 49129  1  0  0  0
 50 51  1  0  0  0
 50130  1  0  0  0
 50131  1  0  0  0
 51 52  1  0  0  0
 51132  1  0  0  0
 51133  1  0  0  0
 52134  1  0  0  0
 52135  1  0  0  0
 53 54  1  0  0  0
 54 55  2  0  0  0
 54136  1  0  0  0
 55 57  1  0  0  0
 55137  1  0  0  0
 56 69  2  0  0  0
 57 58  2  0  0  0
 57138  1  0  0  0
 58139  1  0  0  0
 59 60  1  0  0  0
 59 61  1  0  0  0
 59 62  1  0  0  0
 60140  1  0  0  0
 60141  1  0  0  0
 60142  1  0  0  0
 61143  1  0  0  0
 61144  1  0  0  0
 61145  1  0  0  0
 62146  1  0  0  0
 62147  1  0  0  0
 62148  1  0  0  0
 63 65  1  0  0  0
 63149  1  0  0  0
 63150  1  0  0  0
 63151  1  0  0  0
 64152  1  0  0  0
 65153  1  0  0  0
 68 82  1  0  0  0
 71 72  2  0  0  0
 71 74  1  0  0  0
 71154  1  0  0  0
 72 76  1  0  0  0
 72155  1  0  0  0
 73 75  1  0  0  0
 73 76  2  0  0  0
 73156  1  0  0  0
 74 75  2  0  0  0
 74 89  1  0  0  0
 75 86  1  0  0  0
 76 91  1  0  0  0
 77 78  1  0  0  0
 77 79  1  0  0  0
 77 82  2  0  0  0
 78 80  2  0  0  0
 78 85  1  0  0  0
 79 91  1  0  0  0
 79 93  2  0  0  0
 80157  1  0  0  0
 80158  1  0  0  0
 81 83  2  0  0  0
 81159  1  0  0  0
 81160  1  0  0  0
 82161  1  0  0  0
 83 84  1  0  0  0
 83 87  1  0  0  0
 84 90  1  0  0  0
 84 94  2  0  0  0
 85 91  1  0  0  0
 85162  1  0  0  0
 85163  1  0  0  0
 86164  1  0  0  0
 86165  1  0  0  0
 86166  1  0  0  0
 87167  1  0  0  0
 87168  1  0  0  0
 87169  1  0  0  0
 88 92  1  0  0  0
 88170  1  0  0  0
 88171  1  0  0  0
 88172  1  0  0  0
 89173  1  0  0  0
 89174  1  0  0  0
 89 90  1  0  0  0
 90 92  1  0  0  0
 90175  1  0  0  0
M  ISO  4   1 100  68 101  82 101  92 100
M  END
> <chiral flag>
0

> <version>
0

> <s_m_source_file>
/data/baiqing/PycharmProjects/Reinvent-master-3.2/result/LINK_invent/BTK/process_docking_weight1_custom_product_contain_oxygen_bond_distance_aromatic_linkinvent_7_9_3/rearranged_h_0078.sdf

> <i_m_source_file_index>
76

> <r_mmod_Potential_Energy-OPLS-2005>
234.769195556641

> <r_mmod_Stretch_Energy-OPLS-2005>
44.2169380187988

> <r_mmod_Bend_Energy-OPLS-2005>
159.999572753906

> <r_mmod_Torsional_Energy-OPLS-2005>
341.315246582031

> <r_mmod_Improper_Torsional_Energy-OPLS-2005>
12.1895551681519

> <r_mmod_Van_der_Waal_Energy-OPLS-2005>
160.461074829102

> <r_mmod_Electrostatic_Energy-OPLS-2005>
-299.894805908203

> <r_mmod_Solvation_Energy-OPLS-2005>
-192.836883544922

> <b_mmod_Minimization_Converged-OPLS-2005>
0

> <r_mmod_RMS_Derivative-OPLS-2005>
1.60855865478516

$$$$
77
                    3D
 Structure written by MMmdl.
151160  0  0  1  0            999 V2000
  -30.6965  -14.8123   20.4857 C   0  0  0  0  0  0
  -30.4088  -12.5306   19.4696 C   0  0  0  0  0  0
  -29.4940  -12.5010   18.2321 C   0  0  0  0  0  0
  -28.0338  -12.2930   18.6655 C   0  0  0  0  0  0
  -27.6228  -13.2311   19.8291 C   0  0  2  0  0  0
  -28.6738  -13.2899   20.9597 C   0  0  0  0  0  0
  -25.2493  -13.8200   20.5730 C   0  0  0  0  0  0
  -24.1786  -13.0447   20.9246 C   0  0  0  0  0  0
  -24.6373  -11.6920   20.8785 C   0  0  0  0  0  0
  -23.9058  -10.4295   21.0429 C   0  0  0  0  0  0
  -24.3614   -9.4201   21.9194 C   0  0  0  0  0  0
  -23.6288   -8.2237   22.0756 C   0  0  0  0  0  0
  -22.4270   -8.0283   21.3547 C   0  0  0  0  0  0
  -21.9911   -9.0259   20.4647 C   0  0  0  0  0  0
  -22.7238  -10.2138   20.3064 C   0  0  0  0  0  0
  -21.6848   -6.0737   22.5276 C   0  0  0  0  0  0
  -21.4009   -6.5639   23.8209 C   0  0  0  0  0  0
  -21.3658   -5.6791   24.9173 C   0  0  0  0  0  0
  -21.6046   -4.3055   24.7223 C   0  0  0  0  0  0
  -21.8820   -3.8148   23.4342 C   0  0  0  0  0  0
  -21.9191   -4.6966   22.3398 C   0  0  0  0  0  0
  -22.7807  -13.5230   21.1877 C   0  0  0  0  0  0
  -22.1661   -4.2151   21.0976 F   0  0  0  0  0  0
  -21.5629   -3.4539   25.7735 F   0  0  0  0  0  0
  -29.9505  -13.6522   20.3365 N   0  0  0  0  0  0
  -26.2869  -12.9377   20.3267 N   0  0  0  0  0  0
  -25.9297  -11.6531   20.5784 N   0  0  0  0  0  0
  -22.0445  -12.8225   22.0428 N   0  0  0  0  0  0
  -25.4258  -15.1917   20.4131 N   0  0  0  0  0  0
  -31.8979  -14.7248   20.2188 O   0  0  0  0  0  0
  -21.6635   -6.8879   21.4238 O   0  0  0  0  0  0
  -22.3497  -14.5530   20.6708 O   0  0  0  0  0  0
  -24.6359  -31.8527   23.1957 C   0  0  0  0  0  0
  -25.9164  -32.4736   23.8317 C   0  0  1  0  0  0
  -27.2020  -27.2108   20.1316 C   0  0  0  0  0  0
  -25.5943  -33.8540   24.2235 N   0  0  0  0  0  0
  -23.4342  -30.4771   21.5410 C   0  0  2  0  0  0
  -24.8793  -28.9238   20.1064 C   0  0  0  0  0  0
  -22.7520  -29.4596   22.4885 C   0  0  0  0  0  0
  -18.0292  -28.1396   22.8472 C   0  0  0  0  0  0
  -24.1493  -36.7275   23.2643 C   0  0  0  0  0  0
  -25.9856  -30.7491   21.3842 C   0  0  0  0  0  0
  -26.0551  -29.3687   20.7243 C   0  0  0  0  0  0
  -27.2198  -28.5250   20.7273 C   0  0  0  0  0  0
  -26.0057  -26.8604   19.4640 C   0  0  0  0  0  0
  -24.8632  -27.6801   19.4631 C   0  0  0  0  0  0
  -23.6545  -29.8170   20.1561 C   0  0  0  0  0  0
  -25.4122  -36.3054   24.0318 C   0  0  1  0  0  0
  -20.5900  -28.3714   23.1247 C   0  0  2  0  0  0
  -20.6783  -26.9429   22.5403 C   0  0  0  0  0  0
  -19.5762  -26.6390   21.5205 C   0  0  0  0  0  0
  -18.1939  -26.7935   22.1616 C   0  0  0  0  0  0
  -19.1547  -28.8868   23.2854 C   0  0  0  0  0  0
  -18.9474  -30.1466   23.8879 C   0  0  0  0  0  0
  -17.6473  -30.6595   24.0560 C   0  0  0  0  0  0
  -25.9073  -34.9426   23.5082 C   0  0  0  0  0  0
  -16.5361  -29.9094   23.6333 C   0  0  0  0  0  0
  -16.7279  -28.6515   23.0347 C   0  0  0  0  0  0
  -26.4522  -31.6568   25.0718 C   0  0  0  0  0  0
  -25.3730  -31.3697   26.1418 C   0  0  0  0  0  0
  -27.0400  -30.2986   24.6230 C   0  0  0  0  0  0
  -27.6061  -32.4324   25.7502 C   0  0  0  0  0  0
  -27.5575  -37.1793   24.8465 C   0  0  0  0  0  0
  -21.4223  -29.3054   22.3624 N   0  0  0  0  0  0
  -26.4287  -37.3759   23.9406 N   0  0  0  0  0  0
  -24.7049  -31.0455   22.0958 N   0  0  0  0  0  0
  -23.4195  -28.8127   23.2998 O   0  0  0  0  0  0
  -28.2516  -26.2482   20.2153 O   0  0  0  0  0  0
  -26.5656  -34.8905   22.4660 O   0  0  0  0  0  0
  -23.5495  -32.1372   23.7219 O   0  0  0  0  0  0
  -31.0454  -19.6877   21.8264 C   0  0  0  0  0  0
  -30.3894  -20.8981   21.4626 C   0  0  0  0  0  0
  -28.7663  -19.6140   20.1820 C   0  0  0  0  0  0
  -29.4405  -18.3790   20.5654 C   0  0  0  0  0  0
  -30.5563  -18.4499   21.3583 C   0  0  0  0  0  0
  -29.2373  -20.9315   20.6214 C   0  0  0  0  0  0
  -29.2138  -16.8873   20.2317 C   0  0  0  0  0  0
  -28.8941  -23.5896   20.4667 C   0  0  0  0  0  0
  -31.0996  -17.0396   21.5604 C   0  0  0  0  0  0
  -27.9120  -24.7774   19.9739 C   0  0  0  0  0  0
  -30.2084  -16.0990   20.8033 N   0  0  0  0  0  0
  -28.5769  -22.2355   20.2554 N   0  0  0  0  0  0
  -28.2893  -16.5138   19.5061 O   0  0  0  0  0  0
  -29.9387  -23.9229   21.0315 O   0  0  0  0  0  0
  -31.4452  -12.6312   19.1441 H   0  0  0  0  0  0
  -30.3639  -11.5845   20.0113 H   0  0  0  0  0  0
  -29.8004  -11.7046   17.5526 H   0  0  0  0  0  0
  -29.5886  -13.4353   17.6765 H   0  0  0  0  0  0
  -27.9292  -11.2531   18.9758 H   0  0  0  0  0  0
  -27.3632  -12.4265   17.8158 H   0  0  0  0  0  0
  -27.5703  -14.2142   19.3731 H   0  0  0  0  0  0
  -28.7503  -12.3337   21.4794 H   0  0  0  0  0  0
  -28.3894  -14.0325   21.7069 H   0  0  0  0  0  0
  -25.2756   -9.5676   22.4772 H   0  0  0  0  0  0
  -23.9995   -7.4626   22.7473 H   0  0  0  0  0  0
  -21.0843   -8.8782   19.8948 H   0  0  0  0  0  0
  -22.3702  -10.9683   19.6178 H   0  0  0  0  0  0
  -21.2001   -7.6149   23.9712 H   0  0  0  0  0  0
  -21.1476   -6.0521   25.9073 H   0  0  0  0  0  0
  -22.0601   -2.7609   23.2839 H   0  0  0  0  0  0
  -22.4072  -11.9895   22.4831 H   0  0  0  0  0  0
  -21.1053  -13.1236   22.2600 H   0  0  0  0  0  0
  -24.6647  -15.8535   20.5189 H   0  0  0  0  0  0
  -26.2822  -15.6192   20.0729 H   0  0  0  0  0  0
  -26.7224  -32.5364   23.1047 H   0  0  0  0  0  0
  -25.0054  -33.9676   25.0354 H   0  0  0  0  0  0
  -22.7325  -31.3008   21.3947 H   0  0  0  0  0  0
  -23.3752  -35.9610   23.3298 H   0  0  0  0  0  0
  -24.3582  -36.8922   22.2060 H   0  0  0  0  0  0
  -23.7249  -37.6467   23.6691 H   0  0  0  0  0  0
  -26.1314  -31.5050   20.6114 H   0  0  0  0  0  0
  -26.8610  -30.7996   22.0197 H   0  0  0  0  0  0
  -28.1141  -28.8550   21.2376 H   0  0  0  0  0  0
  -25.9073  -25.9178   18.9481 H   0  0  0  0  0  0
  -23.9666  -27.3379   18.9648 H   0  0  0  0  0  0
  -23.7847  -30.5961   19.4044 H   0  0  0  0  0  0
  -22.7700  -29.2572   19.8470 H   0  0  0  0  0  0
  -25.1307  -36.1896   25.0807 H   0  0  0  0  0  0
  -20.9990  -28.3310   24.1368 H   0  0  0  0  0  0
  -20.5689  -26.2330   23.3613 H   0  0  0  0  0  0
  -21.6652  -26.7455   22.1200 H   0  0  0  0  0  0
  -19.6937  -25.6298   21.1247 H   0  0  0  0  0  0
  -19.6707  -27.3182   20.6720 H   0  0  0  0  0  0
  -17.4211  -26.6663   21.4019 H   0  0  0  0  0  0
  -18.0352  -26.0083   22.9024 H   0  0  0  0  0  0
  -19.7951  -30.7278   24.2249 H   0  0  0  0  0  0
  -17.5037  -31.6274   24.5171 H   0  0  0  0  0  0
  -15.5365  -30.2999   23.7679 H   0  0  0  0  0  0
  -15.8674  -28.0841   22.7070 H   0  0  0  0  0  0
  -24.5942  -30.7011   25.7726 H   0  0  0  0  0  0
  -24.8868  -32.2845   26.4811 H   0  0  0  0  0  0
  -25.8041  -30.8897   27.0214 H   0  0  0  0  0  0
  -26.3004  -29.6694   24.1258 H   0  0  0  0  0  0
  -27.4092  -29.7285   25.4765 H   0  0  0  0  0  0
  -27.8874  -30.4267   23.9489 H   0  0  0  0  0  0
  -27.2673  -33.3655   26.2016 H   0  0  0  0  0  0
  -28.3905  -32.6830   25.0349 H   0  0  0  0  0  0
  -28.0687  -31.8482   26.5467 H   0  0  0  0  0  0
  -28.2574  -38.0108   24.7523 H   0  0  0  0  0  0
  -28.1094  -36.2633   24.6289 H   0  0  0  0  0  0
  -27.2290  -37.1435   25.8868 H   0  0  0  0  0  0
  -20.9410  -29.8787   21.6832 H   0  0  0  0  0  0
  -26.0159  -38.2829   24.1413 H   0  0  0  0  0  0
  -31.9229  -19.7209   22.4575 H   0  0  0  0  0  0
  -30.8046  -21.8139   21.8539 H   0  0  0  0  0  0
  -27.8966  -19.5462   19.5437 H   0  0  0  0  0  0
  -31.0992  -16.7853   22.6213 H   0  0  0  0  0  0
  -32.1321  -17.0104   21.2076 H   0  0  0  0  0  0
  -26.9527  -24.5597   20.4456 H   0  0  0  0  0  0
  -27.7722  -24.6386   18.9010 H   0  0  0  0  0  0
  -27.7092  -22.1235   19.7476 H   0  0  0  0  0  0
  1 25  1  0  0  0
  1 30  2  0  0  0
  1 81  1  0  0  0
  2  3  1  0  0  0
  2 25  1  0  0  0
  2 85  1  0  0  0
  2 86  1  0  0  0
  3  4  1  0  0  0
  3 87  1  0  0  0
  3 88  1  0  0  0
  4  5  1  0  0  0
  4 89  1  0  0  0
  4 90  1  0  0  0
  5  6  1  0  0  0
  5 26  1  0  0  0
  5 91  1  0  0  0
  6 25  1  0  0  0
  6 92  1  0  0  0
  6 93  1  0  0  0
  7  8  2  0  0  0
  7 26  1  0  0  0
  7 29  1  0  0  0
  8  9  1  0  0  0
  8 22  1  0  0  0
  9 10  1  0  0  0
  9 27  2  0  0  0
 10 11  2  0  0  0
 10 15  1  0  0  0
 11 12  1  0  0  0
 11 94  1  0  0  0
 12 13  2  0  0  0
 12 95  1  0  0  0
 13 14  1  0  0  0
 13 31  1  0  0  0
 14 15  2  0  0  0
 14 96  1  0  0  0
 15 97  1  0  0  0
 16 17  2  0  0  0
 16 21  1  0  0  0
 16 31  1  0  0  0
 17 18  1  0  0  0
 17 98  1  0  0  0
 18 19  2  0  0  0
 18 99  1  0  0  0
 19 20  1  0  0  0
 19 24  1  0  0  0
 20 21  2  0  0  0
 20100  1  0  0  0
 21 23  1  0  0  0
 22 28  1  0  0  0
 22 32  2  0  0  0
 26 27  1  0  0  0
 28101  1  0  0  0
 28102  1  0  0  0
 29103  1  0  0  0
 29104  1  0  0  0
 33 34  1  0  0  0
 33 66  1  0  0  0
 33 70  2  0  0  0
 34 36  1  0  0  0
 34 59  1  0  0  0
 34105  1  0  0  0
 35 44  2  0  0  0
 35 45  1  0  0  0
 35 68  1  0  0  0
 36 56  1  0  0  0
 36106  1  0  0  0
 37 39  1  0  0  0
 37 47  1  0  0  0
 37 66  1  0  0  0
 37107  1  0  0  0
 38 43  2  0  0  0
 38 46  1  0  0  0
 38 47  1  0  0  0
 39 64  1  0  0  0
 39 67  2  0  0  0
 40 52  1  0  0  0
 40 53  2  0  0  0
 40 58  1  0  0  0
 41108  1  0  0  0
 41109  1  0  0  0
 41110  1  0  0  0
 41 48  1  0  0  0
 42 43  1  0  0  0
 42 66  1  0  0  0
 42111  1  0  0  0
 42112  1  0  0  0
 43 44  1  0  0  0
 44113  1  0  0  0
 45 46  2  0  0  0
 45114  1  0  0  0
 46115  1  0  0  0
 47116  1  0  0  0
 47117  1  0  0  0
 48 56  1  0  0  0
 48 65  1  0  0  0
 48118  1  0  0  0
 49 50  1  0  0  0
 49 53  1  0  0  0
 49 64  1  0  0  0
 49119  1  0  0  0
 50 51  1  0  0  0
 50120  1  0  0  0
 50121  1  0  0  0
 51 52  1  0  0  0
 51122  1  0  0  0
 51123  1  0  0  0
 52124  1  0  0  0
 52125  1  0  0  0
 53 54  1  0  0  0
 54 55  2  0  0  0
 54126  1  0  0  0
 55 57  1  0  0  0
 55127  1  0  0  0
 56 69  2  0  0  0
 57 58  2  0  0  0
 57128  1  0  0  0
 58129  1  0  0  0
 59 60  1  0  0  0
 59 61  1  0  0  0
 59 62  1  0  0  0
 60130  1  0  0  0
 60131  1  0  0  0
 60132  1  0  0  0
 61133  1  0  0  0
 61134  1  0  0  0
 61135  1  0  0  0
 62136  1  0  0  0
 62137  1  0  0  0
 62138  1  0  0  0
 63 65  1  0  0  0
 63139  1  0  0  0
 63140  1  0  0  0
 63141  1  0  0  0
 64142  1  0  0  0
 65143  1  0  0  0
 68 80  1  0  0  0
 71 72  2  0  0  0
 71 75  1  0  0  0
 71144  1  0  0  0
 72 76  1  0  0  0
 72145  1  0  0  0
 73 74  1  0  0  0
 73 76  2  0  0  0
 73146  1  0  0  0
 74 75  2  0  0  0
 74 77  1  0  0  0
 75 79  1  0  0  0
 76 82  1  0  0  0
 77 81  1  0  0  0
 77 83  2  0  0  0
 78 80  1  0  0  0
 78 82  1  0  0  0
 78 84  2  0  0  0
 79 81  1  0  0  0
 79147  1  0  0  0
 79148  1  0  0  0
 80149  1  0  0  0
 80150  1  0  0  0
 82151  1  0  0  0
M  ISO  4   1 100  68 101  80 101  81 100
M  END
> <chiral flag>
0

> <version>
0

> <s_m_source_file>
/data/baiqing/PycharmProjects/Reinvent-master-3.2/result/LINK_invent/BTK/process_docking_weight1_custom_product_contain_oxygen_bond_distance_aromatic_linkinvent_7_9_3/rearranged_h_0078.sdf

> <i_m_source_file_index>
77

> <r_mmod_Potential_Energy-OPLS-2005>
357.255096435547

> <r_mmod_Stretch_Energy-OPLS-2005>
155.382781982422

> <r_mmod_Bend_Energy-OPLS-2005>
267.41845703125

> <r_mmod_Torsional_Energy-OPLS-2005>
265.310821533203

> <r_mmod_Improper_Torsional_Energy-OPLS-2005>
3.87078261375427

> <r_mmod_Van_der_Waal_Energy-OPLS-2005>
139.907028198242

> <r_mmod_Electrostatic_Energy-OPLS-2005>
-385.559326171875

> <r_mmod_Solvation_Energy-OPLS-2005>
-221.813125610352

> <b_mmod_Minimization_Converged-OPLS-2005>
0

> <r_mmod_RMS_Derivative-OPLS-2005>
0.931590616703033

$$$$
78
                    3D
 Structure written by MMmdl.
157166  0  0  1  0            999 V2000
  -30.5921  -14.6948   20.4899 C   0  0  0  0  0  0
  -30.4458  -12.4247   19.4612 C   0  0  0  0  0  0
  -29.5134  -12.5162   18.2313 C   0  0  0  0  0  0
  -28.0368  -12.3448   18.6420 C   0  0  0  0  0  0
  -27.6537  -13.2195   19.8652 C   0  0  2  0  0  0
  -28.6990  -13.0855   20.9961 C   0  0  0  0  0  0
  -25.2564  -13.8175   20.5691 C   0  0  0  0  0  0
  -24.1834  -13.0437   20.9195 C   0  0  0  0  0  0
  -24.6404  -11.6908   20.8741 C   0  0  0  0  0  0
  -23.9070  -10.4291   21.0404 C   0  0  0  0  0  0
  -24.3619   -9.4206   21.9183 C   0  0  0  0  0  0
  -23.6292   -8.2243   22.0754 C   0  0  0  0  0  0
  -22.4274   -8.0282   21.3545 C   0  0  0  0  0  0
  -21.9911   -9.0256   20.4647 C   0  0  0  0  0  0
  -22.7241  -10.2134   20.3055 C   0  0  0  0  0  0
  -21.6853   -6.0736   22.5279 C   0  0  0  0  0  0
  -21.4014   -6.5640   23.8212 C   0  0  0  0  0  0
  -21.3660   -5.6793   24.9175 C   0  0  0  0  0  0
  -21.6045   -4.3056   24.7225 C   0  0  0  0  0  0
  -21.8820   -3.8147   23.4346 C   0  0  0  0  0  0
  -21.9192   -4.6963   22.3402 C   0  0  0  0  0  0
  -22.7857  -13.5229   21.1853 C   0  0  0  0  0  0
  -22.1661   -4.2149   21.0980 F   0  0  0  0  0  0
  -21.5628   -3.4539   25.7737 F   0  0  0  0  0  0
  -30.0107  -13.4495   20.4346 N   0  0  0  0  0  0
  -26.2996  -12.9359   20.3330 N   0  0  0  0  0  0
  -25.9336  -11.6511   20.5764 N   0  0  0  0  0  0
  -22.0498  -12.8222   22.0408 N   0  0  0  0  0  0
  -25.4271  -15.1896   20.4097 N   0  0  0  0  0  0
  -31.7429  -14.8754   20.0788 O   0  0  0  0  0  0
  -21.6639   -6.8879   21.4241 O   0  0  0  0  0  0
  -22.3542  -14.5534   20.6700 O   0  0  0  0  0  0
  -24.6298  -31.8570   23.2004 C   0  0  0  0  0  0
  -25.9131  -32.4764   23.8343 C   0  0  1  0  0  0
  -27.2247  -27.2854   20.1146 C   0  0  0  0  0  0
  -25.5932  -33.8566   24.2266 N   0  0  0  0  0  0
  -23.4252  -30.4807   21.5439 C   0  0  2  0  0  0
  -24.8720  -28.9330   20.1095 C   0  0  0  0  0  0
  -22.7493  -29.4611   22.4924 C   0  0  0  0  0  0
  -18.0290  -28.1387   22.8485 C   0  0  0  0  0  0
  -24.1490  -36.7289   23.2639 C   0  0  0  0  0  0
  -25.9700  -30.7760   21.3780 C   0  0  0  0  0  0
  -26.0432  -29.4013   20.7180 C   0  0  0  0  0  0
  -27.2210  -28.5894   20.7117 C   0  0  0  0  0  0
  -26.0287  -26.8847   19.4736 C   0  0  0  0  0  0
  -24.8687  -27.6812   19.4781 C   0  0  0  0  0  0
  -23.6417  -29.8167   20.1593 C   0  0  0  0  0  0
  -25.4115  -36.3076   24.0327 C   0  0  1  0  0  0
  -20.5892  -28.3695   23.1273 C   0  0  2  0  0  0
  -20.6778  -26.9415   22.5408 C   0  0  0  0  0  0
  -19.5753  -26.6384   21.5212 C   0  0  0  0  0  0
  -18.1933  -26.7929   22.1625 C   0  0  0  0  0  0
  -19.1543  -28.8858   23.2874 C   0  0  0  0  0  0
  -18.9465  -30.1459   23.8892 C   0  0  0  0  0  0
  -17.6464  -30.6588   24.0562 C   0  0  0  0  0  0
  -25.9055  -34.9445   23.5098 C   0  0  0  0  0  0
  -16.5355  -29.9085   23.6331 C   0  0  0  0  0  0
  -16.7276  -28.6502   23.0352 C   0  0  0  0  0  0
  -26.4501  -31.6585   25.0727 C   0  0  0  0  0  0
  -25.3726  -31.3731   26.1447 C   0  0  0  0  0  0
  -27.0351  -30.3003   24.6208 C   0  0  0  0  0  0
  -27.6052  -32.4327   25.7502 C   0  0  0  0  0  0
  -27.5579  -37.1800   24.8465 C   0  0  0  0  0  0
  -21.4202  -29.3045   22.3665 N   0  0  0  0  0  0
  -26.4290  -37.3774   23.9409 N   0  0  0  0  0  0
  -24.6940  -31.0551   22.0972 N   0  0  0  0  0  0
  -23.4200  -28.8150   23.3016 O   0  0  0  0  0  0
  -28.3303  -26.4063   20.1752 O   0  0  0  0  0  0
  -26.5627  -34.8917   22.4667 O   0  0  0  0  0  0
  -23.5452  -32.1385   23.7309 O   0  0  0  0  0  0
  -30.2841  -19.3801   19.6745 C   0  0  0  0  0  0
  -30.4520  -17.9564   19.7948 C   0  0  0  0  0  0
  -28.7974  -19.3846   21.5022 C   0  0  0  0  0  0
  -28.9267  -17.9639   21.6317 C   0  0  0  0  0  0
  -29.4489  -20.1863   20.5171 C   0  0  0  0  0  0
  -29.7671  -17.1923   20.7786 C   0  0  0  0  0  0
  -29.4539  -22.6142   19.3825 C   0  0  0  0  0  0
  -28.6903  -22.6429   21.2601 C   0  0  0  0  0  0
  -29.1924  -23.8266   20.3554 C   0  0  0  0  0  0
  -28.1232  -17.2671   22.7184 C   0  0  0  0  0  0
  -30.5057  -24.4441   20.8522 C   0  0  0  0  0  0
  -28.1196  -24.9422   19.9151 C   0  0  0  0  0  0
  -29.2689  -21.6597   20.4148 N   0  0  0  0  0  0
  -29.7781  -15.7206   20.9158 N   0  0  0  0  0  0
  -29.7387  -22.4761   18.2094 O   0  0  0  0  0  0
  -28.0749  -22.5403   22.3026 O   0  0  0  0  0  0
  -31.4848  -12.5636   19.1576 H   0  0  0  0  0  0
  -30.3971  -11.4315   19.9103 H   0  0  0  0  0  0
  -29.7856  -11.7601   17.4937 H   0  0  0  0  0  0
  -29.6471  -13.4822   17.7417 H   0  0  0  0  0  0
  -27.8814  -11.2918   18.8799 H   0  0  0  0  0  0
  -27.3815  -12.5645   17.7983 H   0  0  0  0  0  0
  -27.6669  -14.2534   19.5195 H   0  0  0  0  0  0
  -28.7239  -12.0632   21.3766 H   0  0  0  0  0  0
  -28.4334  -13.7102   21.8501 H   0  0  0  0  0  0
  -25.2764   -9.5685   22.4757 H   0  0  0  0  0  0
  -24.0001   -7.4635   22.7475 H   0  0  0  0  0  0
  -21.0841   -8.8777   19.8953 H   0  0  0  0  0  0
  -22.3700  -10.9674   19.6166 H   0  0  0  0  0  0
  -21.2007   -7.6148   23.9715 H   0  0  0  0  0  0
  -21.1481   -6.0523   25.9078 H   0  0  0  0  0  0
  -22.0598   -2.7609   23.2847 H   0  0  0  0  0  0
  -22.4107  -11.9882   22.4800 H   0  0  0  0  0  0
  -21.1118  -13.1257   22.2607 H   0  0  0  0  0  0
  -24.6568  -15.8417   20.5097 H   0  0  0  0  0  0
  -26.2701  -15.6264   20.0595 H   0  0  0  0  0  0
  -26.7200  -32.5419   23.1088 H   0  0  0  0  0  0
  -25.0075  -33.9707   25.0408 H   0  0  0  0  0  0
  -22.7209  -31.3027   21.4000 H   0  0  0  0  0  0
  -23.3754  -35.9618   23.3297 H   0  0  0  0  0  0
  -24.3580  -36.8916   22.2054 H   0  0  0  0  0  0
  -23.7240  -37.6487   23.6666 H   0  0  0  0  0  0
  -26.1083  -31.5388   20.6104 H   0  0  0  0  0  0
  -26.8475  -30.8223   22.0112 H   0  0  0  0  0  0
  -28.1168  -28.9429   21.2030 H   0  0  0  0  0  0
  -25.9551  -25.9336   18.9687 H   0  0  0  0  0  0
  -23.9730  -27.3186   18.9927 H   0  0  0  0  0  0
  -23.7641  -30.5942   19.4043 H   0  0  0  0  0  0
  -22.7604  -29.2493   19.8548 H   0  0  0  0  0  0
  -25.1296  -36.1923   25.0819 H   0  0  0  0  0  0
  -20.9983  -28.3271   24.1395 H   0  0  0  0  0  0
  -20.5680  -26.2305   23.3611 H   0  0  0  0  0  0
  -21.6646  -26.7440   22.1201 H   0  0  0  0  0  0
  -19.6915  -25.6294   21.1244 H   0  0  0  0  0  0
  -19.6689  -27.3193   20.6740 H   0  0  0  0  0  0
  -17.4201  -26.6675   21.4030 H   0  0  0  0  0  0
  -18.0335  -26.0071   22.9023 H   0  0  0  0  0  0
  -19.7940  -30.7277   24.2260 H   0  0  0  0  0  0
  -17.5018  -31.6267   24.5164 H   0  0  0  0  0  0
  -15.5356  -30.2985   23.7658 H   0  0  0  0  0  0
  -15.8677  -28.0820   22.7069 H   0  0  0  0  0  0
  -24.5906  -30.7074   25.7776 H   0  0  0  0  0  0
  -24.8911  -32.2898   26.4862 H   0  0  0  0  0  0
  -25.8045  -30.8918   27.0230 H   0  0  0  0  0  0
  -26.2935  -29.6749   24.1223 H   0  0  0  0  0  0
  -27.4026  -29.7267   25.4727 H   0  0  0  0  0  0
  -27.8815  -30.4280   23.9456 H   0  0  0  0  0  0
  -27.2655  -33.3629   26.2068 H   0  0  0  0  0  0
  -28.3869  -32.6884   25.0337 H   0  0  0  0  0  0
  -28.0713  -31.8461   26.5429 H   0  0  0  0  0  0
  -28.2592  -38.0101   24.7515 H   0  0  0  0  0  0
  -28.1080  -36.2632   24.6285 H   0  0  0  0  0  0
  -27.2298  -37.1441   25.8868 H   0  0  0  0  0  0
  -20.9386  -29.8771   21.6875 H   0  0  0  0  0  0
  -26.0169  -38.2848   24.1410 H   0  0  0  0  0  0
  -30.8354  -19.8736   18.8866 H   0  0  0  0  0  0
  -31.1007  -17.4522   19.0923 H   0  0  0  0  0  0
  -28.1371  -19.8852   22.1959 H   0  0  0  0  0  0
  -27.6306  -17.9824   23.3774 H   0  0  0  0  0  0
  -28.7687  -16.6431   23.3374 H   0  0  0  0  0  0
  -27.3516  -16.6359   22.2769 H   0  0  0  0  0  0
  -31.2316  -23.6928   21.1687 H   0  0  0  0  0  0
  -30.3339  -25.1051   21.7020 H   0  0  0  0  0  0
  -30.9789  -25.0398   20.0708 H   0  0  0  0  0  0
  -27.1699  -24.6708   20.3791 H   0  0  0  0  0  0
  -27.9510  -24.8483   18.8411 H   0  0  0  0  0  0
  -28.9484  -15.3585   21.3588 H   0  0  0  0  0  0
  1 25  1  0  0  0
  1 30  2  0  0  0
  1 84  1  0  0  0
  2  3  1  0  0  0
  2 25  1  0  0  0
  2 87  1  0  0  0
  2 88  1  0  0  0
  3  4  1  0  0  0
  3 89  1  0  0  0
  3 90  1  0  0  0
  4  5  1  0  0  0
  4 91  1  0  0  0
  4 92  1  0  0  0
  5  6  1  0  0  0
  5 26  1  0  0  0
  5 93  1  0  0  0
  6 25  1  0  0  0
  6 94  1  0  0  0
  6 95  1  0  0  0
  7  8  2  0  0  0
  7 26  1  0  0  0
  7 29  1  0  0  0
  8  9  1  0  0  0
  8 22  1  0  0  0
  9 10  1  0  0  0
  9 27  2  0  0  0
 10 11  2  0  0  0
 10 15  1  0  0  0
 11 12  1  0  0  0
 11 96  1  0  0  0
 12 13  2  0  0  0
 12 97  1  0  0  0
 13 14  1  0  0  0
 13 31  1  0  0  0
 14 15  2  0  0  0
 14 98  1  0  0  0
 15 99  1  0  0  0
 16 17  2  0  0  0
 16 21  1  0  0  0
 16 31  1  0  0  0
 17 18  1  0  0  0
 17100  1  0  0  0
 18 19  2  0  0  0
 18101  1  0  0  0
 19 20  1  0  0  0
 19 24  1  0  0  0
 20 21  2  0  0  0
 20102  1  0  0  0
 21 23  1  0  0  0
 22 28  1  0  0  0
 22 32  2  0  0  0
 26 27  1  0  0  0
 28103  1  0  0  0
 28104  1  0  0  0
 29105  1  0  0  0
 29106  1  0  0  0
 33 34  1  0  0  0
 33 66  1  0  0  0
 33 70  2  0  0  0
 34 36  1  0  0  0
 34 59  1  0  0  0
 34107  1  0  0  0
 35 44  2  0  0  0
 35 45  1  0  0  0
 35 68  1  0  0  0
 36 56  1  0  0  0
 36108  1  0  0  0
 37 39  1  0  0  0
 37 47  1  0  0  0
 37 66  1  0  0  0
 37109  1  0  0  0
 38 43  2  0  0  0
 38 46  1  0  0  0
 38 47  1  0  0  0
 39 64  1  0  0  0
 39 67  2  0  0  0
 40 52  1  0  0  0
 40 53  2  0  0  0
 40 58  1  0  0  0
 41110  1  0  0  0
 41111  1  0  0  0
 41112  1  0  0  0
 41 48  1  0  0  0
 42 43  1  0  0  0
 42 66  1  0  0  0
 42113  1  0  0  0
 42114  1  0  0  0
 43 44  1  0  0  0
 44115  1  0  0  0
 45 46  2  0  0  0
 45116  1  0  0  0
 46117  1  0  0  0
 47118  1  0  0  0
 47119  1  0  0  0
 48 56  1  0  0  0
 48 65  1  0  0  0
 48120  1  0  0  0
 49 50  1  0  0  0
 49 53  1  0  0  0
 49 64  1  0  0  0
 49121  1  0  0  0
 50 51  1  0  0  0
 50122  1  0  0  0
 50123  1  0  0  0
 51 52  1  0  0  0
 51124  1  0  0  0
 51125  1  0  0  0
 52126  1  0  0  0
 52127  1  0  0  0
 53 54  1  0  0  0
 54 55  2  0  0  0
 54128  1  0  0  0
 55 57  1  0  0  0
 55129  1  0  0  0
 56 69  2  0  0  0
 57 58  2  0  0  0
 57130  1  0  0  0
 58131  1  0  0  0
 59 60  1  0  0  0
 59 61  1  0  0  0
 59 62  1  0  0  0
 60132  1  0  0  0
 60133  1  0  0  0
 60134  1  0  0  0
 61135  1  0  0  0
 61136  1  0  0  0
 61137  1  0  0  0
 62138  1  0  0  0
 62139  1  0  0  0
 62140  1  0  0  0
 63 65  1  0  0  0
 63141  1  0  0  0
 63142  1  0  0  0
 63143  1  0  0  0
 64144  1  0  0  0
 65145  1  0  0  0
 68 82  1  0  0  0
 71 72  2  0  0  0
 71 75  1  0  0  0
 71146  1  0  0  0
 72 76  1  0  0  0
 72147  1  0  0  0
 73 74  1  0  0  0
 73 75  2  0  0  0
 73148  1  0  0  0
 74 76  2  0  0  0
 74 80  1  0  0  0
 75 83  1  0  0  0
 76 84  1  0  0  0
 77 79  1  0  0  0
 77 83  1  0  0  0
 77 85  2  0  0  0
 78 79  1  0  0  0
 78 83  1  0  0  0
 78 86  2  0  0  0
 79 81  1  0  0  0
 79 82  1  0  0  0
 80149  1  0  0  0
 80150  1  0  0  0
 80151  1  0  0  0
 81152  1  0  0  0
 81153  1  0  0  0
 81154  1  0  0  0
 82155  1  0  0  0
 82156  1  0  0  0
 84157  1  0  0  0
M  ISO  4   1 100  68 101  82 101  84 100
M  END
> <chiral flag>
0

> <version>
0

> <s_m_source_file>
/data/baiqing/PycharmProjects/Reinvent-master-3.2/result/LINK_invent/BTK/process_docking_weight1_custom_product_contain_oxygen_bond_distance_aromatic_linkinvent_7_9_3/rearranged_h_0078.sdf

> <i_m_source_file_index>
78

> <r_mmod_Potential_Energy-OPLS-2005>
23.0273265838623

> <r_mmod_Stretch_Energy-OPLS-2005>
101.561614990234

> <r_mmod_Bend_Energy-OPLS-2005>
173.563888549805

> <r_mmod_Torsional_Energy-OPLS-2005>
215.671295166016

> <r_mmod_Improper_Torsional_Energy-OPLS-2005>
3.61713194847107

> <r_mmod_Van_der_Waal_Energy-OPLS-2005>
137.697174072266

> <r_mmod_Electrostatic_Energy-OPLS-2005>
-454.00341796875

> <r_mmod_Solvation_Energy-OPLS-2005>
-222.073806762695

> <b_mmod_Minimization_Converged-OPLS-2005>
0

> <r_mmod_RMS_Derivative-OPLS-2005>
0.201098397374153

$$$$
79
                    3D
 Structure written by MMmdl.
160169  0  0  1  0            999 V2000
  -30.7146  -14.4574   20.6024 C   0  0  0  0  0  0
  -30.4222  -12.3157   19.4053 C   0  0  0  0  0  0
  -29.4865  -12.5127   18.1961 C   0  0  0  0  0  0
  -28.0117  -12.3624   18.6165 C   0  0  0  0  0  0
  -27.6605  -13.2043   19.8727 C   0  0  2  0  0  0
  -28.7041  -12.9826   20.9895 C   0  0  0  0  0  0
  -25.2595  -13.8157   20.5672 C   0  0  0  0  0  0
  -24.1842  -13.0435   20.9161 C   0  0  0  0  0  0
  -24.6395  -11.6901   20.8724 C   0  0  0  0  0  0
  -23.9058  -10.4289   21.0395 C   0  0  0  0  0  0
  -24.3608   -9.4207   21.9177 C   0  0  0  0  0  0
  -23.6294   -8.2240   22.0753 C   0  0  0  0  0  0
  -22.4276   -8.0274   21.3547 C   0  0  0  0  0  0
  -21.9912   -9.0240   20.4638 C   0  0  0  0  0  0
  -22.7234  -10.2124   20.3039 C   0  0  0  0  0  0
  -21.6849   -6.0730   22.5280 C   0  0  0  0  0  0
  -21.3999   -6.5635   23.8215 C   0  0  0  0  0  0
  -21.3650   -5.6788   24.9177 C   0  0  0  0  0  0
  -21.6045   -4.3050   24.7225 C   0  0  0  0  0  0
  -21.8829   -3.8148   23.4349 C   0  0  0  0  0  0
  -21.9194   -4.6961   22.3402 C   0  0  0  0  0  0
  -22.7873  -13.5237   21.1834 C   0  0  0  0  0  0
  -22.1675   -4.2142   21.0984 F   0  0  0  0  0  0
  -21.5624   -3.4532   25.7737 F   0  0  0  0  0  0
  -30.0323  -13.2931   20.4339 N   0  0  0  0  0  0
  -26.3024  -12.9317   20.3366 N   0  0  0  0  0  0
  -25.9320  -11.6482   20.5763 N   0  0  0  0  0  0
  -22.0506  -12.8205   22.0367 N   0  0  0  0  0  0
  -25.4330  -15.1868   20.4096 N   0  0  0  0  0  0
  -31.8355  -14.6465   20.1186 O   0  0  0  0  0  0
  -21.6643   -6.8871   21.4244 O   0  0  0  0  0  0
  -22.3564  -14.5556   20.6704 O   0  0  0  0  0  0
  -24.6125  -31.8698   23.2108 C   0  0  0  0  0  0
  -25.9032  -32.4821   23.8403 C   0  0  1  0  0  0
  -27.2349  -27.4466   20.1075 C   0  0  0  0  0  0
  -25.5911  -33.8614   24.2353 N   0  0  0  0  0  0
  -23.4012  -30.4929   21.5498 C   0  0  2  0  0  0
  -24.8511  -28.9570   20.1195 C   0  0  0  0  0  0
  -22.7405  -29.4667   22.4983 C   0  0  0  0  0  0
  -18.0276  -28.1382   22.8490 C   0  0  0  0  0  0
  -24.1470  -36.7283   23.2639 C   0  0  0  0  0  0
  -25.9268  -30.8393   21.3613 C   0  0  0  0  0  0
  -26.0069  -29.4682   20.7247 C   0  0  0  0  0  0
  -27.2029  -28.7156   20.7291 C   0  0  0  0  0  0
  -26.0711  -26.9502   19.4902 C   0  0  0  0  0  0
  -24.8757  -27.6932   19.5025 C   0  0  0  0  0  0
  -23.6130  -29.8236   20.1644 C   0  0  0  0  0  0
  -25.4089  -36.3101   24.0359 C   0  0  1  0  0  0
  -20.5869  -28.3661   23.1325 C   0  0  2  0  0  0
  -20.6761  -26.9402   22.5413 C   0  0  0  0  0  0
  -19.5749  -26.6401   21.5206 C   0  0  0  0  0  0
  -18.1922  -26.7937   22.1606 C   0  0  0  0  0  0
  -19.1526  -28.8834   23.2912 C   0  0  0  0  0  0
  -18.9455  -30.1441   23.8920 C   0  0  0  0  0  0
  -17.6463  -30.6584   24.0574 C   0  0  0  0  0  0
  -25.9030  -34.9472   23.5149 C   0  0  0  0  0  0
  -16.5350  -29.9093   23.6328 C   0  0  0  0  0  0
  -16.7264  -28.6514   23.0338 C   0  0  0  0  0  0
  -26.4473  -31.6571   25.0701 C   0  0  0  0  0  0
  -25.3750  -31.3634   26.1454 C   0  0  0  0  0  0
  -27.0315  -30.3039   24.6004 C   0  0  0  0  0  0
  -27.6065  -32.4258   25.7480 C   0  0  0  0  0  0
  -27.5576  -37.1799   24.8467 C   0  0  0  0  0  0
  -21.4135  -29.3029   22.3727 N   0  0  0  0  0  0
  -26.4266  -37.3795   23.9440 N   0  0  0  0  0  0
  -24.6653  -31.0813   22.1005 N   0  0  0  0  0  0
  -23.4181  -28.8218   23.3028 O   0  0  0  0  0  0
  -28.3683  -26.6732   20.0466 O   0  0  0  0  0  0
  -26.5570  -34.8931   22.4695 O   0  0  0  0  0  0
  -23.5318  -32.1445   23.7507 O   0  0  0  0  0  0
  -32.1728  -18.2872   22.3942 C   0  0  0  0  0  0
  -31.2917  -19.3699   22.2256 C   0  0  0  0  0  0
  -31.7745  -16.9872   22.0437 C   0  0  0  0  0  0
  -29.9886  -19.1871   21.6924 C   0  0  0  0  0  0
  -30.4840  -16.7616   21.5202 C   0  0  0  0  0  0
  -29.5944  -17.8546   21.3600 C   0  0  0  0  0  0
  -28.2570  -22.4567   21.4061 C   0  0  0  0  0  0
  -27.1384  -21.5718   21.5774 C   0  0  0  0  0  0
  -29.4555  -21.6220   21.3384 C   0  0  0  0  0  0
  -25.8441  -21.9241   21.6748 C   0  0  0  0  0  0
  -28.2100  -23.8136   21.3435 C   0  0  0  0  0  0
  -27.6365  -20.1619   21.6385 C   0  0  0  0  0  0
  -29.3697  -24.8021   21.2328 C   0  0  0  0  0  0
  -28.9313  -26.2849   21.2976 C   0  0  0  0  0  0
  -29.0936  -20.3179   21.5440 N   0  0  0  0  0  0
  -30.0292  -15.4449   21.2089 N   0  0  0  0  0  0
  -30.6026  -22.0161   21.1002 O   0  0  0  0  0  0
  -28.3616  -17.5900   20.8632 F   0  0  0  0  0  0
  -31.4632  -12.4242   19.0953 H   0  0  0  0  0  0
  -30.3353  -11.3018   19.7987 H   0  0  0  0  0  0
  -29.7265  -11.7946   17.4108 H   0  0  0  0  0  0
  -29.6457  -13.5016   17.7628 H   0  0  0  0  0  0
  -27.8320  -11.3054   18.8184 H   0  0  0  0  0  0
  -27.3532  -12.6271   17.7887 H   0  0  0  0  0  0
  -27.7049  -14.2520   19.5747 H   0  0  0  0  0  0
  -28.6837  -11.9444   21.3264 H   0  0  0  0  0  0
  -28.4624  -13.5780   21.8700 H   0  0  0  0  0  0
  -25.2753   -9.5685   22.4747 H   0  0  0  0  0  0
  -23.9998   -7.4628   22.7477 H   0  0  0  0  0  0
  -21.0845   -8.8745   19.8943 H   0  0  0  0  0  0
  -22.3689  -10.9646   19.6131 H   0  0  0  0  0  0
  -21.1982   -7.6140   23.9708 H   0  0  0  0  0  0
  -21.1456   -6.0520   25.9077 H   0  0  0  0  0  0
  -22.0609   -2.7608   23.2847 H   0  0  0  0  0  0
  -22.4110  -11.9837   22.4708 H   0  0  0  0  0  0
  -21.1120  -13.1222   22.2563 H   0  0  0  0  0  0
  -24.6680  -15.8434   20.5177 H   0  0  0  0  0  0
  -26.2951  -15.6311   20.1183 H   0  0  0  0  0  0
  -26.7094  -32.5560   23.1169 H   0  0  0  0  0  0
  -25.0108  -33.9764   25.0532 H   0  0  0  0  0  0
  -22.6910  -31.3107   21.4102 H   0  0  0  0  0  0
  -23.3752  -35.9594   23.3279 H   0  0  0  0  0  0
  -24.3581  -36.8899   22.2060 H   0  0  0  0  0  0
  -23.7191  -37.6481   23.6634 H   0  0  0  0  0  0
  -26.0255  -31.5962   20.5810 H   0  0  0  0  0  0
  -26.8216  -30.9079   21.9677 H   0  0  0  0  0  0
  -28.0960  -29.1104   21.1932 H   0  0  0  0  0  0
  -26.0925  -25.9821   19.0093 H   0  0  0  0  0  0
  -23.9885  -27.2936   19.0306 H   0  0  0  0  0  0
  -23.7246  -30.5972   19.4039 H   0  0  0  0  0  0
  -22.7373  -29.2431   19.8675 H   0  0  0  0  0  0
  -25.1261  -36.1954   25.0849 H   0  0  0  0  0  0
  -20.9990  -28.3213   24.1436 H   0  0  0  0  0  0
  -20.5669  -26.2266   23.3596 H   0  0  0  0  0  0
  -21.6631  -26.7453   22.1213 H   0  0  0  0  0  0
  -19.6913  -25.6320   21.1210 H   0  0  0  0  0  0
  -19.6704  -27.3228   20.6750 H   0  0  0  0  0  0
  -17.4219  -26.6712   21.3985 H   0  0  0  0  0  0
  -18.0316  -26.0065   22.8992 H   0  0  0  0  0  0
  -19.7934  -30.7242   24.2307 H   0  0  0  0  0  0
  -17.5023  -31.6264   24.5182 H   0  0  0  0  0  0
  -15.5352  -30.3004   23.7645 H   0  0  0  0  0  0
  -15.8666  -28.0854   22.7022 H   0  0  0  0  0  0
  -24.5951  -30.6947   25.7789 H   0  0  0  0  0  0
  -24.8884  -32.2758   26.4905 H   0  0  0  0  0  0
  -25.8123  -30.8817   27.0209 H   0  0  0  0  0  0
  -26.2841  -29.6788   24.1096 H   0  0  0  0  0  0
  -27.4203  -29.7259   25.4397 H   0  0  0  0  0  0
  -27.8614  -30.4411   23.9067 H   0  0  0  0  0  0
  -27.2731  -33.3582   26.2045 H   0  0  0  0  0  0
  -28.3904  -32.6760   25.0321 H   0  0  0  0  0  0
  -28.0692  -31.8359   26.5407 H   0  0  0  0  0  0
  -28.2561  -38.0127   24.7552 H   0  0  0  0  0  0
  -28.1100  -36.2660   24.6222 H   0  0  0  0  0  0
  -27.2311  -37.1366   25.8871 H   0  0  0  0  0  0
  -20.9287  -29.8742   21.6946 H   0  0  0  0  0  0
  -26.0148  -38.2867   24.1468 H   0  0  0  0  0  0
  -33.1578  -18.4558   22.8066 H   0  0  0  0  0  0
  -31.6386  -20.3438   22.5383 H   0  0  0  0  0  0
  -32.4635  -16.1687   22.1981 H   0  0  0  0  0  0
  -25.5165  -22.9524   21.6268 H   0  0  0  0  0  0
  -25.0777  -21.1731   21.8058 H   0  0  0  0  0  0
  -27.2434  -24.2911   21.4098 H   0  0  0  0  0  0
  -27.2255  -19.6088   20.7946 H   0  0  0  0  0  0
  -27.3449  -19.6825   22.5740 H   0  0  0  0  0  0
  -29.9316  -24.6181   20.3163 H   0  0  0  0  0  0
  -30.0529  -24.6058   22.0597 H   0  0  0  0  0  0
  -29.7994  -26.9184   21.4889 H   0  0  0  0  0  0
  -28.2448  -26.4388   22.1331 H   0  0  0  0  0  0
  -29.0503  -15.2669   21.3730 H   0  0  0  0  0  0
  1 25  1  0  0  0
  1 30  2  0  0  0
  1 86  1  0  0  0
  2  3  1  0  0  0
  2 25  1  0  0  0
  2 89  1  0  0  0
  2 90  1  0  0  0
  3  4  1  0  0  0
  3 91  1  0  0  0
  3 92  1  0  0  0
  4  5  1  0  0  0
  4 93  1  0  0  0
  4 94  1  0  0  0
  5  6  1  0  0  0
  5 26  1  0  0  0
  5 95  1  0  0  0
  6 25  1  0  0  0
  6 96  1  0  0  0
  6 97  1  0  0  0
  7  8  2  0  0  0
  7 26  1  0  0  0
  7 29  1  0  0  0
  8  9  1  0  0  0
  8 22  1  0  0  0
  9 10  1  0  0  0
  9 27  2  0  0  0
 10 11  2  0  0  0
 10 15  1  0  0  0
 11 12  1  0  0  0
 11 98  1  0  0  0
 12 13  2  0  0  0
 12 99  1  0  0  0
 13 14  1  0  0  0
 13 31  1  0  0  0
 14 15  2  0  0  0
 14100  1  0  0  0
 15101  1  0  0  0
 16 17  2  0  0  0
 16 21  1  0  0  0
 16 31  1  0  0  0
 17 18  1  0  0  0
 17102  1  0  0  0
 18 19  2  0  0  0
 18103  1  0  0  0
 19 20  1  0  0  0
 19 24  1  0  0  0
 20 21  2  0  0  0
 20104  1  0  0  0
 21 23  1  0  0  0
 22 28  1  0  0  0
 22 32  2  0  0  0
 26 27  1  0  0  0
 28105  1  0  0  0
 28106  1  0  0  0
 29107  1  0  0  0
 29108  1  0  0  0
 33 34  1  0  0  0
 33 66  1  0  0  0
 33 70  2  0  0  0
 34 36  1  0  0  0
 34 59  1  0  0  0
 34109  1  0  0  0
 35 44  2  0  0  0
 35 45  1  0  0  0
 35 68  1  0  0  0
 36 56  1  0  0  0
 36110  1  0  0  0
 37 39  1  0  0  0
 37 47  1  0  0  0
 37 66  1  0  0  0
 37111  1  0  0  0
 38 43  2  0  0  0
 38 46  1  0  0  0
 38 47  1  0  0  0
 39 64  1  0  0  0
 39 67  2  0  0  0
 40 52  1  0  0  0
 40 53  2  0  0  0
 40 58  1  0  0  0
 41112  1  0  0  0
 41113  1  0  0  0
 41114  1  0  0  0
 41 48  1  0  0  0
 42 43  1  0  0  0
 42 66  1  0  0  0
 42115  1  0  0  0
 42116  1  0  0  0
 43 44  1  0  0  0
 44117  1  0  0  0
 45 46  2  0  0  0
 45118  1  0  0  0
 46119  1  0  0  0
 47120  1  0  0  0
 47121  1  0  0  0
 48 56  1  0  0  0
 48 65  1  0  0  0
 48122  1  0  0  0
 49 50  1  0  0  0
 49 53  1  0  0  0
 49 64  1  0  0  0
 49123  1  0  0  0
 50 51  1  0  0  0
 50124  1  0  0  0
 50125  1  0  0  0
 51 52  1  0  0  0
 51126  1  0  0  0
 51127  1  0  0  0
 52128  1  0  0  0
 52129  1  0  0  0
 53 54  1  0  0  0
 54 55  2  0  0  0
 54130  1  0  0  0
 55 57  1  0  0  0
 55131  1  0  0  0
 56 69  2  0  0  0
 57 58  2  0  0  0
 57132  1  0  0  0
 58133  1  0  0  0
 59 60  1  0  0  0
 59 61  1  0  0  0
 59 62  1  0  0  0
 60134  1  0  0  0
 60135  1  0  0  0
 60136  1  0  0  0
 61137  1  0  0  0
 61138  1  0  0  0
 61139  1  0  0  0
 62140  1  0  0  0
 62141  1  0  0  0
 62142  1  0  0  0
 63 65  1  0  0  0
 63143  1  0  0  0
 63144  1  0  0  0
 63145  1  0  0  0
 64146  1  0  0  0
 65147  1  0  0  0
 68 84  1  0  0  0
 71 72  2  0  0  0
 71 73  1  0  0  0
 71148  1  0  0  0
 72 74  1  0  0  0
 72149  1  0  0  0
 73 75  2  0  0  0
 73150  1  0  0  0
 74 76  2  0  0  0
 74 85  1  0  0  0
 75 76  1  0  0  0
 75 86  1  0  0  0
 76 88  1  0  0  0
 77 78  1  0  0  0
 77 79  1  0  0  0
 77 81  2  0  0  0
 78 80  2  0  0  0
 78 82  1  0  0  0
 79 85  1  0  0  0
 79 87  2  0  0  0
 80151  1  0  0  0
 80152  1  0  0  0
 81 83  1  0  0  0
 81153  1  0  0  0
 82 85  1  0  0  0
 82154  1  0  0  0
 82155  1  0  0  0
 83 84  1  0  0  0
 83156  1  0  0  0
 83157  1  0  0  0
 84158  1  0  0  0
 84159  1  0  0  0
 86160  1  0  0  0
M  ISO  4   1 100  68 101  84 101  86 100
M  END
> <chiral flag>
0

> <version>
0

> <s_m_source_file>
/data/baiqing/PycharmProjects/Reinvent-master-3.2/result/LINK_invent/BTK/process_docking_weight1_custom_product_contain_oxygen_bond_distance_aromatic_linkinvent_7_9_3/rearranged_h_0078.sdf

> <i_m_source_file_index>
79

> <r_mmod_Potential_Energy-OPLS-2005>
86.6732864379883

> <r_mmod_Stretch_Energy-OPLS-2005>
42.4023208618164

> <r_mmod_Bend_Energy-OPLS-2005>
147.340438842773

> <r_mmod_Torsional_Energy-OPLS-2005>
289.583526611328

> <r_mmod_Improper_Torsional_Energy-OPLS-2005>
3.28981471061707

> <r_mmod_Van_der_Waal_Energy-OPLS-2005>
159.682876586914

> <r_mmod_Electrostatic_Energy-OPLS-2005>
-362.894775390625

> <r_mmod_Solvation_Energy-OPLS-2005>
-203.364440917969

> <b_mmod_Minimization_Converged-OPLS-2005>
0

> <r_mmod_RMS_Derivative-OPLS-2005>
1.55156111717224

$$$$
80
                    3D
 Structure written by MMmdl.
158167  0  0  1  0            999 V2000
  -30.5712  -14.7595   20.4635 C   0  0  0  0  0  0
  -30.4386  -12.4672   19.4864 C   0  0  0  0  0  0
  -29.5163  -12.5124   18.2456 C   0  0  0  0  0  0
  -28.0398  -12.3290   18.6468 C   0  0  0  0  0  0
  -27.6385  -13.2258   19.8456 C   0  0  2  0  0  0
  -28.6724  -13.1467   20.9864 C   0  0  0  0  0  0
  -25.2468  -13.8179   20.5716 C   0  0  0  0  0  0
  -24.1759  -13.0435   20.9233 C   0  0  0  0  0  0
  -24.6339  -11.6908   20.8761 C   0  0  0  0  0  0
  -23.9016  -10.4277   21.0417 C   0  0  0  0  0  0
  -24.3577   -9.4183   21.9180 C   0  0  0  0  0  0
  -23.6276   -8.2205   22.0745 C   0  0  0  0  0  0
  -22.4244   -8.0261   21.3521 C   0  0  0  0  0  0
  -21.9878   -9.0233   20.4600 C   0  0  0  0  0  0
  -22.7208  -10.2118   20.3040 C   0  0  0  0  0  0
  -21.6836   -6.0729   22.5292 C   0  0  0  0  0  0
  -21.3999   -6.5631   23.8235 C   0  0  0  0  0  0
  -21.3674   -5.6772   24.9190 C   0  0  0  0  0  0
  -21.6035   -4.3036   24.7213 C   0  0  0  0  0  0
  -21.8824   -3.8140   23.4333 C   0  0  0  0  0  0
  -21.9186   -4.6960   22.3394 C   0  0  0  0  0  0
  -22.7769  -13.5219   21.1899 C   0  0  0  0  0  0
  -22.1660   -4.2143   21.0971 F   0  0  0  0  0  0
  -21.5637   -3.4535   25.7728 F   0  0  0  0  0  0
  -29.9799  -13.5154   20.4288 N   0  0  0  0  0  0
  -26.2872  -12.9385   20.3204 N   0  0  0  0  0  0
  -25.9254  -11.6539   20.5694 N   0  0  0  0  0  0
  -22.0402  -12.8215   22.0447 N   0  0  0  0  0  0
  -25.4164  -15.1910   20.4212 N   0  0  0  0  0  0
  -31.7560  -14.8811   20.1275 O   0  0  0  0  0  0
  -21.6623   -6.8846   21.4238 O   0  0  0  0  0  0
  -22.3452  -14.5516   20.6706 O   0  0  0  0  0  0
  -24.6284  -31.8509   23.1914 C   0  0  0  0  0  0
  -25.9095  -32.4694   23.8277 C   0  0  1  0  0  0
  -27.2136  -27.2081   20.1449 C   0  0  0  0  0  0
  -25.5911  -33.8515   24.2197 N   0  0  0  0  0  0
  -23.4288  -30.4699   21.5319 C   0  0  2  0  0  0
  -24.8801  -28.9074   20.0978 C   0  0  0  0  0  0
  -22.7451  -29.4634   22.4862 C   0  0  0  0  0  0
  -18.0275  -28.1458   22.8532 C   0  0  0  0  0  0
  -24.1500  -36.7249   23.2638 C   0  0  0  0  0  0
  -25.9774  -30.7485   21.3796 C   0  0  0  0  0  0
  -26.0442  -29.3667   20.7178 C   0  0  0  0  0  0
  -27.2108  -28.5289   20.7296 C   0  0  0  0  0  0
  -26.0233  -26.8226   19.4899 C   0  0  0  0  0  0
  -24.8779  -27.6513   19.4656 C   0  0  0  0  0  0
  -23.6497  -29.7961   20.1493 C   0  0  0  0  0  0
  -25.4140  -36.3035   24.0293 C   0  0  1  0  0  0
  -20.5883  -28.3810   23.1299 C   0  0  2  0  0  0
  -20.6842  -26.9523   22.5562 C   0  0  0  0  0  0
  -19.5838  -26.6563   21.5319 C   0  0  0  0  0  0
  -18.2019  -26.7936   22.1780 C   0  0  0  0  0  0
  -19.1523  -28.8941   23.2898 C   0  0  0  0  0  0
  -18.9415  -30.1533   23.8875 C   0  0  0  0  0  0
  -17.6435  -30.6643   24.0553 C   0  0  0  0  0  0
  -25.9074  -34.9396   23.5057 C   0  0  0  0  0  0
  -16.5303  -29.9161   23.6364 C   0  0  0  0  0  0
  -16.7236  -28.6592   23.0350 C   0  0  0  0  0  0
  -26.4509  -31.6556   25.0685 C   0  0  0  0  0  0
  -25.3737  -31.3690   26.1385 C   0  0  0  0  0  0
  -27.0348  -30.2950   24.6228 C   0  0  0  0  0  0
  -27.6039  -32.4348   25.7465 C   0  0  0  0  0  0
  -27.5580  -37.1779   24.8460 C   0  0  0  0  0  0
  -21.4185  -29.2974   22.3453 N   0  0  0  0  0  0
  -26.4306  -37.3740   23.9380 N   0  0  0  0  0  0
  -24.6957  -31.0433   22.0897 N   0  0  0  0  0  0
  -23.4085  -28.8340   23.3152 O   0  0  0  0  0  0
  -28.3057  -26.3042   20.2825 O   0  0  0  0  0  0
  -26.5661  -34.8872   22.4639 O   0  0  0  0  0  0
  -23.5436  -32.1355   23.7215 O   0  0  0  0  0  0
  -29.3564  -18.2949   17.8863 C   0  0  0  0  0  0
  -29.0938  -19.5377   18.5001 C   0  0  0  0  0  0
  -29.6394  -17.1410   18.6357 C   0  0  0  0  0  0
  -29.1222  -19.7331   19.9071 C   0  0  0  0  0  0
  -29.6674  -17.1789   20.0422 C   0  0  0  0  0  0
  -29.4222  -18.4908   20.6585 C   0  0  0  0  0  0
  -27.8011  -23.5674   21.8727 C   0  0  0  0  0  0
  -28.3216  -23.6894   20.5020 C   0  0  0  0  0  0
  -27.5429  -22.2322   22.3941 C   0  0  0  0  0  0
  -28.7976  -22.3827   19.8243 C   0  0  0  0  0  0
  -27.6454  -24.6265   22.6966 C   0  0  0  0  0  0
  -26.6043  -22.0046   23.3365 C   0  0  0  0  0  0
  -28.3979  -24.9334   19.8282 C   0  0  0  0  0  0
  -28.4145  -21.0900   21.9131 C   0  0  0  0  0  0
  -28.7736  -21.1126   20.4860 N   0  0  0  0  0  0
  -29.7828  -15.8688   20.7481 N   0  0  0  0  0  0
  -29.2544  -22.4480   18.6771 O   0  0  0  0  0  0
  -29.4849  -18.5278   22.0118 F   0  0  0  0  0  0
  -31.4714  -12.6294   19.1791 H   0  0  0  0  0  0
  -30.4162  -11.4893   19.9702 H   0  0  0  0  0  0
  -29.8109  -11.7342   17.5429 H   0  0  0  0  0  0
  -29.6385  -13.4607   17.7235 H   0  0  0  0  0  0
  -27.9040  -11.2829   18.9174 H   0  0  0  0  0  0
  -27.3865  -12.5113   17.7919 H   0  0  0  0  0  0
  -27.6367  -14.2457   19.4635 H   0  0  0  0  0  0
  -28.7037  -12.1385   21.4061 H   0  0  0  0  0  0
  -28.3845  -13.8102   21.8026 H   0  0  0  0  0  0
  -25.2726   -9.5686   22.4753 H   0  0  0  0  0  0
  -23.9997   -7.4604   22.7471 H   0  0  0  0  0  0
  -21.0817   -8.8719   19.8917 H   0  0  0  0  0  0
  -22.3650  -10.9640   19.6144 H   0  0  0  0  0  0
  -21.1986   -7.6142   23.9726 H   0  0  0  0  0  0
  -21.1503   -6.0509   25.9081 H   0  0  0  0  0  0
  -22.0583   -2.7611   23.2836 H   0  0  0  0  0  0
  -22.4029  -11.9918   22.4885 H   0  0  0  0  0  0
  -21.0982  -13.1198   22.2560 H   0  0  0  0  0  0
  -24.6501  -15.8441   20.5376 H   0  0  0  0  0  0
  -26.2656  -15.6292   20.0959 H   0  0  0  0  0  0
  -26.7136  -32.5353   23.0997 H   0  0  0  0  0  0
  -25.0029  -33.9683   25.0311 H   0  0  0  0  0  0
  -22.7249  -31.2916   21.3832 H   0  0  0  0  0  0
  -23.3767  -35.9580   23.3310 H   0  0  0  0  0  0
  -24.3569  -36.8883   22.2054 H   0  0  0  0  0  0
  -23.7268  -37.6444   23.6690 H   0  0  0  0  0  0
  -26.1259  -31.5187   20.6205 H   0  0  0  0  0  0
  -26.8460  -30.7905   22.0246 H   0  0  0  0  0  0
  -28.0992  -28.8705   21.2377 H   0  0  0  0  0  0
  -25.9523  -25.8436   19.0340 H   0  0  0  0  0  0
  -23.9831  -27.3066   18.9696 H   0  0  0  0  0  0
  -23.7597  -30.5715   19.3909 H   0  0  0  0  0  0
  -22.7699  -29.2244   19.8511 H   0  0  0  0  0  0
  -25.1349  -36.1865   25.0789 H   0  0  0  0  0  0
  -21.0050  -28.3574   24.1412 H   0  0  0  0  0  0
  -21.6798  -26.7555   22.1529 H   0  0  0  0  0  0
  -20.5630  -26.2447   23.3784 H   0  0  0  0  0  0
  -19.7091  -25.6551   21.1218 H   0  0  0  0  0  0
  -19.6707  -27.3556   20.6997 H   0  0  0  0  0  0
  -17.4190  -26.6471   21.4314 H   0  0  0  0  0  0
  -18.0676  -26.0144   22.9291 H   0  0  0  0  0  0
  -19.7868  -30.7424   24.2207 H   0  0  0  0  0  0
  -17.4988  -31.6359   24.5081 H   0  0  0  0  0  0
  -15.5327  -30.3088   23.7724 H   0  0  0  0  0  0
  -15.8626  -28.0893   22.7091 H   0  0  0  0  0  0
  -24.5931  -30.7035   25.7695 H   0  0  0  0  0  0
  -24.8897  -32.2837   26.4807 H   0  0  0  0  0  0
  -25.8033  -30.8866   27.0161 H   0  0  0  0  0  0
  -26.2930  -29.6682   24.1267 H   0  0  0  0  0  0
  -27.3988  -29.7244   25.4780 H   0  0  0  0  0  0
  -27.8836  -30.4153   23.9493 H   0  0  0  0  0  0
  -27.2605  -33.3653   26.1989 H   0  0  0  0  0  0
  -28.3857  -32.6905   25.0309 H   0  0  0  0  0  0
  -28.0691  -31.8523   26.5420 H   0  0  0  0  0  0
  -28.2600  -38.0077   24.7500 H   0  0  0  0  0  0
  -28.1074  -36.2595   24.6322 H   0  0  0  0  0  0
  -27.2262  -37.1464   25.8855 H   0  0  0  0  0  0
  -20.9536  -29.8111   21.6115 H   0  0  0  0  0  0
  -26.0165  -38.2800   24.1403 H   0  0  0  0  0  0
  -29.3006  -18.2231   16.8097 H   0  0  0  0  0  0
  -28.8364  -20.3271   17.8125 H   0  0  0  0  0  0
  -29.7769  -16.2088   18.1043 H   0  0  0  0  0  0
  -27.8564  -25.6432   22.4232 H   0  0  0  0  0  0
  -27.3110  -24.5036   23.7139 H   0  0  0  0  0  0
  -25.9646  -22.7895   23.7169 H   0  0  0  0  0  0
  -26.4352  -21.0163   23.7392 H   0  0  0  0  0  0
  -28.7731  -24.9503   18.8143 H   0  0  0  0  0  0
  -27.8886  -20.1649   22.1465 H   0  0  0  0  0  0
  -29.3307  -21.0971   22.5026 H   0  0  0  0  0  0
  -28.9610  -15.6345   21.2814 H   0  0  0  0  0  0
  1 25  1  0  0  0
  1 30  2  0  0  0
  1 86  1  0  0  0
  2  3  1  0  0  0
  2 25  1  0  0  0
  2 89  1  0  0  0
  2 90  1  0  0  0
  3  4  1  0  0  0
  3 91  1  0  0  0
  3 92  1  0  0  0
  4  5  1  0  0  0
  4 93  1  0  0  0
  4 94  1  0  0  0
  5  6  1  0  0  0
  5 26  1  0  0  0
  5 95  1  0  0  0
  6 25  1  0  0  0
  6 96  1  0  0  0
  6 97  1  0  0  0
  7  8  2  0  0  0
  7 26  1  0  0  0
  7 29  1  0  0  0
  8  9  1  0  0  0
  8 22  1  0  0  0
  9 10  1  0  0  0
  9 27  2  0  0  0
 10 11  2  0  0  0
 10 15  1  0  0  0
 11 12  1  0  0  0
 11 98  1  0  0  0
 12 13  2  0  0  0
 12 99  1  0  0  0
 13 14  1  0  0  0
 13 31  1  0  0  0
 14 15  2  0  0  0
 14100  1  0  0  0
 15101  1  0  0  0
 16 17  2  0  0  0
 16 21  1  0  0  0
 16 31  1  0  0  0
 17 18  1  0  0  0
 17102  1  0  0  0
 18 19  2  0  0  0
 18103  1  0  0  0
 19 20  1  0  0  0
 19 24  1  0  0  0
 20 21  2  0  0  0
 20104  1  0  0  0
 21 23  1  0  0  0
 22 28  1  0  0  0
 22 32  2  0  0  0
 26 27  1  0  0  0
 28105  1  0  0  0
 28106  1  0  0  0
 29107  1  0  0  0
 29108  1  0  0  0
 33 34  1  0  0  0
 33 66  1  0  0  0
 33 70  2  0  0  0
 34 36  1  0  0  0
 34 59  1  0  0  0
 34109  1  0  0  0
 35 44  2  0  0  0
 35 45  1  0  0  0
 35 68  1  0  0  0
 36 56  1  0  0  0
 36110  1  0  0  0
 37 39  1  0  0  0
 37 47  1  0  0  0
 37 66  1  0  0  0
 37111  1  0  0  0
 38 43  2  0  0  0
 38 46  1  0  0  0
 38 47  1  0  0  0
 39 64  1  0  0  0
 39 67  2  0  0  0
 40 52  1  0  0  0
 40 53  2  0  0  0
 40 58  1  0  0  0
 41112  1  0  0  0
 41113  1  0  0  0
 41114  1  0  0  0
 41 48  1  0  0  0
 42 43  1  0  0  0
 42 66  1  0  0  0
 42115  1  0  0  0
 42116  1  0  0  0
 43 44  1  0  0  0
 44117  1  0  0  0
 45 46  2  0  0  0
 45118  1  0  0  0
 46119  1  0  0  0
 47120  1  0  0  0
 47121  1  0  0  0
 48 56  1  0  0  0
 48 65  1  0  0  0
 48122  1  0  0  0
 49 50  1  0  0  0
 49 53  1  0  0  0
 49 64  1  0  0  0
 49123  1  0  0  0
 50 51  1  0  0  0
 50124  1  0  0  0
 50125  1  0  0  0
 51 52  1  0  0  0
 51126  1  0  0  0
 51127  1  0  0  0
 52128  1  0  0  0
 52129  1  0  0  0
 53 54  1  0  0  0
 54 55  2  0  0  0
 54130  1  0  0  0
 55 57  1  0  0  0
 55131  1  0  0  0
 56 69  2  0  0  0
 57 58  2  0  0  0
 57132  1  0  0  0
 58133  1  0  0  0
 59 60  1  0  0  0
 59 61  1  0  0  0
 59 62  1  0  0  0
 60134  1  0  0  0
 60135  1  0  0  0
 60136  1  0  0  0
 61137  1  0  0  0
 61138  1  0  0  0
 61139  1  0  0  0
 62140  1  0  0  0
 62141  1  0  0  0
 62142  1  0  0  0
 63 65  1  0  0  0
 63143  1  0  0  0
 63144  1  0  0  0
 63145  1  0  0  0
 64146  1  0  0  0
 65147  1  0  0  0
 68 83  1  0  0  0
 71 72  2  0  0  0
 71 73  1  0  0  0
 71148  1  0  0  0
 72 74  1  0  0  0
 72149  1  0  0  0
 73 75  2  0  0  0
 73150  1  0  0  0
 74 76  2  0  0  0
 74 85  1  0  0  0
 75 76  1  0  0  0
 75 86  1  0  0  0
 76 88  1  0  0  0
 77 78  1  0  0  0
 77 79  1  0  0  0
 77 81  2  0  0  0
 78 80  1  0  0  0
 78 83  2  0  0  0
 79 82  2  0  0  0
 79 84  1  0  0  0
 80 85  1  0  0  0
 80 87  2  0  0  0
 81151  1  0  0  0
 81152  1  0  0  0
 82153  1  0  0  0
 82154  1  0  0  0
 83155  1  0  0  0
 84 85  1  0  0  0
 84156  1  0  0  0
 84157  1  0  0  0
 86158  1  0  0  0
M  ISO  4   1 100  68 101  83 101  86 100
M  END
> <chiral flag>
0

> <version>
0

> <s_m_source_file>
/data/baiqing/PycharmProjects/Reinvent-master-3.2/result/LINK_invent/BTK/process_docking_weight1_custom_product_contain_oxygen_bond_distance_aromatic_linkinvent_7_9_3/rearranged_h_0078.sdf

> <i_m_source_file_index>
80

> <r_mmod_Potential_Energy-OPLS-2005>
411.597015380859

> <r_mmod_Stretch_Energy-OPLS-2005>
184.8369140625

> <r_mmod_Bend_Energy-OPLS-2005>
201.121719360352

> <r_mmod_Torsional_Energy-OPLS-2005>
323.060241699219

> <r_mmod_Improper_Torsional_Energy-OPLS-2005>
6.10419321060181

> <r_mmod_Van_der_Waal_Energy-OPLS-2005>
172.56803894043

> <r_mmod_Electrostatic_Energy-OPLS-2005>
-376.132141113281

> <r_mmod_Solvation_Energy-OPLS-2005>
-207.006042480469

> <b_mmod_Minimization_Converged-OPLS-2005>
0

> <r_mmod_RMS_Derivative-OPLS-2005>
6.61812496185303

$$$$
81
                    3D
 Structure written by MMmdl.
163173  0  0  1  0            999 V2000
  -30.6341  -14.5912   20.4776 C   0  0  0  0  0  0
  -30.4331  -12.3534   19.4575 C   0  0  0  0  0  0
  -29.5108  -12.5041   18.2274 C   0  0  0  0  0  0
  -28.0327  -12.3342   18.6330 C   0  0  0  0  0  0
  -27.6548  -13.1984   19.8662 C   0  0  2  0  0  0
  -28.6953  -13.0566   21.0028 C   0  0  0  0  0  0
  -25.2602  -13.8127   20.5643 C   0  0  0  0  0  0
  -24.1841  -13.0410   20.9148 C   0  0  0  0  0  0
  -24.6377  -11.6872   20.8729 C   0  0  0  0  0  0
  -23.9050  -10.4261   21.0408 C   0  0  0  0  0  0
  -24.3613   -9.4185   21.9175 C   0  0  0  0  0  0
  -23.6284   -8.2227   22.0761 C   0  0  0  0  0  0
  -22.4268   -8.0262   21.3531 C   0  0  0  0  0  0
  -21.9896   -9.0241   20.4641 C   0  0  0  0  0  0
  -22.7242  -10.2112   20.3048 C   0  0  0  0  0  0
  -21.6840   -6.0733   22.5278 C   0  0  0  0  0  0
  -21.4021   -6.5639   23.8216 C   0  0  0  0  0  0
  -21.3657   -5.6787   24.9175 C   0  0  0  0  0  0
  -21.6051   -4.3048   24.7218 C   0  0  0  0  0  0
  -21.8827   -3.8143   23.4337 C   0  0  0  0  0  0
  -21.9198   -4.6967   22.3401 C   0  0  0  0  0  0
  -22.7883  -13.5234   21.1824 C   0  0  0  0  0  0
  -22.1660   -4.2149   21.0972 F   0  0  0  0  0  0
  -21.5621   -3.4534   25.7727 F   0  0  0  0  0  0
  -30.0211  -13.3691   20.4466 N   0  0  0  0  0  0
  -26.2995  -12.9253   20.3291 N   0  0  0  0  0  0
  -25.9289  -11.6423   20.5718 N   0  0  0  0  0  0
  -22.0543  -12.8196   22.0393 N   0  0  0  0  0  0
  -25.4355  -15.1836   20.4087 N   0  0  0  0  0  0
  -31.7924  -14.7465   20.0807 O   0  0  0  0  0  0
  -21.6623   -6.8866   21.4233 O   0  0  0  0  0  0
  -22.3562  -14.5542   20.6694 O   0  0  0  0  0  0
  -24.6235  -31.8640   23.2018 C   0  0  0  0  0  0
  -25.9089  -32.4813   23.8361 C   0  0  1  0  0  0
  -27.2399  -27.3806   20.1399 C   0  0  0  0  0  0
  -25.5907  -33.8606   24.2283 N   0  0  0  0  0  0
  -23.4185  -30.4857   21.5397 C   0  0  2  0  0  0
  -24.8725  -28.9485   20.1040 C   0  0  0  0  0  0
  -22.7463  -29.4703   22.4931 C   0  0  0  0  0  0
  -18.0277  -28.1393   22.8563 C   0  0  0  0  0  0
  -24.1490  -36.7284   23.2648 C   0  0  0  0  0  0
  -25.9507  -30.8176   21.3641 C   0  0  0  0  0  0
  -26.0332  -29.4504   20.7087 C   0  0  0  0  0  0
  -27.2228  -28.6755   20.7205 C   0  0  0  0  0  0
  -26.0701  -26.9134   19.5045 C   0  0  0  0  0  0
  -24.8913  -27.6843   19.4881 C   0  0  0  0  0  0
  -23.6301  -29.8116   20.1562 C   0  0  0  0  0  0
  -25.4126  -36.3104   24.0335 C   0  0  1  0  0  0
  -20.5860  -28.3809   23.1262 C   0  0  2  0  0  0
  -20.6833  -26.9554   22.5331 C   0  0  0  0  0  0
  -19.5726  -26.6448   21.5251 C   0  0  0  0  0  0
  -18.1986  -26.7845   22.1878 C   0  0  0  0  0  0
  -19.1511  -28.8943   23.2859 C   0  0  0  0  0  0
  -18.9404  -30.1605   23.8715 C   0  0  0  0  0  0
  -17.6406  -30.6699   24.0388 C   0  0  0  0  0  0
  -25.9055  -34.9475   23.5113 C   0  0  0  0  0  0
  -16.5310  -29.9089   23.6304 C   0  0  0  0  0  0
  -16.7244  -28.6474   23.0429 C   0  0  0  0  0  0
  -26.4483  -31.6621   25.0714 C   0  0  0  0  0  0
  -25.3770  -31.3902   26.1532 C   0  0  0  0  0  0
  -27.0175  -30.2970   24.6182 C   0  0  0  0  0  0
  -27.6174  -32.4259   25.7359 C   0  0  0  0  0  0
  -27.5594  -37.1813   24.8463 C   0  0  0  0  0  0
  -21.4160  -29.3218   22.3731 N   0  0  0  0  0  0
  -26.4313  -37.3790   23.9399 N   0  0  0  0  0  0
  -24.6826  -31.0710   22.0932 N   0  0  0  0  0  0
  -23.4182  -28.8148   23.2929 O   0  0  0  0  0  0
  -28.3050  -26.4988   20.3004 O   0  0  0  0  0  0
  -26.5628  -34.8946   22.4681 O   0  0  0  0  0  0
  -23.5405  -32.1406   23.7362 O   0  0  0  0  0  0
  -27.0068  -18.7835   19.1755 C   0  0  0  0  0  0
  -27.3080  -20.1399   19.4281 C   0  0  0  0  0  0
  -29.5476  -19.5829   20.3682 C   0  0  0  0  0  0
  -29.1607  -18.2085   20.3002 C   0  0  0  0  0  0
  -27.9622  -17.8604   19.5990 C   0  0  0  0  0  0
  -28.5610  -20.5627   19.9653 C   0  0  0  0  0  0
  -27.6509  -23.6296   23.5582 C   0  0  0  0  0  0
  -28.9232  -22.8788   20.8396 C   0  0  0  0  0  0
  -28.2237  -25.0235   23.8418 C   0  0  0  0  0  0
  -26.9446  -23.4239   22.2067 C   0  0  0  0  0  0
  -28.9287  -25.6575   22.6131 C   0  0  0  0  0  0
  -29.7285  -16.8626   19.8108 C   0  0  2  0  0  0
  -27.7908  -23.9587   21.0201 C   0  0  1  0  0  0
  -28.0595  -25.4942   21.3475 C   0  0  2  0  0  0
  -28.4220  -16.6382   19.0968 N   0  0  0  0  0  0
  -28.7520  -21.9840   19.8454 N   0  0  0  0  0  0
  -29.8091  -15.6566   20.6881 N   0  0  0  0  0  0
  -27.7478  -22.7155   24.3786 O   0  0  0  0  0  0
  -29.8794  -22.8027   21.6134 O   0  0  0  0  0  0
  -31.4780  -12.4626   19.1587 H   0  0  0  0  0  0
  -30.3433  -11.3554   19.8860 H   0  0  0  0  0  0
  -29.7778  -11.7691   17.4653 H   0  0  0  0  0  0
  -29.6578  -13.4857   17.7742 H   0  0  0  0  0  0
  -27.8655  -11.2784   18.8498 H   0  0  0  0  0  0
  -27.3827  -12.5778   17.7916 H   0  0  0  0  0  0
  -27.6664  -14.2271   19.5213 H   0  0  0  0  0  0
  -28.6880  -12.0467   21.4115 H   0  0  0  0  0  0
  -28.4440  -13.7153   21.8373 H   0  0  0  0  0  0
  -25.2783   -9.5652   22.4717 H   0  0  0  0  0  0
  -24.0011   -7.4613   22.7469 H   0  0  0  0  0  0
  -21.0842   -8.8751   19.8931 H   0  0  0  0  0  0
  -22.3725  -10.9631   19.6129 H   0  0  0  0  0  0
  -21.2015   -7.6151   23.9714 H   0  0  0  0  0  0
  -21.1472   -6.0514   25.9071 H   0  0  0  0  0  0
  -22.0614   -2.7606   23.2833 H   0  0  0  0  0  0
  -22.4185  -11.9857   22.4764 H   0  0  0  0  0  0
  -21.1141  -13.1149   22.2572 H   0  0  0  0  0  0
  -24.6796  -15.8471   20.5343 H   0  0  0  0  0  0
  -26.2931  -15.6157   20.0731 H   0  0  0  0  0  0
  -26.7176  -32.5520   23.1147 H   0  0  0  0  0  0
  -25.0032  -33.9764   25.0411 H   0  0  0  0  0  0
  -22.7131  -31.3058   21.3908 H   0  0  0  0  0  0
  -23.3772  -35.9602   23.3347 H   0  0  0  0  0  0
  -24.3568  -36.8867   22.2055 H   0  0  0  0  0  0
  -23.7238  -37.6487   23.6650 H   0  0  0  0  0  0
  -26.0713  -31.5797   20.5929 H   0  0  0  0  0  0
  -26.8348  -30.8708   21.9865 H   0  0  0  0  0  0
  -28.1066  -29.0420   21.2246 H   0  0  0  0  0  0
  -26.0575  -25.9243   19.0685 H   0  0  0  0  0  0
  -24.0014  -27.2883   19.0189 H   0  0  0  0  0  0
  -23.7245  -30.5751   19.3832 H   0  0  0  0  0  0
  -22.7580  -29.2177   19.8773 H   0  0  0  0  0  0
  -25.1325  -36.1969   25.0833 H   0  0  0  0  0  0
  -20.9919  -28.3409   24.1402 H   0  0  0  0  0  0
  -20.5993  -26.2395   23.3523 H   0  0  0  0  0  0
  -21.6654  -26.7682   22.0983 H   0  0  0  0  0  0
  -19.6513  -27.3281   20.6803 H   0  0  0  0  0  0
  -19.6967  -25.6398   21.1234 H   0  0  0  0  0  0
  -17.4098  -26.6246   21.4515 H   0  0  0  0  0  0
  -18.0737  -26.0115   22.9471 H   0  0  0  0  0  0
  -19.7854  -30.7554   24.1895 H   0  0  0  0  0  0
  -17.4952  -31.6448   24.4838 H   0  0  0  0  0  0
  -15.5302  -30.2977   23.7655 H   0  0  0  0  0  0
  -15.8668  -28.0727   22.7195 H   0  0  0  0  0  0
  -24.5716  -30.7498   25.7918 H   0  0  0  0  0  0
  -24.9251  -32.3158   26.5102 H   0  0  0  0  0  0
  -25.8069  -30.8909   27.0224 H   0  0  0  0  0  0
  -26.2599  -29.6729   24.1401 H   0  0  0  0  0  0
  -27.3955  -29.7280   25.4688 H   0  0  0  0  0  0
  -27.8512  -30.4111   23.9248 H   0  0  0  0  0  0
  -27.3006  -33.3735   26.1736 H   0  0  0  0  0  0
  -28.4040  -32.6501   25.0139 H   0  0  0  0  0  0
  -28.0725  -31.8444   26.5385 H   0  0  0  0  0  0
  -28.2638  -38.0082   24.7491 H   0  0  0  0  0  0
  -28.1067  -36.2618   24.6324 H   0  0  0  0  0  0
  -27.2313  -37.1512   25.8867 H   0  0  0  0  0  0
  -20.9334  -29.9037   21.7024 H   0  0  0  0  0  0
  -26.0206  -38.2878   24.1369 H   0  0  0  0  0  0
  -26.1453  -18.4907   18.5955 H   0  0  0  0  0  0
  -26.5991  -20.8764   19.0742 H   0  0  0  0  0  0
  -30.5615  -19.8642   20.6142 H   0  0  0  0  0  0
  -28.8942  -24.9729   24.6993 H   0  0  0  0  0  0
  -27.3799  -25.6494   24.1373 H   0  0  0  0  0  0
  -25.9887  -23.9450   22.2514 H   0  0  0  0  0  0
  -26.7094  -22.3686   22.0729 H   0  0  0  0  0  0
  -29.9097  -25.2101   22.4623 H   0  0  0  0  0  0
  -29.1086  -26.7107   22.8241 H   0  0  0  0  0  0
  -30.5576  -16.9818   19.1087 H   0  0  0  0  0  0
  -27.1676  -23.9268   20.1265 H   0  0  0  0  0  0
  -27.0853  -25.7977   21.7417 H   0  0  0  0  0  0
  -28.4681  -16.6342   18.0804 H   0  0  0  0  0  0
  -28.1513  -22.3730   19.1332 H   0  0  0  0  0  0
  -28.9354  -15.4024   21.1196 H   0  0  0  0  0  0
  1 25  1  0  0  0
  1 30  2  0  0  0
  1 87  1  0  0  0
  2  3  1  0  0  0
  2 25  1  0  0  0
  2 90  1  0  0  0
  2 91  1  0  0  0
  3  4  1  0  0  0
  3 92  1  0  0  0
  3 93  1  0  0  0
  4  5  1  0  0  0
  4 94  1  0  0  0
  4 95  1  0  0  0
  5  6  1  0  0  0
  5 26  1  0  0  0
  5 96  1  0  0  0
  6 25  1  0  0  0
  6 97  1  0  0  0
  6 98  1  0  0  0
  7  8  2  0  0  0
  7 26  1  0  0  0
  7 29  1  0  0  0
  8  9  1  0  0  0
  8 22  1  0  0  0
  9 10  1  0  0  0
  9 27  2  0  0  0
 10 11  2  0  0  0
 10 15  1  0  0  0
 11 12  1  0  0  0
 11 99  1  0  0  0
 12 13  2  0  0  0
 12100  1  0  0  0
 13 14  1  0  0  0
 13 31  1  0  0  0
 14 15  2  0  0  0
 14101  1  0  0  0
 15102  1  0  0  0
 16 17  2  0  0  0
 16 21  1  0  0  0
 16 31  1  0  0  0
 17 18  1  0  0  0
 17103  1  0  0  0
 18 19  2  0  0  0
 18104  1  0  0  0
 19 20  1  0  0  0
 19 24  1  0  0  0
 20 21  2  0  0  0
 20105  1  0  0  0
 21 23  1  0  0  0
 22 28  1  0  0  0
 22 32  2  0  0  0
 26 27  1  0  0  0
 28106  1  0  0  0
 28107  1  0  0  0
 29108  1  0  0  0
 29109  1  0  0  0
 33 34  1  0  0  0
 33 66  1  0  0  0
 33 70  2  0  0  0
 34 36  1  0  0  0
 34 59  1  0  0  0
 34110  1  0  0  0
 35 44  2  0  0  0
 35 45  1  0  0  0
 35 68  1  0  0  0
 36 56  1  0  0  0
 36111  1  0  0  0
 37 39  1  0  0  0
 37 47  1  0  0  0
 37 66  1  0  0  0
 37112  1  0  0  0
 38 43  2  0  0  0
 38 46  1  0  0  0
 38 47  1  0  0  0
 39 64  1  0  0  0
 39 67  2  0  0  0
 40 52  1  0  0  0
 40 53  2  0  0  0
 40 58  1  0  0  0
 41113  1  0  0  0
 41114  1  0  0  0
 41115  1  0  0  0
 41 48  1  0  0  0
 42 43  1  0  0  0
 42 66  1  0  0  0
 42116  1  0  0  0
 42117  1  0  0  0
 43 44  1  0  0  0
 44118  1  0  0  0
 45 46  2  0  0  0
 45119  1  0  0  0
 46120  1  0  0  0
 47121  1  0  0  0
 47122  1  0  0  0
 48 56  1  0  0  0
 48 65  1  0  0  0
 48123  1  0  0  0
 49 50  1  0  0  0
 49 53  1  0  0  0
 49 64  1  0  0  0
 49124  1  0  0  0
 50 51  1  0  0  0
 50125  1  0  0  0
 50126  1  0  0  0
 51 52  1  0  0  0
 51127  1  0  0  0
 51128  1  0  0  0
 52129  1  0  0  0
 52130  1  0  0  0
 53 54  1  0  0  0
 54 55  2  0  0  0
 54131  1  0  0  0
 55 57  1  0  0  0
 55132  1  0  0  0
 56 69  2  0  0  0
 57 58  2  0  0  0
 57133  1  0  0  0
 58134  1  0  0  0
 59 60  1  0  0  0
 59 61  1  0  0  0
 59 62  1  0  0  0
 60135  1  0  0  0
 60136  1  0  0  0
 60137  1  0  0  0
 61138  1  0  0  0
 61139  1  0  0  0
 61140  1  0  0  0
 62141  1  0  0  0
 62142  1  0  0  0
 62143  1  0  0  0
 63 65  1  0  0  0
 63144  1  0  0  0
 63145  1  0  0  0
 63146  1  0  0  0
 64147  1  0  0  0
 65148  1  0  0  0
 68 84  1  0  0  0
 71 72  2  0  0  0
 71 75  1  0  0  0
 71149  1  0  0  0
 72 76  1  0  0  0
 72150  1  0  0  0
 73 74  1  0  0  0
 73 76  2  0  0  0
 73151  1  0  0  0
 74 75  2  0  0  0
 74 82  1  0  0  0
 75 85  1  0  0  0
 76 86  1  0  0  0
 77 79  1  0  0  0
 77 80  1  0  0  0
 77 88  2  0  0  0
 78 86  1  0  0  0
 78 89  2  0  0  0
 78 83  1  0  0  0
 79 81  1  0  0  0
 79152  1  0  0  0
 79153  1  0  0  0
 80 83  1  0  0  0
 80154  1  0  0  0
 80155  1  0  0  0
 81 84  1  0  0  0
 81156  1  0  0  0
 81157  1  0  0  0
 82 85  1  0  0  0
 82 87  1  0  0  0
 82158  1  0  0  0
 83 84  1  0  0  0
 83159  1  0  0  0
 84160  1  0  0  0
 85161  1  0  0  0
 86162  1  0  0  0
 87163  1  0  0  0
M  ISO  4   1 100  68 101  84 101  87 100
M  END
> <chiral flag>
0

> <version>
0

> <s_m_source_file>
/data/baiqing/PycharmProjects/Reinvent-master-3.2/result/LINK_invent/BTK/process_docking_weight1_custom_product_contain_oxygen_bond_distance_aromatic_linkinvent_7_9_3/rearranged_h_0078.sdf

> <i_m_source_file_index>
81

> <r_mmod_Potential_Energy-OPLS-2005>
383.717742919922

> <r_mmod_Stretch_Energy-OPLS-2005>
76.4502792358398

> <r_mmod_Bend_Energy-OPLS-2005>
462.608489990234

> <r_mmod_Torsional_Energy-OPLS-2005>
381.191131591797

> <r_mmod_Improper_Torsional_Energy-OPLS-2005>
47.2312812805176

> <r_mmod_Van_der_Waal_Energy-OPLS-2005>
150.605239868164

> <r_mmod_Electrostatic_Energy-OPLS-2005>
-516.862670898438

> <r_mmod_Solvation_Energy-OPLS-2005>
-260.060089111328

> <b_mmod_Minimization_Converged-OPLS-2005>
0

> <r_mmod_RMS_Derivative-OPLS-2005>
4.48356533050537

$$$$
82
                    3D
 Structure written by MMmdl.
153162  0  0  1  0            999 V2000
  -30.6256  -14.6405   20.4909 C   0  0  0  0  0  0
  -30.4434  -12.3922   19.4448 C   0  0  0  0  0  0
  -29.5073  -12.5066   18.2206 C   0  0  0  0  0  0
  -28.0305  -12.3462   18.6358 C   0  0  0  0  0  0
  -27.6550  -13.2168   19.8644 C   0  0  2  0  0  0
  -28.7045  -13.0676   20.9902 C   0  0  0  0  0  0
  -25.2550  -13.8153   20.5684 C   0  0  0  0  0  0
  -24.1810  -13.0417   20.9149 C   0  0  0  0  0  0
  -24.6395  -11.6897   20.8716 C   0  0  0  0  0  0
  -23.9065  -10.4285   21.0395 C   0  0  0  0  0  0
  -24.3615   -9.4204   21.9176 C   0  0  0  0  0  0
  -23.6287   -8.2242   22.0754 C   0  0  0  0  0  0
  -22.4264   -8.0281   21.3550 C   0  0  0  0  0  0
  -21.9902   -9.0256   20.4653 C   0  0  0  0  0  0
  -22.7236  -10.2129   20.3053 C   0  0  0  0  0  0
  -21.6854   -6.0732   22.5279 C   0  0  0  0  0  0
  -21.4015   -6.5631   23.8210 C   0  0  0  0  0  0
  -21.3659   -5.6789   24.9173 C   0  0  0  0  0  0
  -21.6046   -4.3051   24.7225 C   0  0  0  0  0  0
  -21.8818   -3.8142   23.4344 C   0  0  0  0  0  0
  -21.9194   -4.6961   22.3403 C   0  0  0  0  0  0
  -22.7833  -13.5219   21.1820 C   0  0  0  0  0  0
  -22.1662   -4.2149   21.0980 F   0  0  0  0  0  0
  -21.5627   -3.4536   25.7735 F   0  0  0  0  0  0
  -30.0209  -13.4113   20.4250 N   0  0  0  0  0  0
  -26.3005  -12.9352   20.3352 N   0  0  0  0  0  0
  -25.9331  -11.6502   20.5758 N   0  0  0  0  0  0
  -22.0481  -12.8234   22.0398 N   0  0  0  0  0  0
  -25.4197  -15.1880   20.4165 N   0  0  0  0  0  0
  -31.7886  -14.8087   20.1129 O   0  0  0  0  0  0
  -21.6634   -6.8876   21.4241 O   0  0  0  0  0  0
  -22.3522  -14.5528   20.6676 O   0  0  0  0  0  0
  -24.6293  -31.8610   23.2040 C   0  0  0  0  0  0
  -25.9133  -32.4788   23.8369 C   0  0  1  0  0  0
  -27.2139  -27.3036   20.1021 C   0  0  0  0  0  0
  -25.5938  -33.8586   24.2287 N   0  0  0  0  0  0
  -23.4231  -30.4896   21.5488 C   0  0  2  0  0  0
  -24.8660  -28.9537   20.1107 C   0  0  0  0  0  0
  -22.7500  -29.4636   22.4928 C   0  0  0  0  0  0
  -18.0298  -28.1389   22.8496 C   0  0  0  0  0  0
  -24.1489  -36.7295   23.2629 C   0  0  0  0  0  0
  -25.9695  -30.7867   21.3800 C   0  0  0  0  0  0
  -26.0410  -29.4156   20.7171 C   0  0  0  0  0  0
  -27.2186  -28.6030   20.7052 C   0  0  0  0  0  0
  -26.0078  -26.9128   19.4653 C   0  0  0  0  0  0
  -24.8528  -27.7071   19.4778 C   0  0  0  0  0  0
  -23.6377  -29.8359   20.1616 C   0  0  0  0  0  0
  -25.4105  -36.3085   24.0330 C   0  0  1  0  0  0
  -20.5903  -28.3697   23.1281 C   0  0  2  0  0  0
  -20.6784  -26.9416   22.5412 C   0  0  0  0  0  0
  -19.5749  -26.6390   21.5221 C   0  0  0  0  0  0
  -18.1934  -26.7935   22.1638 C   0  0  0  0  0  0
  -19.1551  -28.8862   23.2887 C   0  0  0  0  0  0
  -18.9466  -30.1462   23.8903 C   0  0  0  0  0  0
  -17.6461  -30.6588   24.0569 C   0  0  0  0  0  0
  -25.9052  -34.9455   23.5103 C   0  0  0  0  0  0
  -16.5355  -29.9084   23.6333 C   0  0  0  0  0  0
  -16.7285  -28.6506   23.0353 C   0  0  0  0  0  0
  -26.4492  -31.6595   25.0744 C   0  0  0  0  0  0
  -25.3708  -31.3753   26.1463 C   0  0  0  0  0  0
  -27.0322  -30.3011   24.6208 C   0  0  0  0  0  0
  -27.6061  -32.4317   25.7512 C   0  0  0  0  0  0
  -27.5594  -37.1780   24.8447 C   0  0  0  0  0  0
  -21.4208  -29.3054   22.3676 N   0  0  0  0  0  0
  -26.4274  -37.3792   23.9435 N   0  0  0  0  0  0
  -24.6933  -31.0615   22.1005 N   0  0  0  0  0  0
  -23.4219  -28.8156   23.2994 O   0  0  0  0  0  0
  -28.3058  -26.4077   20.1525 O   0  0  0  0  0  0
  -26.5625  -34.8923   22.4674 O   0  0  0  0  0  0
  -23.5450  -32.1417   23.7351 O   0  0  0  0  0  0
  -30.9214  -19.3501   20.3121 C   0  0  0  0  0  0
  -31.0066  -17.9230   20.4087 C   0  0  0  0  0  0
  -28.5557  -19.2504   20.6996 C   0  0  0  0  0  0
  -29.6936  -20.0687   20.4526 C   0  0  0  0  0  0
  -29.8588  -17.1272   20.6676 C   0  0  0  0  0  0
  -28.6390  -17.8336   20.8072 C   0  0  0  0  0  0
  -30.2728  -23.8001   20.4198 C   0  0  0  0  0  0
  -28.9601  -23.7931   20.1905 C   0  0  0  0  0  0
  -28.5488  -22.3708   20.1545 C   0  0  0  0  0  0
  -30.8228  -22.3940   20.5466 C   0  0  0  0  0  0
  -27.9690  -24.9756   19.9174 C   0  0  0  0  0  0
  -29.6317  -21.5482   20.3805 N   0  0  0  0  0  0
  -29.8032  -15.6755   20.8356 N   0  0  0  0  0  0
  -27.4005  -21.9751   19.9336 O   0  0  0  0  0  0
  -27.5109  -17.1251   21.0551 F   0  0  0  0  0  0
  -31.4828  -12.5209   19.1368 H   0  0  0  0  0  0
  -30.3836  -11.3958   19.8848 H   0  0  0  0  0  0
  -29.7685  -11.7552   17.4744 H   0  0  0  0  0  0
  -29.6495  -13.4758   17.7396 H   0  0  0  0  0  0
  -27.8660  -11.2929   18.8670 H   0  0  0  0  0  0
  -27.3757  -12.5774   17.7947 H   0  0  0  0  0  0
  -27.6717  -14.2521   19.5230 H   0  0  0  0  0  0
  -28.7158  -12.0443   21.3690 H   0  0  0  0  0  0
  -28.4522  -13.6966   21.8453 H   0  0  0  0  0  0
  -25.2759   -9.5681   22.4751 H   0  0  0  0  0  0
  -23.9999   -7.4634   22.7470 H   0  0  0  0  0  0
  -21.0833   -8.8775   19.8960 H   0  0  0  0  0  0
  -22.3692  -10.9668   19.6161 H   0  0  0  0  0  0
  -21.2008   -7.6141   23.9716 H   0  0  0  0  0  0
  -21.1480   -6.0514   25.9077 H   0  0  0  0  0  0
  -22.0598   -2.7606   23.2843 H   0  0  0  0  0  0
  -22.4089  -11.9907   22.4812 H   0  0  0  0  0  0
  -21.1109  -13.1282   22.2608 H   0  0  0  0  0  0
  -24.6560  -15.8354   20.5723 H   0  0  0  0  0  0
  -26.2991  -15.6624   20.2468 H   0  0  0  0  0  0
  -26.7209  -32.5448   23.1124 H   0  0  0  0  0  0
  -25.0060  -33.9733   25.0416 H   0  0  0  0  0  0
  -22.7175  -31.3113   21.4102 H   0  0  0  0  0  0
  -23.3766  -35.9609   23.3244 H   0  0  0  0  0  0
  -24.3602  -36.8960   22.2055 H   0  0  0  0  0  0
  -23.7218  -37.6471   23.6681 H   0  0  0  0  0  0
  -26.1049  -31.5504   20.6129 H   0  0  0  0  0  0
  -26.8489  -30.8335   22.0107 H   0  0  0  0  0  0
  -28.1173  -28.9506   21.1951 H   0  0  0  0  0  0
  -25.9021  -25.9692   18.9537 H   0  0  0  0  0  0
  -23.9524  -27.3488   18.9972 H   0  0  0  0  0  0
  -23.7616  -30.6176   19.4109 H   0  0  0  0  0  0
  -22.7559  -29.2711   19.8547 H   0  0  0  0  0  0
  -25.1272  -36.1924   25.0820 H   0  0  0  0  0  0
  -21.0004  -28.3267   24.1399 H   0  0  0  0  0  0
  -20.5695  -26.2299   23.3611 H   0  0  0  0  0  0
  -21.6648  -26.7447   22.1195 H   0  0  0  0  0  0
  -19.6901  -25.6302   21.1250 H   0  0  0  0  0  0
  -19.6677  -27.3203   20.6751 H   0  0  0  0  0  0
  -17.4203  -26.6698   21.4041 H   0  0  0  0  0  0
  -18.0321  -26.0075   22.9030 H   0  0  0  0  0  0
  -19.7936  -30.7288   24.2267 H   0  0  0  0  0  0
  -17.5011  -31.6267   24.5169 H   0  0  0  0  0  0
  -15.5353  -30.2981   23.7646 H   0  0  0  0  0  0
  -15.8693  -28.0822   22.7057 H   0  0  0  0  0  0
  -24.5887  -30.7093   25.7798 H   0  0  0  0  0  0
  -24.8885  -32.2924   26.4856 H   0  0  0  0  0  0
  -25.8011  -30.8960   27.0266 H   0  0  0  0  0  0
  -26.2901  -29.6784   24.1197 H   0  0  0  0  0  0
  -27.3971  -29.7247   25.4720 H   0  0  0  0  0  0
  -27.8797  -30.4287   23.9468 H   0  0  0  0  0  0
  -27.2686  -33.3613   26.2107 H   0  0  0  0  0  0
  -28.3862  -32.6881   25.0332 H   0  0  0  0  0  0
  -28.0744  -31.8428   26.5410 H   0  0  0  0  0  0
  -28.2539  -38.0147   24.7606 H   0  0  0  0  0  0
  -28.1156  -36.2689   24.6114 H   0  0  0  0  0  0
  -27.2342  -37.1249   25.8850 H   0  0  0  0  0  0
  -20.9374  -29.8797   21.6913 H   0  0  0  0  0  0
  -26.0146  -38.2848   24.1503 H   0  0  0  0  0  0
  -31.8362  -19.8928   20.1204 H   0  0  0  0  0  0
  -31.9714  -17.4496   20.2940 H   0  0  0  0  0  0
  -27.5818  -19.6946   20.8365 H   0  0  0  0  0  0
  -30.8969  -24.6798   20.4790 H   0  0  0  0  0  0
  -31.2804  -22.2420   21.5247 H   0  0  0  0  0  0
  -31.5612  -22.2018   19.7677 H   0  0  0  0  0  0
  -27.0825  -24.7365   20.5079 H   0  0  0  0  0  0
  -27.6987  -24.8571   18.8674 H   0  0  0  0  0  0
  -28.8900  -15.3572   21.1225 H   0  0  0  0  0  0
  1 25  1  0  0  0
  1 30  2  0  0  0
  1 83  1  0  0  0
  2  3  1  0  0  0
  2 25  1  0  0  0
  2 86  1  0  0  0
  2 87  1  0  0  0
  3  4  1  0  0  0
  3 88  1  0  0  0
  3 89  1  0  0  0
  4  5  1  0  0  0
  4 90  1  0  0  0
  4 91  1  0  0  0
  5  6  1  0  0  0
  5 26  1  0  0  0
  5 92  1  0  0  0
  6 25  1  0  0  0
  6 93  1  0  0  0
  6 94  1  0  0  0
  7  8  2  0  0  0
  7 26  1  0  0  0
  7 29  1  0  0  0
  8  9  1  0  0  0
  8 22  1  0  0  0
  9 10  1  0  0  0
  9 27  2  0  0  0
 10 11  2  0  0  0
 10 15  1  0  0  0
 11 12  1  0  0  0
 11 95  1  0  0  0
 12 13  2  0  0  0
 12 96  1  0  0  0
 13 14  1  0  0  0
 13 31  1  0  0  0
 14 15  2  0  0  0
 14 97  1  0  0  0
 15 98  1  0  0  0
 16 17  2  0  0  0
 16 21  1  0  0  0
 16 31  1  0  0  0
 17 18  1  0  0  0
 17 99  1  0  0  0
 18 19  2  0  0  0
 18100  1  0  0  0
 19 20  1  0  0  0
 19 24  1  0  0  0
 20 21  2  0  0  0
 20101  1  0  0  0
 21 23  1  0  0  0
 22 28  1  0  0  0
 22 32  2  0  0  0
 26 27  1  0  0  0
 28102  1  0  0  0
 28103  1  0  0  0
 29104  1  0  0  0
 29105  1  0  0  0
 33 34  1  0  0  0
 33 66  1  0  0  0
 33 70  2  0  0  0
 34 36  1  0  0  0
 34 59  1  0  0  0
 34106  1  0  0  0
 35 44  2  0  0  0
 35 45  1  0  0  0
 35 68  1  0  0  0
 36 56  1  0  0  0
 36107  1  0  0  0
 37 39  1  0  0  0
 37 47  1  0  0  0
 37 66  1  0  0  0
 37108  1  0  0  0
 38 43  2  0  0  0
 38 46  1  0  0  0
 38 47  1  0  0  0
 39 64  1  0  0  0
 39 67  2  0  0  0
 40 52  1  0  0  0
 40 53  2  0  0  0
 40 58  1  0  0  0
 41109  1  0  0  0
 41110  1  0  0  0
 41111  1  0  0  0
 41 48  1  0  0  0
 42 43  1  0  0  0
 42 66  1  0  0  0
 42112  1  0  0  0
 42113  1  0  0  0
 43 44  1  0  0  0
 44114  1  0  0  0
 45 46  2  0  0  0
 45115  1  0  0  0
 46116  1  0  0  0
 47117  1  0  0  0
 47118  1  0  0  0
 48 56  1  0  0  0
 48 65  1  0  0  0
 48119  1  0  0  0
 49 50  1  0  0  0
 49 53  1  0  0  0
 49 64  1  0  0  0
 49120  1  0  0  0
 50 51  1  0  0  0
 50121  1  0  0  0
 50122  1  0  0  0
 51 52  1  0  0  0
 51123  1  0  0  0
 51124  1  0  0  0
 52125  1  0  0  0
 52126  1  0  0  0
 53 54  1  0  0  0
 54 55  2  0  0  0
 54127  1  0  0  0
 55 57  1  0  0  0
 55128  1  0  0  0
 56 69  2  0  0  0
 57 58  2  0  0  0
 57129  1  0  0  0
 58130  1  0  0  0
 59 60  1  0  0  0
 59 61  1  0  0  0
 59 62  1  0  0  0
 60131  1  0  0  0
 60132  1  0  0  0
 60133  1  0  0  0
 61134  1  0  0  0
 61135  1  0  0  0
 61136  1  0  0  0
 62137  1  0  0  0
 62138  1  0  0  0
 62139  1  0  0  0
 63 65  1  0  0  0
 63140  1  0  0  0
 63141  1  0  0  0
 63142  1  0  0  0
 64143  1  0  0  0
 65144  1  0  0  0
 68 81  1  0  0  0
 71 72  2  0  0  0
 71 74  1  0  0  0
 71145  1  0  0  0
 72 75  1  0  0  0
 72146  1  0  0  0
 73 74  2  0  0  0
 73 76  1  0  0  0
 73147  1  0  0  0
 74 82  1  0  0  0
 75 76  2  0  0  0
 75 83  1  0  0  0
 76 85  1  0  0  0
 77 78  2  0  0  0
 77 80  1  0  0  0
 77148  1  0  0  0
 78 79  1  0  0  0
 78 81  1  0  0  0
 79 82  1  0  0  0
 79 84  2  0  0  0
 80 82  1  0  0  0
 80149  1  0  0  0
 80150  1  0  0  0
 81151  1  0  0  0
 81152  1  0  0  0
 83153  1  0  0  0
M  ISO  4   1 100  68 101  81 101  83 100
M  END
> <chiral flag>
0

> <version>
0

> <s_m_source_file>
/data/baiqing/PycharmProjects/Reinvent-master-3.2/result/LINK_invent/BTK/process_docking_weight1_custom_product_contain_oxygen_bond_distance_aromatic_linkinvent_7_9_3/rearranged_h_0078.sdf

> <i_m_source_file_index>
82

> <r_mmod_Potential_Energy-OPLS-2005>
133.883422851562

> <r_mmod_Stretch_Energy-OPLS-2005>
83.8600692749023

> <r_mmod_Bend_Energy-OPLS-2005>
195.262313842773

> <r_mmod_Torsional_Energy-OPLS-2005>
235.620239257812

> <r_mmod_Improper_Torsional_Energy-OPLS-2005>
4.38197994232178

> <r_mmod_Van_der_Waal_Energy-OPLS-2005>
151.090728759766

> <r_mmod_Electrostatic_Energy-OPLS-2005>
-387.128082275391

> <r_mmod_Solvation_Energy-OPLS-2005>
-204.076675415039

> <b_mmod_Minimization_Converged-OPLS-2005>
0

> <r_mmod_RMS_Derivative-OPLS-2005>
1.14045405387878

$$$$
83
                    3D
 Structure written by MMmdl.
166175  0  0  1  0            999 V2000
  -30.7187  -14.4201   20.4716 C   0  0  0  0  0  0
  -30.4122  -12.2431   19.4276 C   0  0  0  0  0  0
  -29.4932  -12.4623   18.2069 C   0  0  0  0  0  0
  -28.0110  -12.3431   18.6155 C   0  0  0  0  0  0
  -27.6599  -13.1964   19.8626 C   0  0  2  0  0  0
  -28.7046  -13.0035   20.9900 C   0  0  0  0  0  0
  -25.2600  -13.8144   20.5660 C   0  0  0  0  0  0
  -24.1839  -13.0446   20.9178 C   0  0  0  0  0  0
  -24.6373  -11.6908   20.8749 C   0  0  0  0  0  0
  -23.9044  -10.4294   21.0407 C   0  0  0  0  0  0
  -24.3605   -9.4208   21.9176 C   0  0  0  0  0  0
  -23.6290   -8.2237   22.0738 C   0  0  0  0  0  0
  -22.4275   -8.0267   21.3526 C   0  0  0  0  0  0
  -21.9902   -9.0240   20.4634 C   0  0  0  0  0  0
  -22.7223  -10.2123   20.3045 C   0  0  0  0  0  0
  -21.6854   -6.0732   22.5279 C   0  0  0  0  0  0
  -21.4009   -6.5634   23.8210 C   0  0  0  0  0  0
  -21.3658   -5.6787   24.9168 C   0  0  0  0  0  0
  -21.6037   -4.3055   24.7220 C   0  0  0  0  0  0
  -21.8821   -3.8143   23.4352 C   0  0  0  0  0  0
  -21.9188   -4.6956   22.3404 C   0  0  0  0  0  0
  -22.7862  -13.5259   21.1843 C   0  0  0  0  0  0
  -22.1668   -4.2143   21.0982 F   0  0  0  0  0  0
  -21.5625   -3.4537   25.7739 F   0  0  0  0  0  0
  -30.0445  -13.2461   20.4327 N   0  0  0  0  0  0
  -26.3016  -12.9298   20.3309 N   0  0  0  0  0  0
  -25.9292  -11.6484   20.5756 N   0  0  0  0  0  0
  -22.0479  -12.8250   22.0384 N   0  0  0  0  0  0
  -25.4356  -15.1854   20.4022 N   0  0  0  0  0  0
  -31.9128  -14.5365   20.1869 O   0  0  0  0  0  0
  -21.6638   -6.8867   21.4241 O   0  0  0  0  0  0
  -22.3545  -14.5571   20.6700 O   0  0  0  0  0  0
  -24.6114  -31.8712   23.2115 C   0  0  0  0  0  0
  -25.9027  -32.4828   23.8397 C   0  0  1  0  0  0
  -27.2330  -27.4738   20.0896 C   0  0  0  0  0  0
  -25.5915  -33.8625   24.2346 N   0  0  0  0  0  0
  -23.3954  -30.4920   21.5520 C   0  0  2  0  0  0
  -24.8385  -28.9571   20.1164 C   0  0  0  0  0  0
  -22.7399  -29.4674   22.5031 C   0  0  0  0  0  0
  -18.0276  -28.1368   22.8495 C   0  0  0  0  0  0
  -24.1482  -36.7323   23.2634 C   0  0  0  0  0  0
  -25.9174  -30.8456   21.3590 C   0  0  0  0  0  0
  -25.9944  -29.4810   20.7086 C   0  0  0  0  0  0
  -27.1969  -28.7477   20.6870 C   0  0  0  0  0  0
  -26.0637  -26.9469   19.5009 C   0  0  0  0  0  0
  -24.8654  -27.6883   19.5094 C   0  0  0  0  0  0
  -23.6000  -29.8226   20.1661 C   0  0  0  0  0  0
  -25.4091  -36.3111   24.0353 C   0  0  1  0  0  0
  -20.5866  -28.3652   23.1342 C   0  0  2  0  0  0
  -20.6768  -26.9403   22.5420 C   0  0  0  0  0  0
  -19.5735  -26.6381   21.5217 C   0  0  0  0  0  0
  -18.1918  -26.7912   22.1632 C   0  0  0  0  0  0
  -19.1524  -28.8824   23.2905 C   0  0  0  0  0  0
  -18.9453  -30.1442   23.8896 C   0  0  0  0  0  0
  -17.6455  -30.6573   24.0570 C   0  0  0  0  0  0
  -25.9028  -34.9479   23.5128 C   0  0  0  0  0  0
  -16.5349  -29.9078   23.6330 C   0  0  0  0  0  0
  -16.7268  -28.6503   23.0334 C   0  0  0  0  0  0
  -26.4468  -31.6582   25.0707 C   0  0  0  0  0  0
  -25.3775  -31.3683   26.1501 C   0  0  0  0  0  0
  -27.0291  -30.3031   24.6033 C   0  0  0  0  0  0
  -27.6053  -32.4285   25.7473 C   0  0  0  0  0  0
  -27.5575  -37.1810   24.8464 C   0  0  0  0  0  0
  -21.4137  -29.3029   22.3775 N   0  0  0  0  0  0
  -26.4276  -37.3793   23.9420 N   0  0  0  0  0  0
  -24.6585  -31.0845   22.0994 N   0  0  0  0  0  0
  -23.4189  -28.8237   23.3068 O   0  0  0  0  0  0
  -28.4235  -26.7959   20.0602 O   0  0  0  0  0  0
  -26.5576  -34.8930   22.4680 O   0  0  0  0  0  0
  -23.5324  -32.1467   23.7544 O   0  0  0  0  0  0
  -29.4459  -18.4089   21.1835 C   0  0  0  0  0  0
  -29.5375  -19.6943   21.7400 C   0  0  0  0  0  0
  -31.7207  -19.9879   20.6944 C   0  0  0  0  0  0
  -30.4545  -17.9265   20.3228 C   0  0  0  0  0  0
  -31.6293  -18.7030   20.1199 C   0  0  0  0  0  0
  -30.6496  -20.5082   21.4461 C   0  0  0  0  0  0
  -30.1257  -24.0738   21.8212 C   0  0  0  0  0  0
  -31.2338  -23.8981   22.7226 C   0  0  0  0  0  0
  -29.7711  -22.7678   21.2960 C   0  0  0  0  0  0
  -31.7939  -24.8553   23.4840 C   0  0  0  0  0  0
  -29.5189  -25.2345   21.4948 C   0  0  0  0  0  0
  -31.6559  -22.4588   22.6955 C   0  0  0  0  0  0
  -32.7832  -18.2177   19.2546 C   0  0  0  0  0  0
  -29.0444  -16.8066   18.5547 C   0  0  0  0  0  0
  -28.3928  -25.4460   20.4989 C   0  0  0  0  0  0
  -30.1955  -16.6318   19.5586 C   0  0  2  0  0  0
  -30.6383  -21.8720   21.8237 N   0  0  0  0  0  0
  -29.9138  -15.4863   20.4265 N   0  0  0  0  0  0
  -28.8461  -22.4920   20.5221 O   0  0  0  0  0  0
  -31.4622  -12.3098   19.1364 H   0  0  0  0  0  0
  -30.2776  -11.2394   19.8330 H   0  0  0  0  0  0
  -29.7257  -11.7345   17.4278 H   0  0  0  0  0  0
  -29.6732  -13.4453   17.7687 H   0  0  0  0  0  0
  -27.8120  -11.2900   18.8166 H   0  0  0  0  0  0
  -27.3670  -12.6187   17.7782 H   0  0  0  0  0  0
  -27.6955  -14.2336   19.5354 H   0  0  0  0  0  0
  -28.6541  -11.9870   21.3824 H   0  0  0  0  0  0
  -28.5001  -13.6640   21.8336 H   0  0  0  0  0  0
  -25.2732   -9.5703   22.4760 H   0  0  0  0  0  0
  -23.9996   -7.4635   22.7466 H   0  0  0  0  0  0
  -21.0823   -8.8759   19.8959 H   0  0  0  0  0  0
  -22.3660  -10.9664   19.6166 H   0  0  0  0  0  0
  -21.2010   -7.6136   23.9719 H   0  0  0  0  0  0
  -21.1480   -6.0511   25.9076 H   0  0  0  0  0  0
  -22.0606   -2.7606   23.2847 H   0  0  0  0  0  0
  -22.4093  -11.9912   22.4771 H   0  0  0  0  0  0
  -21.1101  -13.1291   22.2614 H   0  0  0  0  0  0
  -24.6662  -15.8422   20.4844 H   0  0  0  0  0  0
  -26.2770  -15.6099   20.0368 H   0  0  0  0  0  0
  -26.7102  -32.5544   23.1169 H   0  0  0  0  0  0
  -25.0120  -33.9763   25.0537 H   0  0  0  0  0  0
  -22.6821  -31.3071   21.4156 H   0  0  0  0  0  0
  -23.3734  -35.9669   23.3303 H   0  0  0  0  0  0
  -24.3591  -36.8914   22.2046 H   0  0  0  0  0  0
  -23.7247  -37.6536   23.6640 H   0  0  0  0  0  0
  -26.0266  -31.6122   20.5907 H   0  0  0  0  0  0
  -26.8103  -30.8981   21.9706 H   0  0  0  0  0  0
  -28.0934  -29.1514   21.1339 H   0  0  0  0  0  0
  -26.0803  -25.9800   19.0203 H   0  0  0  0  0  0
  -23.9789  -27.2823   19.0441 H   0  0  0  0  0  0
  -23.7087  -30.5978   19.4062 H   0  0  0  0  0  0
  -22.7204  -29.2444   19.8743 H   0  0  0  0  0  0
  -25.1264  -36.1964   25.0851 H   0  0  0  0  0  0
  -20.9938  -28.3193   24.1468 H   0  0  0  0  0  0
  -20.5670  -26.2267   23.3595 H   0  0  0  0  0  0
  -21.6637  -26.7446   22.1206 H   0  0  0  0  0  0
  -19.6894  -25.6295   21.1221 H   0  0  0  0  0  0
  -19.6649  -27.3212   20.6753 H   0  0  0  0  0  0
  -17.4193  -26.6676   21.4036 H   0  0  0  0  0  0
  -18.0320  -26.0051   22.9021 H   0  0  0  0  0  0
  -19.7928  -30.7262   24.2251 H   0  0  0  0  0  0
  -17.5010  -31.6245   24.5173 H   0  0  0  0  0  0
  -15.5350  -30.2970   23.7630 H   0  0  0  0  0  0
  -15.8682  -28.0814   22.7019 H   0  0  0  0  0  0
  -24.5908  -30.7053   25.7883 H   0  0  0  0  0  0
  -24.9031  -32.2844   26.5024 H   0  0  0  0  0  0
  -25.8182  -30.8812   27.0211 H   0  0  0  0  0  0
  -26.2811  -29.6789   24.1123 H   0  0  0  0  0  0
  -27.4126  -29.7241   25.4445 H   0  0  0  0  0  0
  -27.8625  -30.4372   23.9134 H   0  0  0  0  0  0
  -27.2666  -33.3548   26.2128 H   0  0  0  0  0  0
  -28.3840  -32.6889   25.0295 H   0  0  0  0  0  0
  -28.0762  -31.8368   26.5331 H   0  0  0  0  0  0
  -28.2593  -38.0102   24.7517 H   0  0  0  0  0  0
  -28.1065  -36.2640   24.6280 H   0  0  0  0  0  0
  -27.2315  -37.1459   25.8870 H   0  0  0  0  0  0
  -20.9311  -29.8741   21.6988 H   0  0  0  0  0  0
  -26.0167  -38.2875   24.1405 H   0  0  0  0  0  0
  -28.5576  -17.8216   21.3637 H   0  0  0  0  0  0
  -28.7224  -20.0756   22.3370 H   0  0  0  0  0  0
  -32.5836  -20.6097   20.4925 H   0  0  0  0  0  0
  -31.4397  -25.8753   23.4717 H   0  0  0  0  0  0
  -32.6240  -24.6366   24.1392 H   0  0  0  0  0  0
  -29.8470  -26.1449   21.9725 H   0  0  0  0  0  0
  -31.6198  -22.0189   23.6929 H   0  0  0  0  0  0
  -32.6592  -22.3525   22.2820 H   0  0  0  0  0  0
  -33.1996  -17.2962   19.6631 H   0  0  0  0  0  0
  -33.5902  -18.9496   19.2042 H   0  0  0  0  0  0
  -32.4587  -18.0353   18.2293 H   0  0  0  0  0  0
  -29.2398  -17.6454   17.8843 H   0  0  0  0  0  0
  -28.0913  -17.0022   19.0451 H   0  0  0  0  0  0
  -28.9227  -15.9204   17.9280 H   0  0  0  0  0  0
  -27.4526  -25.1782   20.9866 H   0  0  0  0  0  0
  -28.5110  -24.8090   19.6229 H   0  0  0  0  0  0
  -31.0583  -16.4092   18.9325 H   0  0  0  0  0  0
  -28.9479  -15.3148   20.6550 H   0  0  0  0  0  0
  1 25  1  0  0  0
  1 30  2  0  0  0
  1 88  1  0  0  0
  2  3  1  0  0  0
  2 25  1  0  0  0
  2 90  1  0  0  0
  2 91  1  0  0  0
  3  4  1  0  0  0
  3 92  1  0  0  0
  3 93  1  0  0  0
  4  5  1  0  0  0
  4 94  1  0  0  0
  4 95  1  0  0  0
  5  6  1  0  0  0
  5 26  1  0  0  0
  5 96  1  0  0  0
  6 25  1  0  0  0
  6 97  1  0  0  0
  6 98  1  0  0  0
  7  8  2  0  0  0
  7 26  1  0  0  0
  7 29  1  0  0  0
  8  9  1  0  0  0
  8 22  1  0  0  0
  9 10  1  0  0  0
  9 27  2  0  0  0
 10 11  2  0  0  0
 10 15  1  0  0  0
 11 12  1  0  0  0
 11 99  1  0  0  0
 12 13  2  0  0  0
 12100  1  0  0  0
 13 14  1  0  0  0
 13 31  1  0  0  0
 14 15  2  0  0  0
 14101  1  0  0  0
 15102  1  0  0  0
 16 17  2  0  0  0
 16 21  1  0  0  0
 16 31  1  0  0  0
 17 18  1  0  0  0
 17103  1  0  0  0
 18 19  2  0  0  0
 18104  1  0  0  0
 19 20  1  0  0  0
 19 24  1  0  0  0
 20 21  2  0  0  0
 20105  1  0  0  0
 21 23  1  0  0  0
 22 28  1  0  0  0
 22 32  2  0  0  0
 26 27  1  0  0  0
 28106  1  0  0  0
 28107  1  0  0  0
 29108  1  0  0  0
 29109  1  0  0  0
 33 34  1  0  0  0
 33 66  1  0  0  0
 33 70  2  0  0  0
 34 36  1  0  0  0
 34 59  1  0  0  0
 34110  1  0  0  0
 35 44  2  0  0  0
 35 45  1  0  0  0
 35 68  1  0  0  0
 36 56  1  0  0  0
 36111  1  0  0  0
 37 39  1  0  0  0
 37 47  1  0  0  0
 37 66  1  0  0  0
 37112  1  0  0  0
 38 43  2  0  0  0
 38 46  1  0  0  0
 38 47  1  0  0  0
 39 64  1  0  0  0
 39 67  2  0  0  0
 40 52  1  0  0  0
 40 53  2  0  0  0
 40 58  1  0  0  0
 41113  1  0  0  0
 41114  1  0  0  0
 41115  1  0  0  0
 41 48  1  0  0  0
 42 43  1  0  0  0
 42 66  1  0  0  0
 42116  1  0  0  0
 42117  1  0  0  0
 43 44  1  0  0  0
 44118  1  0  0  0
 45 46  2  0  0  0
 45119  1  0  0  0
 46120  1  0  0  0
 47121  1  0  0  0
 47122  1  0  0  0
 48 56  1  0  0  0
 48 65  1  0  0  0
 48123  1  0  0  0
 49 50  1  0  0  0
 49 53  1  0  0  0
 49 64  1  0  0  0
 49124  1  0  0  0
 50 51  1  0  0  0
 50125  1  0  0  0
 50126  1  0  0  0
 51 52  1  0  0  0
 51127  1  0  0  0
 51128  1  0  0  0
 52129  1  0  0  0
 52130  1  0  0  0
 53 54  1  0  0  0
 54 55  2  0  0  0
 54131  1  0  0  0
 55 57  1  0  0  0
 55132  1  0  0  0
 56 69  2  0  0  0
 57 58  2  0  0  0
 57133  1  0  0  0
 58134  1  0  0  0
 59 60  1  0  0  0
 59 61  1  0  0  0
 59 62  1  0  0  0
 60135  1  0  0  0
 60136  1  0  0  0
 60137  1  0  0  0
 61138  1  0  0  0
 61139  1  0  0  0
 61140  1  0  0  0
 62141  1  0  0  0
 62142  1  0  0  0
 62143  1  0  0  0
 63 65  1  0  0  0
 63144  1  0  0  0
 63145  1  0  0  0
 63146  1  0  0  0
 64147  1  0  0  0
 65148  1  0  0  0
 68 85  1  0  0  0
 71 72  2  0  0  0
 71 74  1  0  0  0
 71149  1  0  0  0
 72 76  1  0  0  0
 72150  1  0  0  0
 73 75  1  0  0  0
 73 76  2  0  0  0
 73151  1  0  0  0
 74 75  2  0  0  0
 74 86  1  0  0  0
 75 83  1  0  0  0
 76 87  1  0  0  0
 77 78  1  0  0  0
 77 79  1  0  0  0
 77 81  2  0  0  0
 78 80  2  0  0  0
 78 82  1  0  0  0
 79 87  1  0  0  0
 79 89  2  0  0  0
 80152  1  0  0  0
 80153  1  0  0  0
 81 85  1  0  0  0
 81154  1  0  0  0
 82 87  1  0  0  0
 82155  1  0  0  0
 82156  1  0  0  0
 83157  1  0  0  0
 83158  1  0  0  0
 83159  1  0  0  0
 84160  1  0  0  0
 84161  1  0  0  0
 84162  1  0  0  0
 84 86  1  0  0  0
 85163  1  0  0  0
 85164  1  0  0  0
 86 88  1  0  0  0
 86165  1  0  0  0
 88166  1  0  0  0
M  ISO  4   1 100  68 101  85 101  88 100
M  END
> <chiral flag>
0

> <version>
0

> <s_m_source_file>
/data/baiqing/PycharmProjects/Reinvent-master-3.2/result/LINK_invent/BTK/process_docking_weight1_custom_product_contain_oxygen_bond_distance_aromatic_linkinvent_7_9_3/rearranged_h_0078.sdf

> <i_m_source_file_index>
83

> <r_mmod_Potential_Energy-OPLS-2005>
80.5535430908203

> <r_mmod_Stretch_Energy-OPLS-2005>
32.1842384338379

> <r_mmod_Bend_Energy-OPLS-2005>
141.322799682617

> <r_mmod_Torsional_Energy-OPLS-2005>
314.360870361328

> <r_mmod_Improper_Torsional_Energy-OPLS-2005>
14.6100978851318

> <r_mmod_Van_der_Waal_Energy-OPLS-2005>
156.305419921875

> <r_mmod_Electrostatic_Energy-OPLS-2005>
-383.700347900391

> <r_mmod_Solvation_Energy-OPLS-2005>
-212.243682861328

> <b_mmod_Minimization_Converged-OPLS-2005>
0

> <r_mmod_RMS_Derivative-OPLS-2005>
3.31617903709412

$$$$
84
                    3D
 Structure written by MMmdl.
159168  0  0  1  0            999 V2000
  -30.6910  -14.4277   20.6302 C   0  0  0  0  0  0
  -30.4322  -12.2995   19.4030 C   0  0  0  0  0  0
  -29.4921  -12.5180   18.1979 C   0  0  0  0  0  0
  -28.0135  -12.3755   18.6106 C   0  0  0  0  0  0
  -27.6681  -13.1941   19.8827 C   0  0  2  0  0  0
  -28.7051  -12.9182   20.9936 C   0  0  0  0  0  0
  -25.2625  -13.8135   20.5651 C   0  0  0  0  0  0
  -24.1862  -13.0438   20.9170 C   0  0  0  0  0  0
  -24.6396  -11.6896   20.8739 C   0  0  0  0  0  0
  -23.9056  -10.4293   21.0421 C   0  0  0  0  0  0
  -24.3619   -9.4206   21.9197 C   0  0  0  0  0  0
  -23.6297   -8.2238   22.0763 C   0  0  0  0  0  0
  -22.4278   -8.0285   21.3550 C   0  0  0  0  0  0
  -21.9919   -9.0255   20.4648 C   0  0  0  0  0  0
  -22.7242  -10.2134   20.3062 C   0  0  0  0  0  0
  -21.6844   -6.0748   22.5283 C   0  0  0  0  0  0
  -21.4007   -6.5649   23.8218 C   0  0  0  0  0  0
  -21.3657   -5.6797   24.9181 C   0  0  0  0  0  0
  -21.6045   -4.3064   24.7227 C   0  0  0  0  0  0
  -21.8819   -3.8157   23.4342 C   0  0  0  0  0  0
  -21.9193   -4.6976   22.3402 C   0  0  0  0  0  0
  -22.7884  -13.5254   21.1829 C   0  0  0  0  0  0
  -22.1660   -4.2168   21.0976 F   0  0  0  0  0  0
  -21.5632   -3.4547   25.7737 F   0  0  0  0  0  0
  -30.0431  -13.2440   20.4606 N   0  0  0  0  0  0
  -26.3054  -12.9278   20.3379 N   0  0  0  0  0  0
  -25.9317  -11.6454   20.5772 N   0  0  0  0  0  0
  -22.0507  -12.8246   22.0375 N   0  0  0  0  0  0
  -25.4381  -15.1846   20.4009 N   0  0  0  0  0  0
  -31.7771  -14.6807   20.0976 O   0  0  0  0  0  0
  -21.6630   -6.8891   21.4246 O   0  0  0  0  0  0
  -22.3579  -14.5574   20.6698 O   0  0  0  0  0  0
  -24.6115  -31.8691   23.2104 C   0  0  0  0  0  0
  -25.9019  -32.4828   23.8404 C   0  0  1  0  0  0
  -27.2424  -27.4635   20.1039 C   0  0  0  0  0  0
  -25.5890  -33.8626   24.2339 N   0  0  0  0  0  0
  -23.3988  -30.4876   21.5517 C   0  0  2  0  0  0
  -24.8460  -28.9486   20.1222 C   0  0  0  0  0  0
  -22.7389  -29.4645   22.5026 C   0  0  0  0  0  0
  -18.0258  -28.1368   22.8493 C   0  0  0  0  0  0
  -24.1487  -36.7311   23.2642 C   0  0  0  0  0  0
  -25.9206  -30.8439   21.3570 C   0  0  0  0  0  0
  -26.0007  -29.4767   20.7118 C   0  0  0  0  0  0
  -27.2032  -28.7412   20.6974 C   0  0  0  0  0  0
  -26.0765  -26.9346   19.5145 C   0  0  0  0  0  0
  -24.8756  -27.6743   19.5235 C   0  0  0  0  0  0
  -23.6063  -29.8127   20.1678 C   0  0  0  0  0  0
  -25.4109  -36.3119   24.0350 C   0  0  1  0  0  0
  -20.5844  -28.3646   23.1345 C   0  0  2  0  0  0
  -20.6747  -26.9398   22.5425 C   0  0  0  0  0  0
  -19.5731  -26.6381   21.5211 C   0  0  0  0  0  0
  -18.1906  -26.7910   22.1625 C   0  0  0  0  0  0
  -19.1510  -28.8826   23.2903 C   0  0  0  0  0  0
  -18.9453  -30.1431   23.8918 C   0  0  0  0  0  0
  -17.6461  -30.6588   24.0568 C   0  0  0  0  0  0
  -25.9040  -34.9483   23.5144 C   0  0  0  0  0  0
  -16.5348  -29.9098   23.6330 C   0  0  0  0  0  0
  -16.7252  -28.6510   23.0352 C   0  0  0  0  0  0
  -26.4451  -31.6585   25.0715 C   0  0  0  0  0  0
  -25.3724  -31.3664   26.1469 C   0  0  0  0  0  0
  -27.0274  -30.3047   24.6023 C   0  0  0  0  0  0
  -27.6046  -32.4274   25.7473 C   0  0  0  0  0  0
  -27.5586  -37.1809   24.8472 C   0  0  0  0  0  0
  -21.4124  -29.3017   22.3765 N   0  0  0  0  0  0
  -26.4298  -37.3802   23.9418 N   0  0  0  0  0  0
  -24.6616  -31.0808   22.0992 N   0  0  0  0  0  0
  -23.4157  -28.8200   23.3078 O   0  0  0  0  0  0
  -28.4325  -26.7801   20.0618 O   0  0  0  0  0  0
  -26.5609  -34.8939   22.4706 O   0  0  0  0  0  0
  -23.5313  -32.1420   23.7523 O   0  0  0  0  0  0
  -31.0346  -18.9235   20.9711 C   0  0  0  0  0  0
  -28.7131  -18.7907   21.6835 C   0  0  0  0  0  0
  -31.1274  -17.5155   20.9872 C   0  0  0  0  0  0
  -28.8079  -17.3833   21.7064 C   0  0  0  0  0  0
  -29.8240  -19.5755   21.3060 C   0  0  0  0  0  0
  -30.0074  -16.7303   21.3462 C   0  0  0  0  0  0
  -30.7819  -21.8640   21.5831 C   0  0  0  0  0  0
  -29.7515  -21.0581   21.3093 C   0  0  0  0  0  0
  -28.6533  -21.9107   20.8580 C   0  0  0  0  0  0
  -30.4448  -23.3065   21.3886 C   0  0  0  0  0  0
  -27.9467  -25.8743   22.3533 C   0  0  0  0  0  0
  -28.3726  -24.3433   20.3059 C   0  0  0  0  0  0
  -28.6455  -25.7065   20.9876 C   0  0  1  0  0  0
  -29.0668  -23.1977   20.9198 N   0  0  0  0  0  0
  -30.0160  -15.3069   21.3932 N   0  0  0  0  0  0
  -27.5492  -21.5481   20.4420 O   0  0  0  0  0  0
  -31.4736  -12.4216   19.0983 H   0  0  0  0  0  0
  -30.3497  -11.2760   19.7721 H   0  0  0  0  0  0
  -29.7271  -11.8077   17.4037 H   0  0  0  0  0  0
  -29.6583  -13.5116   17.7786 H   0  0  0  0  0  0
  -27.8187  -11.3177   18.7884 H   0  0  0  0  0  0
  -27.3625  -12.6680   17.7864 H   0  0  0  0  0  0
  -27.7310  -14.2501   19.6182 H   0  0  0  0  0  0
  -28.6788  -11.8637   21.2731 H   0  0  0  0  0  0
  -28.4509  -13.4554   21.9080 H   0  0  0  0  0  0
  -25.2767   -9.5678   22.4774 H   0  0  0  0  0  0
  -24.0012   -7.4626   22.7481 H   0  0  0  0  0  0
  -21.0860   -8.8774   19.8944 H   0  0  0  0  0  0
  -22.3717  -10.9680   19.6170 H   0  0  0  0  0  0
  -21.1988   -7.6153   23.9730 H   0  0  0  0  0  0
  -21.1481   -6.0524   25.9085 H   0  0  0  0  0  0
  -22.0599   -2.7622   23.2833 H   0  0  0  0  0  0
  -22.4111  -11.9890   22.4738 H   0  0  0  0  0  0
  -21.1127  -13.1278   22.2579 H   0  0  0  0  0  0
  -24.6708  -15.8418   20.4893 H   0  0  0  0  0  0
  -26.2883  -15.6132   20.0571 H   0  0  0  0  0  0
  -26.7110  -32.5560   23.1195 H   0  0  0  0  0  0
  -25.0032  -33.9785   25.0481 H   0  0  0  0  0  0
  -22.6872  -31.3030   21.4103 H   0  0  0  0  0  0
  -23.3763  -35.9628   23.3293 H   0  0  0  0  0  0
  -24.3594  -36.8935   22.2062 H   0  0  0  0  0  0
  -23.7216  -37.6507   23.6657 H   0  0  0  0  0  0
  -26.0217  -31.6086   20.5857 H   0  0  0  0  0  0
  -26.8127  -30.9050   21.9685 H   0  0  0  0  0  0
  -28.1005  -29.1503   21.1408 H   0  0  0  0  0  0
  -26.1019  -25.9622   19.0439 H   0  0  0  0  0  0
  -23.9866  -27.2590   19.0690 H   0  0  0  0  0  0
  -23.7138  -30.5835   19.4035 H   0  0  0  0  0  0
  -22.7314  -29.2299   19.8754 H   0  0  0  0  0  0
  -25.1279  -36.2000   25.0844 H   0  0  0  0  0  0
  -20.9917  -28.3189   24.1468 H   0  0  0  0  0  0
  -20.5669  -26.2256   23.3602 H   0  0  0  0  0  0
  -21.6622  -26.7449   22.1220 H   0  0  0  0  0  0
  -19.6919  -25.6292   21.1243 H   0  0  0  0  0  0
  -19.6673  -27.3187   20.6741 H   0  0  0  0  0  0
  -17.4180  -26.6667   21.4018 H   0  0  0  0  0  0
  -18.0300  -26.0029   22.9005 H   0  0  0  0  0  0
  -19.7938  -30.7223   24.2307 H   0  0  0  0  0  0
  -17.5035  -31.6280   24.5150 H   0  0  0  0  0  0
  -15.5358  -30.3029   23.7643 H   0  0  0  0  0  0
  -15.8636  -28.0853   22.7067 H   0  0  0  0  0  0
  -24.5893  -30.7022   25.7790 H   0  0  0  0  0  0
  -24.8915  -32.2808   26.4955 H   0  0  0  0  0  0
  -25.8074  -30.8796   27.0205 H   0  0  0  0  0  0
  -26.2790  -29.6811   24.1114 H   0  0  0  0  0  0
  -27.4135  -29.7274   25.4433 H   0  0  0  0  0  0
  -27.8581  -30.4419   23.9094 H   0  0  0  0  0  0
  -27.2701  -33.3586   26.2056 H   0  0  0  0  0  0
  -28.3846  -32.6790   25.0275 H   0  0  0  0  0  0
  -28.0702  -31.8374   26.5376 H   0  0  0  0  0  0
  -28.2591  -38.0115   24.7537 H   0  0  0  0  0  0
  -28.1083  -36.2650   24.6263 H   0  0  0  0  0  0
  -27.2304  -37.1427   25.8873 H   0  0  0  0  0  0
  -20.9294  -29.8735   21.6977 H   0  0  0  0  0  0
  -26.0192  -38.2880   24.1425 H   0  0  0  0  0  0
  -31.9035  -19.5007   20.6891 H   0  0  0  0  0  0
  -27.7814  -19.2617   21.9667 H   0  0  0  0  0  0
  -32.0715  -17.0592   20.7271 H   0  0  0  0  0  0
  -27.9406  -16.8083   21.9994 H   0  0  0  0  0  0
  -31.7642  -21.5457   21.9000 H   0  0  0  0  0  0
  -31.0962  -23.7668   20.6442 H   0  0  0  0  0  0
  -30.5158  -23.8467   22.3338 H   0  0  0  0  0  0
  -28.2584  -25.0948   23.0488 H   0  0  0  0  0  0
  -26.8613  -25.8208   22.2650 H   0  0  0  0  0  0
  -28.1963  -26.8329   22.8086 H   0  0  0  0  0  0
  -28.7045  -24.3921   19.2682 H   0  0  0  0  0  0
  -27.2976  -24.1618   20.2721 H   0  0  0  0  0  0
  -29.7143  -25.7878   21.1820 H   0  0  0  0  0  0
  -29.1993  -14.8925   21.8152 H   0  0  0  0  0  0
  1 25  1  0  0  0
  1 30  2  0  0  0
  1 85  1  0  0  0
  2  3  1  0  0  0
  2 25  1  0  0  0
  2 87  1  0  0  0
  2 88  1  0  0  0
  3  4  1  0  0  0
  3 89  1  0  0  0
  3 90  1  0  0  0
  4  5  1  0  0  0
  4 91  1  0  0  0
  4 92  1  0  0  0
  5  6  1  0  0  0
  5 26  1  0  0  0
  5 93  1  0  0  0
  6 25  1  0  0  0
  6 94  1  0  0  0
  6 95  1  0  0  0
  7  8  2  0  0  0
  7 26  1  0  0  0
  7 29  1  0  0  0
  8  9  1  0  0  0
  8 22  1  0  0  0
  9 10  1  0  0  0
  9 27  2  0  0  0
 10 11  2  0  0  0
 10 15  1  0  0  0
 11 12  1  0  0  0
 11 96  1  0  0  0
 12 13  2  0  0  0
 12 97  1  0  0  0
 13 14  1  0  0  0
 13 31  1  0  0  0
 14 15  2  0  0  0
 14 98  1  0  0  0
 15 99  1  0  0  0
 16 17  2  0  0  0
 16 21  1  0  0  0
 16 31  1  0  0  0
 17 18  1  0  0  0
 17100  1  0  0  0
 18 19  2  0  0  0
 18101  1  0  0  0
 19 20  1  0  0  0
 19 24  1  0  0  0
 20 21  2  0  0  0
 20102  1  0  0  0
 21 23  1  0  0  0
 22 28  1  0  0  0
 22 32  2  0  0  0
 26 27  1  0  0  0
 28103  1  0  0  0
 28104  1  0  0  0
 29105  1  0  0  0
 29106  1  0  0  0
 33 34  1  0  0  0
 33 66  1  0  0  0
 33 70  2  0  0  0
 34 36  1  0  0  0
 34 59  1  0  0  0
 34107  1  0  0  0
 35 44  2  0  0  0
 35 45  1  0  0  0
 35 68  1  0  0  0
 36 56  1  0  0  0
 36108  1  0  0  0
 37 39  1  0  0  0
 37 47  1  0  0  0
 37 66  1  0  0  0
 37109  1  0  0  0
 38 43  2  0  0  0
 38 46  1  0  0  0
 38 47  1  0  0  0
 39 64  1  0  0  0
 39 67  2  0  0  0
 40 52  1  0  0  0
 40 53  2  0  0  0
 40 58  1  0  0  0
 41110  1  0  0  0
 41111  1  0  0  0
 41112  1  0  0  0
 41 48  1  0  0  0
 42 43  1  0  0  0
 42 66  1  0  0  0
 42113  1  0  0  0
 42114  1  0  0  0
 43 44  1  0  0  0
 44115  1  0  0  0
 45 46  2  0  0  0
 45116  1  0  0  0
 46117  1  0  0  0
 47118  1  0  0  0
 47119  1  0  0  0
 48 56  1  0  0  0
 48 65  1  0  0  0
 48120  1  0  0  0
 49 50  1  0  0  0
 49 53  1  0  0  0
 49 64  1  0  0  0
 49121  1  0  0  0
 50 51  1  0  0  0
 50122  1  0  0  0
 50123  1  0  0  0
 51 52  1  0  0  0
 51124  1  0  0  0
 51125  1  0  0  0
 52126  1  0  0  0
 52127  1  0  0  0
 53 54  1  0  0  0
 54 55  2  0  0  0
 54128  1  0  0  0
 55 57  1  0  0  0
 55129  1  0  0  0
 56 69  2  0  0  0
 57 58  2  0  0  0
 57130  1  0  0  0
 58131  1  0  0  0
 59 60  1  0  0  0
 59 61  1  0  0  0
 59 62  1  0  0  0
 60132  1  0  0  0
 60133  1  0  0  0
 60134  1  0  0  0
 61135  1  0  0  0
 61136  1  0  0  0
 61137  1  0  0  0
 62138  1  0  0  0
 62139  1  0  0  0
 62140  1  0  0  0
 63 65  1  0  0  0
 63141  1  0  0  0
 63142  1  0  0  0
 63143  1  0  0  0
 64144  1  0  0  0
 65145  1  0  0  0
 68 83  1  0  0  0
 71 73  2  0  0  0
 71 75  1  0  0  0
 71146  1  0  0  0
 72 74  1  0  0  0
 72 75  2  0  0  0
 72147  1  0  0  0
 73 76  1  0  0  0
 73148  1  0  0  0
 74 76  2  0  0  0
 74149  1  0  0  0
 75 78  1  0  0  0
 76 85  1  0  0  0
 77 78  2  0  0  0
 77 80  1  0  0  0
 77150  1  0  0  0
 78 79  1  0  0  0
 79 84  1  0  0  0
 79 86  2  0  0  0
 80 84  1  0  0  0
 80151  1  0  0  0
 80152  1  0  0  0
 81153  1  0  0  0
 81154  1  0  0  0
 81155  1  0  0  0
 81 83  1  0  0  0
 82 83  1  0  0  0
 82 84  1  0  0  0
 82156  1  0  0  0
 82157  1  0  0  0
 83158  1  0  0  0
 85159  1  0  0  0
M  ISO  4   1 100  68 101  83 101  85 100
M  END
> <chiral flag>
0

> <version>
0

> <s_m_source_file>
/data/baiqing/PycharmProjects/Reinvent-master-3.2/result/LINK_invent/BTK/process_docking_weight1_custom_product_contain_oxygen_bond_distance_aromatic_linkinvent_7_9_3/rearranged_h_0078.sdf

> <i_m_source_file_index>
84

> <r_mmod_Potential_Energy-OPLS-2005>
17.1851577758789

> <r_mmod_Stretch_Energy-OPLS-2005>
36.4665832519531

> <r_mmod_Bend_Energy-OPLS-2005>
149.803298950195

> <r_mmod_Torsional_Energy-OPLS-2005>
272.051391601562

> <r_mmod_Improper_Torsional_Energy-OPLS-2005>
4.43451881408691

> <r_mmod_Van_der_Waal_Energy-OPLS-2005>
148.544128417969

> <r_mmod_Electrostatic_Energy-OPLS-2005>
-379.090209960938

> <r_mmod_Solvation_Energy-OPLS-2005>
-223.334014892578

> <b_mmod_Minimization_Converged-OPLS-2005>
0

> <r_mmod_RMS_Derivative-OPLS-2005>
1.66077971458435

$$$$
85
                    3D
 Structure written by MMmdl.
154163  0  0  1  0            999 V2000
  -30.6834  -14.5691   20.4750 C   0  0  0  0  0  0
  -30.4174  -12.3432   19.4511 C   0  0  0  0  0  0
  -29.4996  -12.4898   18.2195 C   0  0  0  0  0  0
  -28.0207  -12.3479   18.6287 C   0  0  0  0  0  0
  -27.6508  -13.2206   19.8588 C   0  0  2  0  0  0
  -28.6950  -13.0893   20.9907 C   0  0  0  0  0  0
  -25.2548  -13.8185   20.5673 C   0  0  0  0  0  0
  -24.1825  -13.0442   20.9186 C   0  0  0  0  0  0
  -24.6403  -11.6917   20.8732 C   0  0  0  0  0  0
  -23.9078  -10.4292   21.0397 C   0  0  0  0  0  0
  -24.3630   -9.4207   21.9175 C   0  0  0  0  0  0
  -23.6294   -8.2250   22.0755 C   0  0  0  0  0  0
  -22.4276   -8.0283   21.3548 C   0  0  0  0  0  0
  -21.9913   -9.0260   20.4655 C   0  0  0  0  0  0
  -22.7246  -10.2135   20.3054 C   0  0  0  0  0  0
  -21.6862   -6.0733   22.5275 C   0  0  0  0  0  0
  -21.4020   -6.5638   23.8206 C   0  0  0  0  0  0
  -21.3655   -5.6790   24.9169 C   0  0  0  0  0  0
  -21.6042   -4.3052   24.7221 C   0  0  0  0  0  0
  -21.8819   -3.8145   23.4343 C   0  0  0  0  0  0
  -21.9194   -4.6959   22.3399 C   0  0  0  0  0  0
  -22.7847  -13.5231   21.1843 C   0  0  0  0  0  0
  -22.1664   -4.2141   21.0975 F   0  0  0  0  0  0
  -21.5625   -3.4538   25.7737 F   0  0  0  0  0  0
  -30.0149  -13.3807   20.4181 N   0  0  0  0  0  0
  -26.2982  -12.9379   20.3310 N   0  0  0  0  0  0
  -25.9335  -11.6532   20.5765 N   0  0  0  0  0  0
  -22.0492  -12.8233   22.0403 N   0  0  0  0  0  0
  -25.4240  -15.1904   20.4064 N   0  0  0  0  0  0
  -31.8729  -14.6517   20.1615 O   0  0  0  0  0  0
  -21.6643   -6.8878   21.4240 O   0  0  0  0  0  0
  -22.3532  -14.5531   20.6679 O   0  0  0  0  0  0
  -24.6201  -31.8635   23.2066 C   0  0  0  0  0  0
  -25.9072  -32.4796   23.8372 C   0  0  1  0  0  0
  -27.2241  -27.3850   20.1086 C   0  0  0  0  0  0
  -25.5907  -33.8598   24.2303 N   0  0  0  0  0  0
  -23.4115  -30.4877   21.5476 C   0  0  2  0  0  0
  -24.8603  -28.9531   20.1071 C   0  0  0  0  0  0
  -22.7450  -29.4632   22.4954 C   0  0  0  0  0  0
  -18.0281  -28.1376   22.8488 C   0  0  0  0  0  0
  -24.1486  -36.7313   23.2636 C   0  0  0  0  0  0
  -25.9458  -30.8158   21.3670 C   0  0  0  0  0  0
  -26.0247  -29.4488   20.7094 C   0  0  0  0  0  0
  -27.2154  -28.6735   20.7064 C   0  0  0  0  0  0
  -26.0465  -26.9209   19.4898 C   0  0  0  0  0  0
  -24.8695  -27.6922   19.4877 C   0  0  0  0  0  0
  -23.6227  -29.8236   20.1608 C   0  0  0  0  0  0
  -25.4104  -36.3102   24.0333 C   0  0  1  0  0  0
  -20.5882  -28.3674   23.1300 C   0  0  2  0  0  0
  -20.6769  -26.9400   22.5420 C   0  0  0  0  0  0
  -19.5750  -26.6380   21.5217 C   0  0  0  0  0  0
  -18.1929  -26.7919   22.1629 C   0  0  0  0  0  0
  -19.1531  -28.8844   23.2889 C   0  0  0  0  0  0
  -18.9457  -30.1451   23.8897 C   0  0  0  0  0  0
  -17.6456  -30.6579   24.0569 C   0  0  0  0  0  0
  -25.9037  -34.9464   23.5118 C   0  0  0  0  0  0
  -16.5347  -29.9083   23.6326 C   0  0  0  0  0  0
  -16.7271  -28.6504   23.0339 C   0  0  0  0  0  0
  -26.4479  -31.6583   25.0714 C   0  0  0  0  0  0
  -25.3734  -31.3723   26.1460 C   0  0  0  0  0  0
  -27.0299  -30.3006   24.6122 C   0  0  0  0  0  0
  -27.6044  -32.4310   25.7483 C   0  0  0  0  0  0
  -27.5581  -37.1809   24.8461 C   0  0  0  0  0  0
  -21.4171  -29.3032   22.3701 N   0  0  0  0  0  0
  -26.4292  -37.3788   23.9408 N   0  0  0  0  0  0
  -24.6778  -31.0707   22.0983 N   0  0  0  0  0  0
  -23.4202  -28.8167   23.3006 O   0  0  0  0  0  0
  -28.3042  -26.5186   20.1691 O   0  0  0  0  0  0
  -26.5612  -34.8927   22.4688 O   0  0  0  0  0  0
  -23.5382  -32.1402   23.7438 O   0  0  0  0  0  0
  -28.6912  -18.4424   21.5468 C   0  0  0  0  0  0
  -28.3117  -19.8093   21.7825 C   0  0  0  0  0  0
  -29.6474  -18.2899   20.5735 C   0  0  0  0  0  0
  -28.9550  -20.7359   20.9912 C   0  0  0  0  0  0
  -28.4419  -24.1482   20.9549 C   0  0  0  0  0  0
  -28.1715  -23.0886   21.8985 C   0  0  0  0  0  0
  -31.3391  -17.0166   17.7282 C   0  0  0  0  0  0
  -28.1235  -25.4716   21.0673 C   0  0  0  0  0  0
  -30.2748  -16.9939   18.5453 C   0  0  0  0  0  0
  -29.0718  -23.1441   19.9809 C   0  0  0  0  0  0
  -30.3555  -17.0298   20.0636 C   0  0  2  0  0  0
  -28.8201  -22.1742   21.0703 N   0  0  0  0  0  0
  -29.9316  -15.6999   20.5972 N   0  0  0  0  0  0
  -27.5528  -23.0695   22.9422 O   0  0  0  0  0  0
  -30.0538  -19.8870   19.9141 S   0  0  0  0  0  0
  -31.4628  -12.4300   19.1506 H   0  0  0  0  0  0
  -30.3165  -11.3512   19.8941 H   0  0  0  0  0  0
  -29.7523  -11.7400   17.4692 H   0  0  0  0  0  0
  -29.6612  -13.4612   17.7491 H   0  0  0  0  0  0
  -27.8430  -11.2962   18.8534 H   0  0  0  0  0  0
  -27.3719  -12.5911   17.7865 H   0  0  0  0  0  0
  -27.6684  -14.2542   19.5137 H   0  0  0  0  0  0
  -28.6845  -12.0822   21.4105 H   0  0  0  0  0  0
  -28.4620  -13.7659   21.8146 H   0  0  0  0  0  0
  -25.2782   -9.5679   22.4743 H   0  0  0  0  0  0
  -24.0000   -7.4652   22.7490 H   0  0  0  0  0  0
  -21.0835   -8.8783   19.8972 H   0  0  0  0  0  0
  -22.3705  -10.9676   19.6162 H   0  0  0  0  0  0
  -21.2020   -7.6147   23.9703 H   0  0  0  0  0  0
  -21.1476   -6.0526   25.9071 H   0  0  0  0  0  0
  -22.0603   -2.7610   23.2841 H   0  0  0  0  0  0
  -22.4109  -11.9896   22.4794 H   0  0  0  0  0  0
  -21.1112  -13.1269   22.2605 H   0  0  0  0  0  0
  -24.6550  -15.8427   20.5144 H   0  0  0  0  0  0
  -26.2668  -15.6295   20.0597 H   0  0  0  0  0  0
  -26.7144  -32.5495   23.1135 H   0  0  0  0  0  0
  -25.0050  -33.9746   25.0445 H   0  0  0  0  0  0
  -22.7022  -31.3061   21.4084 H   0  0  0  0  0  0
  -23.3739  -35.9657   23.3307 H   0  0  0  0  0  0
  -24.3582  -36.8921   22.2048 H   0  0  0  0  0  0
  -23.7249  -37.6525   23.6645 H   0  0  0  0  0  0
  -26.0658  -31.5808   20.5986 H   0  0  0  0  0  0
  -26.8315  -30.8673   21.9890 H   0  0  0  0  0  0
  -28.1086  -29.0411   21.1920 H   0  0  0  0  0  0
  -26.0346  -25.9408   19.0338 H   0  0  0  0  0  0
  -23.9759  -27.3055   19.0172 H   0  0  0  0  0  0
  -23.7309  -30.6012   19.4035 H   0  0  0  0  0  0
  -22.7457  -29.2455   19.8633 H   0  0  0  0  0  0
  -25.1281  -36.1965   25.0827 H   0  0  0  0  0  0
  -20.9974  -28.3248   24.1422 H   0  0  0  0  0  0
  -20.5673  -26.2283   23.3615 H   0  0  0  0  0  0
  -21.6637  -26.7430   22.1211 H   0  0  0  0  0  0
  -19.6911  -25.6296   21.1233 H   0  0  0  0  0  0
  -19.6689  -27.3206   20.6758 H   0  0  0  0  0  0
  -17.4197  -26.6667   21.4029 H   0  0  0  0  0  0
  -18.0331  -26.0055   22.9021 H   0  0  0  0  0  0
  -19.7932  -30.7268   24.2260 H   0  0  0  0  0  0
  -17.5007  -31.6254   24.5177 H   0  0  0  0  0  0
  -15.5349  -30.2986   23.7637 H   0  0  0  0  0  0
  -15.8671  -28.0831   22.7036 H   0  0  0  0  0  0
  -24.5900  -30.7070   25.7811 H   0  0  0  0  0  0
  -24.8937  -32.2894   26.4886 H   0  0  0  0  0  0
  -25.8077  -30.8909   27.0230 H   0  0  0  0  0  0
  -26.2849  -29.6781   24.1146 H   0  0  0  0  0  0
  -27.4005  -29.7232   25.4602 H   0  0  0  0  0  0
  -27.8720  -30.4294   23.9319 H   0  0  0  0  0  0
  -27.2642  -33.3596   26.2082 H   0  0  0  0  0  0
  -28.3844  -32.6893   25.0306 H   0  0  0  0  0  0
  -28.0720  -31.8418   26.5383 H   0  0  0  0  0  0
  -28.2603  -38.0101   24.7498 H   0  0  0  0  0  0
  -28.1074  -36.2632   24.6295 H   0  0  0  0  0  0
  -27.2305  -37.1471   25.8867 H   0  0  0  0  0  0
  -20.9338  -29.8767   21.6925 H   0  0  0  0  0  0
  -26.0181  -38.2869   24.1399 H   0  0  0  0  0  0
  -28.2592  -17.6303   22.1154 H   0  0  0  0  0  0
  -27.5843  -20.0614   22.5413 H   0  0  0  0  0  0
  -31.2183  -16.9923   16.6550 H   0  0  0  0  0  0
  -32.3460  -17.0587   18.1200 H   0  0  0  0  0  0
  -27.6290  -25.8201   21.9655 H   0  0  0  0  0  0
  -29.2829  -16.9526   18.1168 H   0  0  0  0  0  0
  -30.1350  -23.2421   19.7588 H   0  0  0  0  0  0
  -28.5068  -22.9002   19.0798 H   0  0  0  0  0  0
  -31.4082  -17.1539   20.3296 H   0  0  0  0  0  0
  -28.9578  -15.5816   20.8282 H   0  0  0  0  0  0
  1 25  1  0  0  0
  1 30  2  0  0  0
  1 83  1  0  0  0
  2  3  1  0  0  0
  2 25  1  0  0  0
  2 86  1  0  0  0
  2 87  1  0  0  0
  3  4  1  0  0  0
  3 88  1  0  0  0
  3 89  1  0  0  0
  4  5  1  0  0  0
  4 90  1  0  0  0
  4 91  1  0  0  0
  5  6  1  0  0  0
  5 26  1  0  0  0
  5 92  1  0  0  0
  6 25  1  0  0  0
  6 93  1  0  0  0
  6 94  1  0  0  0
  7  8  2  0  0  0
  7 26  1  0  0  0
  7 29  1  0  0  0
  8  9  1  0  0  0
  8 22  1  0  0  0
  9 10  1  0  0  0
  9 27  2  0  0  0
 10 11  2  0  0  0
 10 15  1  0  0  0
 11 12  1  0  0  0
 11 95  1  0  0  0
 12 13  2  0  0  0
 12 96  1  0  0  0
 13 14  1  0  0  0
 13 31  1  0  0  0
 14 15  2  0  0  0
 14 97  1  0  0  0
 15 98  1  0  0  0
 16 17  2  0  0  0
 16 21  1  0  0  0
 16 31  1  0  0  0
 17 18  1  0  0  0
 17 99  1  0  0  0
 18 19  2  0  0  0
 18100  1  0  0  0
 19 20  1  0  0  0
 19 24  1  0  0  0
 20 21  2  0  0  0
 20101  1  0  0  0
 21 23  1  0  0  0
 22 28  1  0  0  0
 22 32  2  0  0  0
 26 27  1  0  0  0
 28102  1  0  0  0
 28103  1  0  0  0
 29104  1  0  0  0
 29105  1  0  0  0
 33 34  1  0  0  0
 33 66  1  0  0  0
 33 70  2  0  0  0
 34 36  1  0  0  0
 34 59  1  0  0  0
 34106  1  0  0  0
 35 44  2  0  0  0
 35 45  1  0  0  0
 35 68  1  0  0  0
 36 56  1  0  0  0
 36107  1  0  0  0
 37 39  1  0  0  0
 37 47  1  0  0  0
 37 66  1  0  0  0
 37108  1  0  0  0
 38 43  2  0  0  0
 38 46  1  0  0  0
 38 47  1  0  0  0
 39 64  1  0  0  0
 39 67  2  0  0  0
 40 52  1  0  0  0
 40 53  2  0  0  0
 40 58  1  0  0  0
 41109  1  0  0  0
 41110  1  0  0  0
 41111  1  0  0  0
 41 48  1  0  0  0
 42 43  1  0  0  0
 42 66  1  0  0  0
 42112  1  0  0  0
 42113  1  0  0  0
 43 44  1  0  0  0
 44114  1  0  0  0
 45 46  2  0  0  0
 45115  1  0  0  0
 46116  1  0  0  0
 47117  1  0  0  0
 47118  1  0  0  0
 48 56  1  0  0  0
 48 65  1  0  0  0
 48119  1  0  0  0
 49 50  1  0  0  0
 49 53  1  0  0  0
 49 64  1  0  0  0
 49120  1  0  0  0
 50 51  1  0  0  0
 50121  1  0  0  0
 50122  1  0  0  0
 51 52  1  0  0  0
 51123  1  0  0  0
 51124  1  0  0  0
 52125  1  0  0  0
 52126  1  0  0  0
 53 54  1  0  0  0
 54 55  2  0  0  0
 54127  1  0  0  0
 55 57  1  0  0  0
 55128  1  0  0  0
 56 69  2  0  0  0
 57 58  2  0  0  0
 57129  1  0  0  0
 58130  1  0  0  0
 59 60  1  0  0  0
 59 61  1  0  0  0
 59 62  1  0  0  0
 60131  1  0  0  0
 60132  1  0  0  0
 60133  1  0  0  0
 61134  1  0  0  0
 61135  1  0  0  0
 61136  1  0  0  0
 62137  1  0  0  0
 62138  1  0  0  0
 62139  1  0  0  0
 63 65  1  0  0  0
 63140  1  0  0  0
 63141  1  0  0  0
 63142  1  0  0  0
 64143  1  0  0  0
 65144  1  0  0  0
 68 78  1  0  0  0
 71 72  1  0  0  0
 71 73  2  0  0  0
 71145  1  0  0  0
 72 74  2  0  0  0
 72146  1  0  0  0
 73 81  1  0  0  0
 73 85  1  0  0  0
 74 82  1  0  0  0
 74 85  1  0  0  0
 75 76  1  0  0  0
 75 78  2  0  0  0
 75 80  1  0  0  0
 76 82  1  0  0  0
 76 84  2  0  0  0
 77 79  2  0  0  0
 77147  1  0  0  0
 77148  1  0  0  0
 78149  1  0  0  0
 79 81  1  0  0  0
 79150  1  0  0  0
 80 82  1  0  0  0
 80151  1  0  0  0
 80152  1  0  0  0
 81 83  1  0  0  0
 81153  1  0  0  0
 83154  1  0  0  0
M  ISO  4   1 100  68 101  78 101  83 100
M  END
> <chiral flag>
0

> <version>
0

> <s_m_source_file>
/data/baiqing/PycharmProjects/Reinvent-master-3.2/result/LINK_invent/BTK/process_docking_weight1_custom_product_contain_oxygen_bond_distance_aromatic_linkinvent_7_9_3/rearranged_h_0078.sdf

> <i_m_source_file_index>
85

> <r_mmod_Potential_Energy-OPLS-2005>
1.20414280891418

> <r_mmod_Stretch_Energy-OPLS-2005>
48.4316024780273

> <r_mmod_Bend_Energy-OPLS-2005>
188.879898071289

> <r_mmod_Torsional_Energy-OPLS-2005>
232.576507568359

> <r_mmod_Improper_Torsional_Energy-OPLS-2005>
9.1889123916626

> <r_mmod_Van_der_Waal_Energy-OPLS-2005>
114.730140686035

> <r_mmod_Electrostatic_Energy-OPLS-2005>
-411.557464599609

> <r_mmod_Solvation_Energy-OPLS-2005>
-216.498916625977

> <b_mmod_Minimization_Converged-OPLS-2005>
0

> <r_mmod_RMS_Derivative-OPLS-2005>
1.22722506523132

$$$$
86
                    3D
 Structure written by MMmdl.
160169  0  0  1  0            999 V2000
  -30.6291  -14.5795   20.5440 C   0  0  0  0  0  0
  -30.4426  -12.3645   19.4362 C   0  0  0  0  0  0
  -29.5101  -12.5148   18.2148 C   0  0  0  0  0  0
  -28.0306  -12.3567   18.6229 C   0  0  0  0  0  0
  -27.6608  -13.2070   19.8682 C   0  0  2  0  0  0
  -28.7022  -13.0119   20.9928 C   0  0  0  0  0  0
  -25.2583  -13.8165   20.5644 C   0  0  0  0  0  0
  -24.1827  -13.0452   20.9154 C   0  0  0  0  0  0
  -24.6384  -11.6922   20.8742 C   0  0  0  0  0  0
  -23.9055  -10.4303   21.0422 C   0  0  0  0  0  0
  -24.3611   -9.4205   21.9179 C   0  0  0  0  0  0
  -23.6280   -8.2253   22.0770 C   0  0  0  0  0  0
  -22.4256   -8.0290   21.3569 C   0  0  0  0  0  0
  -21.9889   -9.0265   20.4673 C   0  0  0  0  0  0
  -22.7241  -10.2137   20.3062 C   0  0  0  0  0  0
  -21.6856   -6.0724   22.5268 C   0  0  0  0  0  0
  -21.4012   -6.5622   23.8204 C   0  0  0  0  0  0
  -21.3660   -5.6777   24.9166 C   0  0  0  0  0  0
  -21.6037   -4.3041   24.7217 C   0  0  0  0  0  0
  -21.8821   -3.8135   23.4342 C   0  0  0  0  0  0
  -21.9190   -4.6950   22.3396 C   0  0  0  0  0  0
  -22.7852  -13.5260   21.1822 C   0  0  0  0  0  0
  -22.1673   -4.2143   21.0978 F   0  0  0  0  0  0
  -21.5621   -3.4529   25.7728 F   0  0  0  0  0  0
  -30.0265  -13.3561   20.4439 N   0  0  0  0  0  0
  -26.3009  -12.9333   20.3309 N   0  0  0  0  0  0
  -25.9294  -11.6502   20.5718 N   0  0  0  0  0  0
  -22.0483  -12.8284   22.0399 N   0  0  0  0  0  0
  -25.4293  -15.1894   20.3992 N   0  0  0  0  0  0
  -31.7669  -14.7827   20.1028 O   0  0  0  0  0  0
  -21.6640   -6.8871   21.4240 O   0  0  0  0  0  0
  -22.3556  -14.5577   20.6676 O   0  0  0  0  0  0
  -24.6190  -31.8661   23.2067 C   0  0  0  0  0  0
  -25.9066  -32.4814   23.8383 C   0  0  1  0  0  0
  -27.2375  -27.3867   20.1149 C   0  0  0  0  0  0
  -25.5892  -33.8607   24.2321 N   0  0  0  0  0  0
  -23.4100  -30.4864   21.5492 C   0  0  2  0  0  0
  -24.8620  -28.9460   20.1146 C   0  0  0  0  0  0
  -22.7446  -29.4631   22.4981 C   0  0  0  0  0  0
  -18.0291  -28.1384   22.8514 C   0  0  0  0  0  0
  -24.1494  -36.7315   23.2660 C   0  0  0  0  0  0
  -25.9437  -30.8128   21.3728 C   0  0  0  0  0  0
  -26.0219  -29.4403   20.7271 C   0  0  0  0  0  0
  -27.2117  -28.6638   20.7377 C   0  0  0  0  0  0
  -26.0667  -26.9261   19.4836 C   0  0  0  0  0  0
  -24.8810  -27.6867   19.4906 C   0  0  0  0  0  0
  -23.6228  -29.8180   20.1643 C   0  0  0  0  0  0
  -25.4110  -36.3105   24.0355 C   0  0  1  0  0  0
  -20.5887  -28.3666   23.1326 C   0  0  2  0  0  0
  -20.6762  -26.9386   22.5429 C   0  0  0  0  0  0
  -19.5722  -26.6374   21.5227 C   0  0  0  0  0  0
  -18.1908  -26.7928   22.1647 C   0  0  0  0  0  0
  -19.1544  -28.8849   23.2913 C   0  0  0  0  0  0
  -18.9461  -30.1463   23.8905 C   0  0  0  0  0  0
  -17.6458  -30.6583   24.0575 C   0  0  0  0  0  0
  -25.9012  -34.9465   23.5133 C   0  0  0  0  0  0
  -16.5358  -29.9081   23.6332 C   0  0  0  0  0  0
  -16.7280  -28.6503   23.0355 C   0  0  0  0  0  0
  -26.4447  -31.6601   25.0738 C   0  0  0  0  0  0
  -25.3708  -31.3746   26.1503 C   0  0  0  0  0  0
  -27.0281  -30.3034   24.6148 C   0  0  0  0  0  0
  -27.6043  -32.4312   25.7470 C   0  0  0  0  0  0
  -27.5561  -37.1857   24.8493 C   0  0  0  0  0  0
  -21.4167  -29.3027   22.3728 N   0  0  0  0  0  0
  -26.4313  -37.3771   23.9365 N   0  0  0  0  0  0
  -24.6756  -31.0712   22.1000 N   0  0  0  0  0  0
  -23.4193  -28.8193   23.3055 O   0  0  0  0  0  0
  -28.3403  -26.5448   20.0751 O   0  0  0  0  0  0
  -26.5569  -34.8925   22.4688 O   0  0  0  0  0  0
  -23.5378  -32.1433   23.7435 O   0  0  0  0  0  0
  -30.8814  -17.7936   20.3598 C   0  0  0  0  0  0
  -28.6642  -17.7085   21.3205 C   0  0  0  0  0  0
  -29.5948  -19.8936   20.6416 C   0  0  0  0  0  0
  -29.8251  -17.0116   20.9010 C   0  0  0  0  0  0
  -30.7708  -19.2131   20.2047 C   0  0  0  0  0  0
  -28.5503  -19.1166   21.2000 C   0  0  0  0  0  0
  -29.2855  -23.5878   20.8327 C   0  0  0  0  0  0
  -29.8028  -22.2989   21.3164 C   0  0  0  0  0  0
  -29.4076  -24.7394   21.5565 C   0  0  0  0  0  0
  -28.5978  -23.3831   19.5141 C   0  0  0  0  0  0
  -28.5207  -21.8457   19.4139 C   0  0  0  0  0  0
  -32.4438  -19.4393   18.4948 C   0  0  0  0  0  0
  -28.9351  -26.2022   21.3378 C   0  0  0  0  0  0
  -29.4089  -21.3223   20.4590 N   0  0  0  0  0  0
  -29.8360  -15.5645   21.0497 N   0  0  0  0  0  0
  -30.4917  -22.1088   22.3256 O   0  0  0  0  0  0
  -31.7848  -19.9664   19.6470 O   0  0  0  0  0  0
  -27.4083  -19.7218   21.6106 F   0  0  0  0  0  0
  -31.4831  -12.4940   19.1311 H   0  0  0  0  0  0
  -30.3779  -11.3574   19.8532 H   0  0  0  0  0  0
  -29.7704  -11.7771   17.4546 H   0  0  0  0  0  0
  -29.6618  -13.4935   17.7571 H   0  0  0  0  0  0
  -27.8564  -11.3005   18.8297 H   0  0  0  0  0  0
  -27.3845  -12.6180   17.7835 H   0  0  0  0  0  0
  -27.6947  -14.2507   19.5548 H   0  0  0  0  0  0
  -28.7043  -11.9776   21.3375 H   0  0  0  0  0  0
  -28.4474  -13.6084   21.8692 H   0  0  0  0  0  0
  -25.2770   -9.5664   22.4741 H   0  0  0  0  0  0
  -24.0001   -7.4629   22.7470 H   0  0  0  0  0  0
  -21.0824   -8.8767   19.8977 H   0  0  0  0  0  0
  -22.3708  -10.9657   19.6156 H   0  0  0  0  0  0
  -21.2012   -7.6126   23.9704 H   0  0  0  0  0  0
  -21.1486   -6.0508   25.9065 H   0  0  0  0  0  0
  -22.0607   -2.7595   23.2848 H   0  0  0  0  0  0
  -22.4093  -11.9952   22.4785 H   0  0  0  0  0  0
  -21.1125  -13.1358   22.2615 H   0  0  0  0  0  0
  -24.6479  -15.8328   20.4524 H   0  0  0  0  0  0
  -26.2564  -15.6113   19.9967 H   0  0  0  0  0  0
  -26.7156  -32.5521   23.1161 H   0  0  0  0  0  0
  -24.9992  -33.9747   25.0430 H   0  0  0  0  0  0
  -22.6972  -31.3018   21.4097 H   0  0  0  0  0  0
  -23.3675  -35.9745   23.3500 H   0  0  0  0  0  0
  -24.3561  -36.8717   22.2036 H   0  0  0  0  0  0
  -23.7370  -37.6635   23.6543 H   0  0  0  0  0  0
  -26.0651  -31.5736   20.6003 H   0  0  0  0  0  0
  -26.8278  -30.8700   21.9955 H   0  0  0  0  0  0
  -28.1024  -29.0401   21.2209 H   0  0  0  0  0  0
  -26.0688  -25.9580   19.0023 H   0  0  0  0  0  0
  -23.9940  -27.2957   19.0119 H   0  0  0  0  0  0
  -23.7313  -30.5934   19.4045 H   0  0  0  0  0  0
  -22.7442  -29.2407   19.8693 H   0  0  0  0  0  0
  -25.1287  -36.2007   25.0854 H   0  0  0  0  0  0
  -20.9985  -28.3259   24.1446 H   0  0  0  0  0  0
  -20.5655  -26.2258   23.3620 H   0  0  0  0  0  0
  -21.6641  -26.7416   22.1239 H   0  0  0  0  0  0
  -19.6840  -25.6284   21.1237 H   0  0  0  0  0  0
  -19.6635  -27.3194   20.6758 H   0  0  0  0  0  0
  -17.4168  -26.6735   21.4047 H   0  0  0  0  0  0
  -18.0261  -26.0064   22.9026 H   0  0  0  0  0  0
  -19.7940  -30.7307   24.2247 H   0  0  0  0  0  0
  -17.5000  -31.6264   24.5174 H   0  0  0  0  0  0
  -15.5346  -30.2973   23.7641 H   0  0  0  0  0  0
  -15.8692  -28.0808   22.7047 H   0  0  0  0  0  0
  -24.5850  -30.7126   25.7862 H   0  0  0  0  0  0
  -24.8943  -32.2917   26.4967 H   0  0  0  0  0  0
  -25.8046  -30.8908   27.0261 H   0  0  0  0  0  0
  -26.2845  -29.6806   24.1169 H   0  0  0  0  0  0
  -27.3993  -29.7271   25.4633 H   0  0  0  0  0  0
  -27.8703  -30.4336   23.9345 H   0  0  0  0  0  0
  -27.2679  -33.3603   26.2093 H   0  0  0  0  0  0
  -28.3816  -32.6901   25.0256 H   0  0  0  0  0  0
  -28.0763  -31.8410   26.5343 H   0  0  0  0  0  0
  -28.2747  -37.9982   24.7326 H   0  0  0  0  0  0
  -28.0881  -36.2526   24.6593 H   0  0  0  0  0  0
  -27.2265  -37.1874   25.8897 H   0  0  0  0  0  0
  -20.9302  -29.8775   21.6990 H   0  0  0  0  0  0
  -26.0220  -38.2893   24.1182 H   0  0  0  0  0  0
  -31.7902  -17.2907   20.0730 H   0  0  0  0  0  0
  -27.8254  -17.1676   21.7366 H   0  0  0  0  0  0
  -29.9186  -24.6471   22.5059 H   0  0  0  0  0  0
  -29.2242  -23.7945   18.7214 H   0  0  0  0  0  0
  -27.6206  -23.8644   19.4781 H   0  0  0  0  0  0
  -28.8082  -21.4861   18.4238 H   0  0  0  0  0  0
  -27.5031  -21.5009   19.6124 H   0  0  0  0  0  0
  -33.4216  -19.9090   18.3960 H   0  0  0  0  0  0
  -31.8749  -19.6848   17.5979 H   0  0  0  0  0  0
  -32.6147  -18.3636   18.4912 H   0  0  0  0  0  0
  -29.8042  -26.8484   21.4683 H   0  0  0  0  0  0
  -28.2562  -26.4443   22.1591 H   0  0  0  0  0  0
  -28.9837  -15.1848   21.4371 H   0  0  0  0  0  0
  1 25  1  0  0  0
  1 30  2  0  0  0
  1 85  1  0  0  0
  2  3  1  0  0  0
  2 25  1  0  0  0
  2 89  1  0  0  0
  2 90  1  0  0  0
  3  4  1  0  0  0
  3 91  1  0  0  0
  3 92  1  0  0  0
  4  5  1  0  0  0
  4 93  1  0  0  0
  4 94  1  0  0  0
  5  6  1  0  0  0
  5 26  1  0  0  0
  5 95  1  0  0  0
  6 25  1  0  0  0
  6 96  1  0  0  0
  6 97  1  0  0  0
  7  8  2  0  0  0
  7 26  1  0  0  0
  7 29  1  0  0  0
  8  9  1  0  0  0
  8 22  1  0  0  0
  9 10  1  0  0  0
  9 27  2  0  0  0
 10 11  2  0  0  0
 10 15  1  0  0  0
 11 12  1  0  0  0
 11 98  1  0  0  0
 12 13  2  0  0  0
 12 99  1  0  0  0
 13 14  1  0  0  0
 13 31  1  0  0  0
 14 15  2  0  0  0
 14100  1  0  0  0
 15101  1  0  0  0
 16 17  2  0  0  0
 16 21  1  0  0  0
 16 31  1  0  0  0
 17 18  1  0  0  0
 17102  1  0  0  0
 18 19  2  0  0  0
 18103  1  0  0  0
 19 20  1  0  0  0
 19 24  1  0  0  0
 20 21  2  0  0  0
 20104  1  0  0  0
 21 23  1  0  0  0
 22 28  1  0  0  0
 22 32  2  0  0  0
 26 27  1  0  0  0
 28105  1  0  0  0
 28106  1  0  0  0
 29107  1  0  0  0
 29108  1  0  0  0
 33 34  1  0  0  0
 33 66  1  0  0  0
 33 70  2  0  0  0
 34 36  1  0  0  0
 34 59  1  0  0  0
 34109  1  0  0  0
 35 44  2  0  0  0
 35 45  1  0  0  0
 35 68  1  0  0  0
 36 56  1  0  0  0
 36110  1  0  0  0
 37 39  1  0  0  0
 37 47  1  0  0  0
 37 66  1  0  0  0
 37111  1  0  0  0
 38 43  2  0  0  0
 38 46  1  0  0  0
 38 47  1  0  0  0
 39 64  1  0  0  0
 39 67  2  0  0  0
 40 52  1  0  0  0
 40 53  2  0  0  0
 40 58  1  0  0  0
 41112  1  0  0  0
 41113  1  0  0  0
 41114  1  0  0  0
 41 48  1  0  0  0
 42 43  1  0  0  0
 42 66  1  0  0  0
 42115  1  0  0  0
 42116  1  0  0  0
 43 44  1  0  0  0
 44117  1  0  0  0
 45 46  2  0  0  0
 45118  1  0  0  0
 46119  1  0  0  0
 47120  1  0  0  0
 47121  1  0  0  0
 48 56  1  0  0  0
 48 65  1  0  0  0
 48122  1  0  0  0
 49 50  1  0  0  0
 49 53  1  0  0  0
 49 64  1  0  0  0
 49123  1  0  0  0
 50 51  1  0  0  0
 50124  1  0  0  0
 50125  1  0  0  0
 51 52  1  0  0  0
 51126  1  0  0  0
 51127  1  0  0  0
 52128  1  0  0  0
 52129  1  0  0  0
 53 54  1  0  0  0
 54 55  2  0  0  0
 54130  1  0  0  0
 55 57  1  0  0  0
 55131  1  0  0  0
 56 69  2  0  0  0
 57 58  2  0  0  0
 57132  1  0  0  0
 58133  1  0  0  0
 59 60  1  0  0  0
 59 61  1  0  0  0
 59 62  1  0  0  0
 60134  1  0  0  0
 60135  1  0  0  0
 60136  1  0  0  0
 61137  1  0  0  0
 61138  1  0  0  0
 61139  1  0  0  0
 62140  1  0  0  0
 62141  1  0  0  0
 62142  1  0  0  0
 63 65  1  0  0  0
 63143  1  0  0  0
 63144  1  0  0  0
 63145  1  0  0  0
 64146  1  0  0  0
 65147  1  0  0  0
 68 83  1  0  0  0
 71 74  2  0  0  0
 71 75  1  0  0  0
 71148  1  0  0  0
 72 74  1  0  0  0
 72 76  2  0  0  0
 72149  1  0  0  0
 73 75  2  0  0  0
 73 76  1  0  0  0
 73 84  1  0  0  0
 74 85  1  0  0  0
 75 87  1  0  0  0
 76 88  1  0  0  0
 77 78  1  0  0  0
 77 79  2  0  0  0
 77 80  1  0  0  0
 78 84  1  0  0  0
 78 86  2  0  0  0
 79 83  1  0  0  0
 79150  1  0  0  0
 80 81  1  0  0  0
 80151  1  0  0  0
 80152  1  0  0  0
 81 84  1  0  0  0
 81153  1  0  0  0
 81154  1  0  0  0
 82 87  1  0  0  0
 82155  1  0  0  0
 82156  1  0  0  0
 82157  1  0  0  0
 83158  1  0  0  0
 83159  1  0  0  0
 85160  1  0  0  0
M  ISO  4   1 100  68 101  83 101  85 100
M  END
> <chiral flag>
0

> <version>
0

> <s_m_source_file>
/data/baiqing/PycharmProjects/Reinvent-master-3.2/result/LINK_invent/BTK/process_docking_weight1_custom_product_contain_oxygen_bond_distance_aromatic_linkinvent_7_9_3/rearranged_h_0078.sdf

> <i_m_source_file_index>
86

> <r_mmod_Potential_Energy-OPLS-2005>
120.287063598633

> <r_mmod_Stretch_Energy-OPLS-2005>
57.0089645385742

> <r_mmod_Bend_Energy-OPLS-2005>
161.773681640625

> <r_mmod_Torsional_Energy-OPLS-2005>
318.547088623047

> <r_mmod_Improper_Torsional_Energy-OPLS-2005>
4.61244487762451

> <r_mmod_Van_der_Waal_Energy-OPLS-2005>
137.588790893555

> <r_mmod_Electrostatic_Energy-OPLS-2005>
-368.77587890625

> <r_mmod_Solvation_Energy-OPLS-2005>
-218.74690246582

> <b_mmod_Minimization_Converged-OPLS-2005>
0

> <r_mmod_RMS_Derivative-OPLS-2005>
3.47522759437561

$$$$
87
                    3D
 Structure written by MMmdl.
155164  0  0  1  0            999 V2000
  -30.5089  -15.1392   20.4276 C   0  0  0  0  0  0
  -30.4263  -12.7422   19.5140 C   0  0  0  0  0  0
  -29.5253  -12.5692   18.2705 C   0  0  0  0  0  0
  -28.0584  -12.3222   18.6726 C   0  0  0  0  0  0
  -27.6063  -13.2683   19.8149 C   0  0  2  0  0  0
  -28.6417  -13.3456   20.9490 C   0  0  0  0  0  0
  -25.2353  -13.8268   20.5734 C   0  0  0  0  0  0
  -24.1689  -13.0469   20.9209 C   0  0  0  0  0  0
  -24.6349  -11.6957   20.8676 C   0  0  0  0  0  0
  -23.9045  -10.4324   21.0321 C   0  0  0  0  0  0
  -24.3584   -9.4270   21.9126 C   0  0  0  0  0  0
  -23.6236   -8.2328   22.0745 C   0  0  0  0  0  0
  -22.4226   -8.0327   21.3536 C   0  0  0  0  0  0
  -21.9865   -9.0280   20.4616 C   0  0  0  0  0  0
  -22.7226  -10.2137   20.2959 C   0  0  0  0  0  0
  -21.6864   -6.0753   22.5284 C   0  0  0  0  0  0
  -21.3984   -6.5648   23.8218 C   0  0  0  0  0  0
  -21.3699   -5.6826   24.9201 C   0  0  0  0  0  0
  -21.6039   -4.3077   24.7280 C   0  0  0  0  0  0
  -21.8789   -3.8155   23.4400 C   0  0  0  0  0  0
  -21.9189   -4.6959   22.3436 C   0  0  0  0  0  0
  -22.7714  -13.5200   21.1898 C   0  0  0  0  0  0
  -22.1578   -4.2099   21.1004 F   0  0  0  0  0  0
  -21.5683   -3.4587   25.7808 F   0  0  0  0  0  0
  -29.8746  -13.8752   20.3397 N   0  0  0  0  0  0
  -26.2730  -12.9536   20.3114 N   0  0  0  0  0  0
  -25.9257  -11.6621   20.5577 N   0  0  0  0  0  0
  -22.0486  -12.8294   22.0641 N   0  0  0  0  0  0
  -25.4115  -15.1993   20.4380 N   0  0  0  0  0  0
  -31.7343  -15.0736   20.2578 O   0  0  0  0  0  0
  -21.6618   -6.8897   21.4242 O   0  0  0  0  0  0
  -22.3330  -14.5434   20.6666 O   0  0  0  0  0  0
  -24.6550  -31.8349   23.1790 C   0  0  0  0  0  0
  -25.9287  -32.4622   23.8200 C   0  0  1  0  0  0
  -27.2050  -27.0094   20.1711 C   0  0  0  0  0  0
  -25.5996  -33.8421   24.2166 N   0  0  0  0  0  0
  -23.4621  -30.4532   21.5283 C   0  0  2  0  0  0
  -24.9137  -28.8573   20.1081 C   0  0  0  0  0  0
  -22.7581  -29.4538   22.4819 C   0  0  0  0  0  0
  -18.0321  -28.1407   22.8456 C   0  0  0  0  0  0
  -24.1506  -36.7230   23.2632 C   0  0  0  0  0  0
  -26.0284  -30.6685   21.3914 C   0  0  0  0  0  0
  -26.0965  -29.2639   20.7396 C   0  0  0  0  0  0
  -27.2402  -28.3586   20.7548 C   0  0  0  0  0  0
  -25.9997  -26.7421   19.4846 C   0  0  0  0  0  0
  -24.8871  -27.6130   19.4604 C   0  0  0  0  0  0
  -23.6949  -29.7748   20.1509 C   0  0  0  0  0  0
  -25.4129  -36.3010   24.0327 C   0  0  1  0  0  0
  -20.5920  -28.3779   23.1181 C   0  0  2  0  0  0
  -20.6779  -26.9462   22.5389 C   0  0  0  0  0  0
  -19.5776  -26.6403   21.5184 C   0  0  0  0  0  0
  -18.1965  -26.7939   22.1608 C   0  0  0  0  0  0
  -19.1566  -28.8897   23.2827 C   0  0  0  0  0  0
  -18.9493  -30.1469   23.8892 C   0  0  0  0  0  0
  -17.6489  -30.6594   24.0549 C   0  0  0  0  0  0
  -25.9083  -34.9370   23.5062 C   0  0  0  0  0  0
  -16.5384  -29.9083   23.6320 C   0  0  0  0  0  0
  -16.7299  -28.6497   23.0346 C   0  0  0  0  0  0
  -26.4574  -31.6452   25.0643 C   0  0  0  0  0  0
  -25.3735  -31.3671   26.1333 C   0  0  0  0  0  0
  -27.0388  -30.2790   24.6262 C   0  0  0  0  0  0
  -27.6095  -32.4186   25.7473 C   0  0  0  0  0  0
  -27.5602  -37.1768   24.8480 C   0  0  0  0  0  0
  -21.4262  -29.3098   22.3544 N   0  0  0  0  0  0
  -26.4312  -37.3711   23.9416 N   0  0  0  0  0  0
  -24.7370  -31.0058   22.0904 N   0  0  0  0  0  0
  -23.4169  -28.8098   23.3039 O   0  0  0  0  0  0
  -28.1973  -25.9246   20.2620 O   0  0  0  0  0  0
  -26.5686  -34.8898   22.4658 O   0  0  0  0  0  0
  -23.5643  -32.1291   23.6954 O   0  0  0  0  0  0
  -27.0242  -18.5125   22.8969 C   0  0  0  0  0  0
  -27.4890  -17.2141   23.0286 C   0  0  0  0  0  0
  -27.6236  -19.3690   21.9660 C   0  0  0  0  0  0
  -28.5084  -16.7606   22.1844 C   0  0  0  0  0  0
  -28.6634  -19.0190   21.0537 C   0  0  0  0  0  0
  -29.0788  -17.5052   21.1141 C   0  0  0  0  0  0
  -28.2002  -21.5502   20.1032 C   0  0  0  0  0  0
  -28.6219  -22.8915   20.2945 C   0  0  0  0  0  0
  -29.9439  -22.5980   20.8158 C   0  0  0  0  0  0
  -30.8410  -23.5453   21.1421 C   0  0  0  0  0  0
  -30.2071  -21.0590   20.9305 C   0  0  0  0  0  0
  -27.8258  -24.3795   19.9922 C   0  0  0  0  0  0
  -29.0348  -20.3357   20.3787 N   0  0  0  0  0  0
  -29.9103  -16.4757   20.2827 N   0  0  0  0  0  0
  -31.4527  -12.9212   19.1934 H   0  0  0  0  0  0
  -30.4829  -11.8147   20.0866 H   0  0  0  0  0  0
  -29.8806  -11.7483   17.6493 H   0  0  0  0  0  0
  -29.5847  -13.4720   17.6575 H   0  0  0  0  0  0
  -27.9764  -11.2843   18.9963 H   0  0  0  0  0  0
  -27.4029  -12.4266   17.8062 H   0  0  0  0  0  0
  -27.5469  -14.2619   19.3686 H   0  0  0  0  0  0
  -28.7909  -12.3548   21.3792 H   0  0  0  0  0  0
  -28.2639  -13.9559   21.7614 H   0  0  0  0  0  0
  -25.2726   -9.5780   22.4718 H   0  0  0  0  0  0
  -23.9928   -7.4782   22.7519 H   0  0  0  0  0  0
  -21.0767   -8.8887   19.8950 H   0  0  0  0  0  0
  -22.3680  -10.9663   19.6045 H   0  0  0  0  0  0
  -21.1829   -7.6143   23.9696 H   0  0  0  0  0  0
  -21.1543   -6.0568   25.9106 H   0  0  0  0  0  0
  -22.0465   -2.7602   23.2935 H   0  0  0  0  0  0
  -22.4223  -12.0101   22.5201 H   0  0  0  0  0  0
  -21.1204  -13.1462   22.3012 H   0  0  0  0  0  0
  -24.6767  -15.8607   20.6653 H   0  0  0  0  0  0
  -26.3016  -15.6378   20.2319 H   0  0  0  0  0  0
  -26.7335  -32.5183   23.0896 H   0  0  0  0  0  0
  -25.0079  -33.9490   25.0272 H   0  0  0  0  0  0
  -22.7760  -31.2857   21.3615 H   0  0  0  0  0  0
  -23.3781  -35.9549   23.3285 H   0  0  0  0  0  0
  -24.3600  -36.8859   22.2052 H   0  0  0  0  0  0
  -23.7247  -37.6423   23.6657 H   0  0  0  0  0  0
  -26.1830  -31.4152   20.6097 H   0  0  0  0  0  0
  -26.9013  -30.7282   22.0311 H   0  0  0  0  0  0
  -28.1334  -28.6606   21.2827 H   0  0  0  0  0  0
  -25.8729  -25.7945   18.9839 H   0  0  0  0  0  0
  -23.9893  -27.2929   18.9486 H   0  0  0  0  0  0
  -23.8412  -30.5491   19.3978 H   0  0  0  0  0  0
  -22.8014  -29.2292   19.8374 H   0  0  0  0  0  0
  -25.1291  -36.1849   25.0812 H   0  0  0  0  0  0
  -21.0043  -28.3444   24.1278 H   0  0  0  0  0  0
  -20.5633  -26.2416   23.3632 H   0  0  0  0  0  0
  -21.6654  -26.7426   22.1218 H   0  0  0  0  0  0
  -19.6986  -25.6319   21.1213 H   0  0  0  0  0  0
  -19.6726  -27.3213   20.6715 H   0  0  0  0  0  0
  -17.4204  -26.6658   21.4036 H   0  0  0  0  0  0
  -18.0419  -26.0094   22.9029 H   0  0  0  0  0  0
  -19.7975  -30.7256   24.2311 H   0  0  0  0  0  0
  -17.5048  -31.6271   24.5163 H   0  0  0  0  0  0
  -15.5380  -30.2983   23.7636 H   0  0  0  0  0  0
  -15.8702  -28.0788   22.7090 H   0  0  0  0  0  0
  -24.5992  -30.6908   25.7724 H   0  0  0  0  0  0
  -24.8816  -32.2824   26.4595 H   0  0  0  0  0  0
  -25.8027  -30.9016   27.0194 H   0  0  0  0  0  0
  -26.3047  -29.6558   24.1141 H   0  0  0  0  0  0
  -27.3834  -29.7037   25.4860 H   0  0  0  0  0  0
  -27.9017  -30.3964   23.9703 H   0  0  0  0  0  0
  -27.2704  -33.3503   26.1988 H   0  0  0  0  0  0
  -28.3967  -32.6674   25.0355 H   0  0  0  0  0  0
  -28.0659  -31.8292   26.5426 H   0  0  0  0  0  0
  -28.2573  -38.0103   24.7485 H   0  0  0  0  0  0
  -28.1136  -36.2613   24.6323 H   0  0  0  0  0  0
  -27.2309  -37.1417   25.8881 H   0  0  0  0  0  0
  -20.9527  -29.8789   21.6650 H   0  0  0  0  0  0
  -26.0188  -38.2789   24.1372 H   0  0  0  0  0  0
  -26.2289  -18.8684   23.5392 H   0  0  0  0  0  0
  -27.0584  -16.5607   23.7772 H   0  0  0  0  0  0
  -27.2363  -20.3733   22.0085 H   0  0  0  0  0  0
  -28.8419  -15.7624   22.3961 H   0  0  0  0  0  0
  -27.2188  -21.3231   19.7047 H   0  0  0  0  0  0
  -30.6164  -24.5982   21.0274 H   0  0  0  0  0  0
  -31.8249  -23.2968   21.5187 H   0  0  0  0  0  0
  -30.3795  -20.7999   21.9786 H   0  0  0  0  0  0
  -31.1046  -20.7951   20.3716 H   0  0  0  0  0  0
  -26.8443  -24.2313   20.4472 H   0  0  0  0  0  0
  -27.6483  -24.3389   18.9162 H   0  0  0  0  0  0
  -30.4968  -16.9909   19.6426 H   0  0  0  0  0  0
  1 25  1  0  0  0
  1 30  2  0  0  0
  1 84  1  0  0  0
  2  3  1  0  0  0
  2 25  1  0  0  0
  2 85  1  0  0  0
  2 86  1  0  0  0
  3  4  1  0  0  0
  3 87  1  0  0  0
  3 88  1  0  0  0
  4  5  1  0  0  0
  4 89  1  0  0  0
  4 90  1  0  0  0
  5  6  1  0  0  0
  5 26  1  0  0  0
  5 91  1  0  0  0
  6 25  1  0  0  0
  6 92  1  0  0  0
  6 93  1  0  0  0
  7  8  2  0  0  0
  7 26  1  0  0  0
  7 29  1  0  0  0
  8  9  1  0  0  0
  8 22  1  0  0  0
  9 10  1  0  0  0
  9 27  2  0  0  0
 10 11  2  0  0  0
 10 15  1  0  0  0
 11 12  1  0  0  0
 11 94  1  0  0  0
 12 13  2  0  0  0
 12 95  1  0  0  0
 13 14  1  0  0  0
 13 31  1  0  0  0
 14 15  2  0  0  0
 14 96  1  0  0  0
 15 97  1  0  0  0
 16 17  2  0  0  0
 16 21  1  0  0  0
 16 31  1  0  0  0
 17 18  1  0  0  0
 17 98  1  0  0  0
 18 19  2  0  0  0
 18 99  1  0  0  0
 19 20  1  0  0  0
 19 24  1  0  0  0
 20 21  2  0  0  0
 20100  1  0  0  0
 21 23  1  0  0  0
 22 28  1  0  0  0
 22 32  2  0  0  0
 26 27  1  0  0  0
 28101  1  0  0  0
 28102  1  0  0  0
 29103  1  0  0  0
 29104  1  0  0  0
 33 34  1  0  0  0
 33 66  1  0  0  0
 33 70  2  0  0  0
 34 36  1  0  0  0
 34 59  1  0  0  0
 34105  1  0  0  0
 35 44  2  0  0  0
 35 45  1  0  0  0
 35 68  1  0  0  0
 36 56  1  0  0  0
 36106  1  0  0  0
 37 39  1  0  0  0
 37 47  1  0  0  0
 37 66  1  0  0  0
 37107  1  0  0  0
 38 43  2  0  0  0
 38 46  1  0  0  0
 38 47  1  0  0  0
 39 64  1  0  0  0
 39 67  2  0  0  0
 40 52  1  0  0  0
 40 53  2  0  0  0
 40 58  1  0  0  0
 41108  1  0  0  0
 41109  1  0  0  0
 41110  1  0  0  0
 41 48  1  0  0  0
 42 43  1  0  0  0
 42 66  1  0  0  0
 42111  1  0  0  0
 42112  1  0  0  0
 43 44  1  0  0  0
 44113  1  0  0  0
 45 46  2  0  0  0
 45114  1  0  0  0
 46115  1  0  0  0
 47116  1  0  0  0
 47117  1  0  0  0
 48 56  1  0  0  0
 48 65  1  0  0  0
 48118  1  0  0  0
 49 50  1  0  0  0
 49 53  1  0  0  0
 49 64  1  0  0  0
 49119  1  0  0  0
 50 51  1  0  0  0
 50120  1  0  0  0
 50121  1  0  0  0
 51 52  1  0  0  0
 51122  1  0  0  0
 51123  1  0  0  0
 52124  1  0  0  0
 52125  1  0  0  0
 53 54  1  0  0  0
 54 55  2  0  0  0
 54126  1  0  0  0
 55 57  1  0  0  0
 55127  1  0  0  0
 56 69  2  0  0  0
 57 58  2  0  0  0
 57128  1  0  0  0
 58129  1  0  0  0
 59 60  1  0  0  0
 59 61  1  0  0  0
 59 62  1  0  0  0
 60130  1  0  0  0
 60131  1  0  0  0
 60132  1  0  0  0
 61133  1  0  0  0
 61134  1  0  0  0
 61135  1  0  0  0
 62136  1  0  0  0
 62137  1  0  0  0
 62138  1  0  0  0
 63 65  1  0  0  0
 63139  1  0  0  0
 63140  1  0  0  0
 63141  1  0  0  0
 64142  1  0  0  0
 65143  1  0  0  0
 68 82  1  0  0  0
 71 72  2  0  0  0
 71 73  1  0  0  0
 71144  1  0  0  0
 72 74  1  0  0  0
 72145  1  0  0  0
 73 75  2  0  0  0
 73146  1  0  0  0
 74 76  2  0  0  0
 74147  1  0  0  0
 75 76  1  0  0  0
 75 83  1  0  0  0
 76 84  1  0  0  0
 77 78  2  0  0  0
 77 83  1  0  0  0
 77148  1  0  0  0
 78 79  1  0  0  0
 78 82  1  0  0  0
 79 80  2  0  0  0
 79 81  1  0  0  0
 80149  1  0  0  0
 80150  1  0  0  0
 81 83  1  0  0  0
 81151  1  0  0  0
 81152  1  0  0  0
 82153  1  0  0  0
 82154  1  0  0  0
 84155  1  0  0  0
M  ISO  4   1 100  68 101  82 101  84 100
M  END
> <chiral flag>
0

> <version>
0

> <s_m_source_file>
/data/baiqing/PycharmProjects/Reinvent-master-3.2/result/LINK_invent/BTK/process_docking_weight1_custom_product_contain_oxygen_bond_distance_aromatic_linkinvent_7_9_3/rearranged_h_0078.sdf

> <i_m_source_file_index>
87

> <r_mmod_Potential_Energy-OPLS-2005>
1141.60266113281

> <r_mmod_Stretch_Energy-OPLS-2005>
420.306762695312

> <r_mmod_Bend_Energy-OPLS-2005>
534.276672363281

> <r_mmod_Torsional_Energy-OPLS-2005>
279.613098144531

> <r_mmod_Improper_Torsional_Energy-OPLS-2005>
19.5985412597656

> <r_mmod_Van_der_Waal_Energy-OPLS-2005>
138.984100341797

> <r_mmod_Electrostatic_Energy-OPLS-2005>
-390.322357177734

> <r_mmod_Solvation_Energy-OPLS-2005>
-199.8603515625

> <b_mmod_Minimization_Converged-OPLS-2005>
0

> <r_mmod_RMS_Derivative-OPLS-2005>
5.71700811386108

$$$$
88
                    3D
 Structure written by MMmdl.
162171  0  0  1  0            999 V2000
  -30.7071  -14.5039   20.5124 C   0  0  0  0  0  0
  -30.4174  -12.3068   19.4356 C   0  0  0  0  0  0
  -29.4933  -12.4599   18.2105 C   0  0  0  0  0  0
  -28.0131  -12.3411   18.6264 C   0  0  0  0  0  0
  -27.6530  -13.2085   19.8638 C   0  0  2  0  0  0
  -28.6997  -13.0483   20.9890 C   0  0  0  0  0  0
  -25.2572  -13.8163   20.5699 C   0  0  0  0  0  0
  -24.1831  -13.0438   20.9205 C   0  0  0  0  0  0
  -24.6390  -11.6905   20.8767 C   0  0  0  0  0  0
  -23.9057  -10.4291   21.0427 C   0  0  0  0  0  0
  -24.3609   -9.4200   21.9199 C   0  0  0  0  0  0
  -23.6282   -8.2234   22.0759 C   0  0  0  0  0  0
  -22.4266   -8.0278   21.3545 C   0  0  0  0  0  0
  -21.9900   -9.0254   20.4647 C   0  0  0  0  0  0
  -22.7232  -10.2134   20.3068 C   0  0  0  0  0  0
  -21.6849   -6.0737   22.5289 C   0  0  0  0  0  0
  -21.4014   -6.5641   23.8224 C   0  0  0  0  0  0
  -21.3657   -5.6793   24.9186 C   0  0  0  0  0  0
  -21.6042   -4.3057   24.7238 C   0  0  0  0  0  0
  -21.8816   -3.8149   23.4361 C   0  0  0  0  0  0
  -21.9191   -4.6964   22.3414 C   0  0  0  0  0  0
  -22.7857  -13.5241   21.1861 C   0  0  0  0  0  0
  -22.1660   -4.2150   21.0990 F   0  0  0  0  0  0
  -21.5622   -3.4541   25.7752 F   0  0  0  0  0  0
  -30.0209  -13.3307   20.4140 N   0  0  0  0  0  0
  -26.2992  -12.9330   20.3356 N   0  0  0  0  0  0
  -25.9314  -11.6493   20.5804 N   0  0  0  0  0  0
  -22.0483  -12.8239   22.0407 N   0  0  0  0  0  0
  -25.4307  -15.1880   20.4102 N   0  0  0  0  0  0
  -31.8868  -14.6042   20.1643 O   0  0  0  0  0  0
  -21.6629   -6.8877   21.4248 O   0  0  0  0  0  0
  -22.3556  -14.5554   20.6713 O   0  0  0  0  0  0
  -24.6164  -31.8680   23.2107 C   0  0  0  0  0  0
  -25.9052  -32.4822   23.8400 C   0  0  1  0  0  0
  -27.2228  -27.4125   20.1002 C   0  0  0  0  0  0
  -25.5907  -33.8620   24.2331 N   0  0  0  0  0  0
  -23.4040  -30.4944   21.5524 C   0  0  2  0  0  0
  -24.8479  -28.9656   20.1106 C   0  0  0  0  0  0
  -22.7419  -29.4663   22.4987 C   0  0  0  0  0  0
  -18.0274  -28.1371   22.8492 C   0  0  0  0  0  0
  -24.1489  -36.7321   23.2637 C   0  0  0  0  0  0
  -25.9363  -30.8286   21.3671 C   0  0  0  0  0  0
  -26.0112  -29.4635   20.7104 C   0  0  0  0  0  0
  -27.2015  -28.6954   20.7012 C   0  0  0  0  0  0
  -26.0399  -26.9492   19.4735 C   0  0  0  0  0  0
  -24.8588  -27.7096   19.4870 C   0  0  0  0  0  0
  -23.6114  -29.8334   20.1648 C   0  0  0  0  0  0
  -25.4111  -36.3114   24.0337 C   0  0  1  0  0  0
  -20.5868  -28.3663   23.1315 C   0  0  2  0  0  0
  -20.6765  -26.9399   22.5413 C   0  0  0  0  0  0
  -19.5743  -26.6383   21.5209 C   0  0  0  0  0  0
  -18.1923  -26.7919   22.1622 C   0  0  0  0  0  0
  -19.1524  -28.8835   23.2899 C   0  0  0  0  0  0
  -18.9450  -30.1443   23.8911 C   0  0  0  0  0  0
  -17.6451  -30.6581   24.0564 C   0  0  0  0  0  0
  -25.9036  -34.9476   23.5131 C   0  0  0  0  0  0
  -16.5344  -29.9080   23.6326 C   0  0  0  0  0  0
  -16.7262  -28.6497   23.0348 C   0  0  0  0  0  0
  -26.4472  -31.6598   25.0728 C   0  0  0  0  0  0
  -25.3737  -31.3699   26.1475 C   0  0  0  0  0  0
  -27.0298  -30.3039   24.6102 C   0  0  0  0  0  0
  -27.6048  -32.4314   25.7492 C   0  0  0  0  0  0
  -27.5584  -37.1817   24.8463 C   0  0  0  0  0  0
  -21.4147  -29.3033   22.3725 N   0  0  0  0  0  0
  -26.4298  -37.3797   23.9406 N   0  0  0  0  0  0
  -24.6709  -31.0772   22.1018 N   0  0  0  0  0  0
  -23.4189  -28.8200   23.3026 O   0  0  0  0  0  0
  -28.3715  -26.6372   20.1538 O   0  0  0  0  0  0
  -26.5596  -34.8927   22.4691 O   0  0  0  0  0  0
  -23.5354  -32.1437   23.7496 O   0  0  0  0  0  0
  -28.8146  -18.6993   21.9681 C   0  0  0  0  0  0
  -30.9944  -18.5976   20.9664 C   0  0  0  0  0  0
  -29.8965  -17.9127   21.5203 C   0  0  0  0  0  0
  -28.8621  -20.1068   21.8249 C   0  0  0  0  0  0
  -30.0164  -20.7048   21.2540 C   0  0  0  0  0  0
  -29.1469  -22.9974   20.7072 C   0  0  0  0  0  0
  -29.3202  -24.3281   20.5095 C   0  0  0  0  0  0
  -31.6087  -24.0880   21.5397 C   0  0  0  0  0  0
  -32.4259  -24.5526   22.4984 C   0  0  0  0  0  0
  -29.9188  -16.4059   21.6808 C   0  0  0  0  0  0
  -30.6625  -25.0011   20.7694 C   0  0  0  0  0  0
  -31.5344  -22.6081   21.1913 C   0  0  0  0  0  0
  -29.6774  -16.2545   19.2482 C   0  0  0  0  0  0
  -28.1919  -25.2138   19.9744 C   0  0  0  0  0  0
  -31.0582  -19.9440   20.8350 N   0  0  0  0  0  0
  -30.1552  -22.1141   21.1076 N   0  0  0  0  0  0
  -29.9533  -15.6342   20.5583 N   0  0  0  0  0  0
  -29.9242  -15.9424   22.8260 O   0  0  0  0  0  0
  -27.8213  -20.8572   22.2655 F   0  0  0  0  0  0
  -31.4626  -12.3927   19.1328 H   0  0  0  0  0  0
  -30.3138  -11.3119   19.8714 H   0  0  0  0  0  0
  -29.7291  -11.6964   17.4679 H   0  0  0  0  0  0
  -29.6719  -13.4163   17.7199 H   0  0  0  0  0  0
  -27.8228  -11.2899   18.8466 H   0  0  0  0  0  0
  -27.3631  -12.5948   17.7883 H   0  0  0  0  0  0
  -27.6736  -14.2454   19.5326 H   0  0  0  0  0  0
  -28.6804  -12.0358   21.3941 H   0  0  0  0  0  0
  -28.4743  -13.7140   21.8234 H   0  0  0  0  0  0
  -25.2756   -9.5670   22.4778 H   0  0  0  0  0  0
  -23.9991   -7.4620   22.7474 H   0  0  0  0  0  0
  -21.0833   -8.8775   19.8946 H   0  0  0  0  0  0
  -22.3699  -10.9674   19.6177 H   0  0  0  0  0  0
  -21.2005   -7.6149   23.9728 H   0  0  0  0  0  0
  -21.1478   -6.0527   25.9088 H   0  0  0  0  0  0
  -22.0595   -2.7611   23.2871 H   0  0  0  0  0  0
  -22.4090  -11.9893   22.4788 H   0  0  0  0  0  0
  -21.1107  -13.1288   22.2601 H   0  0  0  0  0  0
  -24.6633  -15.8434   20.5094 H   0  0  0  0  0  0
  -26.2822  -15.6222   20.0784 H   0  0  0  0  0  0
  -26.7121  -32.5527   23.1161 H   0  0  0  0  0  0
  -25.0067  -33.9778   25.0482 H   0  0  0  0  0  0
  -22.6929  -31.3121   21.4167 H   0  0  0  0  0  0
  -23.3745  -35.9659   23.3309 H   0  0  0  0  0  0
  -24.3585  -36.8923   22.2049 H   0  0  0  0  0  0
  -23.7243  -37.6532   23.6641 H   0  0  0  0  0  0
  -26.0514  -31.5959   20.6003 H   0  0  0  0  0  0
  -26.8233  -30.8788   21.9869 H   0  0  0  0  0  0
  -28.0961  -29.0725   21.1767 H   0  0  0  0  0  0
  -25.9995  -25.9956   18.9682 H   0  0  0  0  0  0
  -23.9667  -27.3246   19.0126 H   0  0  0  0  0  0
  -23.7201  -30.6113   19.4082 H   0  0  0  0  0  0
  -22.7341  -29.2559   19.8679 H   0  0  0  0  0  0
  -25.1286  -36.1986   25.0830 H   0  0  0  0  0  0
  -20.9955  -28.3221   24.1437 H   0  0  0  0  0  0
  -20.5670  -26.2269   23.3598 H   0  0  0  0  0  0
  -21.6636  -26.7442   22.1205 H   0  0  0  0  0  0
  -19.6906  -25.6297   21.1231 H   0  0  0  0  0  0
  -19.6684  -27.3202   20.6747 H   0  0  0  0  0  0
  -17.4194  -26.6672   21.4023 H   0  0  0  0  0  0
  -18.0325  -26.0054   22.9013 H   0  0  0  0  0  0
  -19.7926  -30.7254   24.2285 H   0  0  0  0  0  0
  -17.5005  -31.6262   24.5163 H   0  0  0  0  0  0
  -15.5344  -30.2986   23.7639 H   0  0  0  0  0  0
  -15.8664  -28.0819   22.7055 H   0  0  0  0  0  0
  -24.5911  -30.7042   25.7812 H   0  0  0  0  0  0
  -24.8923  -32.2850   26.4937 H   0  0  0  0  0  0
  -25.8091  -30.8860   27.0226 H   0  0  0  0  0  0
  -26.2839  -29.6811   24.1147 H   0  0  0  0  0  0
  -27.4059  -29.7264   25.4557 H   0  0  0  0  0  0
  -27.8682  -30.4361   23.9258 H   0  0  0  0  0  0
  -27.2668  -33.3604   26.2098 H   0  0  0  0  0  0
  -28.3844  -32.6889   25.0310 H   0  0  0  0  0  0
  -28.0729  -31.8418   26.5385 H   0  0  0  0  0  0
  -28.2606  -38.0110   24.7509 H   0  0  0  0  0  0
  -28.1076  -36.2642   24.6293 H   0  0  0  0  0  0
  -27.2302  -37.1473   25.8866 H   0  0  0  0  0  0
  -20.9305  -29.8774   21.6966 H   0  0  0  0  0  0
  -26.0192  -38.2880   24.1395 H   0  0  0  0  0  0
  -27.9506  -18.2330   22.4175 H   0  0  0  0  0  0
  -31.8631  -18.0526   20.6250 H   0  0  0  0  0  0
  -28.1969  -22.5204   20.5027 H   0  0  0  0  0  0
  -32.4575  -25.6027   22.7512 H   0  0  0  0  0  0
  -33.0780  -23.8908   23.0508 H   0  0  0  0  0  0
  -30.5158  -25.9279   21.3253 H   0  0  0  0  0  0
  -31.1109  -25.2617   19.8102 H   0  0  0  0  0  0
  -32.1067  -22.0387   21.9261 H   0  0  0  0  0  0
  -32.0175  -22.4559   20.2251 H   0  0  0  0  0  0
  -29.4540  -15.5113   18.4837 H   0  0  0  0  0  0
  -30.5344  -16.8254   18.8886 H   0  0  0  0  0  0
  -28.8109  -16.9167   19.2866 H   0  0  0  0  0  0
  -27.2784  -24.8696   20.4632 H   0  0  0  0  0  0
  -28.0924  -25.0098   18.9075 H   0  0  0  0  0  0
  1 25  1  0  0  0
  1 30  2  0  0  0
  1 87  1  0  0  0
  2  3  1  0  0  0
  2 25  1  0  0  0
  2 90  1  0  0  0
  2 91  1  0  0  0
  3  4  1  0  0  0
  3 92  1  0  0  0
  3 93  1  0  0  0
  4  5  1  0  0  0
  4 94  1  0  0  0
  4 95  1  0  0  0
  5  6  1  0  0  0
  5 26  1  0  0  0
  5 96  1  0  0  0
  6 25  1  0  0  0
  6 97  1  0  0  0
  6 98  1  0  0  0
  7  8  2  0  0  0
  7 26  1  0  0  0
  7 29  1  0  0  0
  8  9  1  0  0  0
  8 22  1  0  0  0
  9 10  1  0  0  0
  9 27  2  0  0  0
 10 11  2  0  0  0
 10 15  1  0  0  0
 11 12  1  0  0  0
 11 99  1  0  0  0
 12 13  2  0  0  0
 12100  1  0  0  0
 13 14  1  0  0  0
 13 31  1  0  0  0
 14 15  2  0  0  0
 14101  1  0  0  0
 15102  1  0  0  0
 16 17  2  0  0  0
 16 21  1  0  0  0
 16 31  1  0  0  0
 17 18  1  0  0  0
 17103  1  0  0  0
 18 19  2  0  0  0
 18104  1  0  0  0
 19 20  1  0  0  0
 19 24  1  0  0  0
 20 21  2  0  0  0
 20105  1  0  0  0
 21 23  1  0  0  0
 22 28  1  0  0  0
 22 32  2  0  0  0
 26 27  1  0  0  0
 28106  1  0  0  0
 28107  1  0  0  0
 29108  1  0  0  0
 29109  1  0  0  0
 33 34  1  0  0  0
 33 66  1  0  0  0
 33 70  2  0  0  0
 34 36  1  0  0  0
 34 59  1  0  0  0
 34110  1  0  0  0
 35 44  2  0  0  0
 35 45  1  0  0  0
 35 68  1  0  0  0
 36 56  1  0  0  0
 36111  1  0  0  0
 37 39  1  0  0  0
 37 47  1  0  0  0
 37 66  1  0  0  0
 37112  1  0  0  0
 38 43  2  0  0  0
 38 46  1  0  0  0
 38 47  1  0  0  0
 39 64  1  0  0  0
 39 67  2  0  0  0
 40 52  1  0  0  0
 40 53  2  0  0  0
 40 58  1  0  0  0
 41113  1  0  0  0
 41114  1  0  0  0
 41115  1  0  0  0
 41 48  1  0  0  0
 42 43  1  0  0  0
 42 66  1  0  0  0
 42116  1  0  0  0
 42117  1  0  0  0
 43 44  1  0  0  0
 44118  1  0  0  0
 45 46  2  0  0  0
 45119  1  0  0  0
 46120  1  0  0  0
 47121  1  0  0  0
 47122  1  0  0  0
 48 56  1  0  0  0
 48 65  1  0  0  0
 48123  1  0  0  0
 49 50  1  0  0  0
 49 53  1  0  0  0
 49 64  1  0  0  0
 49124  1  0  0  0
 50 51  1  0  0  0
 50125  1  0  0  0
 50126  1  0  0  0
 51 52  1  0  0  0
 51127  1  0  0  0
 51128  1  0  0  0
 52129  1  0  0  0
 52130  1  0  0  0
 53 54  1  0  0  0
 54 55  2  0  0  0
 54131  1  0  0  0
 55 57  1  0  0  0
 55132  1  0  0  0
 56 69  2  0  0  0
 57 58  2  0  0  0
 57133  1  0  0  0
 58134  1  0  0  0
 59 60  1  0  0  0
 59 61  1  0  0  0
 59 62  1  0  0  0
 60135  1  0  0  0
 60136  1  0  0  0
 60137  1  0  0  0
 61138  1  0  0  0
 61139  1  0  0  0
 61140  1  0  0  0
 62141  1  0  0  0
 62142  1  0  0  0
 62143  1  0  0  0
 63 65  1  0  0  0
 63144  1  0  0  0
 63145  1  0  0  0
 63146  1  0  0  0
 64147  1  0  0  0
 65148  1  0  0  0
 68 84  1  0  0  0
 71 73  2  0  0  0
 71 74  1  0  0  0
 71149  1  0  0  0
 72 73  1  0  0  0
 72 85  2  0  0  0
 72150  1  0  0  0
 73 80  1  0  0  0
 74 75  2  0  0  0
 74 89  1  0  0  0
 75 85  1  0  0  0
 75 86  1  0  0  0
 76 77  2  0  0  0
 76 86  1  0  0  0
 76151  1  0  0  0
 77 81  1  0  0  0
 77 84  1  0  0  0
 78 79  2  0  0  0
 78 81  1  0  0  0
 78 82  1  0  0  0
 79152  1  0  0  0
 79153  1  0  0  0
 80 87  1  0  0  0
 80 88  2  0  0  0
 81154  1  0  0  0
 81155  1  0  0  0
 82 86  1  0  0  0
 82156  1  0  0  0
 82157  1  0  0  0
 83 87  1  0  0  0
 83158  1  0  0  0
 83159  1  0  0  0
 83160  1  0  0  0
 84161  1  0  0  0
 84162  1  0  0  0
M  ISO  4   1 100  68 101  84 101  87 100
M  END
> <chiral flag>
0

> <version>
0

> <s_m_source_file>
/data/baiqing/PycharmProjects/Reinvent-master-3.2/result/LINK_invent/BTK/process_docking_weight1_custom_product_contain_oxygen_bond_distance_aromatic_linkinvent_7_9_3/rearranged_h_0078.sdf

> <i_m_source_file_index>
88

> <r_mmod_Potential_Energy-OPLS-2005>
40.6380729675293

> <r_mmod_Stretch_Energy-OPLS-2005>
45.0740432739258

> <r_mmod_Bend_Energy-OPLS-2005>
102.301979064941

> <r_mmod_Torsional_Energy-OPLS-2005>
332.348999023438

> <r_mmod_Improper_Torsional_Energy-OPLS-2005>
15.2737741470337

> <r_mmod_Van_der_Waal_Energy-OPLS-2005>
181.582366943359

> <r_mmod_Electrostatic_Energy-OPLS-2005>
-458.325531005859

> <r_mmod_Solvation_Energy-OPLS-2005>
-200.528396606445

> <b_mmod_Minimization_Converged-OPLS-2005>
0

> <r_mmod_RMS_Derivative-OPLS-2005>
0.867017447948456

$$$$
89
                    3D
 Structure written by MMmdl.
161170  0  0  1  0            999 V2000
  -30.7062  -14.7025   20.3527 C   0  0  0  0  0  0
  -30.4209  -12.3984   19.4487 C   0  0  0  0  0  0
  -29.4721  -12.3259   18.2256 C   0  0  0  0  0  0
  -27.9978  -12.2682   18.6540 C   0  0  0  0  0  0
  -27.6364  -13.2326   19.8184 C   0  0  2  0  0  0
  -28.7033  -13.2354   20.9312 C   0  0  0  0  0  0
  -25.2514  -13.8246   20.5730 C   0  0  0  0  0  0
  -24.1795  -13.0490   20.9234 C   0  0  0  0  0  0
  -24.6392  -11.6968   20.8806 C   0  0  0  0  0  0
  -23.9094  -10.4302   21.0438 C   0  0  0  0  0  0
  -24.3666   -9.4211   21.9198 C   0  0  0  0  0  0
  -23.6338   -8.2250   22.0734 C   0  0  0  0  0  0
  -22.4304   -8.0322   21.3552 C   0  0  0  0  0  0
  -21.9946   -9.0301   20.4648 C   0  0  0  0  0  0
  -22.7278  -10.2173   20.3074 C   0  0  0  0  0  0
  -21.6868   -6.0750   22.5276 C   0  0  0  0  0  0
  -21.4028   -6.5656   23.8208 C   0  0  0  0  0  0
  -21.3652   -5.6815   24.9172 C   0  0  0  0  0  0
  -21.6042   -4.3086   24.7233 C   0  0  0  0  0  0
  -21.8819   -3.8169   23.4350 C   0  0  0  0  0  0
  -21.9173   -4.6979   22.3400 C   0  0  0  0  0  0
  -22.7817  -13.5259   21.1884 C   0  0  0  0  0  0
  -22.1664   -4.2161   21.0986 F   0  0  0  0  0  0
  -21.5610   -3.4567   25.7746 F   0  0  0  0  0  0
  -29.9942  -13.5273   20.2976 N   0  0  0  0  0  0
  -26.2954  -12.9481   20.3296 N   0  0  0  0  0  0
  -25.9330  -11.6621   20.5862 N   0  0  0  0  0  0
  -22.0467  -12.8221   22.0430 N   0  0  0  0  0  0
  -25.4263  -15.1957   20.4136 N   0  0  0  0  0  0
  -31.9343  -14.6721   20.3904 O   0  0  0  0  0  0
  -21.6657   -6.8918   21.4255 O   0  0  0  0  0  0
  -22.3493  -14.5559   20.6715 O   0  0  0  0  0  0
  -24.6260  -31.8633   23.2067 C   0  0  0  0  0  0
  -25.9124  -32.4778   23.8371 C   0  0  1  0  0  0
  -27.2216  -27.3223   20.1187 C   0  0  0  0  0  0
  -25.5948  -33.8573   24.2292 N   0  0  0  0  0  0
  -23.4190  -30.4920   21.5488 C   0  0  2  0  0  0
  -24.8674  -28.9606   20.1055 C   0  0  0  0  0  0
  -22.7464  -29.4634   22.4902 C   0  0  0  0  0  0
  -18.0292  -28.1382   22.8476 C   0  0  0  0  0  0
  -24.1504  -36.7296   23.2632 C   0  0  0  0  0  0
  -25.9642  -30.7915   21.3876 C   0  0  0  0  0  0
  -26.0369  -29.4239   20.7219 C   0  0  0  0  0  0
  -27.2148  -28.6173   20.7242 C   0  0  0  0  0  0
  -26.0300  -26.9307   19.4549 C   0  0  0  0  0  0
  -24.8684  -27.7182   19.4624 C   0  0  0  0  0  0
  -23.6359  -29.8387   20.1592 C   0  0  0  0  0  0
  -25.4120  -36.3076   24.0324 C   0  0  1  0  0  0
  -20.5893  -28.3686   23.1270 C   0  0  2  0  0  0
  -20.6795  -26.9402   22.5417 C   0  0  0  0  0  0
  -19.5771  -26.6371   21.5228 C   0  0  0  0  0  0
  -18.1941  -26.7929   22.1619 C   0  0  0  0  0  0
  -19.1542  -28.8848   23.2878 C   0  0  0  0  0  0
  -18.9459  -30.1457   23.8884 C   0  0  0  0  0  0
  -17.6461  -30.6583   24.0565 C   0  0  0  0  0  0
  -25.9054  -34.9444   23.5095 C   0  0  0  0  0  0
  -16.5354  -29.9072   23.6341 C   0  0  0  0  0  0
  -16.7283  -28.6502   23.0336 C   0  0  0  0  0  0
  -26.4494  -31.6583   25.0751 C   0  0  0  0  0  0
  -25.3712  -31.3764   26.1476 C   0  0  0  0  0  0
  -27.0319  -30.2980   24.6256 C   0  0  0  0  0  0
  -27.6053  -32.4318   25.7516 C   0  0  0  0  0  0
  -27.5582  -37.1800   24.8439 C   0  0  0  0  0  0
  -21.4167  -29.3048   22.3643 N   0  0  0  0  0  0
  -26.4295  -37.3772   23.9394 N   0  0  0  0  0  0
  -24.6876  -31.0645   22.1044 N   0  0  0  0  0  0
  -23.4194  -28.8156   23.2962 O   0  0  0  0  0  0
  -28.3119  -26.4320   20.2101 O   0  0  0  0  0  0
  -26.5593  -34.8911   22.4651 O   0  0  0  0  0  0
  -23.5424  -32.1414   23.7400 O   0  0  0  0  0  0
  -30.0389  -19.6161   19.2237 C   0  0  0  0  0  0
  -30.1462  -18.2209   19.0070 C   0  0  0  0  0  0
  -29.5737  -19.1789   21.5263 C   0  0  0  0  0  0
  -30.1075  -23.7850   21.1575 C   0  0  0  0  0  0
  -29.6978  -17.7514   21.3223 C   0  0  0  0  0  0
  -28.8965  -23.8017   20.4003 C   0  0  0  0  0  0
  -29.7510  -20.1467   20.4929 C   0  0  0  0  0  0
  -30.0218  -17.2130   20.0243 C   0  0  0  0  0  0
  -30.5150  -22.4736   21.2975 C   0  0  0  0  0  0
  -28.6589  -22.4553   20.1325 C   0  0  0  0  0  0
  -28.5979  -17.1472   23.5050 C   0  0  0  0  0  0
  -29.4008  -16.8607   22.4650 C   0  0  0  0  0  0
  -30.5332  -15.5891   18.2095 C   0  0  0  0  0  0
  -27.9887  -25.0029   19.9695 C   0  0  0  0  0  0
  -29.6426  -21.5998   20.6545 N   0  0  0  0  0  0
  -30.1733  -15.7698   19.6377 N   0  0  0  0  0  0
  -31.6159  -22.0001   21.9440 O   0  0  0  0  0  0
  -27.6129  -21.9009   19.4603 O   0  0  0  0  0  0
  -31.4546  -12.5154   19.1169 H   0  0  0  0  0  0
  -30.3862  -11.4663   20.0157 H   0  0  0  0  0  0
  -29.7096  -11.4294   17.6499 H   0  0  0  0  0  0
  -29.5833  -13.1414   17.5233 H   0  0  0  0  0  0
  -27.8005  -11.2358   18.9497 H   0  0  0  0  0  0
  -27.3486  -12.4638   17.7993 H   0  0  0  0  0  0
  -27.6208  -14.2328   19.3849 H   0  0  0  0  0  0
  -28.7325  -12.2726   21.4461 H   0  0  0  0  0  0
  -28.4736  -13.9964   21.6803 H   0  0  0  0  0  0
  -25.2797   -9.5707   22.4750 H   0  0  0  0  0  0
  -24.0058   -7.4637   22.7439 H   0  0  0  0  0  0
  -21.0867   -8.8872   19.8957 H   0  0  0  0  0  0
  -22.3772  -10.9739   19.6206 H   0  0  0  0  0  0
  -21.2070   -7.6170   23.9748 H   0  0  0  0  0  0
  -21.1470   -6.0525   25.9071 H   0  0  0  0  0  0
  -22.0592   -2.7630   23.2837 H   0  0  0  0  0  0
  -22.4110  -11.9897   22.4801 H   0  0  0  0  0  0
  -21.1078  -13.1246   22.2620 H   0  0  0  0  0  0
  -24.6759  -15.8671   20.5354 H   0  0  0  0  0  0
  -26.3014  -15.6258   20.1426 H   0  0  0  0  0  0
  -26.7171  -32.5446   23.1090 H   0  0  0  0  0  0
  -25.0135  -33.9738   25.0464 H   0  0  0  0  0  0
  -22.7115  -31.3130   21.4112 H   0  0  0  0  0  0
  -23.3767  -35.9623   23.3280 H   0  0  0  0  0  0
  -24.3607  -36.8931   22.2044 H   0  0  0  0  0  0
  -23.7251  -37.6493   23.6671 H   0  0  0  0  0  0
  -26.1124  -31.5627   20.6292 H   0  0  0  0  0  0
  -26.8367  -30.8220   22.0288 H   0  0  0  0  0  0
  -28.1010  -28.9679   21.2333 H   0  0  0  0  0  0
  -25.9474  -25.9927   18.9278 H   0  0  0  0  0  0
  -23.9792  -27.3604   18.9635 H   0  0  0  0  0  0
  -23.7552  -30.6248   19.4120 H   0  0  0  0  0  0
  -22.7560  -29.2702   19.8505 H   0  0  0  0  0  0
  -25.1303  -36.1920   25.0811 H   0  0  0  0  0  0
  -21.0006  -28.3298   24.1386 H   0  0  0  0  0  0
  -20.5728  -26.2289   23.3622 H   0  0  0  0  0  0
  -21.6660  -26.7458   22.1197 H   0  0  0  0  0  0
  -19.6941  -25.6275   21.1275 H   0  0  0  0  0  0
  -19.6743  -27.3173   20.6753 H   0  0  0  0  0  0
  -17.4230  -26.6675   21.4008 H   0  0  0  0  0  0
  -18.0334  -26.0082   22.9019 H   0  0  0  0  0  0
  -19.7932  -30.7283   24.2243 H   0  0  0  0  0  0
  -17.5010  -31.6269   24.5151 H   0  0  0  0  0  0
  -15.5342  -30.2960   23.7687 H   0  0  0  0  0  0
  -15.8685  -28.0836   22.7029 H   0  0  0  0  0  0
  -24.5859  -30.7151   25.7812 H   0  0  0  0  0  0
  -24.8962  -32.2956   26.4894 H   0  0  0  0  0  0
  -25.8015  -30.8928   27.0244 H   0  0  0  0  0  0
  -26.2907  -29.6737   24.1258 H   0  0  0  0  0  0
  -27.3924  -29.7242   25.4796 H   0  0  0  0  0  0
  -27.8824  -30.4214   23.9555 H   0  0  0  0  0  0
  -27.2657  -33.3609   26.2090 H   0  0  0  0  0  0
  -28.3854  -32.6867   25.0343 H   0  0  0  0  0  0
  -28.0719  -31.8448   26.5424 H   0  0  0  0  0  0
  -28.2571  -38.0127   24.7505 H   0  0  0  0  0  0
  -28.1107  -36.2645   24.6240 H   0  0  0  0  0  0
  -27.2304  -37.1425   25.8847 H   0  0  0  0  0  0
  -20.9331  -29.8757   21.6849 H   0  0  0  0  0  0
  -26.0172  -38.2842   24.1417 H   0  0  0  0  0  0
  -30.1739  -20.2851   18.3871 H   0  0  0  0  0  0
  -30.3332  -17.9818   17.9743 H   0  0  0  0  0  0
  -29.3389  -19.5536   22.5113 H   0  0  0  0  0  0
  -30.6127  -24.6584   21.5547 H   0  0  0  0  0  0
  -28.4588  -16.4314   24.3026 H   0  0  0  0  0  0
  -28.0639  -18.0843   23.5884 H   0  0  0  0  0  0
  -29.8868  -15.9000   22.4936 H   0  0  0  0  0  0
  -31.3777  -16.2185   17.9263 H   0  0  0  0  0  0
  -29.6831  -15.8073   17.5614 H   0  0  0  0  0  0
  -30.9193  -14.6110   17.9380 H   0  0  0  0  0  0
  -27.0430  -24.7784   20.4630 H   0  0  0  0  0  0
  -27.8358  -24.8741   18.8986 H   0  0  0  0  0  0
  -32.0756  -22.7476   22.3130 H   0  0  0  0  0  0
  -26.8864  -22.5153   19.4877 H   0  0  0  0  0  0
  1 25  1  0  0  0
  1 30  2  0  0  0
  1 86  1  0  0  0
  2  3  1  0  0  0
  2 25  1  0  0  0
  2 89  1  0  0  0
  2 90  1  0  0  0
  3  4  1  0  0  0
  3 91  1  0  0  0
  3 92  1  0  0  0
  4  5  1  0  0  0
  4 93  1  0  0  0
  4 94  1  0  0  0
  5  6  1  0  0  0
  5 26  1  0  0  0
  5 95  1  0  0  0
  6 25  1  0  0  0
  6 96  1  0  0  0
  6 97  1  0  0  0
  7  8  2  0  0  0
  7 26  1  0  0  0
  7 29  1  0  0  0
  8  9  1  0  0  0
  8 22  1  0  0  0
  9 10  1  0  0  0
  9 27  2  0  0  0
 10 11  2  0  0  0
 10 15  1  0  0  0
 11 12  1  0  0  0
 11 98  1  0  0  0
 12 13  2  0  0  0
 12 99  1  0  0  0
 13 14  1  0  0  0
 13 31  1  0  0  0
 14 15  2  0  0  0
 14100  1  0  0  0
 15101  1  0  0  0
 16 17  2  0  0  0
 16 21  1  0  0  0
 16 31  1  0  0  0
 17 18  1  0  0  0
 17102  1  0  0  0
 18 19  2  0  0  0
 18103  1  0  0  0
 19 20  1  0  0  0
 19 24  1  0  0  0
 20 21  2  0  0  0
 20104  1  0  0  0
 21 23  1  0  0  0
 22 28  1  0  0  0
 22 32  2  0  0  0
 26 27  1  0  0  0
 28105  1  0  0  0
 28106  1  0  0  0
 29107  1  0  0  0
 29108  1  0  0  0
 33 34  1  0  0  0
 33 66  1  0  0  0
 33 70  2  0  0  0
 34 36  1  0  0  0
 34 59  1  0  0  0
 34109  1  0  0  0
 35 44  2  0  0  0
 35 45  1  0  0  0
 35 68  1  0  0  0
 36 56  1  0  0  0
 36110  1  0  0  0
 37 39  1  0  0  0
 37 47  1  0  0  0
 37 66  1  0  0  0
 37111  1  0  0  0
 38 43  2  0  0  0
 38 46  1  0  0  0
 38 47  1  0  0  0
 39 64  1  0  0  0
 39 67  2  0  0  0
 40 52  1  0  0  0
 40 53  2  0  0  0
 40 58  1  0  0  0
 41112  1  0  0  0
 41113  1  0  0  0
 41114  1  0  0  0
 41 48  1  0  0  0
 42 43  1  0  0  0
 42 66  1  0  0  0
 42115  1  0  0  0
 42116  1  0  0  0
 43 44  1  0  0  0
 44117  1  0  0  0
 45 46  2  0  0  0
 45118  1  0  0  0
 46119  1  0  0  0
 47120  1  0  0  0
 47121  1  0  0  0
 48 56  1  0  0  0
 48 65  1  0  0  0
 48122  1  0  0  0
 49 50  1  0  0  0
 49 53  1  0  0  0
 49 64  1  0  0  0
 49123  1  0  0  0
 50 51  1  0  0  0
 50124  1  0  0  0
 50125  1  0  0  0
 51 52  1  0  0  0
 51126  1  0  0  0
 51127  1  0  0  0
 52128  1  0  0  0
 52129  1  0  0  0
 53 54  1  0  0  0
 54 55  2  0  0  0
 54130  1  0  0  0
 55 57  1  0  0  0
 55131  1  0  0  0
 56 69  2  0  0  0
 57 58  2  0  0  0
 57132  1  0  0  0
 58133  1  0  0  0
 59 60  1  0  0  0
 59 61  1  0  0  0
 59 62  1  0  0  0
 60134  1  0  0  0
 60135  1  0  0  0
 60136  1  0  0  0
 61137  1  0  0  0
 61138  1  0  0  0
 61139  1  0  0  0
 62140  1  0  0  0
 62141  1  0  0  0
 62142  1  0  0  0
 63 65  1  0  0  0
 63143  1  0  0  0
 63144  1  0  0  0
 63145  1  0  0  0
 64146  1  0  0  0
 65147  1  0  0  0
 68 84  1  0  0  0
 71 72  2  0  0  0
 71 77  1  0  0  0
 71148  1  0  0  0
 72 78  1  0  0  0
 72149  1  0  0  0
 73 75  1  0  0  0
 73 77  2  0  0  0
 73150  1  0  0  0
 74 76  1  0  0  0
 74 79  2  0  0  0
 74151  1  0  0  0
 75 78  2  0  0  0
 75 82  1  0  0  0
 76 80  2  0  0  0
 76 84  1  0  0  0
 77 85  1  0  0  0
 78 86  1  0  0  0
 79 85  1  0  0  0
 79 87  1  0  0  0
 80 85  1  0  0  0
 80 88  1  0  0  0
 81 82  2  0  0  0
 81152  1  0  0  0
 81153  1  0  0  0
 82154  1  0  0  0
 83 86  1  0  0  0
 83155  1  0  0  0
 83156  1  0  0  0
 83157  1  0  0  0
 84158  1  0  0  0
 84159  1  0  0  0
 87160  1  0  0  0
 88161  1  0  0  0
M  ISO  4   1 100  68 101  84 101  86 100
M  END
> <chiral flag>
0

> <version>
0

> <s_m_source_file>
/data/baiqing/PycharmProjects/Reinvent-master-3.2/result/LINK_invent/BTK/process_docking_weight1_custom_product_contain_oxygen_bond_distance_aromatic_linkinvent_7_9_3/rearranged_h_0078.sdf

> <i_m_source_file_index>
89

> <r_mmod_Potential_Energy-OPLS-2005>
405.003295898438

> <r_mmod_Stretch_Energy-OPLS-2005>
97.1337966918945

> <r_mmod_Bend_Energy-OPLS-2005>
179.399353027344

> <r_mmod_Torsional_Energy-OPLS-2005>
327.425201416016

> <r_mmod_Improper_Torsional_Energy-OPLS-2005>
31.7354011535645

> <r_mmod_Van_der_Waal_Energy-OPLS-2005>
173.062149047852

> <r_mmod_Electrostatic_Energy-OPLS-2005>
-278.612060546875

> <r_mmod_Solvation_Energy-OPLS-2005>
-221.031539916992

> <b_mmod_Minimization_Converged-OPLS-2005>
0

> <r_mmod_RMS_Derivative-OPLS-2005>
5.13865852355957

$$$$
90
                    3D
 Structure written by MMmdl.
157166  0  0  1  0            999 V2000
  -30.6670  -14.5006   20.5484 C   0  0  0  0  0  0
  -30.4304  -12.3161   19.4197 C   0  0  0  0  0  0
  -29.4965  -12.5000   18.2036 C   0  0  0  0  0  0
  -28.0175  -12.3560   18.6177 C   0  0  0  0  0  0
  -27.6603  -13.2005   19.8699 C   0  0  2  0  0  0
  -28.7026  -12.9821   20.9894 C   0  0  0  0  0  0
  -25.2588  -13.8138   20.5653 C   0  0  0  0  0  0
  -24.1843  -13.0432   20.9189 C   0  0  0  0  0  0
  -24.6384  -11.6895   20.8742 C   0  0  0  0  0  0
  -23.9047  -10.4288   21.0410 C   0  0  0  0  0  0
  -24.3606   -9.4208   21.9183 C   0  0  0  0  0  0
  -23.6290   -8.2240   22.0752 C   0  0  0  0  0  0
  -22.4270   -8.0276   21.3546 C   0  0  0  0  0  0
  -21.9902   -9.0247   20.4646 C   0  0  0  0  0  0
  -22.7225  -10.2127   20.3059 C   0  0  0  0  0  0
  -21.6848   -6.0735   22.5282 C   0  0  0  0  0  0
  -21.4008   -6.5641   23.8217 C   0  0  0  0  0  0
  -21.3662   -5.6794   24.9180 C   0  0  0  0  0  0
  -21.6047   -4.3057   24.7227 C   0  0  0  0  0  0
  -21.8820   -3.8147   23.4349 C   0  0  0  0  0  0
  -21.9193   -4.6964   22.3406 C   0  0  0  0  0  0
  -22.7870  -13.5242   21.1858 C   0  0  0  0  0  0
  -22.1663   -4.2152   21.0983 F   0  0  0  0  0  0
  -21.5631   -3.4542   25.7738 F   0  0  0  0  0  0
  -30.0320  -13.3005   20.4374 N   0  0  0  0  0  0
  -26.3014  -12.9296   20.3332 N   0  0  0  0  0  0
  -25.9306  -11.6464   20.5752 N   0  0  0  0  0  0
  -22.0503  -12.8231   22.0408 N   0  0  0  0  0  0
  -25.4312  -15.1847   20.3992 N   0  0  0  0  0  0
  -31.8105  -14.6894   20.1229 O   0  0  0  0  0  0
  -21.6638   -6.8873   21.4241 O   0  0  0  0  0  0
  -22.3565  -14.5557   20.6717 O   0  0  0  0  0  0
  -24.6164  -31.8650   23.2064 C   0  0  0  0  0  0
  -25.9054  -32.4806   23.8359 C   0  0  1  0  0  0
  -27.2358  -27.4158   20.1088 C   0  0  0  0  0  0
  -25.5904  -33.8605   24.2302 N   0  0  0  0  0  0
  -23.4053  -30.4883   21.5460 C   0  0  2  0  0  0
  -24.8524  -28.9481   20.1141 C   0  0  0  0  0  0
  -22.7424  -29.4650   22.4962 C   0  0  0  0  0  0
  -18.0275  -28.1387   22.8484 C   0  0  0  0  0  0
  -24.1493  -36.7308   23.2640 C   0  0  0  0  0  0
  -25.9335  -30.8288   21.3580 C   0  0  0  0  0  0
  -26.0118  -29.4607   20.7078 C   0  0  0  0  0  0
  -27.2068  -28.7036   20.6961 C   0  0  0  0  0  0
  -26.0584  -26.9194   19.5079 C   0  0  0  0  0  0
  -24.8713  -27.6788   19.5097 C   0  0  0  0  0  0
  -23.6137  -29.8164   20.1615 C   0  0  0  0  0  0
  -25.4104  -36.3098   24.0344 C   0  0  1  0  0  0
  -20.5872  -28.3667   23.1317 C   0  0  2  0  0  0
  -20.6764  -26.9401   22.5423 C   0  0  0  0  0  0
  -19.5746  -26.6388   21.5219 C   0  0  0  0  0  0
  -18.1919  -26.7933   22.1618 C   0  0  0  0  0  0
  -19.1528  -28.8837   23.2903 C   0  0  0  0  0  0
  -18.9458  -30.1443   23.8916 C   0  0  0  0  0  0
  -17.6463  -30.6587   24.0568 C   0  0  0  0  0  0
  -25.9035  -34.9469   23.5122 C   0  0  0  0  0  0
  -16.5351  -29.9094   23.6335 C   0  0  0  0  0  0
  -16.7263  -28.6518   23.0337 C   0  0  0  0  0  0
  -26.4474  -31.6585   25.0692 C   0  0  0  0  0  0
  -25.3755  -31.3693   26.1452 C   0  0  0  0  0  0
  -27.0295  -30.3032   24.6054 C   0  0  0  0  0  0
  -27.6044  -32.4296   25.7466 C   0  0  0  0  0  0
  -27.5580  -37.1798   24.8465 C   0  0  0  0  0  0
  -21.4146  -29.3036   22.3717 N   0  0  0  0  0  0
  -26.4291  -37.3789   23.9417 N   0  0  0  0  0  0
  -24.6703  -31.0744   22.0965 N   0  0  0  0  0  0
  -23.4198  -28.8194   23.3007 O   0  0  0  0  0  0
  -28.4089  -26.6843   20.1214 O   0  0  0  0  0  0
  -26.5600  -34.8924   22.4684 O   0  0  0  0  0  0
  -23.5351  -32.1384   23.7465 O   0  0  0  0  0  0
  -29.0014  -19.1550   20.8543 C   0  0  0  0  0  0
  -31.4022  -18.9721   21.0877 C   0  0  0  0  0  0
  -28.9072  -17.7423   20.8370 C   0  0  0  0  0  0
  -31.3107  -17.5621   21.0571 C   0  0  0  0  0  0
  -30.2530  -19.8036   21.0021 C   0  0  0  0  0  0
  -30.0557  -16.9235   20.9444 C   0  0  0  0  0  0
  -30.0531  -23.5176   21.2684 C   0  0  0  0  0  0
  -31.2396  -23.2156   22.0210 C   0  0  0  0  0  0
  -29.5353  -22.2413   20.7579 C   0  0  0  0  0  0
  -31.9421  -24.0623   22.7961 C   0  0  0  0  0  0
  -29.5423  -24.7668   21.0871 C   0  0  0  0  0  0
  -31.5573  -21.7661   21.8696 C   0  0  0  0  0  0
  -28.3214  -25.2552   20.3117 C   0  0  0  0  0  0
  -30.3881  -21.2406   21.1559 N   0  0  0  0  0  0
  -29.8794  -15.5016   21.0030 N   0  0  0  0  0  0
  -28.5129  -22.0887   20.0820 O   0  0  0  0  0  0
  -31.4733  -12.4287   19.1166 H   0  0  0  0  0  0
  -30.3439  -11.3041   19.8188 H   0  0  0  0  0  0
  -29.7380  -11.7694   17.4305 H   0  0  0  0  0  0
  -29.6587  -13.4822   17.7563 H   0  0  0  0  0  0
  -27.8344  -11.3001   18.8207 H   0  0  0  0  0  0
  -27.3651  -12.6210   17.7841 H   0  0  0  0  0  0
  -27.7024  -14.2467   19.5675 H   0  0  0  0  0  0
  -28.6837  -11.9447   21.3248 H   0  0  0  0  0  0
  -28.4614  -13.5743   21.8741 H   0  0  0  0  0  0
  -25.2752   -9.5689   22.4757 H   0  0  0  0  0  0
  -24.0010   -7.4626   22.7462 H   0  0  0  0  0  0
  -21.0842   -8.8760   19.8943 H   0  0  0  0  0  0
  -22.3686  -10.9667   19.6171 H   0  0  0  0  0  0
  -21.1993   -7.6145   23.9722 H   0  0  0  0  0  0
  -21.1485   -6.0521   25.9083 H   0  0  0  0  0  0
  -22.0596   -2.7611   23.2849 H   0  0  0  0  0  0
  -22.4109  -11.9891   22.4801 H   0  0  0  0  0  0
  -21.1117  -13.1254   22.2601 H   0  0  0  0  0  0
  -24.6543  -15.8327   20.4768 H   0  0  0  0  0  0
  -26.2635  -15.6098   20.0119 H   0  0  0  0  0  0
  -26.7126  -32.5527   23.1118 H   0  0  0  0  0  0
  -25.0058  -33.9741   25.0452 H   0  0  0  0  0  0
  -22.6958  -31.3065   21.4024 H   0  0  0  0  0  0
  -23.3751  -35.9650   23.3303 H   0  0  0  0  0  0
  -24.3585  -36.8919   22.2055 H   0  0  0  0  0  0
  -23.7253  -37.6520   23.6648 H   0  0  0  0  0  0
  -26.0402  -31.5924   20.5866 H   0  0  0  0  0  0
  -26.8239  -30.8878   21.9725 H   0  0  0  0  0  0
  -28.1043  -29.0961   21.1530 H   0  0  0  0  0  0
  -26.0522  -25.9482   19.0337 H   0  0  0  0  0  0
  -23.9805  -27.2792   19.0475 H   0  0  0  0  0  0
  -23.7241  -30.5879   19.3987 H   0  0  0  0  0  0
  -22.7382  -29.2368   19.8635 H   0  0  0  0  0  0
  -25.1283  -36.1946   25.0838 H   0  0  0  0  0  0
  -20.9952  -28.3226   24.1445 H   0  0  0  0  0  0
  -20.5661  -26.2271   23.3603 H   0  0  0  0  0  0
  -21.6627  -26.7432   22.1216 H   0  0  0  0  0  0
  -19.6910  -25.6310   21.1222 H   0  0  0  0  0  0
  -19.6697  -27.3209   20.6765 H   0  0  0  0  0  0
  -17.4190  -26.6696   21.4013 H   0  0  0  0  0  0
  -18.0307  -26.0081   22.9014 H   0  0  0  0  0  0
  -19.7944  -30.7253   24.2283 H   0  0  0  0  0  0
  -17.5027  -31.6266   24.5161 H   0  0  0  0  0  0
  -15.5353  -30.2997   23.7658 H   0  0  0  0  0  0
  -15.8668  -28.0847   22.7028 H   0  0  0  0  0  0
  -24.5935  -30.7024   25.7802 H   0  0  0  0  0  0
  -24.8939  -32.2853   26.4891 H   0  0  0  0  0  0
  -25.8126  -30.8880   27.0209 H   0  0  0  0  0  0
  -26.2816  -29.6798   24.1138 H   0  0  0  0  0  0
  -27.4115  -29.7256   25.4481 H   0  0  0  0  0  0
  -27.8634  -30.4356   23.9153 H   0  0  0  0  0  0
  -27.2655  -33.3588   26.2048 H   0  0  0  0  0  0
  -28.3860  -32.6850   25.0302 H   0  0  0  0  0  0
  -28.0704  -31.8417   26.5381 H   0  0  0  0  0  0
  -28.2583  -38.0108   24.7501 H   0  0  0  0  0  0
  -28.1082  -36.2628   24.6287 H   0  0  0  0  0  0
  -27.2296  -37.1449   25.8871 H   0  0  0  0  0  0
  -20.9297  -29.8771   21.6959 H   0  0  0  0  0  0
  -26.0178  -38.2866   24.1428 H   0  0  0  0  0  0
  -28.0861  -19.7254   20.7971 H   0  0  0  0  0  0
  -32.3881  -19.3987   21.2013 H   0  0  0  0  0  0
  -27.9282  -17.2915   20.7547 H   0  0  0  0  0  0
  -32.2178  -16.9829   21.1561 H   0  0  0  0  0  0
  -31.6779  -25.1021   22.9150 H   0  0  0  0  0  0
  -32.8076  -23.7148   23.3428 H   0  0  0  0  0  0
  -30.0602  -25.5822   21.5680 H   0  0  0  0  0  0
  -31.6803  -21.2871   22.8421 H   0  0  0  0  0  0
  -32.4707  -21.6492   21.2850 H   0  0  0  0  0  0
  -27.4352  -24.9911   20.8927 H   0  0  0  0  0  0
  -28.2541  -24.7502   19.3479 H   0  0  0  0  0  0
  -28.9552  -15.1920   21.2597 H   0  0  0  0  0  0
  1 25  1  0  0  0
  1 30  2  0  0  0
  1 85  1  0  0  0
  2  3  1  0  0  0
  2 25  1  0  0  0
  2 87  1  0  0  0
  2 88  1  0  0  0
  3  4  1  0  0  0
  3 89  1  0  0  0
  3 90  1  0  0  0
  4  5  1  0  0  0
  4 91  1  0  0  0
  4 92  1  0  0  0
  5  6  1  0  0  0
  5 26  1  0  0  0
  5 93  1  0  0  0
  6 25  1  0  0  0
  6 94  1  0  0  0
  6 95  1  0  0  0
  7  8  2  0  0  0
  7 26  1  0  0  0
  7 29  1  0  0  0
  8  9  1  0  0  0
  8 22  1  0  0  0
  9 10  1  0  0  0
  9 27  2  0  0  0
 10 11  2  0  0  0
 10 15  1  0  0  0
 11 12  1  0  0  0
 11 96  1  0  0  0
 12 13  2  0  0  0
 12 97  1  0  0  0
 13 14  1  0  0  0
 13 31  1  0  0  0
 14 15  2  0  0  0
 14 98  1  0  0  0
 15 99  1  0  0  0
 16 17  2  0  0  0
 16 21  1  0  0  0
 16 31  1  0  0  0
 17 18  1  0  0  0
 17100  1  0  0  0
 18 19  2  0  0  0
 18101  1  0  0  0
 19 20  1  0  0  0
 19 24  1  0  0  0
 20 21  2  0  0  0
 20102  1  0  0  0
 21 23  1  0  0  0
 22 28  1  0  0  0
 22 32  2  0  0  0
 26 27  1  0  0  0
 28103  1  0  0  0
 28104  1  0  0  0
 29105  1  0  0  0
 29106  1  0  0  0
 33 34  1  0  0  0
 33 66  1  0  0  0
 33 70  2  0  0  0
 34 36  1  0  0  0
 34 59  1  0  0  0
 34107  1  0  0  0
 35 44  2  0  0  0
 35 45  1  0  0  0
 35 68  1  0  0  0
 36 56  1  0  0  0
 36108  1  0  0  0
 37 39  1  0  0  0
 37 47  1  0  0  0
 37 66  1  0  0  0
 37109  1  0  0  0
 38 43  2  0  0  0
 38 46  1  0  0  0
 38 47  1  0  0  0
 39 64  1  0  0  0
 39 67  2  0  0  0
 40 52  1  0  0  0
 40 53  2  0  0  0
 40 58  1  0  0  0
 41110  1  0  0  0
 41111  1  0  0  0
 41112  1  0  0  0
 41 48  1  0  0  0
 42 43  1  0  0  0
 42 66  1  0  0  0
 42113  1  0  0  0
 42114  1  0  0  0
 43 44  1  0  0  0
 44115  1  0  0  0
 45 46  2  0  0  0
 45116  1  0  0  0
 46117  1  0  0  0
 47118  1  0  0  0
 47119  1  0  0  0
 48 56  1  0  0  0
 48 65  1  0  0  0
 48120  1  0  0  0
 49 50  1  0  0  0
 49 53  1  0  0  0
 49 64  1  0  0  0
 49121  1  0  0  0
 50 51  1  0  0  0
 50122  1  0  0  0
 50123  1  0  0  0
 51 52  1  0  0  0
 51124  1  0  0  0
 51125  1  0  0  0
 52126  1  0  0  0
 52127  1  0  0  0
 53 54  1  0  0  0
 54 55  2  0  0  0
 54128  1  0  0  0
 55 57  1  0  0  0
 55129  1  0  0  0
 56 69  2  0  0  0
 57 58  2  0  0  0
 57130  1  0  0  0
 58131  1  0  0  0
 59 60  1  0  0  0
 59 61  1  0  0  0
 59 62  1  0  0  0
 60132  1  0  0  0
 60133  1  0  0  0
 60134  1  0  0  0
 61135  1  0  0  0
 61136  1  0  0  0
 61137  1  0  0  0
 62138  1  0  0  0
 62139  1  0  0  0
 62140  1  0  0  0
 63 65  1  0  0  0
 63141  1  0  0  0
 63142  1  0  0  0
 63143  1  0  0  0
 64144  1  0  0  0
 65145  1  0  0  0
 68 83  1  0  0  0
 71 73  2  0  0  0
 71 75  1  0  0  0
 71146  1  0  0  0
 72 74  1  0  0  0
 72 75  2  0  0  0
 72147  1  0  0  0
 73 76  1  0  0  0
 73148  1  0  0  0
 74 76  2  0  0  0
 74149  1  0  0  0
 75 84  1  0  0  0
 76 85  1  0  0  0
 77 78  1  0  0  0
 77 79  1  0  0  0
 77 81  2  0  0  0
 78 80  2  0  0  0
 78 82  1  0  0  0
 79 84  1  0  0  0
 79 86  2  0  0  0
 80150  1  0  0  0
 80151  1  0  0  0
 81 83  1  0  0  0
 81152  1  0  0  0
 82 84  1  0  0  0
 82153  1  0  0  0
 82154  1  0  0  0
 83155  1  0  0  0
 83156  1  0  0  0
 85157  1  0  0  0
M  ISO  4   1 100  68 101  83 101  85 100
M  END
> <chiral flag>
0

> <version>
0

> <s_m_source_file>
/data/baiqing/PycharmProjects/Reinvent-master-3.2/result/LINK_invent/BTK/process_docking_weight1_custom_product_contain_oxygen_bond_distance_aromatic_linkinvent_7_9_3/rearranged_h_0078.sdf

> <i_m_source_file_index>
90

> <r_mmod_Potential_Energy-OPLS-2005>
94.7981109619141

> <r_mmod_Stretch_Energy-OPLS-2005>
47.2026710510254

> <r_mmod_Bend_Energy-OPLS-2005>
163.196960449219

> <r_mmod_Torsional_Energy-OPLS-2005>
269.272705078125

> <r_mmod_Improper_Torsional_Energy-OPLS-2005>
4.94090747833252

> <r_mmod_Van_der_Waal_Energy-OPLS-2005>
156.493789672852

> <r_mmod_Electrostatic_Energy-OPLS-2005>
-351.026519775391

> <r_mmod_Solvation_Energy-OPLS-2005>
-211.220092773438

> <b_mmod_Minimization_Converged-OPLS-2005>
0

> <r_mmod_RMS_Derivative-OPLS-2005>
1.59436249732971

$$$$
91
                    3D
 Structure written by MMmdl.
163172  0  0  1  0            999 V2000
  -30.6367  -14.5566   20.4822 C   0  0  0  0  0  0
  -30.4214  -12.3333   19.4378 C   0  0  0  0  0  0
  -29.4957  -12.5030   18.2140 C   0  0  0  0  0  0
  -28.0164  -12.3642   18.6254 C   0  0  0  0  0  0
  -27.6567  -13.2144   19.8741 C   0  0  2  0  0  0
  -28.6986  -13.0258   20.9993 C   0  0  0  0  0  0
  -25.2580  -13.8173   20.5712 C   0  0  0  0  0  0
  -24.1836  -13.0428   20.9201 C   0  0  0  0  0  0
  -24.6411  -11.6910   20.8764 C   0  0  0  0  0  0
  -23.9085  -10.4294   21.0428 C   0  0  0  0  0  0
  -24.3637   -9.4208   21.9197 C   0  0  0  0  0  0
  -23.6308   -8.2246   22.0761 C   0  0  0  0  0  0
  -22.4277   -8.0289   21.3559 C   0  0  0  0  0  0
  -21.9928   -9.0271   20.4655 C   0  0  0  0  0  0
  -22.7267  -10.2147   20.3073 C   0  0  0  0  0  0
  -21.6855   -6.0745   22.5291 C   0  0  0  0  0  0
  -21.4012   -6.5647   23.8229 C   0  0  0  0  0  0
  -21.3663   -5.6802   24.9191 C   0  0  0  0  0  0
  -21.6043   -4.3065   24.7233 C   0  0  0  0  0  0
  -21.8828   -3.8152   23.4358 C   0  0  0  0  0  0
  -21.9200   -4.6971   22.3411 C   0  0  0  0  0  0
  -22.7869  -13.5228   21.1871 C   0  0  0  0  0  0
  -22.1672   -4.2151   21.0996 F   0  0  0  0  0  0
  -21.5619   -3.4552   25.7752 F   0  0  0  0  0  0
  -30.0214  -13.3400   20.4374 N   0  0  0  0  0  0
  -26.3010  -12.9356   20.3381 N   0  0  0  0  0  0
  -25.9331  -11.6507   20.5787 N   0  0  0  0  0  0
  -22.0529  -12.8195   22.0429 N   0  0  0  0  0  0
  -25.4297  -15.1888   20.4119 N   0  0  0  0  0  0
  -31.7914  -14.7238   20.0783 O   0  0  0  0  0  0
  -21.6633   -6.8888   21.4253 O   0  0  0  0  0  0
  -22.3555  -14.5544   20.6751 O   0  0  0  0  0  0
  -24.6157  -31.8604   23.2001 C   0  0  0  0  0  0
  -25.9023  -32.4791   23.8327 C   0  0  1  0  0  0
  -27.2316  -27.3686   20.0962 C   0  0  0  0  0  0
  -25.5836  -33.8596   24.2233 N   0  0  0  0  0  0
  -23.4076  -30.4803   21.5425 C   0  0  2  0  0  0
  -24.8551  -28.9360   20.1116 C   0  0  0  0  0  0
  -22.7427  -29.4606   22.4962 C   0  0  0  0  0  0
  -18.0263  -28.1354   22.8487 C   0  0  0  0  0  0
  -24.1469  -36.7330   23.2634 C   0  0  0  0  0  0
  -25.9421  -30.8058   21.3621 C   0  0  0  0  0  0
  -26.0200  -29.4359   20.7079 C   0  0  0  0  0  0
  -27.2105  -28.6622   20.6903 C   0  0  0  0  0  0
  -26.0410  -26.8970   19.5010 C   0  0  0  0  0  0
  -24.8650  -27.6699   19.5027 C   0  0  0  0  0  0
  -23.6158  -29.8036   20.1612 C   0  0  0  0  0  0
  -25.4104  -36.3101   24.0302 C   0  0  1  0  0  0
  -20.5848  -28.3648   23.1288 C   0  0  2  0  0  0
  -20.6717  -26.9366   22.5412 C   0  0  0  0  0  0
  -19.5716  -26.6358   21.5182 C   0  0  0  0  0  0
  -18.1906  -26.7896   22.1617 C   0  0  0  0  0  0
  -19.1511  -28.8824   23.2874 C   0  0  0  0  0  0
  -18.9446  -30.1427   23.8887 C   0  0  0  0  0  0
  -17.6445  -30.6562   24.0551 C   0  0  0  0  0  0
  -25.9035  -34.9468   23.5086 C   0  0  0  0  0  0
  -16.5333  -29.9064   23.6320 C   0  0  0  0  0  0
  -16.7249  -28.6475   23.0352 C   0  0  0  0  0  0
  -26.4419  -31.6632   25.0720 C   0  0  0  0  0  0
  -25.3666  -31.3798   26.1468 C   0  0  0  0  0  0
  -27.0232  -30.3044   24.6181 C   0  0  0  0  0  0
  -27.5948  -32.4396   25.7515 C   0  0  0  0  0  0
  -27.5574  -37.1806   24.8449 C   0  0  0  0  0  0
  -21.4146  -29.3021   22.3720 N   0  0  0  0  0  0
  -26.4283  -37.3794   23.9397 N   0  0  0  0  0  0
  -24.6736  -31.0652   22.0924 N   0  0  0  0  0  0
  -23.4184  -28.8128   23.3011 O   0  0  0  0  0  0
  -28.4021  -26.6127   20.0951 O   0  0  0  0  0  0
  -26.5640  -34.8931   22.4674 O   0  0  0  0  0  0
  -23.5331  -32.1370   23.7366 O   0  0  0  0  0  0
  -29.2855  -19.3526   20.5276 C   0  0  0  0  0  0
  -29.4509  -18.0512   21.0877 C   0  0  0  0  0  0
  -29.7348  -18.4392   18.3594 C   0  0  0  0  0  0
  -29.4105  -19.6050   19.1290 C   0  0  0  0  0  0
  -29.7794  -16.9220   20.2965 C   0  0  0  0  0  0
  -29.9034  -17.1455   18.9078 C   0  0  0  0  0  0
  -28.5214  -23.2723   18.1111 C   0  0  0  0  0  0
  -28.6928  -22.0918   19.0238 C   0  0  0  0  0  0
  -29.6096  -22.1980   16.2666 C   0  0  0  0  0  0
  -30.4913  -22.6402   15.3539 C   0  0  0  0  0  0
  -28.4518  -24.5972   18.5023 C   0  0  0  0  0  0
  -28.3633  -22.9205   16.6382 C   0  0  0  0  0  0
  -29.7538  -20.9260   17.0566 C   0  0  0  0  0  0
  -28.4384  -25.7114   17.4480 C   0  0  0  0  0  0
  -28.3652  -25.1529   19.9484 C   0  0  0  0  0  0
  -29.2515  -20.9309   18.4646 N   0  0  0  0  0  0
  -29.8653  -15.6002   20.8837 N   0  0  0  0  0  0
  -28.3340  -22.1433   20.2027 O   0  0  0  0  0  0
  -30.1335  -16.1122   18.0626 F   0  0  0  0  0  0
  -31.4666  -12.4328   19.1395 H   0  0  0  0  0  0
  -30.3184  -11.3303   19.8529 H   0  0  0  0  0  0
  -29.7379  -11.7664   17.4460 H   0  0  0  0  0  0
  -29.6595  -13.4804   17.7573 H   0  0  0  0  0  0
  -27.8285  -11.3096   18.8288 H   0  0  0  0  0  0
  -27.3677  -12.6307   17.7892 H   0  0  0  0  0  0
  -27.6885  -14.2579   19.5590 H   0  0  0  0  0  0
  -28.6854  -11.9984   21.3647 H   0  0  0  0  0  0
  -28.4599  -13.6442   21.8646 H   0  0  0  0  0  0
  -25.2798   -9.5656   22.4752 H   0  0  0  0  0  0
  -24.0016   -7.4627   22.7465 H   0  0  0  0  0  0
  -21.0867   -8.8821   19.8942 H   0  0  0  0  0  0
  -22.3773  -10.9697   19.6166 H   0  0  0  0  0  0
  -21.2008   -7.6161   23.9734 H   0  0  0  0  0  0
  -21.1464   -6.0534   25.9099 H   0  0  0  0  0  0
  -22.0596   -2.7611   23.2870 H   0  0  0  0  0  0
  -22.4160  -11.9824   22.4742 H   0  0  0  0  0  0
  -21.1157  -13.1208   22.2667 H   0  0  0  0  0  0
  -24.6595  -15.8415   20.5052 H   0  0  0  0  0  0
  -26.2850  -15.6319   20.1010 H   0  0  0  0  0  0
  -26.7092  -32.5467   23.1084 H   0  0  0  0  0  0
  -24.9905  -33.9755   25.0311 H   0  0  0  0  0  0
  -22.6959  -31.2939   21.3959 H   0  0  0  0  0  0
  -23.3726  -35.9669   23.3317 H   0  0  0  0  0  0
  -24.3542  -36.8966   22.2048 H   0  0  0  0  0  0
  -23.7245  -37.6532   23.6674 H   0  0  0  0  0  0
  -26.0564  -31.5659   20.5877 H   0  0  0  0  0  0
  -26.8276  -30.8601   21.9856 H   0  0  0  0  0  0
  -28.1125  -29.0446   21.1501 H   0  0  0  0  0  0
  -26.0074  -25.9287   19.0236 H   0  0  0  0  0  0
  -23.9720  -27.2795   19.0333 H   0  0  0  0  0  0
  -23.7022  -30.5646   19.3848 H   0  0  0  0  0  0
  -22.7418  -29.2083   19.8863 H   0  0  0  0  0  0
  -25.1290  -36.1938   25.0790 H   0  0  0  0  0  0
  -20.9926  -28.3206   24.1405 H   0  0  0  0  0  0
  -20.5544  -26.2262   23.3619 H   0  0  0  0  0  0
  -21.6598  -26.7328   22.1250 H   0  0  0  0  0  0
  -19.6862  -25.6260   21.1233 H   0  0  0  0  0  0
  -19.6656  -27.3151   20.6700 H   0  0  0  0  0  0
  -17.4148  -26.6608   21.4049 H   0  0  0  0  0  0
  -18.0326  -26.0032   22.9018 H   0  0  0  0  0  0
  -19.7914  -30.7236   24.2260 H   0  0  0  0  0  0
  -17.4993  -31.6244   24.5152 H   0  0  0  0  0  0
  -15.5332  -30.2962   23.7637 H   0  0  0  0  0  0
  -15.8646  -28.0789   22.7080 H   0  0  0  0  0  0
  -24.5775  -30.7217   25.7828 H   0  0  0  0  0  0
  -24.8935  -32.2984   26.4941 H   0  0  0  0  0  0
  -25.7990  -30.8940   27.0222 H   0  0  0  0  0  0
  -26.2802  -29.6883   24.1104 H   0  0  0  0  0  0
  -27.3785  -29.7240   25.4711 H   0  0  0  0  0  0
  -27.8732  -30.4336   23.9483 H   0  0  0  0  0  0
  -27.2475  -33.3646   26.2142 H   0  0  0  0  0  0
  -28.3724  -32.7068   25.0349 H   0  0  0  0  0  0
  -28.0643  -31.8520   26.5417 H   0  0  0  0  0  0
  -28.2573  -38.0115   24.7476 H   0  0  0  0  0  0
  -28.1078  -36.2639   24.6279 H   0  0  0  0  0  0
  -27.2287  -37.1463   25.8849 H   0  0  0  0  0  0
  -20.9292  -29.8850   21.7040 H   0  0  0  0  0  0
  -26.0175  -38.2864   24.1417 H   0  0  0  0  0  0
  -29.0587  -20.1453   21.2225 H   0  0  0  0  0  0
  -29.3233  -17.9318   22.1535 H   0  0  0  0  0  0
  -29.8524  -18.4647   17.2899 H   0  0  0  0  0  0
  -30.3263  -23.5700   14.8264 H   0  0  0  0  0  0
  -31.3884  -22.0863   15.1155 H   0  0  0  0  0  0
  -28.1644  -23.7426   15.9555 H   0  0  0  0  0  0
  -27.5097  -22.2501   16.5177 H   0  0  0  0  0  0
  -30.7898  -20.5842   17.0151 H   0  0  0  0  0  0
  -29.1417  -20.2283   16.4853 H   0  0  0  0  0  0
  -29.1112  -25.4882   16.6197 H   0  0  0  0  0  0
  -28.8091  -26.6644   17.8176 H   0  0  0  0  0  0
  -27.4319  -25.8699   17.0601 H   0  0  0  0  0  0
  -29.2209  -24.7607   20.4999 H   0  0  0  0  0  0
  -27.4817  -24.7477   20.4428 H   0  0  0  0  0  0
  -29.0791  -15.3418   21.4599 H   0  0  0  0  0  0
  1 25  1  0  0  0
  1 30  2  0  0  0
  1 87  1  0  0  0
  2  3  1  0  0  0
  2 25  1  0  0  0
  2 90  1  0  0  0
  2 91  1  0  0  0
  3  4  1  0  0  0
  3 92  1  0  0  0
  3 93  1  0  0  0
  4  5  1  0  0  0
  4 94  1  0  0  0
  4 95  1  0  0  0
  5  6  1  0  0  0
  5 26  1  0  0  0
  5 96  1  0  0  0
  6 25  1  0  0  0
  6 97  1  0  0  0
  6 98  1  0  0  0
  7  8  2  0  0  0
  7 26  1  0  0  0
  7 29  1  0  0  0
  8  9  1  0  0  0
  8 22  1  0  0  0
  9 10  1  0  0  0
  9 27  2  0  0  0
 10 11  2  0  0  0
 10 15  1  0  0  0
 11 12  1  0  0  0
 11 99  1  0  0  0
 12 13  2  0  0  0
 12100  1  0  0  0
 13 14  1  0  0  0
 13 31  1  0  0  0
 14 15  2  0  0  0
 14101  1  0  0  0
 15102  1  0  0  0
 16 17  2  0  0  0
 16 21  1  0  0  0
 16 31  1  0  0  0
 17 18  1  0  0  0
 17103  1  0  0  0
 18 19  2  0  0  0
 18104  1  0  0  0
 19 20  1  0  0  0
 19 24  1  0  0  0
 20 21  2  0  0  0
 20105  1  0  0  0
 21 23  1  0  0  0
 22 28  1  0  0  0
 22 32  2  0  0  0
 26 27  1  0  0  0
 28106  1  0  0  0
 28107  1  0  0  0
 29108  1  0  0  0
 29109  1  0  0  0
 33 34  1  0  0  0
 33 66  1  0  0  0
 33 70  2  0  0  0
 34 36  1  0  0  0
 34 59  1  0  0  0
 34110  1  0  0  0
 35 44  2  0  0  0
 35 45  1  0  0  0
 35 68  1  0  0  0
 36 56  1  0  0  0
 36111  1  0  0  0
 37 39  1  0  0  0
 37 47  1  0  0  0
 37 66  1  0  0  0
 37112  1  0  0  0
 38 43  2  0  0  0
 38 46  1  0  0  0
 38 47  1  0  0  0
 39 64  1  0  0  0
 39 67  2  0  0  0
 40 52  1  0  0  0
 40 53  2  0  0  0
 40 58  1  0  0  0
 41113  1  0  0  0
 41114  1  0  0  0
 41115  1  0  0  0
 41 48  1  0  0  0
 42 43  1  0  0  0
 42 66  1  0  0  0
 42116  1  0  0  0
 42117  1  0  0  0
 43 44  1  0  0  0
 44118  1  0  0  0
 45 46  2  0  0  0
 45119  1  0  0  0
 46120  1  0  0  0
 47121  1  0  0  0
 47122  1  0  0  0
 48 56  1  0  0  0
 48 65  1  0  0  0
 48123  1  0  0  0
 49 50  1  0  0  0
 49 53  1  0  0  0
 49 64  1  0  0  0
 49124  1  0  0  0
 50 51  1  0  0  0
 50125  1  0  0  0
 50126  1  0  0  0
 51 52  1  0  0  0
 51127  1  0  0  0
 51128  1  0  0  0
 52129  1  0  0  0
 52130  1  0  0  0
 53 54  1  0  0  0
 54 55  2  0  0  0
 54131  1  0  0  0
 55 57  1  0  0  0
 55132  1  0  0  0
 56 69  2  0  0  0
 57 58  2  0  0  0
 57133  1  0  0  0
 58134  1  0  0  0
 59 60  1  0  0  0
 59 61  1  0  0  0
 59 62  1  0  0  0
 60135  1  0  0  0
 60136  1  0  0  0
 60137  1  0  0  0
 61138  1  0  0  0
 61139  1  0  0  0
 61140  1  0  0  0
 62141  1  0  0  0
 62142  1  0  0  0
 62143  1  0  0  0
 63 65  1  0  0  0
 63144  1  0  0  0
 63145  1  0  0  0
 63146  1  0  0  0
 64147  1  0  0  0
 65148  1  0  0  0
 68 85  1  0  0  0
 71 72  2  0  0  0
 71 74  1  0  0  0
 71149  1  0  0  0
 72 75  1  0  0  0
 72150  1  0  0  0
 73 74  2  0  0  0
 73 76  1  0  0  0
 73151  1  0  0  0
 74 86  1  0  0  0
 75 76  2  0  0  0
 75 87  1  0  0  0
 76 89  1  0  0  0
 77 78  1  0  0  0
 77 81  2  0  0  0
 77 82  1  0  0  0
 78 86  1  0  0  0
 78 88  2  0  0  0
 79 80  2  0  0  0
 79 82  1  0  0  0
 79 83  1  0  0  0
 80152  1  0  0  0
 80153  1  0  0  0
 81 84  1  0  0  0
 81 85  1  0  0  0
 82154  1  0  0  0
 82155  1  0  0  0
 83 86  1  0  0  0
 83156  1  0  0  0
 83157  1  0  0  0
 84158  1  0  0  0
 84159  1  0  0  0
 84160  1  0  0  0
 85161  1  0  0  0
 85162  1  0  0  0
 87163  1  0  0  0
M  ISO  4   1 100  68 101  85 101  87 100
M  END
> <chiral flag>
0

> <version>
0

> <s_m_source_file>
/data/baiqing/PycharmProjects/Reinvent-master-3.2/result/LINK_invent/BTK/process_docking_weight1_custom_product_contain_oxygen_bond_distance_aromatic_linkinvent_7_9_3/rearranged_h_0078.sdf

> <i_m_source_file_index>
91

> <r_mmod_Potential_Energy-OPLS-2005>
162.866683959961

> <r_mmod_Stretch_Energy-OPLS-2005>
86.7463226318359

> <r_mmod_Bend_Energy-OPLS-2005>
158.231384277344

> <r_mmod_Torsional_Energy-OPLS-2005>
280.727600097656

> <r_mmod_Improper_Torsional_Energy-OPLS-2005>
4.5729832649231

> <r_mmod_Van_der_Waal_Energy-OPLS-2005>
194.053421020508

> <r_mmod_Electrostatic_Energy-OPLS-2005>
-378.544067382812

> <r_mmod_Solvation_Energy-OPLS-2005>
-209.052764892578

> <b_mmod_Minimization_Converged-OPLS-2005>
0

> <r_mmod_RMS_Derivative-OPLS-2005>
3.12742972373962

$$$$
92
                    3D
 Structure written by MMmdl.
158167  0  0  1  0            999 V2000
  -30.6025  -14.7098   20.4849 C   0  0  0  0  0  0
  -30.4528  -12.4418   19.4565 C   0  0  0  0  0  0
  -29.5183  -12.5192   18.2286 C   0  0  0  0  0  0
  -28.0420  -12.3397   18.6375 C   0  0  0  0  0  0
  -27.6504  -13.2218   19.8531 C   0  0  2  0  0  0
  -28.6999  -13.1102   20.9831 C   0  0  0  0  0  0
  -25.2498  -13.8094   20.5663 C   0  0  0  0  0  0
  -24.1798  -13.0343   20.9154 C   0  0  0  0  0  0
  -24.6410  -11.6843   20.8703 C   0  0  0  0  0  0
  -23.9077  -10.4241   21.0389 C   0  0  0  0  0  0
  -24.3623   -9.4172   21.9192 C   0  0  0  0  0  0
  -23.6284   -8.2217   22.0777 C   0  0  0  0  0  0
  -22.4263   -8.0262   21.3563 C   0  0  0  0  0  0
  -21.9900   -9.0228   20.4665 C   0  0  0  0  0  0
  -22.7244  -10.2100   20.3060 C   0  0  0  0  0  0
  -21.6840   -6.0717   22.5281 C   0  0  0  0  0  0
  -21.4011   -6.5629   23.8222 C   0  0  0  0  0  0
  -21.3671   -5.6789   24.9179 C   0  0  0  0  0  0
  -21.6035   -4.3045   24.7236 C   0  0  0  0  0  0
  -21.8826   -3.8143   23.4359 C   0  0  0  0  0  0
  -21.9200   -4.6946   22.3410 C   0  0  0  0  0  0
  -22.7839  -13.5180   21.1831 C   0  0  0  0  0  0
  -22.1679   -4.2148   21.0984 F   0  0  0  0  0  0
  -21.5622   -3.4532   25.7744 F   0  0  0  0  0  0
  -30.0129  -13.4706   20.4197 N   0  0  0  0  0  0
  -26.2988  -12.9334   20.3271 N   0  0  0  0  0  0
  -25.9345  -11.6479   20.5713 N   0  0  0  0  0  0
  -22.0460  -12.8226   22.0398 N   0  0  0  0  0  0
  -25.3975  -15.1822   20.4174 N   0  0  0  0  0  0
  -31.7719  -14.8811   20.1241 O   0  0  0  0  0  0
  -21.6628   -6.8855   21.4257 O   0  0  0  0  0  0
  -22.3548  -14.5509   20.6702 O   0  0  0  0  0  0
  -24.6317  -31.8547   23.1993 C   0  0  0  0  0  0
  -25.9153  -32.4742   23.8347 C   0  0  1  0  0  0
  -27.2469  -27.3098   20.0987 C   0  0  0  0  0  0
  -25.5948  -33.8541   24.2283 N   0  0  0  0  0  0
  -23.4282  -30.4729   21.5408 C   0  0  2  0  0  0
  -24.8788  -28.9232   20.1110 C   0  0  0  0  0  0
  -22.7505  -29.4574   22.4937 C   0  0  0  0  0  0
  -18.0295  -28.1359   22.8493 C   0  0  0  0  0  0
  -24.1491  -36.7270   23.2633 C   0  0  0  0  0  0
  -25.9708  -30.7812   21.3723 C   0  0  0  0  0  0
  -26.0463  -29.4068   20.7125 C   0  0  0  0  0  0
  -27.2302  -28.6097   20.6974 C   0  0  0  0  0  0
  -26.0446  -26.8662   19.5028 C   0  0  0  0  0  0
  -24.8799  -27.6581   19.5012 C   0  0  0  0  0  0
  -23.6450  -29.8007   20.1591 C   0  0  0  0  0  0
  -25.4107  -36.3051   24.0338 C   0  0  1  0  0  0
  -20.5897  -28.3653   23.1294 C   0  0  2  0  0  0
  -20.6779  -26.9370   22.5422 C   0  0  0  0  0  0
  -19.5765  -26.6368   21.5205 C   0  0  0  0  0  0
  -18.1937  -26.7916   22.1604 C   0  0  0  0  0  0
  -19.1550  -28.8828   23.2883 C   0  0  0  0  0  0
  -18.9473  -30.1434   23.8894 C   0  0  0  0  0  0
  -17.6471  -30.6567   24.0549 C   0  0  0  0  0  0
  -25.9050  -34.9427   23.5110 C   0  0  0  0  0  0
  -16.5360  -29.9062   23.6319 C   0  0  0  0  0  0
  -16.7280  -28.6467   23.0364 C   0  0  0  0  0  0
  -26.4532  -31.6557   25.0721 C   0  0  0  0  0  0
  -25.3783  -31.3742   26.1466 C   0  0  0  0  0  0
  -27.0362  -30.2963   24.6197 C   0  0  0  0  0  0
  -27.6092  -32.4288   25.7495 C   0  0  0  0  0  0
  -27.5595  -37.1765   24.8456 C   0  0  0  0  0  0
  -21.4208  -29.3013   22.3699 N   0  0  0  0  0  0
  -26.4274  -37.3761   23.9436 N   0  0  0  0  0  0
  -24.6952  -31.0545   22.0938 N   0  0  0  0  0  0
  -23.4230  -28.8117   23.3018 O   0  0  0  0  0  0
  -28.3941  -26.4958   20.1600 O   0  0  0  0  0  0
  -26.5598  -34.8905   22.4663 O   0  0  0  0  0  0
  -23.5476  -32.1333   23.7315 O   0  0  0  0  0  0
  -30.8210  -18.1269   20.7208 C   0  0  0  0  0  0
  -28.2600  -19.1980   20.3598 C   0  0  0  0  0  0
  -30.6132  -19.5554   20.6781 C   0  0  0  0  0  0
  -29.3132  -20.1360   20.5087 C   0  0  0  0  0  0
  -29.7396  -17.2043   20.6117 C   0  0  0  0  0  0
  -28.4679  -17.7916   20.4085 C   0  0  0  0  0  0
  -29.2372  -22.6827   19.8168 C   0  0  0  0  0  0
  -28.5904  -23.8305   20.1944 C   0  0  0  0  0  0
  -27.8675  -23.4551   21.3886 C   0  0  0  0  0  0
  -27.1214  -24.2795   22.1406 C   0  0  0  0  0  0
  -28.0688  -21.9714   21.6729 C   0  0  0  0  0  0
  -31.8032  -20.4744   20.8922 C   0  0  0  0  0  0
  -28.5399  -25.2113   19.4257 C   0  0  0  0  0  0
  -29.0208  -21.5497   20.6426 N   0  0  0  0  0  0
  -29.7593  -15.7443   20.8082 N   0  0  0  0  0  0
  -27.3997  -16.9725   20.2837 F   0  0  0  0  0  0
  -31.4904  -12.5837   19.1521 H   0  0  0  0  0  0
  -30.4108  -11.4553   19.9175 H   0  0  0  0  0  0
  -29.7972  -11.7631   17.4934 H   0  0  0  0  0  0
  -29.6462  -13.4843   17.7337 H   0  0  0  0  0  0
  -27.8887  -11.2867   18.8805 H   0  0  0  0  0  0
  -27.3912  -12.5525   17.7887 H   0  0  0  0  0  0
  -27.6492  -14.2505   19.4915 H   0  0  0  0  0  0
  -28.7268  -12.0959   21.3802 H   0  0  0  0  0  0
  -28.4335  -13.7503   21.8239 H   0  0  0  0  0  0
  -25.2765   -9.5651   22.4764 H   0  0  0  0  0  0
  -23.9984   -7.4606   22.7502 H   0  0  0  0  0  0
  -21.0825   -8.8748   19.8968 H   0  0  0  0  0  0
  -22.3700  -10.9633   19.6171 H   0  0  0  0  0  0
  -21.1999   -7.6135   23.9724 H   0  0  0  0  0  0
  -21.1498   -6.0511   25.9080 H   0  0  0  0  0  0
  -22.0605   -2.7606   23.2863 H   0  0  0  0  0  0
  -22.3992  -11.9842   22.4770 H   0  0  0  0  0  0
  -21.1128  -13.1387   22.2631 H   0  0  0  0  0  0
  -24.6142  -15.8115   20.5363 H   0  0  0  0  0  0
  -26.2574  -15.6782   20.1989 H   0  0  0  0  0  0
  -26.7230  -32.5398   23.1098 H   0  0  0  0  0  0
  -25.0126  -33.9689   25.0447 H   0  0  0  0  0  0
  -22.7226  -31.2917   21.3888 H   0  0  0  0  0  0
  -23.3767  -35.9580   23.3241 H   0  0  0  0  0  0
  -24.3605  -36.8938   22.2061 H   0  0  0  0  0  0
  -23.7231  -37.6453   23.6677 H   0  0  0  0  0  0
  -26.1127  -31.5473   20.6091 H   0  0  0  0  0  0
  -26.8502  -30.8255   22.0054 H   0  0  0  0  0  0
  -28.1320  -28.9793   21.1667 H   0  0  0  0  0  0
  -25.9591  -25.8833   19.0682 H   0  0  0  0  0  0
  -23.9777  -27.2707   19.0476 H   0  0  0  0  0  0
  -23.7652  -30.5690   19.3940 H   0  0  0  0  0  0
  -22.7696  -29.2212   19.8611 H   0  0  0  0  0  0
  -25.1275  -36.1888   25.0828 H   0  0  0  0  0  0
  -20.9974  -28.3201   24.1418 H   0  0  0  0  0  0
  -20.5653  -26.2235   23.3598 H   0  0  0  0  0  0
  -21.6654  -26.7381   22.1235 H   0  0  0  0  0  0
  -19.6910  -25.6282   21.1231 H   0  0  0  0  0  0
  -19.6719  -27.3171   20.6732 H   0  0  0  0  0  0
  -17.4213  -26.6682   21.4002 H   0  0  0  0  0  0
  -18.0299  -26.0045   22.8982 H   0  0  0  0  0  0
  -19.7951  -30.7256   24.2255 H   0  0  0  0  0  0
  -17.5021  -31.6250   24.5141 H   0  0  0  0  0  0
  -15.5361  -30.2965   23.7640 H   0  0  0  0  0  0
  -15.8672  -28.0772   22.7113 H   0  0  0  0  0  0
  -24.5921  -30.7110   25.7850 H   0  0  0  0  0  0
  -24.9028  -32.2933   26.4896 H   0  0  0  0  0  0
  -25.8137  -30.8939   27.0237 H   0  0  0  0  0  0
  -26.2937  -29.6702   24.1232 H   0  0  0  0  0  0
  -27.4054  -29.7239   25.4725 H   0  0  0  0  0  0
  -27.8817  -30.4228   23.9427 H   0  0  0  0  0  0
  -27.2683  -33.3571   26.2092 H   0  0  0  0  0  0
  -28.3896  -32.6867   25.0323 H   0  0  0  0  0  0
  -28.0742  -31.8388   26.5400 H   0  0  0  0  0  0
  -28.2554  -38.0118   24.7565 H   0  0  0  0  0  0
  -28.1151  -36.2657   24.6174 H   0  0  0  0  0  0
  -27.2335  -37.1297   25.8861 H   0  0  0  0  0  0
  -20.9371  -29.8745   21.6932 H   0  0  0  0  0  0
  -26.0150  -38.2823   24.1477 H   0  0  0  0  0  0
  -31.8155  -17.7429   20.8991 H   0  0  0  0  0  0
  -27.2490  -19.5520   20.2245 H   0  0  0  0  0  0
  -29.8535  -22.5550   18.9357 H   0  0  0  0  0  0
  -27.0079  -25.3256   21.9036 H   0  0  0  0  0  0
  -26.6121  -23.9195   23.0230 H   0  0  0  0  0  0
  -27.1171  -21.4463   21.5800 H   0  0  0  0  0  0
  -28.4658  -21.8108   22.6774 H   0  0  0  0  0  0
  -32.7410  -19.9229   20.9757 H   0  0  0  0  0  0
  -31.6700  -21.0535   21.8069 H   0  0  0  0  0  0
  -31.8946  -21.1758   20.0639 H   0  0  0  0  0  0
  -27.8280  -25.1138   18.6101 H   0  0  0  0  0  0
  -29.5007  -25.2919   18.9170 H   0  0  0  0  0  0
  -28.8445  -15.3910   21.0472 H   0  0  0  0  0  0
  1 25  1  0  0  0
  1 30  2  0  0  0
  1 85  1  0  0  0
  2  3  1  0  0  0
  2 25  1  0  0  0
  2 87  1  0  0  0
  2 88  1  0  0  0
  3  4  1  0  0  0
  3 89  1  0  0  0
  3 90  1  0  0  0
  4  5  1  0  0  0
  4 91  1  0  0  0
  4 92  1  0  0  0
  5  6  1  0  0  0
  5 26  1  0  0  0
  5 93  1  0  0  0
  6 25  1  0  0  0
  6 94  1  0  0  0
  6 95  1  0  0  0
  7  8  2  0  0  0
  7 26  1  0  0  0
  7 29  1  0  0  0
  8  9  1  0  0  0
  8 22  1  0  0  0
  9 10  1  0  0  0
  9 27  2  0  0  0
 10 11  2  0  0  0
 10 15  1  0  0  0
 11 12  1  0  0  0
 11 96  1  0  0  0
 12 13  2  0  0  0
 12 97  1  0  0  0
 13 14  1  0  0  0
 13 31  1  0  0  0
 14 15  2  0  0  0
 14 98  1  0  0  0
 15 99  1  0  0  0
 16 17  2  0  0  0
 16 21  1  0  0  0
 16 31  1  0  0  0
 17 18  1  0  0  0
 17100  1  0  0  0
 18 19  2  0  0  0
 18101  1  0  0  0
 19 20  1  0  0  0
 19 24  1  0  0  0
 20 21  2  0  0  0
 20102  1  0  0  0
 21 23  1  0  0  0
 22 28  1  0  0  0
 22 32  2  0  0  0
 26 27  1  0  0  0
 28103  1  0  0  0
 28104  1  0  0  0
 29105  1  0  0  0
 29106  1  0  0  0
 33 34  1  0  0  0
 33 66  1  0  0  0
 33 70  2  0  0  0
 34 36  1  0  0  0
 34 59  1  0  0  0
 34107  1  0  0  0
 35 44  2  0  0  0
 35 45  1  0  0  0
 35 68  1  0  0  0
 36 56  1  0  0  0
 36108  1  0  0  0
 37 39  1  0  0  0
 37 47  1  0  0  0
 37 66  1  0  0  0
 37109  1  0  0  0
 38 43  2  0  0  0
 38 46  1  0  0  0
 38 47  1  0  0  0
 39 64  1  0  0  0
 39 67  2  0  0  0
 40 52  1  0  0  0
 40 53  2  0  0  0
 40 58  1  0  0  0
 41110  1  0  0  0
 41111  1  0  0  0
 41112  1  0  0  0
 41 48  1  0  0  0
 42 43  1  0  0  0
 42 66  1  0  0  0
 42113  1  0  0  0
 42114  1  0  0  0
 43 44  1  0  0  0
 44115  1  0  0  0
 45 46  2  0  0  0
 45116  1  0  0  0
 46117  1  0  0  0
 47118  1  0  0  0
 47119  1  0  0  0
 48 56  1  0  0  0
 48 65  1  0  0  0
 48120  1  0  0  0
 49 50  1  0  0  0
 49 53  1  0  0  0
 49 64  1  0  0  0
 49121  1  0  0  0
 50 51  1  0  0  0
 50122  1  0  0  0
 50123  1  0  0  0
 51 52  1  0  0  0
 51124  1  0  0  0
 51125  1  0  0  0
 52126  1  0  0  0
 52127  1  0  0  0
 53 54  1  0  0  0
 54 55  2  0  0  0
 54128  1  0  0  0
 55 57  1  0  0  0
 55129  1  0  0  0
 56 69  2  0  0  0
 57 58  2  0  0  0
 57130  1  0  0  0
 58131  1  0  0  0
 59 60  1  0  0  0
 59 61  1  0  0  0
 59 62  1  0  0  0
 60132  1  0  0  0
 60133  1  0  0  0
 60134  1  0  0  0
 61135  1  0  0  0
 61136  1  0  0  0
 61137  1  0  0  0
 62138  1  0  0  0
 62139  1  0  0  0
 62140  1  0  0  0
 63 65  1  0  0  0
 63141  1  0  0  0
 63142  1  0  0  0
 63143  1  0  0  0
 64144  1  0  0  0
 65145  1  0  0  0
 68 83  1  0  0  0
 71 73  2  0  0  0
 71 75  1  0  0  0
 71146  1  0  0  0
 72 74  2  0  0  0
 72 76  1  0  0  0
 72147  1  0  0  0
 73 74  1  0  0  0
 73 82  1  0  0  0
 74 84  1  0  0  0
 75 76  2  0  0  0
 75 85  1  0  0  0
 76 86  1  0  0  0
 77 78  2  0  0  0
 77 84  1  0  0  0
 77148  1  0  0  0
 78 79  1  0  0  0
 78 83  1  0  0  0
 79 80  2  0  0  0
 79 81  1  0  0  0
 80149  1  0  0  0
 80150  1  0  0  0
 81 84  1  0  0  0
 81151  1  0  0  0
 81152  1  0  0  0
 82153  1  0  0  0
 82154  1  0  0  0
 82155  1  0  0  0
 83156  1  0  0  0
 83157  1  0  0  0
 85158  1  0  0  0
M  ISO  4   1 100  68 101  83 101  85 100
M  END
> <chiral flag>
0

> <version>
0

> <s_m_source_file>
/data/baiqing/PycharmProjects/Reinvent-master-3.2/result/LINK_invent/BTK/process_docking_weight1_custom_product_contain_oxygen_bond_distance_aromatic_linkinvent_7_9_3/rearranged_h_0078.sdf

> <i_m_source_file_index>
92

> <r_mmod_Potential_Energy-OPLS-2005>
165.502258300781

> <r_mmod_Stretch_Energy-OPLS-2005>
86.5995941162109

> <r_mmod_Bend_Energy-OPLS-2005>
255.746871948242

> <r_mmod_Torsional_Energy-OPLS-2005>
241.350982666016

> <r_mmod_Improper_Torsional_Energy-OPLS-2005>
6.2773642539978

> <r_mmod_Van_der_Waal_Energy-OPLS-2005>
134.523529052734

> <r_mmod_Electrostatic_Energy-OPLS-2005>
-429.23681640625

> <r_mmod_Solvation_Energy-OPLS-2005>
-193.291610717773

> <b_mmod_Minimization_Converged-OPLS-2005>
0

> <r_mmod_RMS_Derivative-OPLS-2005>
2.93742346763611

$$$$
93
                    3D
 Structure written by MMmdl.
161170  0  0  1  0            999 V2000
  -30.6369  -14.7208   20.4740 C   0  0  0  0  0  0
  -30.4142  -12.4421   19.4746 C   0  0  0  0  0  0
  -29.5009  -12.5116   18.2323 C   0  0  0  0  0  0
  -28.0229  -12.3550   18.6366 C   0  0  0  0  0  0
  -27.6358  -13.2410   19.8509 C   0  0  2  0  0  0
  -28.6788  -13.1658   20.9867 C   0  0  0  0  0  0
  -25.2475  -13.8225   20.5698 C   0  0  0  0  0  0
  -24.1773  -13.0456   20.9213 C   0  0  0  0  0  0
  -24.6370  -11.6937   20.8742 C   0  0  0  0  0  0
  -23.9060  -10.4304   21.0390 C   0  0  0  0  0  0
  -24.3616   -9.4226   21.9171 C   0  0  0  0  0  0
  -23.6292   -8.2260   22.0743 C   0  0  0  0  0  0
  -22.4272   -8.0278   21.3536 C   0  0  0  0  0  0
  -21.9900   -9.0253   20.4644 C   0  0  0  0  0  0
  -22.7227  -10.2133   20.3047 C   0  0  0  0  0  0
  -21.6858   -6.0728   22.5280 C   0  0  0  0  0  0
  -21.4027   -6.5633   23.8213 C   0  0  0  0  0  0
  -21.3675   -5.6780   24.9173 C   0  0  0  0  0  0
  -21.6041   -4.3042   24.7212 C   0  0  0  0  0  0
  -21.8827   -3.8133   23.4339 C   0  0  0  0  0  0
  -21.9198   -4.6955   22.3396 C   0  0  0  0  0  0
  -22.7792  -13.5222   21.1875 C   0  0  0  0  0  0
  -22.1660   -4.2146   21.0971 F   0  0  0  0  0  0
  -21.5630   -3.4525   25.7728 F   0  0  0  0  0  0
  -29.9812  -13.5114   20.4066 N   0  0  0  0  0  0
  -26.2899  -12.9448   20.3285 N   0  0  0  0  0  0
  -25.9303  -11.6578   20.5754 N   0  0  0  0  0  0
  -22.0439  -12.8213   22.0435 N   0  0  0  0  0  0
  -25.4157  -15.1951   20.4118 N   0  0  0  0  0  0
  -31.8137  -14.7777   20.1077 O   0  0  0  0  0  0
  -21.6642   -6.8872   21.4234 O   0  0  0  0  0  0
  -22.3472  -14.5508   20.6698 O   0  0  0  0  0  0
  -24.6330  -31.8541   23.2004 C   0  0  0  0  0  0
  -25.9163  -32.4738   23.8340 C   0  0  1  0  0  0
  -27.2009  -27.2453   20.1373 C   0  0  0  0  0  0
  -25.5974  -33.8555   24.2267 N   0  0  0  0  0  0
  -23.4295  -30.4776   21.5445 C   0  0  2  0  0  0
  -24.8751  -28.9369   20.0987 C   0  0  0  0  0  0
  -22.7508  -29.4591   22.4912 C   0  0  0  0  0  0
  -18.0311  -28.1357   22.8469 C   0  0  0  0  0  0
  -24.1495  -36.7268   23.2637 C   0  0  0  0  0  0
  -25.9777  -30.7579   21.3892 C   0  0  0  0  0  0
  -26.0466  -29.3852   20.7222 C   0  0  0  0  0  0
  -27.2132  -28.5521   20.7350 C   0  0  0  0  0  0
  -26.0239  -26.8991   19.4327 C   0  0  0  0  0  0
  -24.8707  -27.7014   19.4377 C   0  0  0  0  0  0
  -23.6465  -29.8232   20.1569 C   0  0  0  0  0  0
  -25.4123  -36.3061   24.0320 C   0  0  1  0  0  0
  -20.5919  -28.3673   23.1261 C   0  0  2  0  0  0
  -20.6825  -26.9400   22.5383 C   0  0  0  0  0  0
  -19.5784  -26.6362   21.5192 C   0  0  0  0  0  0
  -18.1957  -26.7899   22.1605 C   0  0  0  0  0  0
  -19.1561  -28.8840   23.2867 C   0  0  0  0  0  0
  -18.9474  -30.1456   23.8855 C   0  0  0  0  0  0
  -17.6468  -30.6565   24.0541 C   0  0  0  0  0  0
  -25.9071  -34.9438   23.5084 C   0  0  0  0  0  0
  -16.5362  -29.9046   23.6330 C   0  0  0  0  0  0
  -16.7295  -28.6468   23.0351 C   0  0  0  0  0  0
  -26.4541  -31.6564   25.0723 C   0  0  0  0  0  0
  -25.3762  -31.3680   26.1430 C   0  0  0  0  0  0
  -27.0396  -30.2978   24.6218 C   0  0  0  0  0  0
  -27.6094  -32.4316   25.7464 C   0  0  0  0  0  0
  -27.5581  -37.1794   24.8466 C   0  0  0  0  0  0
  -21.4218  -29.3015   22.3632 N   0  0  0  0  0  0
  -26.4298  -37.3760   23.9398 N   0  0  0  0  0  0
  -24.6983  -31.0489   22.0987 N   0  0  0  0  0  0
  -23.4201  -28.8162   23.3039 O   0  0  0  0  0  0
  -28.2305  -26.2752   20.2819 O   0  0  0  0  0  0
  -26.5625  -34.8915   22.4645 O   0  0  0  0  0  0
  -23.5484  -32.1399   23.7285 O   0  0  0  0  0  0
  -28.8504  -19.8924   23.1900 C   0  0  0  0  0  0
  -28.7098  -21.0665   22.4273 C   0  0  0  0  0  0
  -29.4740  -19.8383   20.4679 C   0  0  0  0  0  0
  -29.3340  -18.6962   22.6188 C   0  0  0  0  0  0
  -29.6553  -18.6122   21.2407 C   0  0  0  0  0  0
  -29.0191  -21.0993   21.0506 C   0  0  0  0  0  0
  -28.9031  -23.6850   20.7403 C   0  0  0  0  0  0
  -29.6710  -17.5199   23.5213 C   0  0  0  0  0  0
  -31.1076  -16.9996   23.2696 C   0  0  0  0  0  0
  -31.6473  -17.3232   21.8520 C   0  0  0  0  0  0
  -30.5031  -17.3203   20.8035 C   0  0  1  0  0  0
  -26.7661  -24.6782   21.5231 C   0  0  0  0  0  0
  -27.8133  -24.8123   20.3847 C   0  0  2  0  0  0
  -28.7350  -22.3653   20.3271 N   0  0  0  0  0  0
  -29.9419  -15.8881   20.7748 N   0  0  0  0  0  0
  -29.8796  -24.0087   21.4211 O   0  0  0  0  0  0
  -31.4572  -12.5470   19.1707 H   0  0  0  0  0  0
  -30.3415  -11.4635   19.9513 H   0  0  0  0  0  0
  -29.7719  -11.7359   17.5154 H   0  0  0  0  0  0
  -29.6465  -13.4650   17.7209 H   0  0  0  0  0  0
  -27.8540  -11.3030   18.8701 H   0  0  0  0  0  0
  -27.3763  -12.5839   17.7881 H   0  0  0  0  0  0
  -27.6321  -14.2673   19.4831 H   0  0  0  0  0  0
  -28.7076  -12.1641   21.4176 H   0  0  0  0  0  0
  -28.4185  -13.8449   21.8004 H   0  0  0  0  0  0
  -25.2769   -9.5700   22.4738 H   0  0  0  0  0  0
  -24.0010   -7.4643   22.7453 H   0  0  0  0  0  0
  -21.0839   -8.8759   19.8949 H   0  0  0  0  0  0
  -22.3675  -10.9660   19.6149 H   0  0  0  0  0  0
  -21.2027   -7.6138   23.9716 H   0  0  0  0  0  0
  -21.1492   -6.0509   25.9082 H   0  0  0  0  0  0
  -22.0594   -2.7593   23.2832 H   0  0  0  0  0  0
  -22.4058  -11.9892   22.4847 H   0  0  0  0  0  0
  -21.1052  -13.1240   22.2641 H   0  0  0  0  0  0
  -24.6451  -15.8469   20.5158 H   0  0  0  0  0  0
  -26.2682  -15.6385   20.0961 H   0  0  0  0  0  0
  -26.7215  -32.5364   23.1062 H   0  0  0  0  0  0
  -25.0172  -33.9694   25.0449 H   0  0  0  0  0  0
  -22.7265  -31.3011   21.4061 H   0  0  0  0  0  0
  -23.3777  -35.9584   23.3281 H   0  0  0  0  0  0
  -24.3592  -36.8897   22.2055 H   0  0  0  0  0  0
  -23.7239  -37.6459   23.6676 H   0  0  0  0  0  0
  -26.1388  -31.5222   20.6288 H   0  0  0  0  0  0
  -26.8471  -30.7887   22.0326 H   0  0  0  0  0  0
  -28.0974  -28.8780   21.2654 H   0  0  0  0  0  0
  -25.9437  -25.9588   18.9112 H   0  0  0  0  0  0
  -23.9795  -27.3565   18.9302 H   0  0  0  0  0  0
  -23.7709  -30.6070   19.4091 H   0  0  0  0  0  0
  -22.7622  -29.2616   19.8501 H   0  0  0  0  0  0
  -25.1326  -36.1888   25.0814 H   0  0  0  0  0  0
  -21.0034  -28.3231   24.1371 H   0  0  0  0  0  0
  -20.5738  -26.2287   23.3585 H   0  0  0  0  0  0
  -21.6693  -26.7435   22.1182 H   0  0  0  0  0  0
  -19.6938  -25.6276   21.1229 H   0  0  0  0  0  0
  -19.6707  -27.3171   20.6717 H   0  0  0  0  0  0
  -17.4255  -26.6634   21.3986 H   0  0  0  0  0  0
  -18.0346  -26.0038   22.9004 H   0  0  0  0  0  0
  -19.7946  -30.7277   24.2204 H   0  0  0  0  0  0
  -17.5018  -31.6244   24.5133 H   0  0  0  0  0  0
  -15.5364  -30.2940   23.7672 H   0  0  0  0  0  0
  -15.8688  -28.0776   22.7099 H   0  0  0  0  0  0
  -24.5972  -30.6991   25.7743 H   0  0  0  0  0  0
  -24.8923  -32.2826   26.4860 H   0  0  0  0  0  0
  -25.8095  -30.8854   27.0193 H   0  0  0  0  0  0
  -26.2973  -29.6694   24.1274 H   0  0  0  0  0  0
  -27.4111  -29.7268   25.4740 H   0  0  0  0  0  0
  -27.8844  -30.4255   23.9446 H   0  0  0  0  0  0
  -27.2726  -33.3649   26.1986 H   0  0  0  0  0  0
  -28.3912  -32.6809   25.0280 H   0  0  0  0  0  0
  -28.0754  -31.8472   26.5408 H   0  0  0  0  0  0
  -28.2611  -38.0089   24.7552 H   0  0  0  0  0  0
  -28.1087  -36.2634   24.6273 H   0  0  0  0  0  0
  -27.2301  -37.1390   25.8869 H   0  0  0  0  0  0
  -20.9420  -29.8641   21.6743 H   0  0  0  0  0  0
  -26.0170  -38.2825   24.1413 H   0  0  0  0  0  0
  -28.6291  -19.9333   24.2486 H   0  0  0  0  0  0
  -28.3433  -21.9557   22.9224 H   0  0  0  0  0  0
  -29.7488  -19.8278   19.4238 H   0  0  0  0  0  0
  -28.9460  -16.7290   23.3225 H   0  0  0  0  0  0
  -29.5453  -17.7823   24.5721 H   0  0  0  0  0  0
  -31.1402  -15.9266   23.4610 H   0  0  0  0  0  0
  -31.7828  -17.4482   23.9986 H   0  0  0  0  0  0
  -32.4620  -16.6479   21.5979 H   0  0  0  0  0  0
  -32.1090  -18.3126   21.8635 H   0  0  0  0  0  0
  -30.9287  -17.5209   19.8190 H   0  0  0  0  0  0
  -27.1474  -25.1103   22.4482 H   0  0  0  0  0  0
  -26.5205  -23.6362   21.7342 H   0  0  0  0  0  0
  -25.8178  -25.1636   21.3038 H   0  0  0  0  0  0
  -27.3789  -24.4968   19.4369 H   0  0  0  0  0  0
  -28.1024  -22.2572   19.5462 H   0  0  0  0  0  0
  -28.9594  -15.7875   20.9831 H   0  0  0  0  0  0
  1 25  1  0  0  0
  1 30  2  0  0  0
  1 85  1  0  0  0
  2  3  1  0  0  0
  2 25  1  0  0  0
  2 87  1  0  0  0
  2 88  1  0  0  0
  3  4  1  0  0  0
  3 89  1  0  0  0
  3 90  1  0  0  0
  4  5  1  0  0  0
  4 91  1  0  0  0
  4 92  1  0  0  0
  5  6  1  0  0  0
  5 26  1  0  0  0
  5 93  1  0  0  0
  6 25  1  0  0  0
  6 94  1  0  0  0
  6 95  1  0  0  0
  7  8  2  0  0  0
  7 26  1  0  0  0
  7 29  1  0  0  0
  8  9  1  0  0  0
  8 22  1  0  0  0
  9 10  1  0  0  0
  9 27  2  0  0  0
 10 11  2  0  0  0
 10 15  1  0  0  0
 11 12  1  0  0  0
 11 96  1  0  0  0
 12 13  2  0  0  0
 12 97  1  0  0  0
 13 14  1  0  0  0
 13 31  1  0  0  0
 14 15  2  0  0  0
 14 98  1  0  0  0
 15 99  1  0  0  0
 16 17  2  0  0  0
 16 21  1  0  0  0
 16 31  1  0  0  0
 17 18  1  0  0  0
 17100  1  0  0  0
 18 19  2  0  0  0
 18101  1  0  0  0
 19 20  1  0  0  0
 19 24  1  0  0  0
 20 21  2  0  0  0
 20102  1  0  0  0
 21 23  1  0  0  0
 22 28  1  0  0  0
 22 32  2  0  0  0
 26 27  1  0  0  0
 28103  1  0  0  0
 28104  1  0  0  0
 29105  1  0  0  0
 29106  1  0  0  0
 33 34  1  0  0  0
 33 66  1  0  0  0
 33 70  2  0  0  0
 34 36  1  0  0  0
 34 59  1  0  0  0
 34107  1  0  0  0
 35 44  2  0  0  0
 35 45  1  0  0  0
 35 68  1  0  0  0
 36 56  1  0  0  0
 36108  1  0  0  0
 37 39  1  0  0  0
 37 47  1  0  0  0
 37 66  1  0  0  0
 37109  1  0  0  0
 38 43  2  0  0  0
 38 46  1  0  0  0
 38 47  1  0  0  0
 39 64  1  0  0  0
 39 67  2  0  0  0
 40 52  1  0  0  0
 40 53  2  0  0  0
 40 58  1  0  0  0
 41110  1  0  0  0
 41111  1  0  0  0
 41112  1  0  0  0
 41 48  1  0  0  0
 42 43  1  0  0  0
 42 66  1  0  0  0
 42113  1  0  0  0
 42114  1  0  0  0
 43 44  1  0  0  0
 44115  1  0  0  0
 45 46  2  0  0  0
 45116  1  0  0  0
 46117  1  0  0  0
 47118  1  0  0  0
 47119  1  0  0  0
 48 56  1  0  0  0
 48 65  1  0  0  0
 48120  1  0  0  0
 49 50  1  0  0  0
 49 53  1  0  0  0
 49 64  1  0  0  0
 49121  1  0  0  0
 50 51  1  0  0  0
 50122  1  0  0  0
 50123  1  0  0  0
 51 52  1  0  0  0
 51124  1  0  0  0
 51125  1  0  0  0
 52126  1  0  0  0
 52127  1  0  0  0
 53 54  1  0  0  0
 54 55  2  0  0  0
 54128  1  0  0  0
 55 57  1  0  0  0
 55129  1  0  0  0
 56 69  2  0  0  0
 57 58  2  0  0  0
 57130  1  0  0  0
 58131  1  0  0  0
 59 60  1  0  0  0
 59 61  1  0  0  0
 59 62  1  0  0  0
 60132  1  0  0  0
 60133  1  0  0  0
 60134  1  0  0  0
 61135  1  0  0  0
 61136  1  0  0  0
 61137  1  0  0  0
 62138  1  0  0  0
 62139  1  0  0  0
 62140  1  0  0  0
 63 65  1  0  0  0
 63141  1  0  0  0
 63142  1  0  0  0
 63143  1  0  0  0
 64144  1  0  0  0
 65145  1  0  0  0
 68 83  1  0  0  0
 71 72  2  0  0  0
 71 74  1  0  0  0
 71146  1  0  0  0
 72 76  1  0  0  0
 72147  1  0  0  0
 73 75  1  0  0  0
 73 76  2  0  0  0
 73148  1  0  0  0
 74 75  2  0  0  0
 74 78  1  0  0  0
 75 81  1  0  0  0
 76 84  1  0  0  0
 77 83  1  0  0  0
 77 84  1  0  0  0
 77 86  2  0  0  0
 78 79  1  0  0  0
 78149  1  0  0  0
 78150  1  0  0  0
 79 80  1  0  0  0
 79151  1  0  0  0
 79152  1  0  0  0
 80 81  1  0  0  0
 80153  1  0  0  0
 80154  1  0  0  0
 81 85  1  0  0  0
 81155  1  0  0  0
 82156  1  0  0  0
 82157  1  0  0  0
 82158  1  0  0  0
 82 83  1  0  0  0
 83159  1  0  0  0
 84160  1  0  0  0
 85161  1  0  0  0
M  ISO  4   1 100  68 101  83 101  85 100
M  END
> <chiral flag>
0

> <version>
0

> <s_m_source_file>
/data/baiqing/PycharmProjects/Reinvent-master-3.2/result/LINK_invent/BTK/process_docking_weight1_custom_product_contain_oxygen_bond_distance_aromatic_linkinvent_7_9_3/rearranged_h_0078.sdf

> <i_m_source_file_index>
93

> <r_mmod_Potential_Energy-OPLS-2005>
194.045776367188

> <r_mmod_Stretch_Energy-OPLS-2005>
136.940277099609

> <r_mmod_Bend_Energy-OPLS-2005>
177.584274291992

> <r_mmod_Torsional_Energy-OPLS-2005>
280.4775390625

> <r_mmod_Improper_Torsional_Energy-OPLS-2005>
8.45267391204834

> <r_mmod_Van_der_Waal_Energy-OPLS-2005>
160.327209472656

> <r_mmod_Electrostatic_Energy-OPLS-2005>
-429.350830078125

> <r_mmod_Solvation_Energy-OPLS-2005>
-236.192047119141

> <b_mmod_Minimization_Converged-OPLS-2005>
0

> <r_mmod_RMS_Derivative-OPLS-2005>
2.85325813293457

$$$$
94
                    3D
 Structure written by MMmdl.
157166  0  0  1  0            999 V2000
  -30.6732  -14.5040   20.5505 C   0  0  0  0  0  0
  -30.4274  -12.3176   19.4294 C   0  0  0  0  0  0
  -29.4997  -12.5018   18.2096 C   0  0  0  0  0  0
  -28.0186  -12.3654   18.6193 C   0  0  0  0  0  0
  -27.6601  -13.2083   19.8732 C   0  0  2  0  0  0
  -28.7009  -12.9956   20.9953 C   0  0  0  0  0  0
  -25.2579  -13.8169   20.5678 C   0  0  0  0  0  0
  -24.1830  -13.0433   20.9142 C   0  0  0  0  0  0
  -24.6387  -11.6904   20.8710 C   0  0  0  0  0  0
  -23.9052  -10.4291   21.0393 C   0  0  0  0  0  0
  -24.3611   -9.4210   21.9175 C   0  0  0  0  0  0
  -23.6285   -8.2250   22.0750 C   0  0  0  0  0  0
  -22.4268   -8.0284   21.3543 C   0  0  0  0  0  0
  -21.9894   -9.0258   20.4646 C   0  0  0  0  0  0
  -22.7222  -10.2136   20.3051 C   0  0  0  0  0  0
  -21.6859   -6.0733   22.5275 C   0  0  0  0  0  0
  -21.4023   -6.5637   23.8210 C   0  0  0  0  0  0
  -21.3655   -5.6789   24.9170 C   0  0  0  0  0  0
  -21.6043   -4.3052   24.7221 C   0  0  0  0  0  0
  -21.8821   -3.8141   23.4343 C   0  0  0  0  0  0
  -21.9194   -4.6959   22.3399 C   0  0  0  0  0  0
  -22.7853  -13.5239   21.1825 C   0  0  0  0  0  0
  -22.1661   -4.2144   21.0976 F   0  0  0  0  0  0
  -21.5622   -3.4538   25.7732 F   0  0  0  0  0  0
  -30.0292  -13.3087   20.4416 N   0  0  0  0  0  0
  -26.3015  -12.9336   20.3357 N   0  0  0  0  0  0
  -25.9317  -11.6491   20.5752 N   0  0  0  0  0  0
  -22.0500  -12.8247   22.0396 N   0  0  0  0  0  0
  -25.4283  -15.1893   20.4180 N   0  0  0  0  0  0
  -31.8168  -14.6796   20.1202 O   0  0  0  0  0  0
  -21.6641   -6.8876   21.4238 O   0  0  0  0  0  0
  -22.3529  -14.5546   20.6673 O   0  0  0  0  0  0
  -24.6169  -31.8657   23.2091 C   0  0  0  0  0  0
  -25.9054  -32.4808   23.8387 C   0  0  1  0  0  0
  -27.2312  -27.4072   20.0953 C   0  0  0  0  0  0
  -25.5901  -33.8607   24.2311 N   0  0  0  0  0  0
  -23.4055  -30.4902   21.5503 C   0  0  2  0  0  0
  -24.8490  -28.9525   20.1161 C   0  0  0  0  0  0
  -22.7418  -29.4647   22.4981 C   0  0  0  0  0  0
  -18.0276  -28.1382   22.8493 C   0  0  0  0  0  0
  -24.1485  -36.7308   23.2638 C   0  0  0  0  0  0
  -25.9380  -30.8227   21.3672 C   0  0  0  0  0  0
  -26.0123  -29.4568   20.7098 C   0  0  0  0  0  0
  -27.2044  -28.6931   20.6919 C   0  0  0  0  0  0
  -26.0413  -26.9189   19.5071 C   0  0  0  0  0  0
  -24.8599  -27.6841   19.5128 C   0  0  0  0  0  0
  -23.6136  -29.8237   20.1652 C   0  0  0  0  0  0
  -25.4104  -36.3099   24.0336 C   0  0  1  0  0  0
  -20.5868  -28.3667   23.1317 C   0  0  2  0  0  0
  -20.6768  -26.9400   22.5419 C   0  0  0  0  0  0
  -19.5745  -26.6384   21.5218 C   0  0  0  0  0  0
  -18.1923  -26.7926   22.1627 C   0  0  0  0  0  0
  -19.1527  -28.8838   23.2903 C   0  0  0  0  0  0
  -18.9454  -30.1444   23.8916 C   0  0  0  0  0  0
  -17.6453  -30.6583   24.0569 C   0  0  0  0  0  0
  -25.9035  -34.9467   23.5121 C   0  0  0  0  0  0
  -16.5345  -29.9087   23.6325 C   0  0  0  0  0  0
  -16.7267  -28.6506   23.0349 C   0  0  0  0  0  0
  -26.4471  -31.6605   25.0732 C   0  0  0  0  0  0
  -25.3733  -31.3754   26.1487 C   0  0  0  0  0  0
  -27.0301  -30.3034   24.6151 C   0  0  0  0  0  0
  -27.6041  -32.4342   25.7479 C   0  0  0  0  0  0
  -27.5588  -37.1794   24.8450 C   0  0  0  0  0  0
  -21.4144  -29.3030   22.3714 N   0  0  0  0  0  0
  -26.4284  -37.3790   23.9418 N   0  0  0  0  0  0
  -24.6718  -31.0743   22.0998 N   0  0  0  0  0  0
  -23.4182  -28.8190   23.3029 O   0  0  0  0  0  0
  -28.4127  -26.6825   20.1058 O   0  0  0  0  0  0
  -26.5599  -34.8923   22.4683 O   0  0  0  0  0  0
  -23.5357  -32.1421   23.7473 O   0  0  0  0  0  0
  -31.4727  -18.9594   20.7841 C   0  0  0  0  0  0
  -31.3573  -17.5613   20.9472 C   0  0  0  0  0  0
  -29.0836  -19.1449   20.4673 C   0  0  0  0  0  0
  -30.3471  -19.7924   20.5284 C   0  0  0  0  0  0
  -30.0993  -16.9292   20.8550 C   0  0  0  0  0  0
  -28.9651  -17.7411   20.6320 C   0  0  0  0  0  0
  -30.3389  -23.4897   19.9160 C   0  0  0  0  0  0
  -31.7327  -23.1613   19.8128 C   0  0  0  0  0  0
  -29.6258  -22.2405   20.2213 C   0  0  0  0  0  0
  -32.7345  -23.9819   19.4450 C   0  0  0  0  0  0
  -29.8267  -24.7400   19.7360 C   0  0  0  0  0  0
  -31.9174  -21.7196   20.1364 C   0  0  0  0  0  0
  -28.3990  -25.2732   19.7870 C   0  0  0  0  0  0
  -30.5475  -21.2214   20.3127 N   0  0  0  0  0  0
  -29.9106  -15.5170   21.0166 N   0  0  0  0  0  0
  -28.4057  -22.1227   20.3724 O   0  0  0  0  0  0
  -27.7446  -17.1565   20.5536 F   0  0  0  0  0  0
  -31.4716  -12.4241   19.1296 H   0  0  0  0  0  0
  -30.3359  -11.3085   19.8353 H   0  0  0  0  0  0
  -29.7413  -11.7675   17.4396 H   0  0  0  0  0  0
  -29.6693  -13.4818   17.7618 H   0  0  0  0  0  0
  -27.8251  -11.3102   18.8137 H   0  0  0  0  0  0
  -27.3729  -12.6418   17.7853 H   0  0  0  0  0  0
  -27.6981  -14.2553   19.5710 H   0  0  0  0  0  0
  -28.6818  -11.9600   21.3375 H   0  0  0  0  0  0
  -28.4614  -13.5958   21.8743 H   0  0  0  0  0  0
  -25.2765   -9.5686   22.4738 H   0  0  0  0  0  0
  -23.9994   -7.4646   22.7475 H   0  0  0  0  0  0
  -21.0821   -8.8779   19.8961 H   0  0  0  0  0  0
  -22.3681  -10.9673   19.6159 H   0  0  0  0  0  0
  -21.2027   -7.6149   23.9715 H   0  0  0  0  0  0
  -21.1469   -6.0517   25.9073 H   0  0  0  0  0  0
  -22.0604   -2.7602   23.2849 H   0  0  0  0  0  0
  -22.4123  -11.9915   22.4793 H   0  0  0  0  0  0
  -21.1128  -13.1292   22.2619 H   0  0  0  0  0  0
  -24.6650  -15.8412   20.5584 H   0  0  0  0  0  0
  -26.3030  -15.6546   20.1987 H   0  0  0  0  0  0
  -26.7128  -32.5499   23.1152 H   0  0  0  0  0  0
  -25.0044  -33.9762   25.0451 H   0  0  0  0  0  0
  -22.6960  -31.3084   21.4121 H   0  0  0  0  0  0
  -23.3742  -35.9644   23.3286 H   0  0  0  0  0  0
  -24.3584  -36.8934   22.2054 H   0  0  0  0  0  0
  -23.7239  -37.6511   23.6660 H   0  0  0  0  0  0
  -26.0624  -31.5911   20.6030 H   0  0  0  0  0  0
  -26.8215  -30.8675   21.9926 H   0  0  0  0  0  0
  -28.1035  -29.0820   21.1501 H   0  0  0  0  0  0
  -25.9964  -25.9484   19.0372 H   0  0  0  0  0  0
  -23.9641  -27.2879   19.0544 H   0  0  0  0  0  0
  -23.7264  -30.6001   19.4079 H   0  0  0  0  0  0
  -22.7358  -29.2484   19.8653 H   0  0  0  0  0  0
  -25.1276  -36.1957   25.0829 H   0  0  0  0  0  0
  -20.9964  -28.3241   24.1437 H   0  0  0  0  0  0
  -20.5677  -26.2272   23.3607 H   0  0  0  0  0  0
  -21.6638  -26.7447   22.1210 H   0  0  0  0  0  0
  -19.6905  -25.6300   21.1233 H   0  0  0  0  0  0
  -19.6687  -27.3209   20.6761 H   0  0  0  0  0  0
  -17.4194  -26.6680   21.4029 H   0  0  0  0  0  0
  -18.0320  -26.0071   22.9023 H   0  0  0  0  0  0
  -19.7925  -30.7258   24.2298 H   0  0  0  0  0  0
  -17.5006  -31.6262   24.5168 H   0  0  0  0  0  0
  -15.5346  -30.2997   23.7638 H   0  0  0  0  0  0
  -15.8666  -28.0827   22.7059 H   0  0  0  0  0  0
  -24.5864  -30.7146   25.7834 H   0  0  0  0  0  0
  -24.8986  -32.2939   26.4950 H   0  0  0  0  0  0
  -25.8074  -30.8900   27.0236 H   0  0  0  0  0  0
  -26.2866  -29.6797   24.1177 H   0  0  0  0  0  0
  -27.4013  -29.7276   25.4638 H   0  0  0  0  0  0
  -27.8725  -30.4327   23.9351 H   0  0  0  0  0  0
  -27.2639  -33.3613   26.2104 H   0  0  0  0  0  0
  -28.3810  -32.6957   25.0284 H   0  0  0  0  0  0
  -28.0759  -31.8454   26.5354 H   0  0  0  0  0  0
  -28.2575  -38.0123   24.7542 H   0  0  0  0  0  0
  -28.1114  -36.2658   24.6204 H   0  0  0  0  0  0
  -27.2318  -37.1357   25.8854 H   0  0  0  0  0  0
  -20.9306  -29.8746   21.6929 H   0  0  0  0  0  0
  -26.0165  -38.2856   24.1457 H   0  0  0  0  0  0
  -32.4689  -19.3691   20.8601 H   0  0  0  0  0  0
  -32.2488  -16.9839   21.1448 H   0  0  0  0  0  0
  -28.1795  -19.7009   20.2752 H   0  0  0  0  0  0
  -32.5805  -25.0199   19.1911 H   0  0  0  0  0  0
  -33.7497  -23.6154   19.3860 H   0  0  0  0  0  0
  -30.5206  -25.5247   19.4814 H   0  0  0  0  0  0
  -32.4986  -21.6189   21.0543 H   0  0  0  0  0  0
  -32.4268  -21.2074   19.3184 H   0  0  0  0  0  0
  -27.8006  -24.7207   20.5118 H   0  0  0  0  0  0
  -27.9762  -25.1138   18.7952 H   0  0  0  0  0  0
  -28.9709  -15.2461   21.2645 H   0  0  0  0  0  0
  1 25  1  0  0  0
  1 30  2  0  0  0
  1 85  1  0  0  0
  2  3  1  0  0  0
  2 25  1  0  0  0
  2 88  1  0  0  0
  2 89  1  0  0  0
  3  4  1  0  0  0
  3 90  1  0  0  0
  3 91  1  0  0  0
  4  5  1  0  0  0
  4 92  1  0  0  0
  4 93  1  0  0  0
  5  6  1  0  0  0
  5 26  1  0  0  0
  5 94  1  0  0  0
  6 25  1  0  0  0
  6 95  1  0  0  0
  6 96  1  0  0  0
  7  8  2  0  0  0
  7 26  1  0  0  0
  7 29  1  0  0  0
  8  9  1  0  0  0
  8 22  1  0  0  0
  9 10  1  0  0  0
  9 27  2  0  0  0
 10 11  2  0  0  0
 10 15  1  0  0  0
 11 12  1  0  0  0
 11 97  1  0  0  0
 12 13  2  0  0  0
 12 98  1  0  0  0
 13 14  1  0  0  0
 13 31  1  0  0  0
 14 15  2  0  0  0
 14 99  1  0  0  0
 15100  1  0  0  0
 16 17  2  0  0  0
 16 21  1  0  0  0
 16 31  1  0  0  0
 17 18  1  0  0  0
 17101  1  0  0  0
 18 19  2  0  0  0
 18102  1  0  0  0
 19 20  1  0  0  0
 19 24  1  0  0  0
 20 21  2  0  0  0
 20103  1  0  0  0
 21 23  1  0  0  0
 22 28  1  0  0  0
 22 32  2  0  0  0
 26 27  1  0  0  0
 28104  1  0  0  0
 28105  1  0  0  0
 29106  1  0  0  0
 29107  1  0  0  0
 33 34  1  0  0  0
 33 66  1  0  0  0
 33 70  2  0  0  0
 34 36  1  0  0  0
 34 59  1  0  0  0
 34108  1  0  0  0
 35 44  2  0  0  0
 35 45  1  0  0  0
 35 68  1  0  0  0
 36 56  1  0  0  0
 36109  1  0  0  0
 37 39  1  0  0  0
 37 47  1  0  0  0
 37 66  1  0  0  0
 37110  1  0  0  0
 38 43  2  0  0  0
 38 46  1  0  0  0
 38 47  1  0  0  0
 39 64  1  0  0  0
 39 67  2  0  0  0
 40 52  1  0  0  0
 40 53  2  0  0  0
 40 58  1  0  0  0
 41111  1  0  0  0
 41112  1  0  0  0
 41113  1  0  0  0
 41 48  1  0  0  0
 42 43  1  0  0  0
 42 66  1  0  0  0
 42114  1  0  0  0
 42115  1  0  0  0
 43 44  1  0  0  0
 44116  1  0  0  0
 45 46  2  0  0  0
 45117  1  0  0  0
 46118  1  0  0  0
 47119  1  0  0  0
 47120  1  0  0  0
 48 56  1  0  0  0
 48 65  1  0  0  0
 48121  1  0  0  0
 49 50  1  0  0  0
 49 53  1  0  0  0
 49 64  1  0  0  0
 49122  1  0  0  0
 50 51  1  0  0  0
 50123  1  0  0  0
 50124  1  0  0  0
 51 52  1  0  0  0
 51125  1  0  0  0
 51126  1  0  0  0
 52127  1  0  0  0
 52128  1  0  0  0
 53 54  1  0  0  0
 54 55  2  0  0  0
 54129  1  0  0  0
 55 57  1  0  0  0
 55130  1  0  0  0
 56 69  2  0  0  0
 57 58  2  0  0  0
 57131  1  0  0  0
 58132  1  0  0  0
 59 60  1  0  0  0
 59 61  1  0  0  0
 59 62  1  0  0  0
 60133  1  0  0  0
 60134  1  0  0  0
 60135  1  0  0  0
 61136  1  0  0  0
 61137  1  0  0  0
 61138  1  0  0  0
 62139  1  0  0  0
 62140  1  0  0  0
 62141  1  0  0  0
 63 65  1  0  0  0
 63142  1  0  0  0
 63143  1  0  0  0
 63144  1  0  0  0
 64145  1  0  0  0
 65146  1  0  0  0
 68 83  1  0  0  0
 71 72  2  0  0  0
 71 74  1  0  0  0
 71147  1  0  0  0
 72 75  1  0  0  0
 72148  1  0  0  0
 73 74  2  0  0  0
 73 76  1  0  0  0
 73149  1  0  0  0
 74 84  1  0  0  0
 75 76  2  0  0  0
 75 85  1  0  0  0
 76 87  1  0  0  0
 77 78  1  0  0  0
 77 79  1  0  0  0
 77 81  2  0  0  0
 78 80  2  0  0  0
 78 82  1  0  0  0
 79 84  1  0  0  0
 79 86  2  0  0  0
 80150  1  0  0  0
 80151  1  0  0  0
 81 83  1  0  0  0
 81152  1  0  0  0
 82 84  1  0  0  0
 82153  1  0  0  0
 82154  1  0  0  0
 83155  1  0  0  0
 83156  1  0  0  0
 85157  1  0  0  0
M  ISO  4   1 100  68 101  83 101  85 100
M  END
> <chiral flag>
0

> <version>
0

> <s_m_source_file>
/data/baiqing/PycharmProjects/Reinvent-master-3.2/result/LINK_invent/BTK/process_docking_weight1_custom_product_contain_oxygen_bond_distance_aromatic_linkinvent_7_9_3/rearranged_h_0078.sdf

> <i_m_source_file_index>
94

> <r_mmod_Potential_Energy-OPLS-2005>
60.1524505615234

> <r_mmod_Stretch_Energy-OPLS-2005>
50.2051887512207

> <r_mmod_Bend_Energy-OPLS-2005>
169.510696411133

> <r_mmod_Torsional_Energy-OPLS-2005>
250.125091552734

> <r_mmod_Improper_Torsional_Energy-OPLS-2005>
4.40383672714233

> <r_mmod_Van_der_Waal_Energy-OPLS-2005>
162.31037902832

> <r_mmod_Electrostatic_Energy-OPLS-2005>
-392.587890625

> <r_mmod_Solvation_Energy-OPLS-2005>
-200.575912475586

> <b_mmod_Minimization_Converged-OPLS-2005>
0

> <r_mmod_RMS_Derivative-OPLS-2005>
1.19592583179474

$$$$
95
                    3D
 Structure written by MMmdl.
158167  0  0  1  0            999 V2000
  -30.6019  -14.5720   20.5542 C   0  0  0  0  0  0
  -30.4517  -12.3632   19.4306 C   0  0  0  0  0  0
  -29.5097  -12.5061   18.2136 C   0  0  0  0  0  0
  -28.0283  -12.3496   18.6241 C   0  0  0  0  0  0
  -27.6614  -13.1945   19.8721 C   0  0  2  0  0  0
  -28.7018  -12.9759   20.9924 C   0  0  0  0  0  0
  -25.2567  -13.8075   20.5600 C   0  0  0  0  0  0
  -24.1843  -13.0391   20.9215 C   0  0  0  0  0  0
  -24.6372  -11.6858   20.8735 C   0  0  0  0  0  0
  -23.9009  -10.4260   21.0416 C   0  0  0  0  0  0
  -24.3555   -9.4170   21.9201 C   0  0  0  0  0  0
  -23.6232   -8.2207   22.0760 C   0  0  0  0  0  0
  -22.4214   -8.0260   21.3537 C   0  0  0  0  0  0
  -21.9842   -9.0241   20.4647 C   0  0  0  0  0  0
  -22.7172  -10.2117   20.3062 C   0  0  0  0  0  0
  -21.6836   -6.0721   22.5286 C   0  0  0  0  0  0
  -21.4016   -6.5631   23.8225 C   0  0  0  0  0  0
  -21.3648   -5.6789   24.9192 C   0  0  0  0  0  0
  -21.6039   -4.3049   24.7235 C   0  0  0  0  0  0
  -21.8813   -3.8140   23.4347 C   0  0  0  0  0  0
  -21.9183   -4.6957   22.3401 C   0  0  0  0  0  0
  -22.7866  -13.5232   21.1855 C   0  0  0  0  0  0
  -22.1650   -4.2150   21.0980 F   0  0  0  0  0  0
  -21.5612   -3.4524   25.7737 F   0  0  0  0  0  0
  -30.0256  -13.3369   20.4480 N   0  0  0  0  0  0
  -26.3005  -12.9238   20.3306 N   0  0  0  0  0  0
  -25.9297  -11.6416   20.5747 N   0  0  0  0  0  0
  -22.0450  -12.8283   22.0418 N   0  0  0  0  0  0
  -25.4196  -15.1760   20.3757 N   0  0  0  0  0  0
  -31.7342  -14.8162   20.1205 O   0  0  0  0  0  0
  -21.6576   -6.8851   21.4240 O   0  0  0  0  0  0
  -22.3570  -14.5529   20.6657 O   0  0  0  0  0  0
  -24.6172  -31.8651   23.2094 C   0  0  0  0  0  0
  -25.9055  -32.4810   23.8388 C   0  0  1  0  0  0
  -27.2387  -27.4131   20.1116 C   0  0  0  0  0  0
  -25.5936  -33.8598   24.2343 N   0  0  0  0  0  0
  -23.4069  -30.4879   21.5477 C   0  0  2  0  0  0
  -24.8592  -28.9487   20.1150 C   0  0  0  0  0  0
  -22.7410  -29.4631   22.4955 C   0  0  0  0  0  0
  -18.0268  -28.1360   22.8472 C   0  0  0  0  0  0
  -24.1491  -36.7289   23.2629 C   0  0  0  0  0  0
  -25.9365  -30.8229   21.3696 C   0  0  0  0  0  0
  -26.0159  -29.4527   20.7227 C   0  0  0  0  0  0
  -27.2101  -28.6892   20.7263 C   0  0  0  0  0  0
  -26.0746  -26.9386   19.4771 C   0  0  0  0  0  0
  -24.8833  -27.6896   19.4886 C   0  0  0  0  0  0
  -23.6199  -29.8165   20.1628 C   0  0  0  0  0  0
  -25.4103  -36.3104   24.0352 C   0  0  1  0  0  0
  -20.5848  -28.3646   23.1319 C   0  0  2  0  0  0
  -20.6743  -26.9380   22.5424 C   0  0  0  0  0  0
  -19.5745  -26.6367   21.5198 C   0  0  0  0  0  0
  -18.1907  -26.7919   22.1587 C   0  0  0  0  0  0
  -19.1512  -28.8819   23.2892 C   0  0  0  0  0  0
  -18.9451  -30.1418   23.8897 C   0  0  0  0  0  0
  -17.6452  -30.6570   24.0548 C   0  0  0  0  0  0
  -25.9033  -34.9466   23.5144 C   0  0  0  0  0  0
  -16.5340  -29.9061   23.6334 C   0  0  0  0  0  0
  -16.7255  -28.6485   23.0351 C   0  0  0  0  0  0
  -26.4479  -31.6596   25.0717 C   0  0  0  0  0  0
  -25.3748  -31.3750   26.1495 C   0  0  0  0  0  0
  -27.0290  -30.3017   24.6118 C   0  0  0  0  0  0
  -27.6087  -32.4287   25.7458 C   0  0  0  0  0  0
  -27.5603  -37.1774   24.8447 C   0  0  0  0  0  0
  -21.4134  -29.3023   22.3734 N   0  0  0  0  0  0
  -26.4280  -37.3809   23.9448 N   0  0  0  0  0  0
  -24.6705  -31.0747   22.0995 N   0  0  0  0  0  0
  -23.4181  -28.8162   23.2992 O   0  0  0  0  0  0
  -28.3733  -26.6253   20.0701 O   0  0  0  0  0  0
  -26.5557  -34.8934   22.4681 O   0  0  0  0  0  0
  -23.5369  -32.1409   23.7492 O   0  0  0  0  0  0
  -30.4957  -19.2557   20.6413 C   0  0  0  0  0  0
  -30.7248  -17.8510   20.6944 C   0  0  0  0  0  0
  -28.3644  -17.5123   21.0378 C   0  0  0  0  0  0
  -29.1974  -19.8390   20.7786 C   0  0  0  0  0  0
  -29.6545  -16.9485   20.9071 C   0  0  0  0  0  0
  -28.1275  -18.9059   20.9583 C   0  0  0  0  0  0
  -29.8939  -23.6667   20.8222 C   0  0  0  0  0  0
  -28.6895  -24.2630   20.9436 C   0  0  0  0  0  0
  -27.5235  -23.3792   20.9797 C   0  0  0  0  0  0
  -26.2868  -23.8870   21.1380 C   0  0  0  0  0  0
  -30.1700  -22.1627   20.7139 C   0  0  0  0  0  0
  -27.6518  -21.8511   20.8688 C   0  0  0  0  0  0
  -28.6128  -25.7902   21.2212 C   0  0  0  0  0  0
  -29.0025  -21.2695   20.7513 N   0  0  0  0  0  0
  -29.7656  -15.5145   21.0622 N   0  0  0  0  0  0
  -26.8382  -19.3114   21.0702 F   0  0  0  0  0  0
  -31.4886  -12.5131   19.1248 H   0  0  0  0  0  0
  -30.3996  -11.3513   19.8372 H   0  0  0  0  0  0
  -29.7672  -11.7721   17.4476 H   0  0  0  0  0  0
  -29.6607  -13.4848   17.7552 H   0  0  0  0  0  0
  -27.8454  -11.2942   18.8321 H   0  0  0  0  0  0
  -27.3788  -12.6123   17.7887 H   0  0  0  0  0  0
  -27.7047  -14.2398   19.5679 H   0  0  0  0  0  0
  -28.7055  -11.9300   21.3066 H   0  0  0  0  0  0
  -28.4400  -13.5373   21.8905 H   0  0  0  0  0  0
  -25.2701   -9.5661   22.4764 H   0  0  0  0  0  0
  -23.9935   -7.4590   22.7480 H   0  0  0  0  0  0
  -21.0772   -8.8748   19.8955 H   0  0  0  0  0  0
  -22.3620  -10.9639   19.6164 H   0  0  0  0  0  0
  -21.2017   -7.6144   23.9723 H   0  0  0  0  0  0
  -21.1490   -6.0517   25.9092 H   0  0  0  0  0  0
  -22.0601   -2.7607   23.2851 H   0  0  0  0  0  0
  -22.3976  -11.9916   22.4847 H   0  0  0  0  0  0
  -21.1102  -13.1414   22.2611 H   0  0  0  0  0  0
  -24.5973  -15.7694   20.3784 H   0  0  0  0  0  0
  -26.1624  -15.5414   19.7932 H   0  0  0  0  0  0
  -26.7107  -32.5549   23.1144 H   0  0  0  0  0  0
  -25.0231  -33.9750   25.0592 H   0  0  0  0  0  0
  -22.6966  -31.3040   21.4068 H   0  0  0  0  0  0
  -23.3782  -35.9586   23.3237 H   0  0  0  0  0  0
  -24.3611  -36.8934   22.2053 H   0  0  0  0  0  0
  -23.7190  -37.6466   23.6648 H   0  0  0  0  0  0
  -26.0513  -31.5860   20.5985 H   0  0  0  0  0  0
  -26.8229  -30.8790   21.9890 H   0  0  0  0  0  0
  -28.1022  -29.0735   21.2007 H   0  0  0  0  0  0
  -26.0906  -25.9758   18.9832 H   0  0  0  0  0  0
  -23.9984  -27.2997   19.0063 H   0  0  0  0  0  0
  -23.7270  -30.5862   19.3984 H   0  0  0  0  0  0
  -22.7461  -29.2330   19.8715 H   0  0  0  0  0  0
  -25.1265  -36.1966   25.0843 H   0  0  0  0  0  0
  -20.9943  -28.3201   24.1441 H   0  0  0  0  0  0
  -20.5609  -26.2249   23.3599 H   0  0  0  0  0  0
  -21.6632  -26.7396   22.1260 H   0  0  0  0  0  0
  -19.6899  -25.6274   21.1241 H   0  0  0  0  0  0
  -19.6710  -27.3167   20.6719 H   0  0  0  0  0  0
  -17.4200  -26.6679   21.3953 H   0  0  0  0  0  0
  -18.0277  -26.0035   22.8966 H   0  0  0  0  0  0
  -19.7929  -30.7228   24.2266 H   0  0  0  0  0  0
  -17.5022  -31.6263   24.5129 H   0  0  0  0  0  0
  -15.5333  -30.2970   23.7657 H   0  0  0  0  0  0
  -15.8643  -28.0811   22.7063 H   0  0  0  0  0  0
  -24.5937  -30.7040   25.7906 H   0  0  0  0  0  0
  -24.8915  -32.2924   26.4869 H   0  0  0  0  0  0
  -25.8136  -30.9028   27.0297 H   0  0  0  0  0  0
  -26.2831  -29.6783   24.1178 H   0  0  0  0  0  0
  -27.4036  -29.7264   25.4599 H   0  0  0  0  0  0
  -27.8688  -30.4301   23.9281 H   0  0  0  0  0  0
  -27.2754  -33.3597   26.2059 H   0  0  0  0  0  0
  -28.3882  -32.6808   25.0253 H   0  0  0  0  0  0
  -28.0766  -31.8381   26.5359 H   0  0  0  0  0  0
  -28.2567  -38.0127   24.7611 H   0  0  0  0  0  0
  -28.1146  -36.2671   24.6099 H   0  0  0  0  0  0
  -27.2360  -37.1243   25.8856 H   0  0  0  0  0  0
  -20.9275  -29.8798   21.7007 H   0  0  0  0  0  0
  -26.0168  -38.2873   24.1518 H   0  0  0  0  0  0
  -31.3619  -19.8854   20.4976 H   0  0  0  0  0  0
  -31.7354  -17.4780   20.5943 H   0  0  0  0  0  0
  -27.5105  -16.8716   21.2099 H   0  0  0  0  0  0
  -30.7834  -24.2821   20.8446 H   0  0  0  0  0  0
  -26.0944  -24.9426   21.2451 H   0  0  0  0  0  0
  -25.4240  -23.2381   21.1768 H   0  0  0  0  0  0
  -30.8292  -21.9047   21.5437 H   0  0  0  0  0  0
  -30.7275  -21.9878   19.7946 H   0  0  0  0  0  0
  -27.0551  -21.5290   20.0130 H   0  0  0  0  0  0
  -27.1784  -21.4480   21.7632 H   0  0  0  0  0  0
  -29.5690  -26.1110   21.6353 H   0  0  0  0  0  0
  -27.8975  -25.9891   22.0227 H   0  0  0  0  0  0
  -28.9206  -15.0811   21.4022 H   0  0  0  0  0  0
  1 25  1  0  0  0
  1 30  2  0  0  0
  1 85  1  0  0  0
  2  3  1  0  0  0
  2 25  1  0  0  0
  2 87  1  0  0  0
  2 88  1  0  0  0
  3  4  1  0  0  0
  3 89  1  0  0  0
  3 90  1  0  0  0
  4  5  1  0  0  0
  4 91  1  0  0  0
  4 92  1  0  0  0
  5  6  1  0  0  0
  5 26  1  0  0  0
  5 93  1  0  0  0
  6 25  1  0  0  0
  6 94  1  0  0  0
  6 95  1  0  0  0
  7  8  2  0  0  0
  7 26  1  0  0  0
  7 29  1  0  0  0
  8  9  1  0  0  0
  8 22  1  0  0  0
  9 10  1  0  0  0
  9 27  2  0  0  0
 10 11  2  0  0  0
 10 15  1  0  0  0
 11 12  1  0  0  0
 11 96  1  0  0  0
 12 13  2  0  0  0
 12 97  1  0  0  0
 13 14  1  0  0  0
 13 31  1  0  0  0
 14 15  2  0  0  0
 14 98  1  0  0  0
 15 99  1  0  0  0
 16 17  2  0  0  0
 16 21  1  0  0  0
 16 31  1  0  0  0
 17 18  1  0  0  0
 17100  1  0  0  0
 18 19  2  0  0  0
 18101  1  0  0  0
 19 20  1  0  0  0
 19 24  1  0  0  0
 20 21  2  0  0  0
 20102  1  0  0  0
 21 23  1  0  0  0
 22 28  1  0  0  0
 22 32  2  0  0  0
 26 27  1  0  0  0
 28103  1  0  0  0
 28104  1  0  0  0
 29105  1  0  0  0
 29106  1  0  0  0
 33 34  1  0  0  0
 33 66  1  0  0  0
 33 70  2  0  0  0
 34 36  1  0  0  0
 34 59  1  0  0  0
 34107  1  0  0  0
 35 44  2  0  0  0
 35 45  1  0  0  0
 35 68  1  0  0  0
 36 56  1  0  0  0
 36108  1  0  0  0
 37 39  1  0  0  0
 37 47  1  0  0  0
 37 66  1  0  0  0
 37109  1  0  0  0
 38 43  2  0  0  0
 38 46  1  0  0  0
 38 47  1  0  0  0
 39 64  1  0  0  0
 39 67  2  0  0  0
 40 52  1  0  0  0
 40 53  2  0  0  0
 40 58  1  0  0  0
 41110  1  0  0  0
 41111  1  0  0  0
 41112  1  0  0  0
 41 48  1  0  0  0
 42 43  1  0  0  0
 42 66  1  0  0  0
 42113  1  0  0  0
 42114  1  0  0  0
 43 44  1  0  0  0
 44115  1  0  0  0
 45 46  2  0  0  0
 45116  1  0  0  0
 46117  1  0  0  0
 47118  1  0  0  0
 47119  1  0  0  0
 48 56  1  0  0  0
 48 65  1  0  0  0
 48120  1  0  0  0
 49 50  1  0  0  0
 49 53  1  0  0  0
 49 64  1  0  0  0
 49121  1  0  0  0
 50 51  1  0  0  0
 50122  1  0  0  0
 50123  1  0  0  0
 51 52  1  0  0  0
 51124  1  0  0  0
 51125  1  0  0  0
 52126  1  0  0  0
 52127  1  0  0  0
 53 54  1  0  0  0
 54 55  2  0  0  0
 54128  1  0  0  0
 55 57  1  0  0  0
 55129  1  0  0  0
 56 69  2  0  0  0
 57 58  2  0  0  0
 57130  1  0  0  0
 58131  1  0  0  0
 59 60  1  0  0  0
 59 61  1  0  0  0
 59 62  1  0  0  0
 60132  1  0  0  0
 60133  1  0  0  0
 60134  1  0  0  0
 61135  1  0  0  0
 61136  1  0  0  0
 61137  1  0  0  0
 62138  1  0  0  0
 62139  1  0  0  0
 62140  1  0  0  0
 63 65  1  0  0  0
 63141  1  0  0  0
 63142  1  0  0  0
 63143  1  0  0  0
 64144  1  0  0  0
 65145  1  0  0  0
 68 83  1  0  0  0
 71 72  2  0  0  0
 71 74  1  0  0  0
 71146  1  0  0  0
 72 75  1  0  0  0
 72147  1  0  0  0
 73 75  2  0  0  0
 73 76  1  0  0  0
 73148  1  0  0  0
 74 76  2  0  0  0
 74 84  1  0  0  0
 75 85  1  0  0  0
 76 86  1  0  0  0
 77 78  2  0  0  0
 77 81  1  0  0  0
 77149  1  0  0  0
 78 79  1  0  0  0
 78 83  1  0  0  0
 79 80  2  0  0  0
 79 82  1  0  0  0
 80150  1  0  0  0
 80151  1  0  0  0
 81 84  1  0  0  0
 81152  1  0  0  0
 81153  1  0  0  0
 82 84  1  0  0  0
 82154  1  0  0  0
 82155  1  0  0  0
 83156  1  0  0  0
 83157  1  0  0  0
 85158  1  0  0  0
M  ISO  4   1 100  68 101  83 101  85 100
M  END
> <chiral flag>
0

> <version>
0

> <s_m_source_file>
/data/baiqing/PycharmProjects/Reinvent-master-3.2/result/LINK_invent/BTK/process_docking_weight1_custom_product_contain_oxygen_bond_distance_aromatic_linkinvent_7_9_3/rearranged_h_0078.sdf

> <i_m_source_file_index>
95

> <r_mmod_Potential_Energy-OPLS-2005>
36.6142387390137

> <r_mmod_Stretch_Energy-OPLS-2005>
55.3032684326172

> <r_mmod_Bend_Energy-OPLS-2005>
142.919815063477

> <r_mmod_Torsional_Energy-OPLS-2005>
218.929809570312

> <r_mmod_Improper_Torsional_Energy-OPLS-2005>
6.81487464904785

> <r_mmod_Van_der_Waal_Energy-OPLS-2005>
162.447967529297

> <r_mmod_Electrostatic_Energy-OPLS-2005>
-354.612396240234

> <r_mmod_Solvation_Energy-OPLS-2005>
-220.232894897461

> <b_mmod_Minimization_Converged-OPLS-2005>
0

> <r_mmod_RMS_Derivative-OPLS-2005>
3.55082750320435

$$$$
96
                    3D
 Structure written by MMmdl.
159168  0  0  1  0            999 V2000
  -30.6948  -14.5422   20.4873 C   0  0  0  0  0  0
  -30.4125  -12.3191   19.4722 C   0  0  0  0  0  0
  -29.5004  -12.4825   18.2366 C   0  0  0  0  0  0
  -28.0210  -12.3492   18.6393 C   0  0  0  0  0  0
  -27.6572  -13.2170   19.8727 C   0  0  2  0  0  0
  -28.6944  -13.0734   21.0118 C   0  0  0  0  0  0
  -25.2573  -13.8195   20.5684 C   0  0  0  0  0  0
  -24.1828  -13.0462   20.9161 C   0  0  0  0  0  0
  -24.6397  -11.6929   20.8745 C   0  0  0  0  0  0
  -23.9069  -10.4306   21.0414 C   0  0  0  0  0  0
  -24.3618   -9.4219   21.9193 C   0  0  0  0  0  0
  -23.6297   -8.2252   22.0763 C   0  0  0  0  0  0
  -22.4290   -8.0283   21.3540 C   0  0  0  0  0  0
  -21.9917   -9.0257   20.4642 C   0  0  0  0  0  0
  -22.7245  -10.2141   20.3057 C   0  0  0  0  0  0
  -21.6851   -6.0733   22.5269 C   0  0  0  0  0  0
  -21.4016   -6.5642   23.8199 C   0  0  0  0  0  0
  -21.3661   -5.6795   24.9164 C   0  0  0  0  0  0
  -21.6045   -4.3056   24.7213 C   0  0  0  0  0  0
  -21.8824   -3.8152   23.4335 C   0  0  0  0  0  0
  -21.9198   -4.6964   22.3397 C   0  0  0  0  0  0
  -22.7856  -13.5247   21.1832 C   0  0  0  0  0  0
  -22.1669   -4.2151   21.0975 F   0  0  0  0  0  0
  -21.5632   -3.4542   25.7731 F   0  0  0  0  0  0
  -30.0274  -13.3502   20.4582 N   0  0  0  0  0  0
  -26.3004  -12.9373   20.3374 N   0  0  0  0  0  0
  -25.9329  -11.6526   20.5806 N   0  0  0  0  0  0
  -22.0506  -12.8211   22.0371 N   0  0  0  0  0  0
  -25.4336  -15.1902   20.4087 N   0  0  0  0  0  0
  -31.8406  -14.6375   20.0376 O   0  0  0  0  0  0
  -21.6653   -6.8883   21.4238 O   0  0  0  0  0  0
  -22.3546  -14.5557   20.6692 O   0  0  0  0  0  0
  -24.6186  -31.8641   23.2114 C   0  0  0  0  0  0
  -25.9070  -32.4787   23.8389 C   0  0  1  0  0  0
  -27.2216  -27.3902   20.0949 C   0  0  0  0  0  0
  -25.5911  -33.8586   24.2308 N   0  0  0  0  0  0
  -23.4058  -30.4923   21.5513 C   0  0  2  0  0  0
  -24.8514  -28.9617   20.1055 C   0  0  0  0  0  0
  -22.7418  -29.4646   22.4957 C   0  0  0  0  0  0
  -18.0263  -28.1369   22.8491 C   0  0  0  0  0  0
  -24.1475  -36.7281   23.2631 C   0  0  0  0  0  0
  -25.9443  -30.8114   21.3811 C   0  0  0  0  0  0
  -26.0132  -29.4493   20.7144 C   0  0  0  0  0  0
  -27.1978  -28.6683   20.7118 C   0  0  0  0  0  0
  -26.0437  -26.9479   19.4458 C   0  0  0  0  0  0
  -24.8623  -27.7110   19.4707 C   0  0  0  0  0  0
  -23.6140  -29.8316   20.1636 C   0  0  0  0  0  0
  -25.4095  -36.3082   24.0334 C   0  0  1  0  0  0
  -20.5858  -28.3645   23.1299 C   0  0  2  0  0  0
  -20.6750  -26.9366   22.5421 C   0  0  0  0  0  0
  -19.5732  -26.6369   21.5215 C   0  0  0  0  0  0
  -18.1905  -26.7915   22.1621 C   0  0  0  0  0  0
  -19.1519  -28.8831   23.2878 C   0  0  0  0  0  0
  -18.9456  -30.1447   23.8868 C   0  0  0  0  0  0
  -17.6451  -30.6568   24.0568 C   0  0  0  0  0  0
  -25.9033  -34.9451   23.5114 C   0  0  0  0  0  0
  -16.5337  -29.9063   23.6357 C   0  0  0  0  0  0
  -16.7255  -28.6499   23.0339 C   0  0  0  0  0  0
  -26.4488  -31.6618   25.0756 C   0  0  0  0  0  0
  -25.3743  -31.3764   26.1512 C   0  0  0  0  0  0
  -27.0376  -30.3046   24.6246 C   0  0  0  0  0  0
  -27.6013  -32.4412   25.7516 C   0  0  0  0  0  0
  -27.5595  -37.1753   24.8435 C   0  0  0  0  0  0
  -21.4137  -29.3018   22.3701 N   0  0  0  0  0  0
  -26.4272  -37.3789   23.9441 N   0  0  0  0  0  0
  -24.6744  -31.0727   22.1032 N   0  0  0  0  0  0
  -23.4187  -28.8176   23.2991 O   0  0  0  0  0  0
  -28.3662  -26.6073   20.1975 O   0  0  0  0  0  0
  -26.5600  -34.8913   22.4677 O   0  0  0  0  0  0
  -23.5370  -32.1413   23.7498 O   0  0  0  0  0  0
  -30.5162  -19.6758   22.8024 C   0  0  0  0  0  0
  -30.5328  -18.3875   22.2252 C   0  0  0  0  0  0
  -29.8093  -20.7297   22.1884 C   0  0  0  0  0  0
  -29.0764  -19.1996   20.4453 C   0  0  0  0  0  0
  -29.8319  -18.1362   21.0257 C   0  0  0  0  0  0
  -29.0781  -20.5105   21.0044 C   0  0  0  0  0  0
  -28.8244  -22.8681   20.1296 C   0  0  0  0  0  0
  -28.0852  -24.0087   20.2238 C   0  0  0  0  0  0
  -26.7505  -23.8882   20.8742 C   0  0  0  0  0  0
  -26.0938  -22.5494   20.8549 C   0  0  0  0  0  0
  -24.8279  -22.4215   21.2989 C   0  0  0  0  0  0
  -30.0927  -16.8562   20.2561 C   0  0  0  0  0  0
  -26.9080  -21.3637   20.3350 C   0  0  0  0  0  0
  -28.4823  -25.3338   19.5072 C   0  0  0  0  0  0
  -28.3507  -21.5818   20.4292 N   0  0  0  0  0  0
  -30.0053  -15.6491   20.8776 N   0  0  0  0  0  0
  -26.2372  -24.8288   21.4861 O   0  0  0  0  0  0
  -30.3827  -16.9746   19.0602 O   0  0  0  0  0  0
  -31.4610  -12.3799   19.1739 H   0  0  0  0  0  0
  -30.2930  -11.3269   19.9083 H   0  0  0  0  0  0
  -29.7476  -11.7300   17.4859 H   0  0  0  0  0  0
  -29.6691  -13.4541   17.7674 H   0  0  0  0  0  0
  -27.8320  -11.2980   18.8570 H   0  0  0  0  0  0
  -27.3742  -12.6024   17.7986 H   0  0  0  0  0  0
  -27.6851  -14.2534   19.5358 H   0  0  0  0  0  0
  -28.6710  -12.0692   21.4368 H   0  0  0  0  0  0
  -28.4538  -13.7494   21.8340 H   0  0  0  0  0  0
  -25.2762   -9.5693   22.4762 H   0  0  0  0  0  0
  -24.0006   -7.4649   22.7479 H   0  0  0  0  0  0
  -21.0860   -8.8772   19.8935 H   0  0  0  0  0  0
  -22.3713  -10.9678   19.6161 H   0  0  0  0  0  0
  -21.2009   -7.6149   23.9694 H   0  0  0  0  0  0
  -21.1479   -6.0532   25.9062 H   0  0  0  0  0  0
  -22.0605   -2.7613   23.2836 H   0  0  0  0  0  0
  -22.4155  -11.9860   22.4694 H   0  0  0  0  0  0
  -21.1126  -13.1209   22.2613 H   0  0  0  0  0  0
  -24.6722  -15.8502   20.5171 H   0  0  0  0  0  0
  -26.2895  -15.6205   20.0833 H   0  0  0  0  0  0
  -26.7120  -32.5480   23.1115 H   0  0  0  0  0  0
  -25.0043  -33.9724   25.0452 H   0  0  0  0  0  0
  -22.6960  -31.3119   21.4149 H   0  0  0  0  0  0
  -23.3764  -35.9587   23.3257 H   0  0  0  0  0  0
  -24.3536  -36.8958   22.2052 H   0  0  0  0  0  0
  -23.7228  -37.6464   23.6681 H   0  0  0  0  0  0
  -26.0854  -31.5831   20.6254 H   0  0  0  0  0  0
  -26.8215  -30.8389   22.0184 H   0  0  0  0  0  0
  -28.0887  -29.0277   21.2091 H   0  0  0  0  0  0
  -25.9919  -25.9879   18.9577 H   0  0  0  0  0  0
  -23.9673  -27.3297   18.9995 H   0  0  0  0  0  0
  -23.7174  -30.6115   19.4076 H   0  0  0  0  0  0
  -22.7373  -29.2532   19.8689 H   0  0  0  0  0  0
  -25.1279  -36.1904   25.0832 H   0  0  0  0  0  0
  -20.9962  -28.3225   24.1419 H   0  0  0  0  0  0
  -20.5681  -26.2224   23.3592 H   0  0  0  0  0  0
  -21.6602  -26.7413   22.1189 H   0  0  0  0  0  0
  -19.6880  -25.6298   21.1200 H   0  0  0  0  0  0
  -19.6693  -27.3216   20.6767 H   0  0  0  0  0  0
  -17.4183  -26.6688   21.4004 H   0  0  0  0  0  0
  -18.0271  -26.0060   22.9012 H   0  0  0  0  0  0
  -19.7944  -30.7283   24.2191 H   0  0  0  0  0  0
  -17.5014  -31.6244   24.5182 H   0  0  0  0  0  0
  -15.5337  -30.2944   23.7729 H   0  0  0  0  0  0
  -15.8649  -28.0836   22.7027 H   0  0  0  0  0  0
  -24.5856  -30.7178   25.7858 H   0  0  0  0  0  0
  -24.8998  -32.2935   26.5001 H   0  0  0  0  0  0
  -25.8074  -30.8894   27.0257 H   0  0  0  0  0  0
  -26.2998  -29.6746   24.1265 H   0  0  0  0  0  0
  -27.4066  -29.7349   25.4784 H   0  0  0  0  0  0
  -27.8839  -30.4333   23.9496 H   0  0  0  0  0  0
  -27.2575  -33.3690   26.2094 H   0  0  0  0  0  0
  -28.3793  -32.7050   25.0342 H   0  0  0  0  0  0
  -28.0714  -31.8582   26.5448 H   0  0  0  0  0  0
  -28.2509  -38.0149   24.7640 H   0  0  0  0  0  0
  -28.1202  -36.2697   24.6067 H   0  0  0  0  0  0
  -27.2302  -37.1158   25.8820 H   0  0  0  0  0  0
  -20.9285  -29.8782   21.6970 H   0  0  0  0  0  0
  -26.0144  -38.2834   24.1572 H   0  0  0  0  0  0
  -31.0769  -19.8705   23.7051 H   0  0  0  0  0  0
  -31.1508  -17.6164   22.6683 H   0  0  0  0  0  0
  -29.8170  -21.7103   22.6440 H   0  0  0  0  0  0
  -28.5448  -19.0203   19.5215 H   0  0  0  0  0  0
  -29.7791  -22.8631   19.6205 H   0  0  0  0  0  0
  -24.2647  -23.2671   21.6696 H   0  0  0  0  0  0
  -24.3272  -21.4650   21.2971 H   0  0  0  0  0  0
  -26.6501  -21.2135   19.2845 H   0  0  0  0  0  0
  -26.6021  -20.4612   20.8687 H   0  0  0  0  0  0
  -27.9854  -25.3658   18.5398 H   0  0  0  0  0  0
  -29.5378  -25.2495   19.2472 H   0  0  0  0  0  0
  -29.3675  -15.5713   21.6511 H   0  0  0  0  0  0
  1 25  1  0  0  0
  1 30  2  0  0  0
  1 86  1  0  0  0
  2  3  1  0  0  0
  2 25  1  0  0  0
  2 89  1  0  0  0
  2 90  1  0  0  0
  3  4  1  0  0  0
  3 91  1  0  0  0
  3 92  1  0  0  0
  4  5  1  0  0  0
  4 93  1  0  0  0
  4 94  1  0  0  0
  5  6  1  0  0  0
  5 26  1  0  0  0
  5 95  1  0  0  0
  6 25  1  0  0  0
  6 96  1  0  0  0
  6 97  1  0  0  0
  7  8  2  0  0  0
  7 26  1  0  0  0
  7 29  1  0  0  0
  8  9  1  0  0  0
  8 22  1  0  0  0
  9 10  1  0  0  0
  9 27  2  0  0  0
 10 11  2  0  0  0
 10 15  1  0  0  0
 11 12  1  0  0  0
 11 98  1  0  0  0
 12 13  2  0  0  0
 12 99  1  0  0  0
 13 14  1  0  0  0
 13 31  1  0  0  0
 14 15  2  0  0  0
 14100  1  0  0  0
 15101  1  0  0  0
 16 17  2  0  0  0
 16 21  1  0  0  0
 16 31  1  0  0  0
 17 18  1  0  0  0
 17102  1  0  0  0
 18 19  2  0  0  0
 18103  1  0  0  0
 19 20  1  0  0  0
 19 24  1  0  0  0
 20 21  2  0  0  0
 20104  1  0  0  0
 21 23  1  0  0  0
 22 28  1  0  0  0
 22 32  2  0  0  0
 26 27  1  0  0  0
 28105  1  0  0  0
 28106  1  0  0  0
 29107  1  0  0  0
 29108  1  0  0  0
 33 34  1  0  0  0
 33 66  1  0  0  0
 33 70  2  0  0  0
 34 36  1  0  0  0
 34 59  1  0  0  0
 34109  1  0  0  0
 35 44  2  0  0  0
 35 45  1  0  0  0
 35 68  1  0  0  0
 36 56  1  0  0  0
 36110  1  0  0  0
 37 39  1  0  0  0
 37 47  1  0  0  0
 37 66  1  0  0  0
 37111  1  0  0  0
 38 43  2  0  0  0
 38 46  1  0  0  0
 38 47  1  0  0  0
 39 64  1  0  0  0
 39 67  2  0  0  0
 40 52  1  0  0  0
 40 53  2  0  0  0
 40 58  1  0  0  0
 41112  1  0  0  0
 41113  1  0  0  0
 41114  1  0  0  0
 41 48  1  0  0  0
 42 43  1  0  0  0
 42 66  1  0  0  0
 42115  1  0  0  0
 42116  1  0  0  0
 43 44  1  0  0  0
 44117  1  0  0  0
 45 46  2  0  0  0
 45118  1  0  0  0
 46119  1  0  0  0
 47120  1  0  0  0
 47121  1  0  0  0
 48 56  1  0  0  0
 48 65  1  0  0  0
 48122  1  0  0  0
 49 50  1  0  0  0
 49 53  1  0  0  0
 49 64  1  0  0  0
 49123  1  0  0  0
 50 51  1  0  0  0
 50124  1  0  0  0
 50125  1  0  0  0
 51 52  1  0  0  0
 51126  1  0  0  0
 51127  1  0  0  0
 52128  1  0  0  0
 52129  1  0  0  0
 53 54  1  0  0  0
 54 55  2  0  0  0
 54130  1  0  0  0
 55 57  1  0  0  0
 55131  1  0  0  0
 56 69  2  0  0  0
 57 58  2  0  0  0
 57132  1  0  0  0
 58133  1  0  0  0
 59 60  1  0  0  0
 59 61  1  0  0  0
 59 62  1  0  0  0
 60134  1  0  0  0
 60135  1  0  0  0
 60136  1  0  0  0
 61137  1  0  0  0
 61138  1  0  0  0
 61139  1  0  0  0
 62140  1  0  0  0
 62141  1  0  0  0
 62142  1  0  0  0
 63 65  1  0  0  0
 63143  1  0  0  0
 63144  1  0  0  0
 63145  1  0  0  0
 64146  1  0  0  0
 65147  1  0  0  0
 68 84  1  0  0  0
 71 72  2  0  0  0
 71 73  1  0  0  0
 71148  1  0  0  0
 72 75  1  0  0  0
 72149  1  0  0  0
 73 76  2  0  0  0
 73150  1  0  0  0
 74 75  2  0  0  0
 74 76  1  0  0  0
 74151  1  0  0  0
 75 82  1  0  0  0
 76 85  1  0  0  0
 77 78  2  0  0  0
 77 85  1  0  0  0
 77152  1  0  0  0
 78 79  1  0  0  0
 78 84  1  0  0  0
 79 80  1  0  0  0
 79 87  2  0  0  0
 80 81  2  0  0  0
 80 83  1  0  0  0
 81153  1  0  0  0
 81154  1  0  0  0
 82 86  1  0  0  0
 82 88  2  0  0  0
 83 85  1  0  0  0
 83155  1  0  0  0
 83156  1  0  0  0
 84157  1  0  0  0
 84158  1  0  0  0
 86159  1  0  0  0
M  ISO  4   1 100  68 101  84 101  86 100
M  END
> <chiral flag>
0

> <version>
0

> <s_m_source_file>
/data/baiqing/PycharmProjects/Reinvent-master-3.2/result/LINK_invent/BTK/process_docking_weight1_custom_product_contain_oxygen_bond_distance_aromatic_linkinvent_7_9_3/rearranged_h_0078.sdf

> <i_m_source_file_index>
96

> <r_mmod_Potential_Energy-OPLS-2005>
3.01087093353271

> <r_mmod_Stretch_Energy-OPLS-2005>
52.2878761291504

> <r_mmod_Bend_Energy-OPLS-2005>
121.669227600098

> <r_mmod_Torsional_Energy-OPLS-2005>
289.722076416016

> <r_mmod_Improper_Torsional_Energy-OPLS-2005>
6.7121729850769

> <r_mmod_Van_der_Waal_Energy-OPLS-2005>
172.206314086914

> <r_mmod_Electrostatic_Energy-OPLS-2005>
-427.437835693359

> <r_mmod_Solvation_Energy-OPLS-2005>
-240.700988769531

> <b_mmod_Minimization_Converged-OPLS-2005>
0

> <r_mmod_RMS_Derivative-OPLS-2005>
3.19022727012634

$$$$
