0
                    3D
 Structure written by MMmdl.
160168  0  0  1  0            999 V2000
  -30.5108  -14.9317   20.4323 C   0  0  0  0  0  0
  -30.4514  -12.5770   19.4904 C   0  0  0  0  0  0
  -29.5243  -12.5315   18.2519 C   0  0  0  0  0  0
  -28.0552  -12.3184   18.6681 C   0  0  0  0  0  0
  -27.6340  -13.2404   19.8418 C   0  0  2  0  0  0
  -28.6778  -13.2356   20.9786 C   0  0  0  0  0  0
  -25.2481  -13.8203   20.5696 C   0  0  0  0  0  0
  -24.1791  -13.0433   20.9216 C   0  0  0  0  0  0
  -24.6401  -11.6916   20.8748 C   0  0  0  0  0  0
  -23.9080  -10.4291   21.0409 C   0  0  0  0  0  0
  -24.3629   -9.4204   21.9187 C   0  0  0  0  0  0
  -23.6300   -8.2241   22.0754 C   0  0  0  0  0  0
  -22.4279   -8.0284   21.3545 C   0  0  0  0  0  0
  -21.9920   -9.0257   20.4643 C   0  0  0  0  0  0
  -22.7252  -10.2134   20.3055 C   0  0  0  0  0  0
  -21.6854   -6.0740   22.5280 C   0  0  0  0  0  0
  -21.4016   -6.5643   23.8214 C   0  0  0  0  0  0
  -21.3658   -5.6793   24.9174 C   0  0  0  0  0  0
  -21.6045   -4.3057   24.7223 C   0  0  0  0  0  0
  -21.8819   -3.8150   23.4343 C   0  0  0  0  0  0
  -21.9194   -4.6968   22.3401 C   0  0  0  0  0  0
  -22.7812  -13.5212   21.1879 C   0  0  0  0  0  0
  -22.1662   -4.2156   21.0978 F   0  0  0  0  0  0
  -21.5628   -3.4539   25.7735 F   0  0  0  0  0  0
  -29.9565  -13.6554   20.3885 N   0  0  0  0  0  0
  -26.2905  -12.9420   20.3241 N   0  0  0  0  0  0
  -25.9331  -11.6557   20.5731 N   0  0  0  0  0  0
  -22.0463  -12.8197   22.0434 N   0  0  0  0  0  0
  -25.4107  -15.1939   20.4131 N   0  0  0  0  0  0
  -31.7134  -15.0493   20.1707 O   0  0  0  0  0  0
  -21.6640   -6.8883   21.4242 O   0  0  0  0  0  0
  -22.3488  -14.5513   20.6723 O   0  0  0  0  0  0
  -24.6424  -31.8434   23.1875 C   0  0  0  0  0  0
  -25.9198  -32.4692   23.8266 C   0  0  1  0  0  0
  -27.2224  -27.1392   20.1705 C   0  0  0  0  0  0
  -25.5942  -33.8497   24.2179 N   0  0  0  0  0  0
  -23.4467  -30.4615   21.5321 C   0  0  2  0  0  0
  -24.8985  -28.8801   20.1192 C   0  0  0  0  0  0
  -22.7564  -29.4544   22.4859 C   0  0  0  0  0  0
  -18.0305  -28.1398   22.8473 C   0  0  0  0  0  0
  -24.1490  -36.7256   23.2645 C   0  0  0  0  0  0
  -26.0015  -30.7192   21.3859 C   0  0  0  0  0  0
  -26.0743  -29.3266   20.7372 C   0  0  0  0  0  0
  -27.2394  -28.4729   20.7428 C   0  0  0  0  0  0
  -26.0258  -26.7908   19.5119 C   0  0  0  0  0  0
  -24.8851  -27.6239   19.4923 C   0  0  0  0  0  0
  -23.6758  -29.7844   20.1541 C   0  0  0  0  0  0
  -25.4118  -36.3026   24.0318 C   0  0  1  0  0  0
  -20.5917  -28.3718   23.1240 C   0  0  2  0  0  0
  -20.6787  -26.9420   22.5408 C   0  0  0  0  0  0
  -19.5763  -26.6379   21.5214 C   0  0  0  0  0  0
  -18.1943  -26.7935   22.1621 C   0  0  0  0  0  0
  -19.1562  -28.8875   23.2850 C   0  0  0  0  0  0
  -18.9481  -30.1472   23.8872 C   0  0  0  0  0  0
  -17.6479  -30.6592   24.0561 C   0  0  0  0  0  0
  -25.9067  -34.9406   23.5059 C   0  0  0  0  0  0
  -16.5367  -29.9089   23.6338 C   0  0  0  0  0  0
  -16.7290  -28.6510   23.0351 C   0  0  0  0  0  0
  -26.4522  -31.6559   25.0705 C   0  0  0  0  0  0
  -25.3711  -31.3758   26.1404 C   0  0  0  0  0  0
  -27.0385  -30.2952   24.6278 C   0  0  0  0  0  0
  -27.6039  -32.4333   25.7501 C   0  0  0  0  0  0
  -27.5569  -37.1780   24.8466 C   0  0  0  0  0  0
  -21.4255  -29.3047   22.3611 N   0  0  0  0  0  0
  -26.4279  -37.3741   23.9411 N   0  0  0  0  0  0
  -24.7165  -31.0301   22.0902 N   0  0  0  0  0  0
  -23.4209  -28.8095   23.3010 O   0  0  0  0  0  0
  -28.2995  -26.1822   20.1387 O   0  0  0  0  0  0
  -26.5659  -34.8910   22.4641 O   0  0  0  0  0  0
  -23.5544  -32.1308   23.7094 O   0  0  0  0  0  0
  -30.7198  -18.4638   20.8399 C   0  0  0  0  0  0
  -28.3448  -19.7639   20.1609 C   0  0  0  0  0  0
  -30.5886  -19.9170   20.8790 C   0  0  0  0  0  0
  -29.6574  -17.5707   20.4918 C   0  0  0  0  0  0
  -29.3944  -20.6607   20.5468 C   0  0  0  0  0  0
  -28.4677  -18.3102   20.1527 C   0  0  0  0  0  0
  -31.7976  -20.7178   21.3255 C   0  0  0  0  0  0
  -29.7279  -24.2492   23.0343 C   0  0  0  0  0  0
  -27.0909  -24.6857   21.7516 C   0  0  0  0  0  0
  -29.6046  -25.0354   21.7133 C   0  0  0  0  0  0
  -28.5359  -23.2620   20.1105 C   0  0  0  0  0  0
  -28.3372  -24.7861   20.8445 C   0  0  2  0  0  0
  -29.6339  -16.0380   20.5505 N   0  0  0  0  0  0
  -29.3556  -22.1175   20.7391 O   0  0  0  0  0  0
  -27.3715  -17.5855   19.8199 F   0  0  0  0  0  0
  -31.4818  -12.7551   19.1785 H   0  0  0  0  0  0
  -30.4564  -11.6165   20.0088 H   0  0  0  0  0  0
  -29.8394  -11.7389   17.5719 H   0  0  0  0  0  0
  -29.6131  -13.4659   17.6955 H   0  0  0  0  0  0
  -27.9458  -11.2745   18.9645 H   0  0  0  0  0  0
  -27.3930  -12.4631   17.8133 H   0  0  0  0  0  0
  -27.6036  -14.2479   19.4269 H   0  0  0  0  0  0
  -28.7607  -12.2459   21.4304 H   0  0  0  0  0  0
  -28.3799  -13.9136   21.7801 H   0  0  0  0  0  0
  -25.2774   -9.5683   22.4761 H   0  0  0  0  0  0
  -24.0010   -7.4633   22.7474 H   0  0  0  0  0  0
  -21.0852   -8.8778   19.8947 H   0  0  0  0  0  0
  -22.3714  -10.9675   19.6164 H   0  0  0  0  0  0
  -21.2007   -7.6151   23.9721 H   0  0  0  0  0  0
  -21.1481   -6.0521   25.9078 H   0  0  0  0  0  0
  -22.0599   -2.7612   23.2839 H   0  0  0  0  0  0
  -22.4090  -11.9864   22.4822 H   0  0  0  0  0  0
  -21.1078  -13.1212   22.2639 H   0  0  0  0  0  0
  -24.6330  -15.8331   20.5314 H   0  0  0  0  0  0
  -26.2417  -15.6591   20.0689 H   0  0  0  0  0  0
  -26.7257  -32.5300   23.0990 H   0  0  0  0  0  0
  -25.0068  -33.9611   25.0312 H   0  0  0  0  0  0
  -22.7496  -31.2867   21.3726 H   0  0  0  0  0  0
  -23.3752  -35.9585   23.3298 H   0  0  0  0  0  0
  -24.3578  -36.8899   22.2063 H   0  0  0  0  0  0
  -23.7253  -37.6454   23.6687 H   0  0  0  0  0  0
  -26.1535  -31.4693   20.6083 H   0  0  0  0  0  0
  -26.8738  -30.7749   22.0252 H   0  0  0  0  0  0
  -28.1420  -28.8154   21.2287 H   0  0  0  0  0  0
  -25.9651  -25.8282   19.0241 H   0  0  0  0  0  0
  -23.9887  -27.2767   18.9974 H   0  0  0  0  0  0
  -23.8188  -30.5559   19.3967 H   0  0  0  0  0  0
  -22.7900  -29.2282   19.8408 H   0  0  0  0  0  0
  -25.1309  -36.1845   25.0808 H   0  0  0  0  0  0
  -21.0005  -28.3298   24.1364 H   0  0  0  0  0  0
  -20.5673  -26.2327   23.3624 H   0  0  0  0  0  0
  -21.6653  -26.7422   22.1209 H   0  0  0  0  0  0
  -19.6927  -25.6285   21.1258 H   0  0  0  0  0  0
  -19.6706  -27.3174   20.6732 H   0  0  0  0  0  0
  -17.4212  -26.6679   21.4025 H   0  0  0  0  0  0
  -18.0340  -26.0088   22.9027 H   0  0  0  0  0  0
  -19.7960  -30.7297   24.2221 H   0  0  0  0  0  0
  -17.5038  -31.6270   24.5168 H   0  0  0  0  0  0
  -15.5368  -30.2987   23.7682 H   0  0  0  0  0  0
  -15.8688  -28.0829   22.7071 H   0  0  0  0  0  0
  -24.5884  -30.7111   25.7730 H   0  0  0  0  0  0
  -24.8910  -32.2951   26.4769 H   0  0  0  0  0  0
  -25.7994  -30.8971   27.0218 H   0  0  0  0  0  0
  -26.3000  -29.6682   24.1265 H   0  0  0  0  0  0
  -27.3993  -29.7241   25.4844 H   0  0  0  0  0  0
  -27.8910  -30.4200   23.9596 H   0  0  0  0  0  0
  -27.2608  -33.3644   26.2024 H   0  0  0  0  0  0
  -28.3878  -32.6881   25.0355 H   0  0  0  0  0  0
  -28.0675  -31.8502   26.5468 H   0  0  0  0  0  0
  -28.2570  -38.0089   24.7501 H   0  0  0  0  0  0
  -28.1080  -36.2616   24.6295 H   0  0  0  0  0  0
  -27.2293  -37.1435   25.8871 H   0  0  0  0  0  0
  -20.9459  -29.8776   21.6806 H   0  0  0  0  0  0
  -26.0145  -38.2807   24.1416 H   0  0  0  0  0  0
  -31.6631  -18.0233   21.1302 H   0  0  0  0  0  0
  -27.3843  -20.1860   19.9067 H   0  0  0  0  0  0
  -32.6692  -20.0843   21.4909 H   0  0  0  0  0  0
  -31.5801  -21.2432   22.2559 H   0  0  0  0  0  0
  -32.0607  -21.4603   20.5714 H   0  0  0  0  0  0
  -28.9842  -24.5740   23.7624 H   0  0  0  0  0  0
  -30.7066  -24.4163   23.4844 H   0  0  0  0  0  0
  -29.6138  -23.1750   22.9022 H   0  0  0  0  0  0
  -27.1259  -23.7926   22.3764 H   0  0  0  0  0  0
  -26.1761  -24.6113   21.1650 H   0  0  0  0  0  0
  -26.9971  -25.5459   22.4151 H   0  0  0  0  0  0
  -30.4873  -24.8432   21.1015 H   0  0  0  0  0  0
  -29.6675  -26.0914   21.9816 H   0  0  0  0  0  0
  -29.0224  -23.4450   19.1524 H   0  0  0  0  0  0
  -27.5542  -22.8664   19.8480 H   0  0  0  0  0  0
  -28.6862  -15.7025   20.6215 H   0  0  0  0  0  0
  1 25  1  0  0  0
  1 30  2  0  0  0
  1 83  1  0  0  0
  2  3  1  0  0  0
  2 25  1  0  0  0
  2 86  1  0  0  0
  2 87  1  0  0  0
  3  4  1  0  0  0
  3 88  1  0  0  0
  3 89  1  0  0  0
  4  5  1  0  0  0
  4 90  1  0  0  0
  4 91  1  0  0  0
  5  6  1  0  0  0
  5 26  1  0  0  0
  5 92  1  0  0  0
  6 25  1  0  0  0
  6 93  1  0  0  0
  6 94  1  0  0  0
  7  8  2  0  0  0
  7 26  1  0  0  0
  7 29  1  0  0  0
  8  9  1  0  0  0
  8 22  1  0  0  0
  9 10  1  0  0  0
  9 27  2  0  0  0
 10 11  2  0  0  0
 10 15  1  0  0  0
 11 12  1  0  0  0
 11 95  1  0  0  0
 12 13  2  0  0  0
 12 96  1  0  0  0
 13 14  1  0  0  0
 13 31  1  0  0  0
 14 15  2  0  0  0
 14 97  1  0  0  0
 15 98  1  0  0  0
 16 17  2  0  0  0
 16 21  1  0  0  0
 16 31  1  0  0  0
 17 18  1  0  0  0
 17 99  1  0  0  0
 18 19  2  0  0  0
 18100  1  0  0  0
 19 20  1  0  0  0
 19 24  1  0  0  0
 20 21  2  0  0  0
 20101  1  0  0  0
 21 23  1  0  0  0
 22 28  1  0  0  0
 22 32  2  0  0  0
 26 27  1  0  0  0
 28102  1  0  0  0
 28103  1  0  0  0
 29104  1  0  0  0
 29105  1  0  0  0
 33 34  1  0  0  0
 33 66  1  0  0  0
 33 70  2  0  0  0
 34 36  1  0  0  0
 34 59  1  0  0  0
 34106  1  0  0  0
 35 44  2  0  0  0
 35 45  1  0  0  0
 35 68  1  0  0  0
 36 56  1  0  0  0
 36107  1  0  0  0
 37 39  1  0  0  0
 37 47  1  0  0  0
 37 66  1  0  0  0
 37108  1  0  0  0
 38 43  2  0  0  0
 38 46  1  0  0  0
 38 47  1  0  0  0
 39 64  1  0  0  0
 39 67  2  0  0  0
 40 52  1  0  0  0
 40 53  2  0  0  0
 40 58  1  0  0  0
 41109  1  0  0  0
 41110  1  0  0  0
 41111  1  0  0  0
 41 48  1  0  0  0
 42 43  1  0  0  0
 42 66  1  0  0  0
 42112  1  0  0  0
 42113  1  0  0  0
 43 44  1  0  0  0
 44114  1  0  0  0
 45 46  2  0  0  0
 45115  1  0  0  0
 46116  1  0  0  0
 47117  1  0  0  0
 47118  1  0  0  0
 48 56  1  0  0  0
 48 65  1  0  0  0
 48119  1  0  0  0
 49 50  1  0  0  0
 49 53  1  0  0  0
 49 64  1  0  0  0
 49120  1  0  0  0
 50 51  1  0  0  0
 50121  1  0  0  0
 50122  1  0  0  0
 51 52  1  0  0  0
 51123  1  0  0  0
 51124  1  0  0  0
 52125  1  0  0  0
 52126  1  0  0  0
 53 54  1  0  0  0
 54 55  2  0  0  0
 54127  1  0  0  0
 55 57  1  0  0  0
 55128  1  0  0  0
 56 69  2  0  0  0
 57 58  2  0  0  0
 57129  1  0  0  0
 58130  1  0  0  0
 59 60  1  0  0  0
 59 61  1  0  0  0
 59 62  1  0  0  0
 60131  1  0  0  0
 60132  1  0  0  0
 60133  1  0  0  0
 61134  1  0  0  0
 61135  1  0  0  0
 61136  1  0  0  0
 62137  1  0  0  0
 62138  1  0  0  0
 62139  1  0  0  0
 63 65  1  0  0  0
 63140  1  0  0  0
 63141  1  0  0  0
 63142  1  0  0  0
 64143  1  0  0  0
 65144  1  0  0  0
 68 82  1  0  0  0
 71 73  2  0  0  0
 71 74  1  0  0  0
 71145  1  0  0  0
 72 75  2  0  0  0
 72 76  1  0  0  0
 72146  1  0  0  0
 73 75  1  0  0  0
 73 77  1  0  0  0
 74 76  2  0  0  0
 74 83  1  0  0  0
 75 84  1  0  0  0
 76 85  1  0  0  0
 77147  1  0  0  0
 77148  1  0  0  0
 77149  1  0  0  0
 78 80  1  0  0  0
 78150  1  0  0  0
 78151  1  0  0  0
 78152  1  0  0  0
 79153  1  0  0  0
 79154  1  0  0  0
 79155  1  0  0  0
 79 82  1  0  0  0
 80 82  1  0  0  0
 80156  1  0  0  0
 80157  1  0  0  0
 81 82  1  0  0  0
 81 84  1  0  0  0
 81158  1  0  0  0
 81159  1  0  0  0
 83160  1  0  0  0
M  ISO  4   1 100  68 101  82 101  83 100
M  END
> <chiral flag>
0

> <version>
0

> <s_m_source_file>
/data/baiqing/PycharmProjects/Reinvent-master-3.2/result/LINK_invent/BTK/process_docking_weight1_custom_product_contain_oxygen_bond_distance_aromatic_linkinvent_7_9_3/rearranged_h_0137.sdf

> <i_m_source_file_index>
1

> <r_mmod_Potential_Energy-OPLS-2005>
497.704223632812

> <r_mmod_Stretch_Energy-OPLS-2005>
235.902572631836

> <r_mmod_Bend_Energy-OPLS-2005>
305.494903564453

> <r_mmod_Torsional_Energy-OPLS-2005>
261.896240234375

> <r_mmod_Improper_Torsional_Energy-OPLS-2005>
5.87010812759399

> <r_mmod_Van_der_Waal_Energy-OPLS-2005>
127.323036193848

> <r_mmod_Electrostatic_Energy-OPLS-2005>
-429.960144042969

> <r_mmod_Solvation_Energy-OPLS-2005>
-189.859466552734

> <b_mmod_Minimization_Converged-OPLS-2005>
0

> <r_mmod_RMS_Derivative-OPLS-2005>
0.787946462631226

$$$$
1
                    3D
 Structure written by MMmdl.
160168  0  0  1  0            999 V2000
  -30.6040  -14.7359   20.4661 C   0  0  0  0  0  0
  -30.4338  -12.4506   19.4621 C   0  0  0  0  0  0
  -29.5069  -12.5023   18.2279 C   0  0  0  0  0  0
  -28.0335  -12.3245   18.6452 C   0  0  0  0  0  0
  -27.6394  -13.2256   19.8465 C   0  0  2  0  0  0
  -28.6867  -13.1559   20.9783 C   0  0  0  0  0  0
  -25.2506  -13.8175   20.5689 C   0  0  0  0  0  0
  -24.1799  -13.0431   20.9222 C   0  0  0  0  0  0
  -24.6381  -11.6905   20.8759 C   0  0  0  0  0  0
  -23.9054  -10.4286   21.0406 C   0  0  0  0  0  0
  -24.3611   -9.4204   21.9186 C   0  0  0  0  0  0
  -23.6293   -8.2236   22.0754 C   0  0  0  0  0  0
  -22.4279   -8.0269   21.3541 C   0  0  0  0  0  0
  -21.9905   -9.0239   20.4642 C   0  0  0  0  0  0
  -22.7228  -10.2123   20.3049 C   0  0  0  0  0  0
  -21.6843   -6.0733   22.5281 C   0  0  0  0  0  0
  -21.4012   -6.5638   23.8215 C   0  0  0  0  0  0
  -21.3666   -5.6795   24.9179 C   0  0  0  0  0  0
  -21.6039   -4.3055   24.7228 C   0  0  0  0  0  0
  -21.8820   -3.8146   23.4349 C   0  0  0  0  0  0
  -21.9195   -4.6963   22.3406 C   0  0  0  0  0  0
  -22.7821  -13.5218   21.1876 C   0  0  0  0  0  0
  -22.1661   -4.2149   21.0982 F   0  0  0  0  0  0
  -21.5631   -3.4538   25.7739 F   0  0  0  0  0  0
  -29.9833  -13.5106   20.3895 N   0  0  0  0  0  0
  -26.2921  -12.9370   20.3268 N   0  0  0  0  0  0
  -25.9306  -11.6519   20.5752 N   0  0  0  0  0  0
  -22.0463  -12.8211   22.0428 N   0  0  0  0  0  0
  -25.4188  -15.1900   20.4083 N   0  0  0  0  0  0
  -31.8049  -14.8348   20.1982 O   0  0  0  0  0  0
  -21.6638   -6.8871   21.4239 O   0  0  0  0  0  0
  -22.3514  -14.5531   20.6726 O   0  0  0  0  0  0
  -24.6322  -31.8539   23.1964 C   0  0  0  0  0  0
  -25.9153  -32.4746   23.8309 C   0  0  1  0  0  0
  -27.2204  -27.2608   20.1395 C   0  0  0  0  0  0
  -25.5951  -33.8551   24.2243 N   0  0  0  0  0  0
  -23.4291  -30.4757   21.5387 C   0  0  2  0  0  0
  -24.8761  -28.9177   20.1129 C   0  0  0  0  0  0
  -22.7500  -29.4605   22.4894 C   0  0  0  0  0  0
  -18.0294  -28.1388   22.8484 C   0  0  0  0  0  0
  -24.1486  -36.7273   23.2641 C   0  0  0  0  0  0
  -25.9741  -30.7702   21.3729 C   0  0  0  0  0  0
  -26.0484  -29.3913   20.7167 C   0  0  0  0  0  0
  -27.2269  -28.5782   20.7104 C   0  0  0  0  0  0
  -26.0258  -26.8474   19.5164 C   0  0  0  0  0  0
  -24.8699  -27.6550   19.4985 C   0  0  0  0  0  0
  -23.6471  -29.8059   20.1563 C   0  0  0  0  0  0
  -25.4112  -36.3058   24.0324 C   0  0  1  0  0  0
  -20.5896  -28.3705   23.1255 C   0  0  2  0  0  0
  -20.6774  -26.9418   22.5409 C   0  0  0  0  0  0
  -19.5748  -26.6385   21.5206 C   0  0  0  0  0  0
  -18.1931  -26.7934   22.1622 C   0  0  0  0  0  0
  -19.1545  -28.8861   23.2870 C   0  0  0  0  0  0
  -18.9476  -30.1466   23.8886 C   0  0  0  0  0  0
  -17.6474  -30.6591   24.0565 C   0  0  0  0  0  0
  -25.9060  -34.9436   23.5080 C   0  0  0  0  0  0
  -16.5361  -29.9091   23.6337 C   0  0  0  0  0  0
  -16.7281  -28.6509   23.0348 C   0  0  0  0  0  0
  -26.4514  -31.6577   25.0708 C   0  0  0  0  0  0
  -25.3746  -31.3727   26.1436 C   0  0  0  0  0  0
  -27.0365  -30.2989   24.6202 C   0  0  0  0  0  0
  -27.6053  -32.4328   25.7495 C   0  0  0  0  0  0
  -27.5570  -37.1792   24.8468 C   0  0  0  0  0  0
  -21.4206  -29.3047   22.3639 N   0  0  0  0  0  0
  -26.4280  -37.3766   23.9414 N   0  0  0  0  0  0
  -24.6973  -31.0512   22.0927 N   0  0  0  0  0  0
  -23.4195  -28.8144   23.2994 O   0  0  0  0  0  0
  -28.3222  -26.3793   20.1437 O   0  0  0  0  0  0
  -26.5632  -34.8922   22.4648 O   0  0  0  0  0  0
  -23.5475  -32.1348   23.7271 O   0  0  0  0  0  0
  -29.3211  -18.4220   20.3087 C   0  0  0  0  0  0
  -31.2364  -17.6387   21.5796 C   0  0  0  0  0  0
  -30.7441  -20.0476   21.4174 C   0  0  0  0  0  0
  -30.1201  -17.2982   20.7838 C   0  0  0  0  0  0
  -29.6099  -19.8202   20.6058 C   0  0  0  0  0  0
  -31.5370  -18.9812   21.8917 C   0  0  0  0  0  0
  -28.1283  -22.5530   17.5024 C   0  0  0  0  0  0
  -30.1168  -23.9244   19.4047 C   0  0  0  0  0  0
  -27.7246  -23.5264   18.6244 C   0  0  0  0  0  0
  -28.1561  -24.9721   20.6569 C   0  0  0  0  0  0
  -28.6879  -22.2541   20.7081 C   0  0  0  0  0  0
  -28.6692  -23.6491   19.8513 C   0  0  2  0  0  0
  -29.7958  -15.8622   20.5669 N   0  0  0  0  0  0
  -28.8672  -20.9122   20.0604 O   0  0  0  0  0  0
  -32.6150  -19.2533   22.6657 F   0  0  0  0  0  0
  -31.4737  -12.5824   19.1597 H   0  0  0  0  0  0
  -30.3807  -11.4738   19.9455 H   0  0  0  0  0  0
  -29.7867  -11.7291   17.5112 H   0  0  0  0  0  0
  -29.6316  -13.4567   17.7143 H   0  0  0  0  0  0
  -27.8930  -11.2761   18.9114 H   0  0  0  0  0  0
  -27.3732  -12.5119   17.7978 H   0  0  0  0  0  0
  -27.6313  -14.2463   19.4651 H   0  0  0  0  0  0
  -28.7243  -12.1553   21.4105 H   0  0  0  0  0  0
  -28.4271  -13.8333   21.7936 H   0  0  0  0  0  0
  -25.2747   -9.5693   22.4775 H   0  0  0  0  0  0
  -24.0005   -7.4621   22.7469 H   0  0  0  0  0  0
  -21.0838   -8.8746   19.8941 H   0  0  0  0  0  0
  -22.3672  -10.9664   19.6166 H   0  0  0  0  0  0
  -21.1997   -7.6146   23.9719 H   0  0  0  0  0  0
  -21.1491   -6.0524   25.9084 H   0  0  0  0  0  0
  -22.0594   -2.7608   23.2846 H   0  0  0  0  0  0
  -22.4078  -11.9875   22.4819 H   0  0  0  0  0  0
  -21.1074  -13.1229   22.2616 H   0  0  0  0  0  0
  -24.6449  -15.8380   20.5082 H   0  0  0  0  0  0
  -26.2534  -15.6292   20.0435 H   0  0  0  0  0  0
  -26.7224  -32.5395   23.1057 H   0  0  0  0  0  0
  -25.0114  -33.9682   25.0396 H   0  0  0  0  0  0
  -22.7269  -31.2982   21.3888 H   0  0  0  0  0  0
  -23.3753  -35.9604   23.3304 H   0  0  0  0  0  0
  -24.3568  -36.8897   22.2056 H   0  0  0  0  0  0
  -23.7245  -37.6472   23.6669 H   0  0  0  0  0  0
  -26.1131  -31.5323   20.6044 H   0  0  0  0  0  0
  -26.8513  -30.8184   22.0072 H   0  0  0  0  0  0
  -28.1292  -28.9409   21.1820 H   0  0  0  0  0  0
  -25.9754  -25.8757   19.0476 H   0  0  0  0  0  0
  -23.9740  -27.2858   19.0191 H   0  0  0  0  0  0
  -23.7740  -30.5801   19.3988 H   0  0  0  0  0  0
  -22.7661  -29.2387   19.8504 H   0  0  0  0  0  0
  -25.1298  -36.1886   25.0817 H   0  0  0  0  0  0
  -20.9996  -28.3287   24.1374 H   0  0  0  0  0  0
  -20.5647  -26.2319   23.3617 H   0  0  0  0  0  0
  -21.6643  -26.7420   22.1211 H   0  0  0  0  0  0
  -19.6913  -25.6295   21.1241 H   0  0  0  0  0  0
  -19.6686  -27.3192   20.6733 H   0  0  0  0  0  0
  -17.4194  -26.6681   21.4026 H   0  0  0  0  0  0
  -18.0333  -26.0074   22.9016 H   0  0  0  0  0  0
  -19.7954  -30.7282   24.2237 H   0  0  0  0  0  0
  -17.5035  -31.6265   24.5178 H   0  0  0  0  0  0
  -15.5365  -30.2990   23.7672 H   0  0  0  0  0  0
  -15.8678  -28.0834   22.7058 H   0  0  0  0  0  0
  -24.5929  -30.7058   25.7778 H   0  0  0  0  0  0
  -24.8937  -32.2897   26.4847 H   0  0  0  0  0  0
  -25.8082  -30.8925   27.0220 H   0  0  0  0  0  0
  -26.2951  -29.6725   24.1225 H   0  0  0  0  0  0
  -27.4040  -29.7257   25.4727 H   0  0  0  0  0  0
  -27.8830  -30.4245   23.9446 H   0  0  0  0  0  0
  -27.2638  -33.3635   26.2038 H   0  0  0  0  0  0
  -28.3888  -32.6881   25.0348 H   0  0  0  0  0  0
  -28.0695  -31.8484   26.5446 H   0  0  0  0  0  0
  -28.2589  -38.0087   24.7507 H   0  0  0  0  0  0
  -28.1061  -36.2618   24.6294 H   0  0  0  0  0  0
  -27.2292  -37.1440   25.8874 H   0  0  0  0  0  0
  -20.9390  -29.8781   21.6854 H   0  0  0  0  0  0
  -26.0148  -38.2836   24.1422 H   0  0  0  0  0  0
  -28.4585  -18.2131   19.6915 H   0  0  0  0  0  0
  -31.8751  -16.8678   21.9866 H   0  0  0  0  0  0
  -31.0575  -21.0489   21.6679 H   0  0  0  0  0  0
  -28.1861  -21.5211   17.8398 H   0  0  0  0  0  0
  -29.0864  -22.8193   17.0568 H   0  0  0  0  0  0
  -27.3864  -22.5767   16.7043 H   0  0  0  0  0  0
  -30.1695  -24.7663   18.7138 H   0  0  0  0  0  0
  -30.5576  -23.0560   18.9144 H   0  0  0  0  0  0
  -30.7491  -24.1624   20.2604 H   0  0  0  0  0  0
  -26.7223  -23.2684   18.9712 H   0  0  0  0  0  0
  -27.6304  -24.5086   18.1604 H   0  0  0  0  0  0
  -27.1120  -24.8138   20.9302 H   0  0  0  0  0  0
  -28.6725  -24.9703   21.6172 H   0  0  0  0  0  0
  -27.7179  -22.1807   21.2022 H   0  0  0  0  0  0
  -29.3877  -22.3755   21.5324 H   0  0  0  0  0  0
  -28.8119  -15.6499   20.5173 H   0  0  0  0  0  0
  1 25  1  0  0  0
  1 30  2  0  0  0
  1 83  1  0  0  0
  2  3  1  0  0  0
  2 25  1  0  0  0
  2 86  1  0  0  0
  2 87  1  0  0  0
  3  4  1  0  0  0
  3 88  1  0  0  0
  3 89  1  0  0  0
  4  5  1  0  0  0
  4 90  1  0  0  0
  4 91  1  0  0  0
  5  6  1  0  0  0
  5 26  1  0  0  0
  5 92  1  0  0  0
  6 25  1  0  0  0
  6 93  1  0  0  0
  6 94  1  0  0  0
  7  8  2  0  0  0
  7 26  1  0  0  0
  7 29  1  0  0  0
  8  9  1  0  0  0
  8 22  1  0  0  0
  9 10  1  0  0  0
  9 27  2  0  0  0
 10 11  2  0  0  0
 10 15  1  0  0  0
 11 12  1  0  0  0
 11 95  1  0  0  0
 12 13  2  0  0  0
 12 96  1  0  0  0
 13 14  1  0  0  0
 13 31  1  0  0  0
 14 15  2  0  0  0
 14 97  1  0  0  0
 15 98  1  0  0  0
 16 17  2  0  0  0
 16 21  1  0  0  0
 16 31  1  0  0  0
 17 18  1  0  0  0
 17 99  1  0  0  0
 18 19  2  0  0  0
 18100  1  0  0  0
 19 20  1  0  0  0
 19 24  1  0  0  0
 20 21  2  0  0  0
 20101  1  0  0  0
 21 23  1  0  0  0
 22 28  1  0  0  0
 22 32  2  0  0  0
 26 27  1  0  0  0
 28102  1  0  0  0
 28103  1  0  0  0
 29104  1  0  0  0
 29105  1  0  0  0
 33 34  1  0  0  0
 33 66  1  0  0  0
 33 70  2  0  0  0
 34 36  1  0  0  0
 34 59  1  0  0  0
 34106  1  0  0  0
 35 44  2  0  0  0
 35 45  1  0  0  0
 35 68  1  0  0  0
 36 56  1  0  0  0
 36107  1  0  0  0
 37 39  1  0  0  0
 37 47  1  0  0  0
 37 66  1  0  0  0
 37108  1  0  0  0
 38 43  2  0  0  0
 38 46  1  0  0  0
 38 47  1  0  0  0
 39 64  1  0  0  0
 39 67  2  0  0  0
 40 52  1  0  0  0
 40 53  2  0  0  0
 40 58  1  0  0  0
 41109  1  0  0  0
 41110  1  0  0  0
 41111  1  0  0  0
 41 48  1  0  0  0
 42 43  1  0  0  0
 42 66  1  0  0  0
 42112  1  0  0  0
 42113  1  0  0  0
 43 44  1  0  0  0
 44114  1  0  0  0
 45 46  2  0  0  0
 45115  1  0  0  0
 46116  1  0  0  0
 47117  1  0  0  0
 47118  1  0  0  0
 48 56  1  0  0  0
 48 65  1  0  0  0
 48119  1  0  0  0
 49 50  1  0  0  0
 49 53  1  0  0  0
 49 64  1  0  0  0
 49120  1  0  0  0
 50 51  1  0  0  0
 50121  1  0  0  0
 50122  1  0  0  0
 51 52  1  0  0  0
 51123  1  0  0  0
 51124  1  0  0  0
 52125  1  0  0  0
 52126  1  0  0  0
 53 54  1  0  0  0
 54 55  2  0  0  0
 54127  1  0  0  0
 55 57  1  0  0  0
 55128  1  0  0  0
 56 69  2  0  0  0
 57 58  2  0  0  0
 57129  1  0  0  0
 58130  1  0  0  0
 59 60  1  0  0  0
 59 61  1  0  0  0
 59 62  1  0  0  0
 60131  1  0  0  0
 60132  1  0  0  0
 60133  1  0  0  0
 61134  1  0  0  0
 61135  1  0  0  0
 61136  1  0  0  0
 62137  1  0  0  0
 62138  1  0  0  0
 62139  1  0  0  0
 63 65  1  0  0  0
 63140  1  0  0  0
 63141  1  0  0  0
 63142  1  0  0  0
 64143  1  0  0  0
 65144  1  0  0  0
 68 80  1  0  0  0
 71 74  2  0  0  0
 71 75  1  0  0  0
 71145  1  0  0  0
 72 74  1  0  0  0
 72 76  2  0  0  0
 72146  1  0  0  0
 73 75  2  0  0  0
 73 76  1  0  0  0
 73147  1  0  0  0
 74 83  1  0  0  0
 75 84  1  0  0  0
 76 85  1  0  0  0
 77 79  1  0  0  0
 77148  1  0  0  0
 77149  1  0  0  0
 77150  1  0  0  0
 78151  1  0  0  0
 78152  1  0  0  0
 78153  1  0  0  0
 78 82  1  0  0  0
 79 82  1  0  0  0
 79154  1  0  0  0
 79155  1  0  0  0
 80 82  1  0  0  0
 80156  1  0  0  0
 80157  1  0  0  0
 81 82  1  0  0  0
 81 84  1  0  0  0
 81158  1  0  0  0
 81159  1  0  0  0
 83160  1  0  0  0
M  ISO  4   1 100  68 101  80 101  83 100
M  END
> <chiral flag>
0

> <version>
0

> <s_m_source_file>
/data/baiqing/PycharmProjects/Reinvent-master-3.2/result/LINK_invent/BTK/process_docking_weight1_custom_product_contain_oxygen_bond_distance_aromatic_linkinvent_7_9_3/rearranged_h_0137.sdf

> <i_m_source_file_index>
2

> <r_mmod_Potential_Energy-OPLS-2005>
257.422271728516

> <r_mmod_Stretch_Energy-OPLS-2005>
130.214141845703

> <r_mmod_Bend_Energy-OPLS-2005>
178.171676635742

> <r_mmod_Torsional_Energy-OPLS-2005>
261.971130371094

> <r_mmod_Improper_Torsional_Energy-OPLS-2005>
7.03430652618408

> <r_mmod_Van_der_Waal_Energy-OPLS-2005>
133.840728759766

> <r_mmod_Electrostatic_Energy-OPLS-2005>
-334.797058105469

> <r_mmod_Solvation_Energy-OPLS-2005>
-201.808654785156

> <b_mmod_Minimization_Converged-OPLS-2005>
0

> <r_mmod_RMS_Derivative-OPLS-2005>
1.32101345062256

$$$$
2
                    3D
 Structure written by MMmdl.
160168  0  0  1  0            999 V2000
  -30.5608  -14.7864   20.4580 C   0  0  0  0  0  0
  -30.4497  -12.4820   19.5201 C   0  0  0  0  0  0
  -29.5332  -12.5343   18.2752 C   0  0  0  0  0  0
  -28.0791  -12.2751   18.6976 C   0  0  0  0  0  0
  -27.6459  -13.2169   19.8489 C   0  0  2  0  0  0
  -28.6615  -13.2135   21.0119 C   0  0  0  0  0  0
  -25.2545  -13.8155   20.5599 C   0  0  0  0  0  0
  -24.1787  -13.0420   20.9163 C   0  0  0  0  0  0
  -24.6389  -11.6921   20.8745 C   0  0  0  0  0  0
  -23.9057  -10.4289   21.0401 C   0  0  0  0  0  0
  -24.3622   -9.4224   21.9185 C   0  0  0  0  0  0
  -23.6307   -8.2251   22.0763 C   0  0  0  0  0  0
  -22.4275   -8.0285   21.3555 C   0  0  0  0  0  0
  -21.9900   -9.0243   20.4657 C   0  0  0  0  0  0
  -22.7228  -10.2145   20.3058 C   0  0  0  0  0  0
  -21.6875   -6.0755   22.5279 C   0  0  0  0  0  0
  -21.4010   -6.5649   23.8199 C   0  0  0  0  0  0
  -21.3651   -5.6825   24.9159 C   0  0  0  0  0  0
  -21.6034   -4.3067   24.7231 C   0  0  0  0  0  0
  -21.8837   -3.8162   23.4335 C   0  0  0  0  0  0
  -21.9200   -4.6983   22.3393 C   0  0  0  0  0  0
  -22.7839  -13.5235   21.1840 C   0  0  0  0  0  0
  -22.1676   -4.2151   21.0984 F   0  0  0  0  0  0
  -21.5625   -3.4548   25.7745 F   0  0  0  0  0  0
  -29.9871  -13.5360   20.4631 N   0  0  0  0  0  0
  -26.2938  -12.9345   20.3195 N   0  0  0  0  0  0
  -25.9305  -11.6508   20.5701 N   0  0  0  0  0  0
  -22.0492  -12.8189   22.0407 N   0  0  0  0  0  0
  -25.4196  -15.1883   20.3947 N   0  0  0  0  0  0
  -31.7112  -14.9248   20.0182 O   0  0  0  0  0  0
  -21.6648   -6.8875   21.4235 O   0  0  0  0  0  0
  -22.3544  -14.5508   20.6706 O   0  0  0  0  0  0
  -24.6423  -31.8497   23.1874 C   0  0  0  0  0  0
  -25.9143  -32.4807   23.8284 C   0  0  1  0  0  0
  -27.2305  -27.2313   20.1659 C   0  0  0  0  0  0
  -25.5889  -33.8599   24.2259 N   0  0  0  0  0  0
  -23.4458  -30.4600   21.5480 C   0  0  2  0  0  0
  -24.8823  -28.8793   20.1523 C   0  0  0  0  0  0
  -22.7530  -29.4579   22.4991 C   0  0  0  0  0  0
  -18.0390  -28.1241   22.8488 C   0  0  0  0  0  0
  -24.1487  -36.7378   23.2645 C   0  0  0  0  0  0
  -25.9836  -30.7693   21.3447 C   0  0  0  0  0  0
  -26.0679  -29.3762   20.7166 C   0  0  0  0  0  0
  -27.2504  -28.5755   20.6885 C   0  0  0  0  0  0
  -26.0152  -26.7868   19.6260 C   0  0  0  0  0  0
  -24.8572  -27.5873   19.6042 C   0  0  0  0  0  0
  -23.6677  -29.7765   20.1751 C   0  0  0  0  0  0
  -25.4093  -36.3163   24.0361 C   0  0  1  0  0  0
  -20.5956  -28.3678   23.1253 C   0  0  2  0  0  0
  -20.7030  -26.9511   22.5041 C   0  0  0  0  0  0
  -19.5792  -26.6208   21.5154 C   0  0  0  0  0  0
  -18.2058  -26.7751   22.1684 C   0  0  0  0  0  0
  -19.1596  -28.8749   23.2893 C   0  0  0  0  0  0
  -18.9498  -30.1309   23.8955 C   0  0  0  0  0  0
  -17.6480  -30.6448   24.0614 C   0  0  0  0  0  0
  -25.9028  -34.9518   23.5152 C   0  0  0  0  0  0
  -16.5410  -29.8928   23.6340 C   0  0  0  0  0  0
  -16.7359  -28.6372   23.0348 C   0  0  0  0  0  0
  -26.4509  -31.6648   25.0712 C   0  0  0  0  0  0
  -25.3733  -31.3805   26.1448 C   0  0  0  0  0  0
  -27.0271  -30.3070   24.6118 C   0  0  0  0  0  0
  -27.6128  -32.4331   25.7513 C   0  0  0  0  0  0
  -27.5586  -37.1852   24.8441 C   0  0  0  0  0  0
  -21.4178  -29.3312   22.3940 N   0  0  0  0  0  0
  -26.4282  -37.3847   23.9424 N   0  0  0  0  0  0
  -24.7185  -31.0453   22.0883 N   0  0  0  0  0  0
  -23.4188  -28.7817   23.2912 O   0  0  0  0  0  0
  -28.3412  -26.3514   20.1128 O   0  0  0  0  0  0
  -26.5642  -34.8973   22.4737 O   0  0  0  0  0  0
  -23.5558  -32.1254   23.7138 O   0  0  0  0  0  0
  -29.1286  -17.1567   18.7946 C   0  0  0  0  0  0
  -28.7268  -19.5960   18.7621 C   0  0  0  0  0  0
  -29.4272  -18.4753   20.8014 C   0  0  0  0  0  0
  -28.6868  -18.3296   18.1244 C   0  0  0  0  0  0
  -29.5313  -17.1747   20.1607 C   0  0  0  0  0  0
  -29.0590  -19.7143   20.1284 C   0  0  0  0  0  0
  -28.0547  -18.2333   16.7416 C   0  0  0  0  0  0
  -27.6447  -23.6270   18.6202 C   0  0  0  0  0  0
  -26.7001  -23.0484   20.8173 C   0  0  0  0  0  0
  -28.3305  -24.9860   20.7697 C   0  0  0  0  0  0
  -29.1212  -22.3158   20.2473 C   0  0  0  0  0  0
  -27.9951  -23.5059   20.1151 C   0  0  0  0  0  0
  -29.8017  -15.8844   20.8638 N   0  0  0  0  0  0
  -28.8814  -20.9461   20.8191 O   0  0  0  0  0  0
  -31.4893  -12.6250   19.2068 H   0  0  0  0  0  0
  -30.4275  -11.4988   19.9983 H   0  0  0  0  0  0
  -29.8605  -11.8168   17.5218 H   0  0  0  0  0  0
  -29.6087  -13.5230   17.8182 H   0  0  0  0  0  0
  -28.0190  -11.2379   19.0364 H   0  0  0  0  0  0
  -27.4062  -12.3488   17.8447 H   0  0  0  0  0  0
  -27.6323  -14.2215   19.4259 H   0  0  0  0  0  0
  -28.6734  -12.2641   21.5489 H   0  0  0  0  0  0
  -28.3539  -13.9634   21.7446 H   0  0  0  0  0  0
  -25.2770   -9.5731   22.4732 H   0  0  0  0  0  0
  -24.0035   -7.4669   22.7489 H   0  0  0  0  0  0
  -21.0820   -8.8766   19.8960 H   0  0  0  0  0  0
  -22.3667  -10.9685   19.6154 H   0  0  0  0  0  0
  -21.2003   -7.6153   23.9698 H   0  0  0  0  0  0
  -21.1449   -6.0536   25.9064 H   0  0  0  0  0  0
  -22.0614   -2.7610   23.2842 H   0  0  0  0  0  0
  -22.4110  -11.9873   22.4813 H   0  0  0  0  0  0
  -21.1109  -13.1231   22.2590 H   0  0  0  0  0  0
  -24.6398  -15.8297   20.4921 H   0  0  0  0  0  0
  -26.2616  -15.6387   20.0530 H   0  0  0  0  0  0
  -26.7223  -32.5394   23.1025 H   0  0  0  0  0  0
  -24.9949  -33.9720   25.0356 H   0  0  0  0  0  0
  -22.7530  -31.2887   21.3867 H   0  0  0  0  0  0
  -23.3764  -35.9700   23.3290 H   0  0  0  0  0  0
  -24.3572  -36.9009   22.2060 H   0  0  0  0  0  0
  -23.7199  -37.6568   23.6653 H   0  0  0  0  0  0
  -26.0621  -31.5021   20.5438 H   0  0  0  0  0  0
  -26.8823  -30.8600   21.9454 H   0  0  0  0  0  0
  -28.1688  -28.9770   21.0922 H   0  0  0  0  0  0
  -25.9482  -25.7764   19.2596 H   0  0  0  0  0  0
  -23.9397  -27.1683   19.2177 H   0  0  0  0  0  0
  -23.8223  -30.5457   19.4191 H   0  0  0  0  0  0
  -22.7856  -29.2258   19.8446 H   0  0  0  0  0  0
  -25.1267  -36.2091   25.0865 H   0  0  0  0  0  0
  -21.0062  -28.3089   24.1357 H   0  0  0  0  0  0
  -20.6551  -26.2198   23.3117 H   0  0  0  0  0  0
  -21.6789  -26.7988   22.0403 H   0  0  0  0  0  0
  -19.6986  -25.6014   21.1437 H   0  0  0  0  0  0
  -19.6558  -27.2776   20.6475 H   0  0  0  0  0  0
  -17.4226  -26.6376   21.4221 H   0  0  0  0  0  0
  -18.0662  -25.9924   22.9167 H   0  0  0  0  0  0
  -19.7979  -30.7087   24.2408 H   0  0  0  0  0  0
  -17.5024  -31.6057   24.5306 H   0  0  0  0  0  0
  -15.5406  -30.2759   23.7678 H   0  0  0  0  0  0
  -15.8774  -28.0629   22.7091 H   0  0  0  0  0  0
  -24.5990  -30.7075   25.7774 H   0  0  0  0  0  0
  -24.8833  -32.2965   26.4764 H   0  0  0  0  0  0
  -25.8050  -30.9086   27.0278 H   0  0  0  0  0  0
  -26.2764  -29.6913   24.1182 H   0  0  0  0  0  0
  -27.3975  -29.7276   25.4564 H   0  0  0  0  0  0
  -27.8626  -30.4351   23.9246 H   0  0  0  0  0  0
  -27.2818  -33.3643   26.2103 H   0  0  0  0  0  0
  -28.3962  -32.6836   25.0369 H   0  0  0  0  0  0
  -28.0768  -31.8421   26.5416 H   0  0  0  0  0  0
  -28.2638  -38.0126   24.7508 H   0  0  0  0  0  0
  -28.1055  -36.2672   24.6248 H   0  0  0  0  0  0
  -27.2318  -37.1494   25.8843 H   0  0  0  0  0  0
  -20.9288  -29.9681   21.7750 H   0  0  0  0  0  0
  -26.0222  -38.2959   24.1392 H   0  0  0  0  0  0
  -29.0904  -16.2133   18.2677 H   0  0  0  0  0  0
  -28.4198  -20.4751   18.2104 H   0  0  0  0  0  0
  -29.6224  -18.5301   21.8608 H   0  0  0  0  0  0
  -27.8520  -17.2004   16.4610 H   0  0  0  0  0  0
  -28.6779  -18.6735   15.9642 H   0  0  0  0  0  0
  -27.0920  -18.7531   16.7353 H   0  0  0  0  0  0
  -26.6361  -24.0038   18.4745 H   0  0  0  0  0  0
  -27.6660  -22.6483   18.1429 H   0  0  0  0  0  0
  -28.3380  -24.2758   18.0853 H   0  0  0  0  0  0
  -26.8854  -22.7909   21.8633 H   0  0  0  0  0  0
  -26.2191  -22.1980   20.3300 H   0  0  0  0  0  0
  -25.9745  -23.8623   20.8037 H   0  0  0  0  0  0
  -27.7274  -25.1040   21.6736 H   0  0  0  0  0  0
  -29.3174  -24.8987   21.2187 H   0  0  0  0  0  0
  -29.8695  -22.7212   20.9250 H   0  0  0  0  0  0
  -29.6901  -22.2143   19.3228 H   0  0  0  0  0  0
  -29.0833  -15.6221   21.5214 H   0  0  0  0  0  0
  1 25  1  0  0  0
  1 30  2  0  0  0
  1 83  1  0  0  0
  2  3  1  0  0  0
  2 25  1  0  0  0
  2 85  1  0  0  0
  2 86  1  0  0  0
  3  4  1  0  0  0
  3 87  1  0  0  0
  3 88  1  0  0  0
  4  5  1  0  0  0
  4 89  1  0  0  0
  4 90  1  0  0  0
  5  6  1  0  0  0
  5 26  1  0  0  0
  5 91  1  0  0  0
  6 25  1  0  0  0
  6 92  1  0  0  0
  6 93  1  0  0  0
  7  8  2  0  0  0
  7 26  1  0  0  0
  7 29  1  0  0  0
  8  9  1  0  0  0
  8 22  1  0  0  0
  9 10  1  0  0  0
  9 27  2  0  0  0
 10 11  2  0  0  0
 10 15  1  0  0  0
 11 12  1  0  0  0
 11 94  1  0  0  0
 12 13  2  0  0  0
 12 95  1  0  0  0
 13 14  1  0  0  0
 13 31  1  0  0  0
 14 15  2  0  0  0
 14 96  1  0  0  0
 15 97  1  0  0  0
 16 17  2  0  0  0
 16 21  1  0  0  0
 16 31  1  0  0  0
 17 18  1  0  0  0
 17 98  1  0  0  0
 18 19  2  0  0  0
 18 99  1  0  0  0
 19 20  1  0  0  0
 19 24  1  0  0  0
 20 21  2  0  0  0
 20100  1  0  0  0
 21 23  1  0  0  0
 22 28  1  0  0  0
 22 32  2  0  0  0
 26 27  1  0  0  0
 28101  1  0  0  0
 28102  1  0  0  0
 29103  1  0  0  0
 29104  1  0  0  0
 33 34  1  0  0  0
 33 66  1  0  0  0
 33 70  2  0  0  0
 34 36  1  0  0  0
 34 59  1  0  0  0
 34105  1  0  0  0
 35 44  2  0  0  0
 35 45  1  0  0  0
 35 68  1  0  0  0
 36 56  1  0  0  0
 36106  1  0  0  0
 37 39  1  0  0  0
 37 47  1  0  0  0
 37 66  1  0  0  0
 37107  1  0  0  0
 38 43  2  0  0  0
 38 46  1  0  0  0
 38 47  1  0  0  0
 39 64  1  0  0  0
 39 67  2  0  0  0
 40 52  1  0  0  0
 40 53  2  0  0  0
 40 58  1  0  0  0
 41108  1  0  0  0
 41109  1  0  0  0
 41110  1  0  0  0
 41 48  1  0  0  0
 42 43  1  0  0  0
 42 66  1  0  0  0
 42111  1  0  0  0
 42112  1  0  0  0
 43 44  1  0  0  0
 44113  1  0  0  0
 45 46  2  0  0  0
 45114  1  0  0  0
 46115  1  0  0  0
 47116  1  0  0  0
 47117  1  0  0  0
 48 56  1  0  0  0
 48 65  1  0  0  0
 48118  1  0  0  0
 49 50  1  0  0  0
 49 53  1  0  0  0
 49 64  1  0  0  0
 49119  1  0  0  0
 50 51  1  0  0  0
 50120  1  0  0  0
 50121  1  0  0  0
 51 52  1  0  0  0
 51122  1  0  0  0
 51123  1  0  0  0
 52124  1  0  0  0
 52125  1  0  0  0
 53 54  1  0  0  0
 54 55  2  0  0  0
 54126  1  0  0  0
 55 57  1  0  0  0
 55127  1  0  0  0
 56 69  2  0  0  0
 57 58  2  0  0  0
 57128  1  0  0  0
 58129  1  0  0  0
 59 60  1  0  0  0
 59 61  1  0  0  0
 59 62  1  0  0  0
 60130  1  0  0  0
 60131  1  0  0  0
 60132  1  0  0  0
 61133  1  0  0  0
 61134  1  0  0  0
 61135  1  0  0  0
 62136  1  0  0  0
 62137  1  0  0  0
 62138  1  0  0  0
 63 65  1  0  0  0
 63139  1  0  0  0
 63140  1  0  0  0
 63141  1  0  0  0
 64142  1  0  0  0
 65143  1  0  0  0
 68 80  1  0  0  0
 71 74  2  0  0  0
 71 75  1  0  0  0
 71144  1  0  0  0
 72 74  1  0  0  0
 72 76  2  0  0  0
 72145  1  0  0  0
 73 75  2  0  0  0
 73 76  1  0  0  0
 73146  1  0  0  0
 74 77  1  0  0  0
 75 83  1  0  0  0
 76 84  1  0  0  0
 77147  1  0  0  0
 77148  1  0  0  0
 77149  1  0  0  0
 78150  1  0  0  0
 78151  1  0  0  0
 78152  1  0  0  0
 78 82  1  0  0  0
 79 82  1  0  0  0
 79153  1  0  0  0
 79154  1  0  0  0
 79155  1  0  0  0
 80 82  1  0  0  0
 80156  1  0  0  0
 80157  1  0  0  0
 81 82  1  0  0  0
 81 84  1  0  0  0
 81158  1  0  0  0
 81159  1  0  0  0
 83160  1  0  0  0
M  ISO  4   1 100  68 101  80 101  83 100
M  END
> <chiral flag>
0

> <version>
0

> <s_m_source_file>
/data/baiqing/PycharmProjects/Reinvent-master-3.2/result/LINK_invent/BTK/process_docking_weight1_custom_product_contain_oxygen_bond_distance_aromatic_linkinvent_7_9_3/rearranged_h_0137.sdf

> <i_m_source_file_index>
3

> <r_mmod_Potential_Energy-OPLS-2005>
364.525054931641

> <r_mmod_Stretch_Energy-OPLS-2005>
145.093276977539

> <r_mmod_Bend_Energy-OPLS-2005>
214.847991943359

> <r_mmod_Torsional_Energy-OPLS-2005>
315.375091552734

> <r_mmod_Improper_Torsional_Energy-OPLS-2005>
6.75856065750122

> <r_mmod_Van_der_Waal_Energy-OPLS-2005>
130.140213012695

> <r_mmod_Electrostatic_Energy-OPLS-2005>
-352.952178955078

> <r_mmod_Solvation_Energy-OPLS-2005>
-206.00114440918

> <b_mmod_Minimization_Converged-OPLS-2005>
0

> <r_mmod_RMS_Derivative-OPLS-2005>
12.3332052230835

$$$$
3
                    3D
 Structure written by MMmdl.
160168  0  0  1  0            999 V2000
  -30.5710  -14.7427   20.4486 C   0  0  0  0  0  0
  -30.4429  -12.4491   19.4565 C   0  0  0  0  0  0
  -29.5100  -12.4950   18.2252 C   0  0  0  0  0  0
  -28.0385  -12.3012   18.6501 C   0  0  0  0  0  0
  -27.6348  -13.2179   19.8349 C   0  0  2  0  0  0
  -28.6814  -13.1529   20.9669 C   0  0  0  0  0  0
  -25.2514  -13.8163   20.5714 C   0  0  0  0  0  0
  -24.1796  -13.0413   20.9227 C   0  0  0  0  0  0
  -24.6373  -11.6896   20.8751 C   0  0  0  0  0  0
  -23.9056  -10.4279   21.0426 C   0  0  0  0  0  0
  -24.3617   -9.4189   21.9188 C   0  0  0  0  0  0
  -23.6292   -8.2228   22.0751 C   0  0  0  0  0  0
  -22.4271   -8.0280   21.3549 C   0  0  0  0  0  0
  -21.9907   -9.0256   20.4653 C   0  0  0  0  0  0
  -22.7244  -10.2127   20.3063 C   0  0  0  0  0  0
  -21.6840   -6.0741   22.5285 C   0  0  0  0  0  0
  -21.4011   -6.5638   23.8223 C   0  0  0  0  0  0
  -21.3660   -5.6783   24.9176 C   0  0  0  0  0  0
  -21.6047   -4.3048   24.7220 C   0  0  0  0  0  0
  -21.8820   -3.8147   23.4335 C   0  0  0  0  0  0
  -21.9188   -4.6970   22.3396 C   0  0  0  0  0  0
  -22.7832  -13.5215   21.1882 C   0  0  0  0  0  0
  -22.1660   -4.2169   21.0975 F   0  0  0  0  0  0
  -21.5629   -3.4524   25.7725 F   0  0  0  0  0  0
  -29.9788  -13.5069   20.3764 N   0  0  0  0  0  0
  -26.2899  -12.9328   20.3219 N   0  0  0  0  0  0
  -25.9279  -11.6482   20.5718 N   0  0  0  0  0  0
  -22.0463  -12.8227   22.0449 N   0  0  0  0  0  0
  -25.4203  -15.1891   20.4192 N   0  0  0  0  0  0
  -31.7839  -14.8711   20.2637 O   0  0  0  0  0  0
  -21.6620   -6.8892   21.4255 O   0  0  0  0  0  0
  -22.3527  -14.5521   20.6728 O   0  0  0  0  0  0
  -24.6296  -31.8561   23.1931 C   0  0  0  0  0  0
  -25.9113  -32.4765   23.8294 C   0  0  1  0  0  0
  -27.2244  -27.2669   20.1423 C   0  0  0  0  0  0
  -25.5923  -33.8556   24.2236 N   0  0  0  0  0  0
  -23.4282  -30.4768   21.5342 C   0  0  2  0  0  0
  -24.8796  -28.9195   20.1133 C   0  0  0  0  0  0
  -22.7509  -29.4602   22.4857 C   0  0  0  0  0  0
  -18.0304  -28.1391   22.8480 C   0  0  0  0  0  0
  -24.1479  -36.7255   23.2642 C   0  0  0  0  0  0
  -25.9739  -30.7731   21.3719 C   0  0  0  0  0  0
  -26.0502  -29.3930   20.7196 C   0  0  0  0  0  0
  -27.2293  -28.5817   20.7180 C   0  0  0  0  0  0
  -26.0343  -26.8569   19.5072 C   0  0  0  0  0  0
  -24.8757  -27.6585   19.4950 C   0  0  0  0  0  0
  -23.6505  -29.8060   20.1517 C   0  0  0  0  0  0
  -25.4111  -36.3066   24.0333 C   0  0  1  0  0  0
  -20.5910  -28.3695   23.1254 C   0  0  2  0  0  0
  -20.6776  -26.9406   22.5398 C   0  0  0  0  0  0
  -19.5751  -26.6383   21.5197 C   0  0  0  0  0  0
  -18.1941  -26.7932   22.1617 C   0  0  0  0  0  0
  -19.1561  -28.8856   23.2867 C   0  0  0  0  0  0
  -18.9484  -30.1454   23.8896 C   0  0  0  0  0  0
  -17.6484  -30.6584   24.0560 C   0  0  0  0  0  0
  -25.9055  -34.9448   23.5082 C   0  0  0  0  0  0
  -16.5371  -29.9094   23.6326 C   0  0  0  0  0  0
  -16.7294  -28.6507   23.0359 C   0  0  0  0  0  0
  -26.4516  -31.6588   25.0669 C   0  0  0  0  0  0
  -25.3764  -31.3738   26.1407 C   0  0  0  0  0  0
  -27.0348  -30.3010   24.6115 C   0  0  0  0  0  0
  -27.6073  -32.4350   25.7437 C   0  0  0  0  0  0
  -27.5569  -37.1769   24.8475 C   0  0  0  0  0  0
  -21.4215  -29.3041   22.3625 N   0  0  0  0  0  0
  -26.4281  -37.3769   23.9426 N   0  0  0  0  0  0
  -24.6963  -31.0541   22.0894 N   0  0  0  0  0  0
  -23.4232  -28.8139   23.2943 O   0  0  0  0  0  0
  -28.3206  -26.3764   20.1585 O   0  0  0  0  0  0
  -26.5625  -34.8938   22.4652 O   0  0  0  0  0  0
  -23.5449  -32.1360   23.7233 O   0  0  0  0  0  0
  -29.2956  -17.0533   22.3567 C   0  0  0  0  0  0
  -29.5150  -18.4405   20.3830 C   0  0  0  0  0  0
  -28.8373  -18.1742   23.0743 C   0  0  0  0  0  0
  -28.6848  -19.4546   22.4477 C   0  0  0  0  0  0
  -29.6047  -17.1232   20.9935 C   0  0  0  0  0  0
  -29.0913  -19.6547   21.0769 C   0  0  0  0  0  0
  -28.0332  -20.5638   23.2740 C   0  0  0  0  0  0
  -29.4382  -18.5557   25.5366 C   0  0  0  0  0  0
  -28.4710  -17.9075   24.5371 C   0  0  0  0  0  0
  -28.8018  -23.6464   20.0730 C   0  0  0  0  0  0
  -28.1086  -24.9833   20.6873 C   0  0  0  0  0  0
  -28.6590  -22.2547   20.8948 C   0  0  0  0  0  0
  -29.7161  -15.8233   20.3030 N   0  0  0  0  0  0
  -29.0796  -20.9124   20.3637 O   0  0  0  0  0  0
  -31.4827  -12.5963   19.1590 H   0  0  0  0  0  0
  -30.4038  -11.4734   19.9434 H   0  0  0  0  0  0
  -29.7974  -11.7281   17.5040 H   0  0  0  0  0  0
  -29.6232  -13.4524   17.7142 H   0  0  0  0  0  0
  -27.9161  -11.2575   18.9430 H   0  0  0  0  0  0
  -27.3706  -12.4583   17.8028 H   0  0  0  0  0  0
  -27.6174  -14.2315   19.4343 H   0  0  0  0  0  0
  -28.7178  -12.1559   21.4055 H   0  0  0  0  0  0
  -28.4158  -13.8376   21.7753 H   0  0  0  0  0  0
  -25.2759   -9.5652   22.4765 H   0  0  0  0  0  0
  -24.0001   -7.4596   22.7435 H   0  0  0  0  0  0
  -21.0847   -8.8789   19.8940 H   0  0  0  0  0  0
  -22.3721  -10.9676   19.6174 H   0  0  0  0  0  0
  -21.2016   -7.6143   23.9747 H   0  0  0  0  0  0
  -21.1479   -6.0496   25.9089 H   0  0  0  0  0  0
  -22.0603   -2.7613   23.2814 H   0  0  0  0  0  0
  -22.4039  -11.9880   22.4859 H   0  0  0  0  0  0
  -21.1090  -13.1291   22.2629 H   0  0  0  0  0  0
  -24.6577  -15.8433   20.5559 H   0  0  0  0  0  0
  -26.2773  -15.6414   20.1301 H   0  0  0  0  0  0
  -26.7159  -32.5429   23.1024 H   0  0  0  0  0  0
  -25.0151  -33.9700   25.0434 H   0  0  0  0  0  0
  -22.7221  -31.2958   21.3835 H   0  0  0  0  0  0
  -23.3771  -35.9553   23.3314 H   0  0  0  0  0  0
  -24.3571  -36.8859   22.2051 H   0  0  0  0  0  0
  -23.7204  -37.6452   23.6652 H   0  0  0  0  0  0
  -26.1081  -31.5340   20.6012 H   0  0  0  0  0  0
  -26.8543  -30.8307   21.9990 H   0  0  0  0  0  0
  -28.1286  -28.9433   21.1960 H   0  0  0  0  0  0
  -25.9851  -25.8908   19.0237 H   0  0  0  0  0  0
  -23.9827  -27.2895   19.0099 H   0  0  0  0  0  0
  -23.7766  -30.5770   19.3910 H   0  0  0  0  0  0
  -22.7747  -29.2337   19.8431 H   0  0  0  0  0  0
  -25.1293  -36.1904   25.0825 H   0  0  0  0  0  0
  -21.0021  -28.3260   24.1368 H   0  0  0  0  0  0
  -20.5639  -26.2308   23.3607 H   0  0  0  0  0  0
  -21.6651  -26.7393   22.1215 H   0  0  0  0  0  0
  -19.6904  -25.6296   21.1229 H   0  0  0  0  0  0
  -19.6692  -27.3190   20.6726 H   0  0  0  0  0  0
  -17.4203  -26.6686   21.4027 H   0  0  0  0  0  0
  -18.0335  -26.0083   22.9022 H   0  0  0  0  0  0
  -19.7968  -30.7255   24.2276 H   0  0  0  0  0  0
  -17.5051  -31.6269   24.5154 H   0  0  0  0  0  0
  -15.5380  -30.2997   23.7638 H   0  0  0  0  0  0
  -15.8699  -28.0813   22.7092 H   0  0  0  0  0  0
  -24.5927  -30.7099   25.7734 H   0  0  0  0  0  0
  -24.8981  -32.2910   26.4844 H   0  0  0  0  0  0
  -25.8120  -30.8909   27.0159 H   0  0  0  0  0  0
  -26.2887  -29.6766   24.1182 H   0  0  0  0  0  0
  -27.4127  -29.7242   25.4565 H   0  0  0  0  0  0
  -27.8732  -30.4332   23.9276 H   0  0  0  0  0  0
  -27.2671  -33.3650   26.2008 H   0  0  0  0  0  0
  -28.3876  -32.6927   25.0259 H   0  0  0  0  0  0
  -28.0743  -31.8483   26.5354 H   0  0  0  0  0  0
  -28.2600  -38.0054   24.7519 H   0  0  0  0  0  0
  -28.1062  -36.2589   24.6314 H   0  0  0  0  0  0
  -27.2289  -37.1412   25.8881 H   0  0  0  0  0  0
  -20.9393  -29.8814   21.6868 H   0  0  0  0  0  0
  -26.0158  -38.2832   24.1476 H   0  0  0  0  0  0
  -29.3314  -16.0912   22.8519 H   0  0  0  0  0  0
  -29.7426  -18.5285   19.3303 H   0  0  0  0  0  0
  -28.7601  -21.3229   23.5513 H   0  0  0  0  0  0
  -27.5926  -20.2331   24.2091 H   0  0  0  0  0  0
  -27.1875  -21.0009   22.7499 H   0  0  0  0  0  0
  -29.0987  -18.3817   26.5574 H   0  0  0  0  0  0
  -29.5266  -19.6332   25.3968 H   0  0  0  0  0  0
  -30.4352  -18.1222   25.4482 H   0  0  0  0  0  0
  -28.4917  -16.8333   24.7274 H   0  0  0  0  0  0
  -27.4352  -18.1823   24.7364 H   0  0  0  0  0  0
  -29.8646  -23.8386   19.9189 H   0  0  0  0  0  0
  -28.3982  -23.4924   19.0740 H   0  0  0  0  0  0
  -28.4243  -25.0410   21.7290 H   0  0  0  0  0  0
  -27.0410  -24.7805   20.7606 H   0  0  0  0  0  0
  -27.5995  -22.1900   21.1249 H   0  0  0  0  0  0
  -29.2013  -22.4276   21.8202 H   0  0  0  0  0  0
  -28.8079  -15.4907   20.0191 H   0  0  0  0  0  0
  1 25  1  0  0  0
  1 30  2  0  0  0
  1 83  1  0  0  0
  2  3  1  0  0  0
  2 25  1  0  0  0
  2 85  1  0  0  0
  2 86  1  0  0  0
  3  4  1  0  0  0
  3 87  1  0  0  0
  3 88  1  0  0  0
  4  5  1  0  0  0
  4 89  1  0  0  0
  4 90  1  0  0  0
  5  6  1  0  0  0
  5 26  1  0  0  0
  5 91  1  0  0  0
  6 25  1  0  0  0
  6 92  1  0  0  0
  6 93  1  0  0  0
  7  8  2  0  0  0
  7 26  1  0  0  0
  7 29  1  0  0  0
  8  9  1  0  0  0
  8 22  1  0  0  0
  9 10  1  0  0  0
  9 27  2  0  0  0
 10 11  2  0  0  0
 10 15  1  0  0  0
 11 12  1  0  0  0
 11 94  1  0  0  0
 12 13  2  0  0  0
 12 95  1  0  0  0
 13 14  1  0  0  0
 13 31  1  0  0  0
 14 15  2  0  0  0
 14 96  1  0  0  0
 15 97  1  0  0  0
 16 17  2  0  0  0
 16 21  1  0  0  0
 16 31  1  0  0  0
 17 18  1  0  0  0
 17 98  1  0  0  0
 18 19  2  0  0  0
 18 99  1  0  0  0
 19 20  1  0  0  0
 19 24  1  0  0  0
 20 21  2  0  0  0
 20100  1  0  0  0
 21 23  1  0  0  0
 22 28  1  0  0  0
 22 32  2  0  0  0
 26 27  1  0  0  0
 28101  1  0  0  0
 28102  1  0  0  0
 29103  1  0  0  0
 29104  1  0  0  0
 33 34  1  0  0  0
 33 66  1  0  0  0
 33 70  2  0  0  0
 34 36  1  0  0  0
 34 59  1  0  0  0
 34105  1  0  0  0
 35 44  2  0  0  0
 35 45  1  0  0  0
 35 68  1  0  0  0
 36 56  1  0  0  0
 36106  1  0  0  0
 37 39  1  0  0  0
 37 47  1  0  0  0
 37 66  1  0  0  0
 37107  1  0  0  0
 38 43  2  0  0  0
 38 46  1  0  0  0
 38 47  1  0  0  0
 39 64  1  0  0  0
 39 67  2  0  0  0
 40 52  1  0  0  0
 40 53  2  0  0  0
 40 58  1  0  0  0
 41108  1  0  0  0
 41109  1  0  0  0
 41110  1  0  0  0
 41 48  1  0  0  0
 42 43  1  0  0  0
 42 66  1  0  0  0
 42111  1  0  0  0
 42112  1  0  0  0
 43 44  1  0  0  0
 44113  1  0  0  0
 45 46  2  0  0  0
 45114  1  0  0  0
 46115  1  0  0  0
 47116  1  0  0  0
 47117  1  0  0  0
 48 56  1  0  0  0
 48 65  1  0  0  0
 48118  1  0  0  0
 49 50  1  0  0  0
 49 53  1  0  0  0
 49 64  1  0  0  0
 49119  1  0  0  0
 50 51  1  0  0  0
 50120  1  0  0  0
 50121  1  0  0  0
 51 52  1  0  0  0
 51122  1  0  0  0
 51123  1  0  0  0
 52124  1  0  0  0
 52125  1  0  0  0
 53 54  1  0  0  0
 54 55  2  0  0  0
 54126  1  0  0  0
 55 57  1  0  0  0
 55127  1  0  0  0
 56 69  2  0  0  0
 57 58  2  0  0  0
 57128  1  0  0  0
 58129  1  0  0  0
 59 60  1  0  0  0
 59 61  1  0  0  0
 59 62  1  0  0  0
 60130  1  0  0  0
 60131  1  0  0  0
 60132  1  0  0  0
 61133  1  0  0  0
 61134  1  0  0  0
 61135  1  0  0  0
 62136  1  0  0  0
 62137  1  0  0  0
 62138  1  0  0  0
 63 65  1  0  0  0
 63139  1  0  0  0
 63140  1  0  0  0
 63141  1  0  0  0
 64142  1  0  0  0
 65143  1  0  0  0
 68 81  1  0  0  0
 71 73  2  0  0  0
 71 75  1  0  0  0
 71144  1  0  0  0
 72 75  2  0  0  0
 72 76  1  0  0  0
 72145  1  0  0  0
 73 74  1  0  0  0
 73 79  1  0  0  0
 74 76  2  0  0  0
 74 77  1  0  0  0
 75 83  1  0  0  0
 76 84  1  0  0  0
 77146  1  0  0  0
 77147  1  0  0  0
 77148  1  0  0  0
 78 79  1  0  0  0
 78149  1  0  0  0
 78150  1  0  0  0
 78151  1  0  0  0
 79152  1  0  0  0
 79153  1  0  0  0
 80 81  1  0  0  0
 80 82  1  0  0  0
 80154  1  0  0  0
 80155  1  0  0  0
 81156  1  0  0  0
 81157  1  0  0  0
 82 84  1  0  0  0
 82158  1  0  0  0
 82159  1  0  0  0
 83160  1  0  0  0
M  ISO  4   1 100  68 101  81 101  83 100
M  END
> <chiral flag>
0

> <version>
0

> <s_m_source_file>
/data/baiqing/PycharmProjects/Reinvent-master-3.2/result/LINK_invent/BTK/process_docking_weight1_custom_product_contain_oxygen_bond_distance_aromatic_linkinvent_7_9_3/rearranged_h_0137.sdf

> <i_m_source_file_index>
4

> <r_mmod_Potential_Energy-OPLS-2005>
272.028137207031

> <r_mmod_Stretch_Energy-OPLS-2005>
131.241317749023

> <r_mmod_Bend_Energy-OPLS-2005>
197.979675292969

> <r_mmod_Torsional_Energy-OPLS-2005>
278.60400390625

> <r_mmod_Improper_Torsional_Energy-OPLS-2005>
16.2546443939209

> <r_mmod_Van_der_Waal_Energy-OPLS-2005>
149.925918579102

> <r_mmod_Electrostatic_Energy-OPLS-2005>
-377.828582763672

> <r_mmod_Solvation_Energy-OPLS-2005>
-213.306304931641

> <b_mmod_Minimization_Converged-OPLS-2005>
0

> <r_mmod_RMS_Derivative-OPLS-2005>
3.00092911720276

$$$$
4
                    3D
 Structure written by MMmdl.
156164  0  0  1  0            999 V2000
  -30.6147  -14.7519   20.4540 C   0  0  0  0  0  0
  -30.4304  -12.4597   19.4699 C   0  0  0  0  0  0
  -29.5070  -12.5027   18.2334 C   0  0  0  0  0  0
  -28.0341  -12.3266   18.6500 C   0  0  0  0  0  0
  -27.6383  -13.2327   19.8453 C   0  0  2  0  0  0
  -28.6845  -13.1789   20.9800 C   0  0  0  0  0  0
  -25.2495  -13.8192   20.5684 C   0  0  0  0  0  0
  -24.1799  -13.0435   20.9219 C   0  0  0  0  0  0
  -24.6396  -11.6915   20.8764 C   0  0  0  0  0  0
  -23.9071  -10.4290   21.0411 C   0  0  0  0  0  0
  -24.3624   -9.4203   21.9186 C   0  0  0  0  0  0
  -23.6297   -8.2241   22.0756 C   0  0  0  0  0  0
  -22.4279   -8.0282   21.3543 C   0  0  0  0  0  0
  -21.9914   -9.0255   20.4647 C   0  0  0  0  0  0
  -22.7245  -10.2131   20.3057 C   0  0  0  0  0  0
  -21.6852   -6.0736   22.5276 C   0  0  0  0  0  0
  -21.4015   -6.5638   23.8210 C   0  0  0  0  0  0
  -21.3660   -5.6791   24.9172 C   0  0  0  0  0  0
  -21.6043   -4.3055   24.7219 C   0  0  0  0  0  0
  -21.8822   -3.8146   23.4340 C   0  0  0  0  0  0
  -21.9195   -4.6963   22.3399 C   0  0  0  0  0  0
  -22.7822  -13.5216   21.1876 C   0  0  0  0  0  0
  -22.1664   -4.2151   21.0972 F   0  0  0  0  0  0
  -21.5627   -3.4533   25.7733 F   0  0  0  0  0  0
  -29.9822  -13.5298   20.3909 N   0  0  0  0  0  0
  -26.2921  -12.9404   20.3263 N   0  0  0  0  0  0
  -25.9324  -11.6548   20.5760 N   0  0  0  0  0  0
  -22.0474  -12.8201   22.0430 N   0  0  0  0  0  0
  -25.4147  -15.1913   20.4040 N   0  0  0  0  0  0
  -31.8105  -14.8225   20.1584 O   0  0  0  0  0  0
  -21.6641   -6.8879   21.4237 O   0  0  0  0  0  0
  -22.3501  -14.5517   20.6717 O   0  0  0  0  0  0
  -24.6308  -31.8548   23.1964 C   0  0  0  0  0  0
  -25.9130  -32.4748   23.8321 C   0  0  1  0  0  0
  -27.2173  -27.2602   20.1329 C   0  0  0  0  0  0
  -25.5931  -33.8555   24.2242 N   0  0  0  0  0  0
  -23.4279  -30.4760   21.5399 C   0  0  2  0  0  0
  -24.8752  -28.9186   20.1123 C   0  0  0  0  0  0
  -22.7496  -29.4599   22.4909 C   0  0  0  0  0  0
  -18.0292  -28.1387   22.8492 C   0  0  0  0  0  0
  -24.1488  -36.7278   23.2639 C   0  0  0  0  0  0
  -25.9735  -30.7671   21.3750 C   0  0  0  0  0  0
  -26.0476  -29.3881   20.7199 C   0  0  0  0  0  0
  -27.2259  -28.5737   20.7139 C   0  0  0  0  0  0
  -26.0241  -26.8530   19.5028 C   0  0  0  0  0  0
  -24.8677  -27.6583   19.4929 C   0  0  0  0  0  0
  -23.6455  -29.8069   20.1577 C   0  0  0  0  0  0
  -25.4117  -36.3064   24.0323 C   0  0  1  0  0  0
  -20.5897  -28.3694   23.1272 C   0  0  2  0  0  0
  -20.6783  -26.9411   22.5411 C   0  0  0  0  0  0
  -19.5756  -26.6384   21.5217 C   0  0  0  0  0  0
  -18.1936  -26.7940   22.1625 C   0  0  0  0  0  0
  -19.1544  -28.8862   23.2879 C   0  0  0  0  0  0
  -18.9472  -30.1466   23.8888 C   0  0  0  0  0  0
  -17.6470  -30.6595   24.0559 C   0  0  0  0  0  0
  -25.9058  -34.9439   23.5088 C   0  0  0  0  0  0
  -16.5359  -29.9091   23.6336 C   0  0  0  0  0  0
  -16.7277  -28.6506   23.0359 C   0  0  0  0  0  0
  -26.4500  -31.6580   25.0714 C   0  0  0  0  0  0
  -25.3720  -31.3742   26.1430 C   0  0  0  0  0  0
  -27.0349  -30.3002   24.6198 C   0  0  0  0  0  0
  -27.6052  -32.4324   25.7490 C   0  0  0  0  0  0
  -27.5579  -37.1784   24.8459 C   0  0  0  0  0  0
  -21.4205  -29.3042   22.3658 N   0  0  0  0  0  0
  -26.4280  -37.3768   23.9416 N   0  0  0  0  0  0
  -24.6967  -31.0507   22.0936 N   0  0  0  0  0  0
  -23.4198  -28.8142   23.3008 O   0  0  0  0  0  0
  -28.3040  -26.3595   20.1323 O   0  0  0  0  0  0
  -26.5630  -34.8919   22.4654 O   0  0  0  0  0  0
  -23.5464  -32.1362   23.7268 O   0  0  0  0  0  0
  -31.5062  -17.7041   21.0866 C   0  0  0  0  0  0
  -31.0419  -20.1081   20.8945 C   0  0  0  0  0  0
  -29.3095  -18.4767   20.3688 C   0  0  0  0  0  0
  -30.2035  -17.3506   20.6660 C   0  0  0  0  0  0
  -29.7089  -19.8852   20.4811 C   0  0  0  0  0  0
  -31.9159  -19.0460   21.1902 C   0  0  0  0  0  0
  -28.6061  -23.6770   19.9756 C   0  0  0  0  0  0
  -27.8154  -17.6716   18.4734 C   0  0  0  0  0  0
  -27.8877  -18.1673   19.9237 C   0  0  0  0  0  0
  -28.0885  -24.9950   20.7354 C   0  0  0  0  0  0
  -29.0135  -22.3547   20.7995 C   0  0  0  0  0  0
  -29.8367  -15.9000   20.6046 N   0  0  0  0  0  0
  -28.6912  -23.6792   18.7419 O   0  0  0  0  0  0
  -28.8838  -21.0075   20.1382 O   0  0  0  0  0  0
  -33.1847  -19.3227   21.5774 F   0  0  0  0  0  0
  -31.4699  -12.5838   19.1629 H   0  0  0  0  0  0
  -30.3789  -11.4860   19.9599 H   0  0  0  0  0  0
  -29.7905  -11.7263   17.5215 H   0  0  0  0  0  0
  -29.6317  -13.4547   17.7143 H   0  0  0  0  0  0
  -27.8935  -11.2793   18.9200 H   0  0  0  0  0  0
  -27.3755  -12.5111   17.8009 H   0  0  0  0  0  0
  -27.6285  -14.2514   19.4569 H   0  0  0  0  0  0
  -28.7231  -12.1857   21.4299 H   0  0  0  0  0  0
  -28.4205  -13.8690   21.7829 H   0  0  0  0  0  0
  -25.2769   -9.5678   22.4760 H   0  0  0  0  0  0
  -24.0006   -7.4628   22.7473 H   0  0  0  0  0  0
  -21.0851   -8.8771   19.8951 H   0  0  0  0  0  0
  -22.3705  -10.9669   19.6168 H   0  0  0  0  0  0
  -21.2006   -7.6151   23.9713 H   0  0  0  0  0  0
  -21.1479   -6.0522   25.9075 H   0  0  0  0  0  0
  -22.0601   -2.7612   23.2835 H   0  0  0  0  0  0
  -22.4098  -11.9859   22.4805 H   0  0  0  0  0  0
  -21.1094  -13.1220   22.2647 H   0  0  0  0  0  0
  -24.6333  -15.8319   20.4924 H   0  0  0  0  0  0
  -26.2338  -15.6208   19.9974 H   0  0  0  0  0  0
  -26.7187  -32.5397   23.1053 H   0  0  0  0  0  0
  -25.0087  -33.9699   25.0396 H   0  0  0  0  0  0
  -22.7246  -31.2989   21.3928 H   0  0  0  0  0  0
  -23.3761  -35.9597   23.3284 H   0  0  0  0  0  0
  -24.3590  -36.8918   22.2059 H   0  0  0  0  0  0
  -23.7229  -37.6468   23.6677 H   0  0  0  0  0  0
  -26.1124  -31.5266   20.6049 H   0  0  0  0  0  0
  -26.8518  -30.8177   22.0072 H   0  0  0  0  0  0
  -28.1277  -28.9325   21.1906 H   0  0  0  0  0  0
  -25.9803  -25.8860   19.0212 H   0  0  0  0  0  0
  -23.9700  -27.2946   19.0122 H   0  0  0  0  0  0
  -23.7698  -30.5816   19.4001 H   0  0  0  0  0  0
  -22.7627  -29.2416   19.8538 H   0  0  0  0  0  0
  -25.1296  -36.1892   25.0812 H   0  0  0  0  0  0
  -20.9993  -28.3267   24.1391 H   0  0  0  0  0  0
  -20.5698  -26.2300   23.3616 H   0  0  0  0  0  0
  -21.6648  -26.7445   22.1192 H   0  0  0  0  0  0
  -19.6918  -25.6296   21.1249 H   0  0  0  0  0  0
  -19.6696  -27.3197   20.6750 H   0  0  0  0  0  0
  -17.4208  -26.6693   21.4022 H   0  0  0  0  0  0
  -18.0323  -26.0089   22.9025 H   0  0  0  0  0  0
  -19.7946  -30.7287   24.2246 H   0  0  0  0  0  0
  -17.5025  -31.6274   24.5162 H   0  0  0  0  0  0
  -15.5360  -30.2987   23.7677 H   0  0  0  0  0  0
  -15.8676  -28.0820   22.7074 H   0  0  0  0  0  0
  -24.5892  -30.7087   25.7762 H   0  0  0  0  0  0
  -24.8915  -32.2924   26.4818 H   0  0  0  0  0  0
  -25.8038  -30.8943   27.0220 H   0  0  0  0  0  0
  -26.2937  -29.6745   24.1214 H   0  0  0  0  0  0
  -27.4032  -29.7252   25.4699 H   0  0  0  0  0  0
  -27.8806  -30.4284   23.9443 H   0  0  0  0  0  0
  -27.2650  -33.3628   26.2043 H   0  0  0  0  0  0
  -28.3878  -32.6874   25.0332 H   0  0  0  0  0  0
  -28.0699  -31.8464   26.5423 H   0  0  0  0  0  0
  -28.2562  -38.0113   24.7547 H   0  0  0  0  0  0
  -28.1106  -36.2649   24.6226 H   0  0  0  0  0  0
  -27.2312  -37.1351   25.8862 H   0  0  0  0  0  0
  -20.9386  -29.8755   21.6861 H   0  0  0  0  0  0
  -26.0151  -38.2826   24.1454 H   0  0  0  0  0  0
  -32.2282  -16.9468   21.3487 H   0  0  0  0  0  0
  -31.4480  -21.1035   20.9651 H   0  0  0  0  0  0
  -26.7865  -17.4497   18.1895 H   0  0  0  0  0  0
  -28.4006  -16.7637   18.3273 H   0  0  0  0  0  0
  -28.1943  -18.4248   17.7823 H   0  0  0  0  0  0
  -27.2609  -19.0526   20.0368 H   0  0  0  0  0  0
  -27.4615  -17.4226   20.5958 H   0  0  0  0  0  0
  -28.5581  -25.0040   21.7188 H   0  0  0  0  0  0
  -27.0245  -24.8495   20.9250 H   0  0  0  0  0  0
  -28.4038  -22.3317   21.7023 H   0  0  0  0  0  0
  -30.0305  -22.5205   21.1445 H   0  0  0  0  0  0
  -28.8488  -15.7078   20.6541 H   0  0  0  0  0  0
  1 25  1  0  0  0
  1 30  2  0  0  0
  1 82  1  0  0  0
  2  3  1  0  0  0
  2 25  1  0  0  0
  2 86  1  0  0  0
  2 87  1  0  0  0
  3  4  1  0  0  0
  3 88  1  0  0  0
  3 89  1  0  0  0
  4  5  1  0  0  0
  4 90  1  0  0  0
  4 91  1  0  0  0
  5  6  1  0  0  0
  5 26  1  0  0  0
  5 92  1  0  0  0
  6 25  1  0  0  0
  6 93  1  0  0  0
  6 94  1  0  0  0
  7  8  2  0  0  0
  7 26  1  0  0  0
  7 29  1  0  0  0
  8  9  1  0  0  0
  8 22  1  0  0  0
  9 10  1  0  0  0
  9 27  2  0  0  0
 10 11  2  0  0  0
 10 15  1  0  0  0
 11 12  1  0  0  0
 11 95  1  0  0  0
 12 13  2  0  0  0
 12 96  1  0  0  0
 13 14  1  0  0  0
 13 31  1  0  0  0
 14 15  2  0  0  0
 14 97  1  0  0  0
 15 98  1  0  0  0
 16 17  2  0  0  0
 16 21  1  0  0  0
 16 31  1  0  0  0
 17 18  1  0  0  0
 17 99  1  0  0  0
 18 19  2  0  0  0
 18100  1  0  0  0
 19 20  1  0  0  0
 19 24  1  0  0  0
 20 21  2  0  0  0
 20101  1  0  0  0
 21 23  1  0  0  0
 22 28  1  0  0  0
 22 32  2  0  0  0
 26 27  1  0  0  0
 28102  1  0  0  0
 28103  1  0  0  0
 29104  1  0  0  0
 29105  1  0  0  0
 33 34  1  0  0  0
 33 66  1  0  0  0
 33 70  2  0  0  0
 34 36  1  0  0  0
 34 59  1  0  0  0
 34106  1  0  0  0
 35 44  2  0  0  0
 35 45  1  0  0  0
 35 68  1  0  0  0
 36 56  1  0  0  0
 36107  1  0  0  0
 37 39  1  0  0  0
 37 47  1  0  0  0
 37 66  1  0  0  0
 37108  1  0  0  0
 38 43  2  0  0  0
 38 46  1  0  0  0
 38 47  1  0  0  0
 39 64  1  0  0  0
 39 67  2  0  0  0
 40 52  1  0  0  0
 40 53  2  0  0  0
 40 58  1  0  0  0
 41109  1  0  0  0
 41110  1  0  0  0
 41111  1  0  0  0
 41 48  1  0  0  0
 42 43  1  0  0  0
 42 66  1  0  0  0
 42112  1  0  0  0
 42113  1  0  0  0
 43 44  1  0  0  0
 44114  1  0  0  0
 45 46  2  0  0  0
 45115  1  0  0  0
 46116  1  0  0  0
 47117  1  0  0  0
 47118  1  0  0  0
 48 56  1  0  0  0
 48 65  1  0  0  0
 48119  1  0  0  0
 49 50  1  0  0  0
 49 53  1  0  0  0
 49 64  1  0  0  0
 49120  1  0  0  0
 50 51  1  0  0  0
 50121  1  0  0  0
 50122  1  0  0  0
 51 52  1  0  0  0
 51123  1  0  0  0
 51124  1  0  0  0
 52125  1  0  0  0
 52126  1  0  0  0
 53 54  1  0  0  0
 54 55  2  0  0  0
 54127  1  0  0  0
 55 57  1  0  0  0
 55128  1  0  0  0
 56 69  2  0  0  0
 57 58  2  0  0  0
 57129  1  0  0  0
 58130  1  0  0  0
 59 60  1  0  0  0
 59 61  1  0  0  0
 59 62  1  0  0  0
 60131  1  0  0  0
 60132  1  0  0  0
 60133  1  0  0  0
 61134  1  0  0  0
 61135  1  0  0  0
 61136  1  0  0  0
 62137  1  0  0  0
 62138  1  0  0  0
 62139  1  0  0  0
 63 65  1  0  0  0
 63140  1  0  0  0
 63141  1  0  0  0
 63142  1  0  0  0
 64143  1  0  0  0
 65144  1  0  0  0
 68 80  1  0  0  0
 71 74  2  0  0  0
 71 76  1  0  0  0
 71145  1  0  0  0
 72 75  1  0  0  0
 72 76  2  0  0  0
 72146  1  0  0  0
 73 74  1  0  0  0
 73 75  2  0  0  0
 73 79  1  0  0  0
 74 82  1  0  0  0
 75 84  1  0  0  0
 76 85  1  0  0  0
 77 80  1  0  0  0
 77 81  1  0  0  0
 77 83  2  0  0  0
 78 79  1  0  0  0
 78147  1  0  0  0
 78148  1  0  0  0
 78149  1  0  0  0
 79150  1  0  0  0
 79151  1  0  0  0
 80152  1  0  0  0
 80153  1  0  0  0
 81 84  1  0  0  0
 81154  1  0  0  0
 81155  1  0  0  0
 82156  1  0  0  0
M  ISO  4   1 100  68 101  80 101  82 100
M  END
> <chiral flag>
0

> <version>
0

> <s_m_source_file>
/data/baiqing/PycharmProjects/Reinvent-master-3.2/result/LINK_invent/BTK/process_docking_weight1_custom_product_contain_oxygen_bond_distance_aromatic_linkinvent_7_9_3/rearranged_h_0137.sdf

> <i_m_source_file_index>
5

> <r_mmod_Potential_Energy-OPLS-2005>
226.405960083008

> <r_mmod_Stretch_Energy-OPLS-2005>
136.517517089844

> <r_mmod_Bend_Energy-OPLS-2005>
163.291702270508

> <r_mmod_Torsional_Energy-OPLS-2005>
245.470001220703

> <r_mmod_Improper_Torsional_Energy-OPLS-2005>
6.06892824172974

> <r_mmod_Van_der_Waal_Energy-OPLS-2005>
131.894332885742

> <r_mmod_Electrostatic_Energy-OPLS-2005>
-313.004119873047

> <r_mmod_Solvation_Energy-OPLS-2005>
-231.096603393555

> <b_mmod_Minimization_Converged-OPLS-2005>
0

> <r_mmod_RMS_Derivative-OPLS-2005>
1.28575468063354

$$$$
5
                    3D
 Structure written by MMmdl.
166174  0  0  1  0            999 V2000
  -30.5679  -14.7620   20.4723 C   0  0  0  0  0  0
  -30.4504  -12.4708   19.4533 C   0  0  0  0  0  0
  -29.5136  -12.5014   18.2226 C   0  0  0  0  0  0
  -28.0398  -12.3165   18.6427 C   0  0  0  0  0  0
  -27.6419  -13.2197   19.8410 C   0  0  2  0  0  0
  -28.6892  -13.1409   20.9719 C   0  0  0  0  0  0
  -25.2528  -13.8165   20.5664 C   0  0  0  0  0  0
  -24.1808  -13.0413   20.9192 C   0  0  0  0  0  0
  -24.6385  -11.6901   20.8725 C   0  0  0  0  0  0
  -23.9064  -10.4285   21.0409 C   0  0  0  0  0  0
  -24.3619   -9.4203   21.9190 C   0  0  0  0  0  0
  -23.6290   -8.2237   22.0763 C   0  0  0  0  0  0
  -22.4274   -8.0284   21.3548 C   0  0  0  0  0  0
  -21.9907   -9.0254   20.4649 C   0  0  0  0  0  0
  -22.7235  -10.2131   20.3059 C   0  0  0  0  0  0
  -21.6853   -6.0738   22.5284 C   0  0  0  0  0  0
  -21.4016   -6.5643   23.8222 C   0  0  0  0  0  0
  -21.3657   -5.6792   24.9182 C   0  0  0  0  0  0
  -21.6044   -4.3052   24.7230 C   0  0  0  0  0  0
  -21.8816   -3.8151   23.4344 C   0  0  0  0  0  0
  -21.9195   -4.6966   22.3404 C   0  0  0  0  0  0
  -22.7834  -13.5219   21.1865 C   0  0  0  0  0  0
  -22.1663   -4.2153   21.0973 F   0  0  0  0  0  0
  -21.5630   -3.4534   25.7742 F   0  0  0  0  0  0
  -29.9845  -13.5171   20.3886 N   0  0  0  0  0  0
  -26.2939  -12.9342   20.3215 N   0  0  0  0  0  0
  -25.9309  -11.6503   20.5697 N   0  0  0  0  0  0
  -22.0472  -12.8219   22.0423 N   0  0  0  0  0  0
  -25.4189  -15.1886   20.4099 N   0  0  0  0  0  0
  -31.7683  -14.9067   20.2295 O   0  0  0  0  0  0
  -21.6635   -6.8877   21.4245 O   0  0  0  0  0  0
  -22.3528  -14.5527   20.6713 O   0  0  0  0  0  0
  -24.6306  -31.8534   23.1967 C   0  0  0  0  0  0
  -25.9137  -32.4733   23.8304 C   0  0  1  0  0  0
  -27.2168  -27.2540   20.1208 C   0  0  0  0  0  0
  -25.5938  -33.8538   24.2212 N   0  0  0  0  0  0
  -23.4294  -30.4801   21.5386 C   0  0  2  0  0  0
  -24.8762  -28.9302   20.1073 C   0  0  0  0  0  0
  -22.7504  -29.4586   22.4838 C   0  0  0  0  0  0
  -18.0299  -28.1374   22.8454 C   0  0  0  0  0  0
  -24.1511  -36.7319   23.2633 C   0  0  0  0  0  0
  -25.9762  -30.7692   21.3754 C   0  0  0  0  0  0
  -26.0512  -29.3907   20.7172 C   0  0  0  0  0  0
  -27.2251  -28.5664   20.7109 C   0  0  0  0  0  0
  -26.0153  -26.8688   19.4812 C   0  0  0  0  0  0
  -24.8639  -27.6777   19.4801 C   0  0  0  0  0  0
  -23.6511  -29.8225   20.1531 C   0  0  0  0  0  0
  -25.4130  -36.3051   24.0304 C   0  0  1  0  0  0
  -20.5897  -28.3702   23.1231 C   0  0  2  0  0  0
  -20.6796  -26.9413   22.5386 C   0  0  0  0  0  0
  -19.5781  -26.6372   21.5180 C   0  0  0  0  0  0
  -18.1957  -26.7909   22.1594 C   0  0  0  0  0  0
  -19.1547  -28.8850   23.2849 C   0  0  0  0  0  0
  -18.9472  -30.1441   23.8884 C   0  0  0  0  0  0
  -17.6479  -30.6578   24.0550 C   0  0  0  0  0  0
  -25.9064  -34.9422   23.5054 C   0  0  0  0  0  0
  -16.5371  -29.9082   23.6314 C   0  0  0  0  0  0
  -16.7288  -28.6496   23.0338 C   0  0  0  0  0  0
  -26.4514  -31.6567   25.0697 C   0  0  0  0  0  0
  -25.3717  -31.3774   26.1404 C   0  0  0  0  0  0
  -27.0360  -30.2962   24.6216 C   0  0  0  0  0  0
  -27.6043  -32.4316   25.7511 C   0  0  0  0  0  0
  -27.5578  -37.1813   24.8448 C   0  0  0  0  0  0
  -21.4194  -29.3059   22.3613 N   0  0  0  0  0  0
  -26.4295  -37.3750   23.9387 N   0  0  0  0  0  0
  -24.6984  -31.0509   22.0952 N   0  0  0  0  0  0
  -23.4193  -28.8090   23.2916 O   0  0  0  0  0  0
  -28.3075  -26.3471   20.1740 O   0  0  0  0  0  0
  -26.5626  -34.8899   22.4615 O   0  0  0  0  0  0
  -23.5450  -32.1374   23.7240 O   0  0  0  0  0  0
  -29.1779  -19.8234   22.1706 C   0  0  0  0  0  0
  -29.7096  -18.4279   20.2665 C   0  0  0  0  0  0
  -29.1425  -18.6729   22.9917 C   0  0  0  0  0  0
  -29.4338  -17.3781   22.4629 C   0  0  0  0  0  0
  -29.7130  -17.2114   21.0723 C   0  0  0  0  0  0
  -29.4520  -19.7615   20.7926 C   0  0  0  0  0  0
  -29.3967  -16.1712   23.4029 C   0  0  0  0  0  0
  -27.3909  -19.5717   24.6278 C   0  0  0  0  0  0
  -31.6792  -23.4263   19.8388 C   0  0  0  0  0  0
  -28.7598  -18.8923   24.4584 C   0  0  0  0  0  0
  -30.3373  -23.9284   19.2895 C   0  0  0  0  0  0
  -28.0385  -24.8714   20.0037 C   0  0  0  0  0  0
  -28.6277  -22.1564   20.2381 C   0  0  0  0  0  0
  -29.1474  -23.7070   20.2510 C   0  0  1  0  0  0
  -29.6871  -15.8349   20.5102 N   0  0  0  0  0  0
  -29.5258  -20.9701   20.0352 O   0  0  0  0  0  0
  -31.4855  -12.6337   19.1471 H   0  0  0  0  0  0
  -30.4314  -11.4910   19.9338 H   0  0  0  0  0  0
  -29.7994  -11.7235   17.5129 H   0  0  0  0  0  0
  -29.6284  -13.4486   17.6945 H   0  0  0  0  0  0
  -27.9044  -11.2671   18.9074 H   0  0  0  0  0  0
  -27.3788  -12.5012   17.7956 H   0  0  0  0  0  0
  -27.6315  -14.2392   19.4551 H   0  0  0  0  0  0
  -28.7339  -12.1345   21.3903 H   0  0  0  0  0  0
  -28.4162  -13.8002   21.7971 H   0  0  0  0  0  0
  -25.2766   -9.5681   22.4762 H   0  0  0  0  0  0
  -24.0002   -7.4632   22.7490 H   0  0  0  0  0  0
  -21.0836   -8.8766   19.8953 H   0  0  0  0  0  0
  -22.3697  -10.9669   19.6161 H   0  0  0  0  0  0
  -21.2007   -7.6154   23.9728 H   0  0  0  0  0  0
  -21.1481   -6.0520   25.9086 H   0  0  0  0  0  0
  -22.0597   -2.7612   23.2842 H   0  0  0  0  0  0
  -22.4080  -11.9861   22.4778 H   0  0  0  0  0  0
  -21.1099  -13.1265   22.2648 H   0  0  0  0  0  0
  -24.6422  -15.8299   20.5231 H   0  0  0  0  0  0
  -26.2550  -15.6447   20.0683 H   0  0  0  0  0  0
  -26.7193  -32.5410   23.1041 H   0  0  0  0  0  0
  -25.0068  -33.9675   25.0337 H   0  0  0  0  0  0
  -22.7257  -31.3010   21.3900 H   0  0  0  0  0  0
  -23.3729  -35.9694   23.3279 H   0  0  0  0  0  0
  -24.3598  -36.8972   22.2052 H   0  0  0  0  0  0
  -23.7322  -37.6534   23.6688 H   0  0  0  0  0  0
  -26.1025  -31.5337   20.6074 H   0  0  0  0  0  0
  -26.8575  -30.8216   22.0043 H   0  0  0  0  0  0
  -28.1261  -28.9093   21.2015 H   0  0  0  0  0  0
  -25.9253  -25.9193   18.9773 H   0  0  0  0  0  0
  -23.9653  -27.3196   18.9977 H   0  0  0  0  0  0
  -23.7856  -30.6048   19.4040 H   0  0  0  0  0  0
  -22.7681  -29.2644   19.8380 H   0  0  0  0  0  0
  -25.1306  -36.1879   25.0793 H   0  0  0  0  0  0
  -20.9993  -28.3308   24.1350 H   0  0  0  0  0  0
  -20.5680  -26.2325   23.3600 H   0  0  0  0  0  0
  -21.6668  -26.7438   22.1184 H   0  0  0  0  0  0
  -19.6962  -25.6272   21.1239 H   0  0  0  0  0  0
  -19.6723  -27.3147   20.6675 H   0  0  0  0  0  0
  -17.4217  -26.6615   21.4020 H   0  0  0  0  0  0
  -18.0398  -26.0042   22.8998 H   0  0  0  0  0  0
  -19.7967  -30.7239   24.2254 H   0  0  0  0  0  0
  -17.5058  -31.6260   24.5156 H   0  0  0  0  0  0
  -15.5378  -30.2996   23.7650 H   0  0  0  0  0  0
  -15.8679  -28.0836   22.7036 H   0  0  0  0  0  0
  -24.5888  -30.7112   25.7769 H   0  0  0  0  0  0
  -24.8920  -32.2976   26.4738 H   0  0  0  0  0  0
  -25.7996  -30.9031   27.0237 H   0  0  0  0  0  0
  -26.2958  -29.6695   24.1223 H   0  0  0  0  0  0
  -27.3992  -29.7235   25.4762 H   0  0  0  0  0  0
  -27.8852  -30.4195   23.9486 H   0  0  0  0  0  0
  -27.2610  -33.3607   26.2063 H   0  0  0  0  0  0
  -28.3900  -32.6872   25.0398 H   0  0  0  0  0  0
  -28.0652  -31.8457   26.5475 H   0  0  0  0  0  0
  -28.2547  -38.0149   24.7456 H   0  0  0  0  0  0
  -28.1099  -36.2652   24.6286 H   0  0  0  0  0  0
  -27.2276  -37.1475   25.8845 H   0  0  0  0  0  0
  -20.9345  -29.8851   21.6893 H   0  0  0  0  0  0
  -26.0150  -38.2803   24.1403 H   0  0  0  0  0  0
  -29.0071  -20.7861   22.6287 H   0  0  0  0  0  0
  -29.8753  -18.3313   19.2033 H   0  0  0  0  0  0
  -28.3683  -15.9409   23.6818 H   0  0  0  0  0  0
  -29.9697  -16.3621   24.3118 H   0  0  0  0  0  0
  -29.8321  -15.2672   22.9920 H   0  0  0  0  0  0
  -27.1401  -19.6598   25.6853 H   0  0  0  0  0  0
  -26.5976  -18.9959   24.1476 H   0  0  0  0  0  0
  -27.3731  -20.5788   24.2101 H   0  0  0  0  0  0
  -31.7034  -22.3399   19.9137 H   0  0  0  0  0  0
  -31.8759  -23.8362   20.8299 H   0  0  0  0  0  0
  -32.5025  -23.7284   19.1902 H   0  0  0  0  0  0
  -29.5337  -19.5021   24.9263 H   0  0  0  0  0  0
  -28.7339  -17.9716   25.0364 H   0  0  0  0  0  0
  -30.4456  -24.9979   19.0954 H   0  0  0  0  0  0
  -30.1350  -23.4644   18.3229 H   0  0  0  0  0  0
  -27.1907  -24.6302   20.6474 H   0  0  0  0  0  0
  -27.6934  -24.7320   18.9791 H   0  0  0  0  0  0
  -27.9187  -22.0847   19.4128 H   0  0  0  0  0  0
  -28.0058  -22.0069   21.1184 H   0  0  0  0  0  0
  -29.5205  -23.8816   21.2590 H   0  0  0  0  0  0
  -28.7465  -15.4924   20.4046 H   0  0  0  0  0  0
  1 25  1  0  0  0
  1 30  2  0  0  0
  1 85  1  0  0  0
  2  3  1  0  0  0
  2 25  1  0  0  0
  2 87  1  0  0  0
  2 88  1  0  0  0
  3  4  1  0  0  0
  3 89  1  0  0  0
  3 90  1  0  0  0
  4  5  1  0  0  0
  4 91  1  0  0  0
  4 92  1  0  0  0
  5  6  1  0  0  0
  5 26  1  0  0  0
  5 93  1  0  0  0
  6 25  1  0  0  0
  6 94  1  0  0  0
  6 95  1  0  0  0
  7  8  2  0  0  0
  7 26  1  0  0  0
  7 29  1  0  0  0
  8  9  1  0  0  0
  8 22  1  0  0  0
  9 10  1  0  0  0
  9 27  2  0  0  0
 10 11  2  0  0  0
 10 15  1  0  0  0
 11 12  1  0  0  0
 11 96  1  0  0  0
 12 13  2  0  0  0
 12 97  1  0  0  0
 13 14  1  0  0  0
 13 31  1  0  0  0
 14 15  2  0  0  0
 14 98  1  0  0  0
 15 99  1  0  0  0
 16 17  2  0  0  0
 16 21  1  0  0  0
 16 31  1  0  0  0
 17 18  1  0  0  0
 17100  1  0  0  0
 18 19  2  0  0  0
 18101  1  0  0  0
 19 20  1  0  0  0
 19 24  1  0  0  0
 20 21  2  0  0  0
 20102  1  0  0  0
 21 23  1  0  0  0
 22 28  1  0  0  0
 22 32  2  0  0  0
 26 27  1  0  0  0
 28103  1  0  0  0
 28104  1  0  0  0
 29105  1  0  0  0
 29106  1  0  0  0
 33 34  1  0  0  0
 33 66  1  0  0  0
 33 70  2  0  0  0
 34 36  1  0  0  0
 34 59  1  0  0  0
 34107  1  0  0  0
 35 44  2  0  0  0
 35 45  1  0  0  0
 35 68  1  0  0  0
 36 56  1  0  0  0
 36108  1  0  0  0
 37 39  1  0  0  0
 37 47  1  0  0  0
 37 66  1  0  0  0
 37109  1  0  0  0
 38 43  2  0  0  0
 38 46  1  0  0  0
 38 47  1  0  0  0
 39 64  1  0  0  0
 39 67  2  0  0  0
 40 52  1  0  0  0
 40 53  2  0  0  0
 40 58  1  0  0  0
 41110  1  0  0  0
 41111  1  0  0  0
 41112  1  0  0  0
 41 48  1  0  0  0
 42 43  1  0  0  0
 42 66  1  0  0  0
 42113  1  0  0  0
 42114  1  0  0  0
 43 44  1  0  0  0
 44115  1  0  0  0
 45 46  2  0  0  0
 45116  1  0  0  0
 46117  1  0  0  0
 47118  1  0  0  0
 47119  1  0  0  0
 48 56  1  0  0  0
 48 65  1  0  0  0
 48120  1  0  0  0
 49 50  1  0  0  0
 49 53  1  0  0  0
 49 64  1  0  0  0
 49121  1  0  0  0
 50 51  1  0  0  0
 50122  1  0  0  0
 50123  1  0  0  0
 51 52  1  0  0  0
 51124  1  0  0  0
 51125  1  0  0  0
 52126  1  0  0  0
 52127  1  0  0  0
 53 54  1  0  0  0
 54 55  2  0  0  0
 54128  1  0  0  0
 55 57  1  0  0  0
 55129  1  0  0  0
 56 69  2  0  0  0
 57 58  2  0  0  0
 57130  1  0  0  0
 58131  1  0  0  0
 59 60  1  0  0  0
 59 61  1  0  0  0
 59 62  1  0  0  0
 60132  1  0  0  0
 60133  1  0  0  0
 60134  1  0  0  0
 61135  1  0  0  0
 61136  1  0  0  0
 61137  1  0  0  0
 62138  1  0  0  0
 62139  1  0  0  0
 62140  1  0  0  0
 63 65  1  0  0  0
 63141  1  0  0  0
 63142  1  0  0  0
 63143  1  0  0  0
 64144  1  0  0  0
 65145  1  0  0  0
 68 82  1  0  0  0
 71 73  2  0  0  0
 71 76  1  0  0  0
 71146  1  0  0  0
 72 75  1  0  0  0
 72 76  2  0  0  0
 72147  1  0  0  0
 73 74  1  0  0  0
 73 80  1  0  0  0
 74 75  2  0  0  0
 74 77  1  0  0  0
 75 85  1  0  0  0
 76 86  1  0  0  0
 77148  1  0  0  0
 77149  1  0  0  0
 77150  1  0  0  0
 78 80  1  0  0  0
 78151  1  0  0  0
 78152  1  0  0  0
 78153  1  0  0  0
 79 81  1  0  0  0
 79154  1  0  0  0
 79155  1  0  0  0
 79156  1  0  0  0
 80157  1  0  0  0
 80158  1  0  0  0
 81159  1  0  0  0
 81160  1  0  0  0
 81 84  1  0  0  0
 82 84  1  0  0  0
 82161  1  0  0  0
 82162  1  0  0  0
 83 84  1  0  0  0
 83 86  1  0  0  0
 83163  1  0  0  0
 83164  1  0  0  0
 84165  1  0  0  0
 85166  1  0  0  0
M  ISO  4   1 100  68 101  82 101  85 100
M  END
> <chiral flag>
0

> <version>
0

> <s_m_source_file>
/data/baiqing/PycharmProjects/Reinvent-master-3.2/result/LINK_invent/BTK/process_docking_weight1_custom_product_contain_oxygen_bond_distance_aromatic_linkinvent_7_9_3/rearranged_h_0137.sdf

> <i_m_source_file_index>
6

> <r_mmod_Potential_Energy-OPLS-2005>
277.573272705078

> <r_mmod_Stretch_Energy-OPLS-2005>
134.801895141602

> <r_mmod_Bend_Energy-OPLS-2005>
186.27848815918

> <r_mmod_Torsional_Energy-OPLS-2005>
279.710662841797

> <r_mmod_Improper_Torsional_Energy-OPLS-2005>
11.6456489562988

> <r_mmod_Van_der_Waal_Energy-OPLS-2005>
144.177352905273

> <r_mmod_Electrostatic_Energy-OPLS-2005>
-368.678344726562

> <r_mmod_Solvation_Energy-OPLS-2005>
-205.298965454102

> <b_mmod_Minimization_Converged-OPLS-2005>
0

> <r_mmod_RMS_Derivative-OPLS-2005>
3.1242561340332

$$$$
6
                    3D
 Structure written by MMmdl.
168176  0  0  1  0            999 V2000
  -30.6905  -14.5157   20.5440 C   0  0  0  0  0  0
  -30.4431  -12.3395   19.4053 C   0  0  0  0  0  0
  -29.5117  -12.5244   18.1922 C   0  0  0  0  0  0
  -28.0318  -12.3710   18.5981 C   0  0  0  0  0  0
  -27.6633  -13.2153   19.8500 C   0  0  2  0  0  0
  -28.7084  -13.0176   20.9724 C   0  0  0  0  0  0
  -25.2633  -13.8177   20.5653 C   0  0  0  0  0  0
  -24.1892  -13.0448   20.9185 C   0  0  0  0  0  0
  -24.6458  -11.6939   20.8682 C   0  0  0  0  0  0
  -23.9096  -10.4325   21.0312 C   0  0  0  0  0  0
  -24.3632   -9.4234   21.9105 C   0  0  0  0  0  0
  -23.6327   -8.2256   22.0692 C   0  0  0  0  0  0
  -22.4300   -8.0281   21.3520 C   0  0  0  0  0  0
  -21.9931   -9.0235   20.4601 C   0  0  0  0  0  0
  -22.7235  -10.2133   20.2982 C   0  0  0  0  0  0
  -21.6877   -6.0714   22.5271 C   0  0  0  0  0  0
  -21.3991   -6.5588   23.8213 C   0  0  0  0  0  0
  -21.3666   -5.6735   24.9152 C   0  0  0  0  0  0
  -21.6080   -4.3015   24.7197 C   0  0  0  0  0  0
  -21.8817   -3.8119   23.4321 C   0  0  0  0  0  0
  -21.9194   -4.6946   22.3387 C   0  0  0  0  0  0
  -22.7873  -13.5201   21.1817 C   0  0  0  0  0  0
  -22.1659   -4.2133   21.0954 F   0  0  0  0  0  0
  -21.5680   -3.4479   25.7701 F   0  0  0  0  0  0
  -30.0342  -13.3285   20.4165 N   0  0  0  0  0  0
  -26.3072  -12.9383   20.3223 N   0  0  0  0  0  0
  -25.9385  -11.6539   20.5670 N   0  0  0  0  0  0
  -22.0470  -12.8249   22.0397 N   0  0  0  0  0  0
  -25.4295  -15.1904   20.4038 N   0  0  0  0  0  0
  -31.8411  -14.6915   20.1390 O   0  0  0  0  0  0
  -21.6671   -6.8874   21.4243 O   0  0  0  0  0  0
  -22.3549  -14.5447   20.6562 O   0  0  0  0  0  0
  -24.6180  -31.8672   23.2155 C   0  0  0  0  0  0
  -25.9085  -32.4801   23.8429 C   0  0  1  0  0  0
  -27.2509  -27.4282   20.0884 C   0  0  0  0  0  0
  -25.5945  -33.8606   24.2366 N   0  0  0  0  0  0
  -23.4048  -30.4915   21.5570 C   0  0  2  0  0  0
  -24.8524  -28.9575   20.1163 C   0  0  0  0  0  0
  -22.7417  -29.4670   22.5050 C   0  0  0  0  0  0
  -18.0258  -28.1380   22.8495 C   0  0  0  0  0  0
  -24.1496  -36.7298   23.2663 C   0  0  0  0  0  0
  -25.9366  -30.8286   21.3740 C   0  0  0  0  0  0
  -26.0121  -29.4650   20.7109 C   0  0  0  0  0  0
  -27.2094  -28.7112   20.6884 C   0  0  0  0  0  0
  -26.0596  -26.9313   19.5021 C   0  0  0  0  0  0
  -24.8725  -27.6908   19.5068 C   0  0  0  0  0  0
  -23.6114  -29.8221   20.1719 C   0  0  0  0  0  0
  -25.4117  -36.3123   24.0373 C   0  0  1  0  0  0
  -20.5856  -28.3690   23.1370 C   0  0  2  0  0  0
  -20.6792  -26.9429   22.5483 C   0  0  0  0  0  0
  -19.5755  -26.6388   21.5295 C   0  0  0  0  0  0
  -18.1907  -26.7925   22.1640 C   0  0  0  0  0  0
  -19.1506  -28.8844   23.2904 C   0  0  0  0  0  0
  -18.9425  -30.1461   23.8902 C   0  0  0  0  0  0
  -17.6426  -30.6593   24.0558 C   0  0  0  0  0  0
  -25.9031  -34.9474   23.5149 C   0  0  0  0  0  0
  -16.5320  -29.9086   23.6335 C   0  0  0  0  0  0
  -16.7240  -28.6513   23.0346 C   0  0  0  0  0  0
  -26.4514  -31.6580   25.0753 C   0  0  0  0  0  0
  -25.3781  -31.3683   26.1501 C   0  0  0  0  0  0
  -27.0431  -30.3028   24.6209 C   0  0  0  0  0  0
  -27.6060  -32.4353   25.7483 C   0  0  0  0  0  0
  -27.5577  -37.1818   24.8458 C   0  0  0  0  0  0
  -21.4153  -29.3016   22.3755 N   0  0  0  0  0  0
  -26.4298  -37.3808   23.9395 N   0  0  0  0  0  0
  -24.6708  -31.0794   22.1054 N   0  0  0  0  0  0
  -23.4150  -28.8242   23.3144 O   0  0  0  0  0  0
  -28.4472  -26.7261   20.0837 O   0  0  0  0  0  0
  -26.5581  -34.8936   22.4703 O   0  0  0  0  0  0
  -23.5387  -32.1438   23.7569 O   0  0  0  0  0  0
  -30.8476  -19.4754   22.3098 C   0  0  0  0  0  0
  -31.1348  -18.3528   23.1164 C   0  0  0  0  0  0
  -30.0393  -17.9953   20.5608 C   0  0  0  0  0  0
  -30.2888  -19.3210   21.0215 C   0  0  0  0  0  0
  -30.8586  -17.0404   22.6637 C   0  0  0  0  0  0
  -30.3199  -16.8544   21.3666 C   0  0  0  0  0  0
  -31.1258  -15.8688   23.6091 C   0  0  0  0  0  0
  -31.9552  -22.0353   20.3576 C   0  0  0  0  0  0
  -30.6014  -25.2549   18.5897 C   0  0  0  0  0  0
  -30.6539  -25.0339   21.0684 C   0  0  0  0  0  0
  -29.8696  -20.5455   20.1579 C   0  0  0  0  0  0
  -29.7102  -23.0761   19.5768 C   0  0  0  0  0  0
  -28.4328  -25.3050   19.8429 C   0  0  0  0  0  0
  -30.4155  -21.9901   20.4852 C   0  0  2  0  0  0
  -29.8557  -24.6464   19.8002 C   0  0  0  0  0  0
  -29.9144  -15.5521   20.9391 N   0  0  0  0  0  0
  -31.4839  -12.4631   19.0997 H   0  0  0  0  0  0
  -30.3675  -11.3256   19.8011 H   0  0  0  0  0  0
  -29.7754  -11.8137   17.4085 H   0  0  0  0  0  0
  -29.6731  -13.5144   17.7628 H   0  0  0  0  0  0
  -27.8545  -11.3131   18.8007 H   0  0  0  0  0  0
  -27.3933  -12.6338   17.7527 H   0  0  0  0  0  0
  -27.6956  -14.2609   19.5385 H   0  0  0  0  0  0
  -28.6999  -11.9829   21.3227 H   0  0  0  0  0  0
  -28.4654  -13.6292   21.8427 H   0  0  0  0  0  0
  -25.2771   -9.5721   22.4669 H   0  0  0  0  0  0
  -24.0041   -7.4646   22.7402 H   0  0  0  0  0  0
  -21.0851   -8.8704   19.8938 H   0  0  0  0  0  0
  -22.3645  -10.9616   19.6079 H   0  0  0  0  0  0
  -21.1916   -7.6088   23.9709 H   0  0  0  0  0  0
  -21.1530   -6.0451   25.9079 H   0  0  0  0  0  0
  -22.0607   -2.7580   23.2803 H   0  0  0  0  0  0
  -22.4075  -12.0032   22.5000 H   0  0  0  0  0  0
  -21.0998  -13.1201   22.2354 H   0  0  0  0  0  0
  -24.6539  -15.8383   20.4875 H   0  0  0  0  0  0
  -26.2704  -15.6293   20.0519 H   0  0  0  0  0  0
  -26.7122  -32.5493   23.1159 H   0  0  0  0  0  0
  -25.0153  -33.9733   25.0557 H   0  0  0  0  0  0
  -22.6927  -31.3089   21.4222 H   0  0  0  0  0  0
  -23.3786  -35.9599   23.3343 H   0  0  0  0  0  0
  -24.3570  -36.8883   22.2064 H   0  0  0  0  0  0
  -23.7220  -37.6510   23.6638 H   0  0  0  0  0  0
  -26.0683  -31.6018   20.6166 H   0  0  0  0  0  0
  -26.8170  -30.8628   22.0043 H   0  0  0  0  0  0
  -28.1079  -29.1138   21.1374 H   0  0  0  0  0  0
  -26.0225  -25.9648   19.0289 H   0  0  0  0  0  0
  -23.9835  -27.2948   19.0395 H   0  0  0  0  0  0
  -23.7076  -30.5985   19.4134 H   0  0  0  0  0  0
  -22.7368  -29.2387   19.8836 H   0  0  0  0  0  0
  -25.1301  -36.2008   25.0875 H   0  0  0  0  0  0
  -20.9892  -28.3275   24.1514 H   0  0  0  0  0  0
  -20.5846  -26.2265   23.3661 H   0  0  0  0  0  0
  -21.6637  -26.7561   22.1174 H   0  0  0  0  0  0
  -19.6936  -25.6317   21.1283 H   0  0  0  0  0  0
  -19.6720  -27.3247   20.6868 H   0  0  0  0  0  0
  -17.4240  -26.6750   21.3975 H   0  0  0  0  0  0
  -18.0193  -26.0048   22.8988 H   0  0  0  0  0  0
  -19.7905  -30.7283   24.2254 H   0  0  0  0  0  0
  -17.4986  -31.6265   24.5168 H   0  0  0  0  0  0
  -15.5324  -30.2979   23.7705 H   0  0  0  0  0  0
  -15.8624  -28.0864   22.7033 H   0  0  0  0  0  0
  -24.5872  -30.7138   25.7814 H   0  0  0  0  0  0
  -24.9089  -32.2857   26.5064 H   0  0  0  0  0  0
  -25.8128  -30.8717   27.0185 H   0  0  0  0  0  0
  -26.3056  -29.6668   24.1307 H   0  0  0  0  0  0
  -27.4237  -29.7365   25.4723 H   0  0  0  0  0  0
  -27.8841  -30.4342   23.9395 H   0  0  0  0  0  0
  -27.2631  -33.3626   26.2084 H   0  0  0  0  0  0
  -28.3816  -32.6978   25.0271 H   0  0  0  0  0  0
  -28.0792  -31.8488   26.5369 H   0  0  0  0  0  0
  -28.2631  -38.0090   24.7501 H   0  0  0  0  0  0
  -28.1041  -36.2619   24.6301 H   0  0  0  0  0  0
  -27.2265  -37.1479   25.8857 H   0  0  0  0  0  0
  -20.9376  -29.8562   21.6799 H   0  0  0  0  0  0
  -26.0211  -38.2900   24.1378 H   0  0  0  0  0  0
  -31.0401  -20.4613   22.7112 H   0  0  0  0  0  0
  -31.5419  -18.5055   24.1086 H   0  0  0  0  0  0
  -29.6016  -17.8509   19.5799 H   0  0  0  0  0  0
  -30.8795  -16.1341   24.6375 H   0  0  0  0  0  0
  -32.1792  -15.5856   23.5766 H   0  0  0  0  0  0
  -30.5323  -14.9848   23.3697 H   0  0  0  0  0  0
  -32.4216  -21.1030   20.6681 H   0  0  0  0  0  0
  -32.3929  -22.8041   20.9907 H   0  0  0  0  0  0
  -32.2699  -22.2249   19.3315 H   0  0  0  0  0  0
  -31.5905  -24.8087   18.4663 H   0  0  0  0  0  0
  -30.7450  -26.3293   18.7148 H   0  0  0  0  0  0
  -30.0612  -25.1068   17.6520 H   0  0  0  0  0  0
  -31.7191  -24.8521   20.9339 H   0  0  0  0  0  0
  -30.3249  -24.4996   21.9592 H   0  0  0  0  0  0
  -30.5829  -26.0996   21.2922 H   0  0  0  0  0  0
  -28.7803  -20.5723   20.2073 H   0  0  0  0  0  0
  -30.1093  -20.3214   19.1183 H   0  0  0  0  0  0
  -28.6437  -22.8499   19.6074 H   0  0  0  0  0  0
  -29.9818  -22.8497   18.5419 H   0  0  0  0  0  0
  -27.8247  -24.8251   20.6131 H   0  0  0  0  0  0
  -27.9558  -25.1109   18.8825 H   0  0  0  0  0  0
  -30.1446  -22.1998   21.5209 H   0  0  0  0  0  0
  -28.9444  -15.3227   21.0836 H   0  0  0  0  0  0
  1 25  1  0  0  0
  1 30  2  0  0  0
  1 86  1  0  0  0
  2  3  1  0  0  0
  2 25  1  0  0  0
  2 87  1  0  0  0
  2 88  1  0  0  0
  3  4  1  0  0  0
  3 89  1  0  0  0
  3 90  1  0  0  0
  4  5  1  0  0  0
  4 91  1  0  0  0
  4 92  1  0  0  0
  5  6  1  0  0  0
  5 26  1  0  0  0
  5 93  1  0  0  0
  6 25  1  0  0  0
  6 94  1  0  0  0
  6 95  1  0  0  0
  7  8  2  0  0  0
  7 26  1  0  0  0
  7 29  1  0  0  0
  8  9  1  0  0  0
  8 22  1  0  0  0
  9 10  1  0  0  0
  9 27  2  0  0  0
 10 11  2  0  0  0
 10 15  1  0  0  0
 11 12  1  0  0  0
 11 96  1  0  0  0
 12 13  2  0  0  0
 12 97  1  0  0  0
 13 14  1  0  0  0
 13 31  1  0  0  0
 14 15  2  0  0  0
 14 98  1  0  0  0
 15 99  1  0  0  0
 16 17  2  0  0  0
 16 21  1  0  0  0
 16 31  1  0  0  0
 17 18  1  0  0  0
 17100  1  0  0  0
 18 19  2  0  0  0
 18101  1  0  0  0
 19 20  1  0  0  0
 19 24  1  0  0  0
 20 21  2  0  0  0
 20102  1  0  0  0
 21 23  1  0  0  0
 22 28  1  0  0  0
 22 32  2  0  0  0
 26 27  1  0  0  0
 28103  1  0  0  0
 28104  1  0  0  0
 29105  1  0  0  0
 29106  1  0  0  0
 33 34  1  0  0  0
 33 66  1  0  0  0
 33 70  2  0  0  0
 34 36  1  0  0  0
 34 59  1  0  0  0
 34107  1  0  0  0
 35 44  2  0  0  0
 35 45  1  0  0  0
 35 68  1  0  0  0
 36 56  1  0  0  0
 36108  1  0  0  0
 37 39  1  0  0  0
 37 47  1  0  0  0
 37 66  1  0  0  0
 37109  1  0  0  0
 38 43  2  0  0  0
 38 46  1  0  0  0
 38 47  1  0  0  0
 39 64  1  0  0  0
 39 67  2  0  0  0
 40 52  1  0  0  0
 40 53  2  0  0  0
 40 58  1  0  0  0
 41110  1  0  0  0
 41111  1  0  0  0
 41112  1  0  0  0
 41 48  1  0  0  0
 42 43  1  0  0  0
 42 66  1  0  0  0
 42113  1  0  0  0
 42114  1  0  0  0
 43 44  1  0  0  0
 44115  1  0  0  0
 45 46  2  0  0  0
 45116  1  0  0  0
 46117  1  0  0  0
 47118  1  0  0  0
 47119  1  0  0  0
 48 56  1  0  0  0
 48 65  1  0  0  0
 48120  1  0  0  0
 49 50  1  0  0  0
 49 53  1  0  0  0
 49 64  1  0  0  0
 49121  1  0  0  0
 50 51  1  0  0  0
 50122  1  0  0  0
 50123  1  0  0  0
 51 52  1  0  0  0
 51124  1  0  0  0
 51125  1  0  0  0
 52126  1  0  0  0
 52127  1  0  0  0
 53 54  1  0  0  0
 54 55  2  0  0  0
 54128  1  0  0  0
 55 57  1  0  0  0
 55129  1  0  0  0
 56 69  2  0  0  0
 57 58  2  0  0  0
 57130  1  0  0  0
 58131  1  0  0  0
 59 60  1  0  0  0
 59 61  1  0  0  0
 59 62  1  0  0  0
 60132  1  0  0  0
 60133  1  0  0  0
 60134  1  0  0  0
 61135  1  0  0  0
 61136  1  0  0  0
 61137  1  0  0  0
 62138  1  0  0  0
 62139  1  0  0  0
 62140  1  0  0  0
 63 65  1  0  0  0
 63141  1  0  0  0
 63142  1  0  0  0
 63143  1  0  0  0
 64144  1  0  0  0
 65145  1  0  0  0
 68 83  1  0  0  0
 71 72  2  0  0  0
 71 74  1  0  0  0
 71146  1  0  0  0
 72 75  1  0  0  0
 72147  1  0  0  0
 73 74  2  0  0  0
 73 76  1  0  0  0
 73148  1  0  0  0
 74 81  1  0  0  0
 75 76  2  0  0  0
 75 77  1  0  0  0
 76 86  1  0  0  0
 77149  1  0  0  0
 77150  1  0  0  0
 77151  1  0  0  0
 78152  1  0  0  0
 78153  1  0  0  0
 78154  1  0  0  0
 78 84  1  0  0  0
 79155  1  0  0  0
 79156  1  0  0  0
 79157  1  0  0  0
 79 85  1  0  0  0
 80 85  1  0  0  0
 80158  1  0  0  0
 80159  1  0  0  0
 80160  1  0  0  0
 81 84  1  0  0  0
 81161  1  0  0  0
 81162  1  0  0  0
 82 84  1  0  0  0
 82 85  1  0  0  0
 82163  1  0  0  0
 82164  1  0  0  0
 83 85  1  0  0  0
 83165  1  0  0  0
 83166  1  0  0  0
 84167  1  0  0  0
 86168  1  0  0  0
M  ISO  4   1 100  68 101  83 101  86 100
M  END
> <chiral flag>
0

> <version>
0

> <s_m_source_file>
/data/baiqing/PycharmProjects/Reinvent-master-3.2/result/LINK_invent/BTK/process_docking_weight1_custom_product_contain_oxygen_bond_distance_aromatic_linkinvent_7_9_3/rearranged_h_0137.sdf

> <i_m_source_file_index>
7

> <r_mmod_Potential_Energy-OPLS-2005>
49.0873908996582

> <r_mmod_Stretch_Energy-OPLS-2005>
54.9454460144043

> <r_mmod_Bend_Energy-OPLS-2005>
125.950736999512

> <r_mmod_Torsional_Energy-OPLS-2005>
264.269134521484

> <r_mmod_Improper_Torsional_Energy-OPLS-2005>
6.12417697906494

> <r_mmod_Van_der_Waal_Energy-OPLS-2005>
154.729385375977

> <r_mmod_Electrostatic_Energy-OPLS-2005>
-381.958038330078

> <r_mmod_Solvation_Energy-OPLS-2005>
-192.340728759766

> <b_mmod_Minimization_Converged-OPLS-2005>
0

> <r_mmod_RMS_Derivative-OPLS-2005>
5.99420166015625

$$$$
7
                    3D
 Structure written by MMmdl.
165173  0  0  1  0            999 V2000
  -30.7781  -14.3483   20.7052 C   0  0  0  0  0  0
  -30.3911  -12.2696   19.4298 C   0  0  0  0  0  0
  -29.4855  -12.5229   18.2096 C   0  0  0  0  0  0
  -27.9995  -12.4060   18.5971 C   0  0  0  0  0  0
  -27.6554  -13.2085   19.8759 C   0  0  2  0  0  0
  -28.6723  -12.9308   20.9985 C   0  0  0  0  0  0
  -25.2526  -13.8159   20.5635 C   0  0  0  0  0  0
  -24.1798  -13.0418   20.9187 C   0  0  0  0  0  0
  -24.6359  -11.6888   20.8738 C   0  0  0  0  0  0
  -23.9028  -10.4266   21.0422 C   0  0  0  0  0  0
  -24.3578   -9.4179   21.9196 C   0  0  0  0  0  0
  -23.6255   -8.2215   22.0752 C   0  0  0  0  0  0
  -22.4257   -8.0254   21.3507 C   0  0  0  0  0  0
  -21.9862   -9.0243   20.4640 C   0  0  0  0  0  0
  -22.7198  -10.2125   20.3065 C   0  0  0  0  0  0
  -21.6841   -6.0715   22.5269 C   0  0  0  0  0  0
  -21.4019   -6.5630   23.8198 C   0  0  0  0  0  0
  -21.3644   -5.6791   24.9165 C   0  0  0  0  0  0
  -21.6045   -4.3059   24.7222 C   0  0  0  0  0  0
  -21.8813   -3.8130   23.4343 C   0  0  0  0  0  0
  -21.9180   -4.6941   22.3394 C   0  0  0  0  0  0
  -22.7836  -13.5238   21.1871 C   0  0  0  0  0  0
  -22.1652   -4.2132   21.0968 F   0  0  0  0  0  0
  -21.5620   -3.4541   25.7731 F   0  0  0  0  0  0
  -30.0302  -13.2222   20.4964 N   0  0  0  0  0  0
  -26.2952  -12.9342   20.3291 N   0  0  0  0  0  0
  -25.9270  -11.6492   20.5710 N   0  0  0  0  0  0
  -22.0461  -12.8253   22.0450 N   0  0  0  0  0  0
  -25.4224  -15.1846   20.3949 N   0  0  0  0  0  0
  -31.7545  -14.6291   19.9998 O   0  0  0  0  0  0
  -21.6608   -6.8859   21.4230 O   0  0  0  0  0  0
  -22.3531  -14.5563   20.6764 O   0  0  0  0  0  0
  -24.6164  -31.8713   23.2105 C   0  0  0  0  0  0
  -25.9067  -32.4841   23.8394 C   0  0  1  0  0  0
  -27.2397  -27.4571   20.0708 C   0  0  0  0  0  0
  -25.5936  -33.8641   24.2349 N   0  0  0  0  0  0
  -23.4021  -30.4933   21.5553 C   0  0  2  0  0  0
  -24.8457  -28.9624   20.1225 C   0  0  0  0  0  0
  -22.7410  -29.4659   22.5025 C   0  0  0  0  0  0
  -18.0271  -28.1396   22.8504 C   0  0  0  0  0  0
  -24.1498  -36.7291   23.2629 C   0  0  0  0  0  0
  -25.9290  -30.8417   21.3622 C   0  0  0  0  0  0
  -26.0087  -29.4782   20.7064 C   0  0  0  0  0  0
  -27.2079  -28.7333   20.6780 C   0  0  0  0  0  0
  -26.0477  -26.9473   19.4998 C   0  0  0  0  0  0
  -24.8573  -27.6927   19.5251 C   0  0  0  0  0  0
  -23.6090  -29.8258   20.1712 C   0  0  0  0  0  0
  -25.4126  -36.3106   24.0329 C   0  0  1  0  0  0
  -20.5859  -28.3673   23.1341 C   0  0  2  0  0  0
  -20.6757  -26.9409   22.5425 C   0  0  0  0  0  0
  -19.5734  -26.6407   21.5216 C   0  0  0  0  0  0
  -18.1920  -26.7948   22.1630 C   0  0  0  0  0  0
  -19.1516  -28.8856   23.2918 C   0  0  0  0  0  0
  -18.9444  -30.1465   23.8929 C   0  0  0  0  0  0
  -17.6445  -30.6599   24.0585 C   0  0  0  0  0  0
  -25.9049  -34.9476   23.5120 C   0  0  0  0  0  0
  -16.5337  -29.9103   23.6344 C   0  0  0  0  0  0
  -16.7257  -28.6522   23.0359 C   0  0  0  0  0  0
  -26.4482  -31.6627   25.0736 C   0  0  0  0  0  0
  -25.3712  -31.3764   26.1470 C   0  0  0  0  0  0
  -27.0326  -30.3076   24.6113 C   0  0  0  0  0  0
  -27.6084  -32.4322   25.7491 C   0  0  0  0  0  0
  -27.5588  -37.1812   24.8466 C   0  0  0  0  0  0
  -21.4140  -29.3043   22.3753 N   0  0  0  0  0  0
  -26.4313  -37.3790   23.9389 N   0  0  0  0  0  0
  -24.6676  -31.0802   22.1015 N   0  0  0  0  0  0
  -23.4181  -28.8184   23.3046 O   0  0  0  0  0  0
  -28.4306  -26.7623   20.0480 O   0  0  0  0  0  0
  -26.5574  -34.8907   22.4664 O   0  0  0  0  0  0
  -23.5352  -32.1462   23.7506 O   0  0  0  0  0  0
  -32.6065  -18.3454   21.7523 C   0  0  0  0  0  0
  -32.1663  -17.0236   21.9016 C   0  0  0  0  0  0
  -31.6804  -19.3465   21.4270 C   0  0  0  0  0  0
  -30.8109  -16.6759   21.7095 C   0  0  0  0  0  0
  -30.3166  -19.0399   21.2401 C   0  0  0  0  0  0
  -29.8666  -17.6968   21.3788 C   0  0  0  0  0  0
  -30.4502  -15.2467   21.9071 C   0  0  0  0  0  0
  -29.2429  -22.2383   19.3185 C   0  0  0  0  0  0
  -27.6051  -17.5664   22.5148 C   0  0  0  0  0  0
  -29.3982  -20.2161   20.9055 C   0  0  0  0  0  0
  -28.3837  -17.3683   21.2071 C   0  0  0  0  0  0
  -29.6984  -20.7895   19.5052 C   0  0  0  0  0  0
  -29.6605  -23.2414   20.3992 C   0  0  0  0  0  0
  -29.7451  -24.7169   19.9655 C   0  0  0  0  0  0
  -28.3828  -25.3790   19.6940 C   0  0  0  0  0  0
  -29.9875  -14.8652   23.0271 N   0  0  0  0  0  0
  -28.6114  -22.5806   18.3157 O   0  0  0  0  0  0
  -31.4440  -12.3271   19.1494 H   0  0  0  0  0  0
  -30.2484  -11.2490   19.7909 H   0  0  0  0  0  0
  -29.7200  -11.8101   17.4185 H   0  0  0  0  0  0
  -29.6929  -13.5113   17.7997 H   0  0  0  0  0  0
  -27.7702  -11.3512   18.7482 H   0  0  0  0  0  0
  -27.3697  -12.7351   17.7688 H   0  0  0  0  0  0
  -27.7228  -14.2642   19.6191 H   0  0  0  0  0  0
  -28.6137  -11.8835   21.2996 H   0  0  0  0  0  0
  -28.3627  -13.4903   21.8764 H   0  0  0  0  0  0
  -25.2703   -9.5674   22.4795 H   0  0  0  0  0  0
  -23.9938   -7.4611   22.7482 H   0  0  0  0  0  0
  -21.0770   -8.8780   19.8969 H   0  0  0  0  0  0
  -22.3626  -10.9678   19.6201 H   0  0  0  0  0  0
  -21.2039   -7.6139   23.9703 H   0  0  0  0  0  0
  -21.1473   -6.0520   25.9069 H   0  0  0  0  0  0
  -22.0606   -2.7587   23.2856 H   0  0  0  0  0  0
  -22.4047  -11.9906   22.4842 H   0  0  0  0  0  0
  -21.1123  -13.1378   22.2736 H   0  0  0  0  0  0
  -24.6544  -15.8418   20.4811 H   0  0  0  0  0  0
  -26.2595  -15.6018   20.0103 H   0  0  0  0  0  0
  -26.7145  -32.5574   23.1164 H   0  0  0  0  0  0
  -25.0184  -33.9826   25.0558 H   0  0  0  0  0  0
  -22.6931  -31.3103   21.4157 H   0  0  0  0  0  0
  -23.3759  -35.9626   23.3317 H   0  0  0  0  0  0
  -24.3581  -36.8865   22.2033 H   0  0  0  0  0  0
  -23.7239  -37.6500   23.6619 H   0  0  0  0  0  0
  -26.0390  -31.6138   20.5997 H   0  0  0  0  0  0
  -26.8186  -30.8940   21.9793 H   0  0  0  0  0  0
  -28.1119  -29.1349   21.1179 H   0  0  0  0  0  0
  -26.0124  -25.9793   19.0250 H   0  0  0  0  0  0
  -23.9572  -27.2867   19.0837 H   0  0  0  0  0  0
  -23.7232  -30.5988   19.4094 H   0  0  0  0  0  0
  -22.7337  -29.2441   19.8727 H   0  0  0  0  0  0
  -25.1295  -36.1968   25.0819 H   0  0  0  0  0  0
  -20.9955  -28.3225   24.1457 H   0  0  0  0  0  0
  -20.5683  -26.2259   23.3600 H   0  0  0  0  0  0
  -21.6635  -26.7478   22.1200 H   0  0  0  0  0  0
  -19.6881  -25.6320   21.1241 H   0  0  0  0  0  0
  -19.6681  -27.3232   20.6755 H   0  0  0  0  0  0
  -17.4187  -26.6728   21.4022 H   0  0  0  0  0  0
  -18.0300  -26.0088   22.9023 H   0  0  0  0  0  0
  -19.7909  -30.7277   24.2319 H   0  0  0  0  0  0
  -17.4992  -31.6279   24.5175 H   0  0  0  0  0  0
  -15.5337  -30.3006   23.7649 H   0  0  0  0  0  0
  -15.8663  -28.0844   22.7061 H   0  0  0  0  0  0
  -24.5889  -30.7114   25.7771 H   0  0  0  0  0  0
  -24.8922  -32.2960   26.4857 H   0  0  0  0  0  0
  -25.8047  -30.8949   27.0251 H   0  0  0  0  0  0
  -26.2914  -29.6858   24.1097 H   0  0  0  0  0  0
  -27.4008  -29.7290   25.4591 H   0  0  0  0  0  0
  -27.8757  -30.4379   23.9330 H   0  0  0  0  0  0
  -27.2742  -33.3607   26.2120 H   0  0  0  0  0  0
  -28.3887  -32.6908   25.0320 H   0  0  0  0  0  0
  -28.0764  -31.8411   26.5366 H   0  0  0  0  0  0
  -28.2628  -38.0094   24.7519 H   0  0  0  0  0  0
  -28.1066  -36.2628   24.6304 H   0  0  0  0  0  0
  -27.2299  -37.1469   25.8869 H   0  0  0  0  0  0
  -20.9285  -29.8762   21.6987 H   0  0  0  0  0  0
  -26.0191  -38.2858   24.1408 H   0  0  0  0  0  0
  -33.6509  -18.5858   21.8982 H   0  0  0  0  0  0
  -32.8829  -16.2601   22.1762 H   0  0  0  0  0  0
  -32.0225  -20.3674   21.3303 H   0  0  0  0  0  0
  -27.9428  -16.8681   23.2791 H   0  0  0  0  0  0
  -26.5362  -17.4095   22.3664 H   0  0  0  0  0  0
  -27.7451  -18.5697   22.9174 H   0  0  0  0  0  0
  -29.5501  -20.9584   21.6903 H   0  0  0  0  0  0
  -28.3399  -19.9768   20.9759 H   0  0  0  0  0  0
  -28.2459  -16.3500   20.8466 H   0  0  0  0  0  0
  -27.9585  -17.9837   20.4143 H   0  0  0  0  0  0
  -29.2603  -20.1503   18.7370 H   0  0  0  0  0  0
  -30.7742  -20.7903   19.3310 H   0  0  0  0  0  0
  -28.9651  -23.1509   21.2335 H   0  0  0  0  0  0
  -30.6320  -22.9317   20.7799 H   0  0  0  0  0  0
  -30.3953  -24.8186   19.0958 H   0  0  0  0  0  0
  -30.2442  -25.2506   20.7747 H   0  0  0  0  0  0
  -27.6167  -24.8781   20.2889 H   0  0  0  0  0  0
  -28.1215  -25.2689   18.6395 H   0  0  0  0  0  0
  -29.8937  -15.6494   23.6637 H   0  0  0  0  0  0
  1 25  1  0  0  0
  1 30  2  0  0  0
  1 77  1  0  0  0
  2  3  1  0  0  0
  2 25  1  0  0  0
  2 88  1  0  0  0
  2 89  1  0  0  0
  3  4  1  0  0  0
  3 90  1  0  0  0
  3 91  1  0  0  0
  4  5  1  0  0  0
  4 92  1  0  0  0
  4 93  1  0  0  0
  5  6  1  0  0  0
  5 26  1  0  0  0
  5 94  1  0  0  0
  6 25  1  0  0  0
  6 95  1  0  0  0
  6 96  1  0  0  0
  7  8  2  0  0  0
  7 26  1  0  0  0
  7 29  1  0  0  0
  8  9  1  0  0  0
  8 22  1  0  0  0
  9 10  1  0  0  0
  9 27  2  0  0  0
 10 11  2  0  0  0
 10 15  1  0  0  0
 11 12  1  0  0  0
 11 97  1  0  0  0
 12 13  2  0  0  0
 12 98  1  0  0  0
 13 14  1  0  0  0
 13 31  1  0  0  0
 14 15  2  0  0  0
 14 99  1  0  0  0
 15100  1  0  0  0
 16 17  2  0  0  0
 16 21  1  0  0  0
 16 31  1  0  0  0
 17 18  1  0  0  0
 17101  1  0  0  0
 18 19  2  0  0  0
 18102  1  0  0  0
 19 20  1  0  0  0
 19 24  1  0  0  0
 20 21  2  0  0  0
 20103  1  0  0  0
 21 23  1  0  0  0
 22 28  1  0  0  0
 22 32  2  0  0  0
 26 27  1  0  0  0
 28104  1  0  0  0
 28105  1  0  0  0
 29106  1  0  0  0
 29107  1  0  0  0
 33 34  1  0  0  0
 33 66  1  0  0  0
 33 70  2  0  0  0
 34 36  1  0  0  0
 34 59  1  0  0  0
 34108  1  0  0  0
 35 44  2  0  0  0
 35 45  1  0  0  0
 35 68  1  0  0  0
 36 56  1  0  0  0
 36109  1  0  0  0
 37 39  1  0  0  0
 37 47  1  0  0  0
 37 66  1  0  0  0
 37110  1  0  0  0
 38 43  2  0  0  0
 38 46  1  0  0  0
 38 47  1  0  0  0
 39 64  1  0  0  0
 39 67  2  0  0  0
 40 52  1  0  0  0
 40 53  2  0  0  0
 40 58  1  0  0  0
 41111  1  0  0  0
 41112  1  0  0  0
 41113  1  0  0  0
 41 48  1  0  0  0
 42 43  1  0  0  0
 42 66  1  0  0  0
 42114  1  0  0  0
 42115  1  0  0  0
 43 44  1  0  0  0
 44116  1  0  0  0
 45 46  2  0  0  0
 45117  1  0  0  0
 46118  1  0  0  0
 47119  1  0  0  0
 47120  1  0  0  0
 48 56  1  0  0  0
 48 65  1  0  0  0
 48121  1  0  0  0
 49 50  1  0  0  0
 49 53  1  0  0  0
 49 64  1  0  0  0
 49122  1  0  0  0
 50 51  1  0  0  0
 50123  1  0  0  0
 50124  1  0  0  0
 51 52  1  0  0  0
 51125  1  0  0  0
 51126  1  0  0  0
 52127  1  0  0  0
 52128  1  0  0  0
 53 54  1  0  0  0
 54 55  2  0  0  0
 54129  1  0  0  0
 55 57  1  0  0  0
 55130  1  0  0  0
 56 69  2  0  0  0
 57 58  2  0  0  0
 57131  1  0  0  0
 58132  1  0  0  0
 59 60  1  0  0  0
 59 61  1  0  0  0
 59 62  1  0  0  0
 60133  1  0  0  0
 60134  1  0  0  0
 60135  1  0  0  0
 61136  1  0  0  0
 61137  1  0  0  0
 61138  1  0  0  0
 62139  1  0  0  0
 62140  1  0  0  0
 62141  1  0  0  0
 63 65  1  0  0  0
 63142  1  0  0  0
 63143  1  0  0  0
 63144  1  0  0  0
 64145  1  0  0  0
 65146  1  0  0  0
 68 85  1  0  0  0
 71 72  2  0  0  0
 71 73  1  0  0  0
 71147  1  0  0  0
 72 74  1  0  0  0
 72148  1  0  0  0
 73 75  2  0  0  0
 73149  1  0  0  0
 74 76  2  0  0  0
 74 77  1  0  0  0
 75 76  1  0  0  0
 75 80  1  0  0  0
 76 81  1  0  0  0
 77 86  2  0  0  0
 78 82  1  0  0  0
 78 83  1  0  0  0
 78 87  2  0  0  0
 79 81  1  0  0  0
 79150  1  0  0  0
 79151  1  0  0  0
 79152  1  0  0  0
 80 82  1  0  0  0
 80153  1  0  0  0
 80154  1  0  0  0
 81155  1  0  0  0
 81156  1  0  0  0
 82157  1  0  0  0
 82158  1  0  0  0
 83 84  1  0  0  0
 83159  1  0  0  0
 83160  1  0  0  0
 84 85  1  0  0  0
 84161  1  0  0  0
 84162  1  0  0  0
 85163  1  0  0  0
 85164  1  0  0  0
 86165  1  0  0  0
M  ISO  4   1 100  68 101  77 100  85 101
M  END
> <chiral flag>
0

> <version>
0

> <s_m_source_file>
/data/baiqing/PycharmProjects/Reinvent-master-3.2/result/LINK_invent/BTK/process_docking_weight1_custom_product_contain_oxygen_bond_distance_aromatic_linkinvent_7_9_3/rearranged_h_0137.sdf

> <i_m_source_file_index>
8

> <r_mmod_Potential_Energy-OPLS-2005>
73.4816055297852

> <r_mmod_Stretch_Energy-OPLS-2005>
39.4062461853027

> <r_mmod_Bend_Energy-OPLS-2005>
107.705520629883

> <r_mmod_Torsional_Energy-OPLS-2005>
207.980087280273

> <r_mmod_Improper_Torsional_Energy-OPLS-2005>
3.08112716674805

> <r_mmod_Van_der_Waal_Energy-OPLS-2005>
164.629409790039

> <r_mmod_Electrostatic_Energy-OPLS-2005>
-257.230590820312

> <r_mmod_Solvation_Energy-OPLS-2005>
-200.88916015625

> <b_mmod_Minimization_Converged-OPLS-2005>
0

> <r_mmod_RMS_Derivative-OPLS-2005>
4.34941005706787

$$$$
8
                    3D
 Structure written by MMmdl.
166174  0  0  1  0            999 V2000
  -30.6348  -14.5543   20.6112 C   0  0  0  0  0  0
  -30.4542  -12.3733   19.4191 C   0  0  0  0  0  0
  -29.5067  -12.5332   18.2098 C   0  0  0  0  0  0
  -28.0290  -12.3607   18.6193 C   0  0  0  0  0  0
  -27.6668  -13.2004   19.8708 C   0  0  2  0  0  0
  -28.7102  -12.9595   20.9842 C   0  0  0  0  0  0
  -25.2605  -13.8116   20.5582 C   0  0  0  0  0  0
  -24.1861  -13.0414   20.9134 C   0  0  0  0  0  0
  -24.6421  -11.6879   20.8739 C   0  0  0  0  0  0
  -23.9081  -10.4271   21.0427 C   0  0  0  0  0  0
  -24.3620   -9.4178   21.9201 C   0  0  0  0  0  0
  -23.6279   -8.2224   22.0765 C   0  0  0  0  0  0
  -22.4258   -8.0289   21.3564 C   0  0  0  0  0  0
  -21.9903   -9.0264   20.4668 C   0  0  0  0  0  0
  -22.7248  -10.2128   20.3075 C   0  0  0  0  0  0
  -21.6838   -6.0739   22.5275 C   0  0  0  0  0  0
  -21.4003   -6.5645   23.8209 C   0  0  0  0  0  0
  -21.3665   -5.6808   24.9174 C   0  0  0  0  0  0
  -21.6047   -4.3072   24.7215 C   0  0  0  0  0  0
  -21.8817   -3.8153   23.4334 C   0  0  0  0  0  0
  -21.9185   -4.6966   22.3394 C   0  0  0  0  0  0
  -22.7881  -13.5219   21.1801 C   0  0  0  0  0  0
  -22.1661   -4.2166   21.0963 F   0  0  0  0  0  0
  -21.5621   -3.4551   25.7718 F   0  0  0  0  0  0
  -30.0424  -13.3295   20.4593 N   0  0  0  0  0  0
  -26.3057  -12.9282   20.3322 N   0  0  0  0  0  0
  -25.9347  -11.6453   20.5760 N   0  0  0  0  0  0
  -22.0528  -12.8226   22.0372 N   0  0  0  0  0  0
  -25.4298  -15.1815   20.3831 N   0  0  0  0  0  0
  -31.6877  -14.8648   20.0410 O   0  0  0  0  0  0
  -21.6626   -6.8882   21.4243 O   0  0  0  0  0  0
  -22.3562  -14.5531   20.6662 O   0  0  0  0  0  0
  -24.6240  -31.8591   23.2030 C   0  0  0  0  0  0
  -25.9087  -32.4791   23.8365 C   0  0  1  0  0  0
  -27.2411  -27.3453   20.1066 C   0  0  0  0  0  0
  -25.5908  -33.8585   24.2292 N   0  0  0  0  0  0
  -23.4172  -30.4785   21.5476 C   0  0  2  0  0  0
  -24.8644  -28.9267   20.1201 C   0  0  0  0  0  0
  -22.7464  -29.4605   22.4993 C   0  0  0  0  0  0
  -18.0273  -28.1407   22.8501 C   0  0  0  0  0  0
  -24.1479  -36.7279   23.2634 C   0  0  0  0  0  0
  -25.9547  -30.7985   21.3663 C   0  0  0  0  0  0
  -26.0318  -29.4239   20.7132 C   0  0  0  0  0  0
  -27.2226  -28.6447   20.6927 C   0  0  0  0  0  0
  -26.0476  -26.8795   19.5130 C   0  0  0  0  0  0
  -24.8725  -27.6586   19.5135 C   0  0  0  0  0  0
  -23.6303  -29.8027   20.1670 C   0  0  0  0  0  0
  -25.4112  -36.3080   24.0324 C   0  0  1  0  0  0
  -20.5870  -28.3682   23.1330 C   0  0  2  0  0  0
  -20.6771  -26.9419   22.5439 C   0  0  0  0  0  0
  -19.5746  -26.6408   21.5232 C   0  0  0  0  0  0
  -18.1918  -26.7956   22.1630 C   0  0  0  0  0  0
  -19.1525  -28.8867   23.2900 C   0  0  0  0  0  0
  -18.9439  -30.1469   23.8922 C   0  0  0  0  0  0
  -17.6440  -30.6612   24.0567 C   0  0  0  0  0  0
  -25.9042  -34.9449   23.5104 C   0  0  0  0  0  0
  -16.5337  -29.9111   23.6342 C   0  0  0  0  0  0
  -16.7260  -28.6520   23.0382 C   0  0  0  0  0  0
  -26.4478  -31.6594   25.0731 C   0  0  0  0  0  0
  -25.3704  -31.3717   26.1452 C   0  0  0  0  0  0
  -27.0301  -30.3024   24.6155 C   0  0  0  0  0  0
  -27.6066  -32.4301   25.7498 C   0  0  0  0  0  0
  -27.5573  -37.1803   24.8470 C   0  0  0  0  0  0
  -21.4180  -29.3016   22.3718 N   0  0  0  0  0  0
  -26.4288  -37.3780   23.9402 N   0  0  0  0  0  0
  -24.6847  -31.0618   22.0970 N   0  0  0  0  0  0
  -23.4195  -28.8146   23.3066 O   0  0  0  0  0  0
  -28.4063  -26.5790   20.0712 O   0  0  0  0  0  0
  -26.5610  -34.8907   22.4672 O   0  0  0  0  0  0
  -23.5415  -32.1371   23.7380 O   0  0  0  0  0  0
  -28.5507  -19.3116   22.1872 C   0  0  0  0  0  0
  -29.9139  -17.8501   20.7956 C   0  0  0  0  0  0
  -28.2927  -18.2462   23.0655 C   0  0  0  0  0  0
  -28.8302  -16.9634   22.8140 C   0  0  0  0  0  0
  -29.6323  -16.7353   21.6616 C   0  0  0  0  0  0
  -29.3679  -19.1647   21.0444 C   0  0  0  0  0  0
  -27.4258  -18.5181   24.2859 C   0  0  0  0  0  0
  -28.5146  -15.8121   23.7752 C   0  0  0  0  0  0
  -30.2703  -24.9159   18.6968 C   0  0  0  0  0  0
  -28.0749  -23.8862   18.1589 C   0  0  0  0  0  0
  -29.6950  -22.7877   19.8509 C   0  0  0  0  0  0
  -28.8590  -21.5086   20.2234 C   0  0  0  0  0  0
  -28.3822  -25.1335   20.3643 C   0  0  0  0  0  0
  -29.0662  -24.1617   19.3061 C   0  0  0  0  0  0
  -30.0050  -15.3407   21.5092 N   0  0  0  0  0  0
  -29.6600  -20.2665   20.2179 O   0  0  0  0  0  0
  -31.4917  -12.5240   19.1166 H   0  0  0  0  0  0
  -30.4099  -11.3586   19.8136 H   0  0  0  0  0  0
  -29.7658  -11.8100   17.4368 H   0  0  0  0  0  0
  -29.6485  -13.5193   17.7648 H   0  0  0  0  0  0
  -27.8585  -11.3026   18.8227 H   0  0  0  0  0  0
  -27.3752  -12.6162   17.7843 H   0  0  0  0  0  0
  -27.7134  -14.2494   19.5754 H   0  0  0  0  0  0
  -28.7186  -11.9049   21.2639 H   0  0  0  0  0  0
  -28.4261  -13.4850   21.8959 H   0  0  0  0  0  0
  -25.2766   -9.5625   22.4784 H   0  0  0  0  0  0
  -24.0006   -7.4593   22.7455 H   0  0  0  0  0  0
  -21.0848   -8.8765   19.8960 H   0  0  0  0  0  0
  -22.3720  -10.9674   19.6188 H   0  0  0  0  0  0
  -21.1990   -7.6157   23.9705 H   0  0  0  0  0  0
  -21.1511   -6.0547   25.9084 H   0  0  0  0  0  0
  -22.0591   -2.7614   23.2822 H   0  0  0  0  0  0
  -22.4156  -11.9917   22.4825 H   0  0  0  0  0  0
  -21.1165  -13.1278   22.2596 H   0  0  0  0  0  0
  -24.6471  -15.8258   20.4129 H   0  0  0  0  0  0
  -26.2673  -15.5968   19.9935 H   0  0  0  0  0  0
  -26.7163  -32.5486   23.1126 H   0  0  0  0  0  0
  -25.0090  -33.9736   25.0460 H   0  0  0  0  0  0
  -22.7103  -31.2966   21.4011 H   0  0  0  0  0  0
  -23.3746  -35.9613   23.3320 H   0  0  0  0  0  0
  -24.3573  -36.8876   22.2046 H   0  0  0  0  0  0
  -23.7218  -37.6478   23.6647 H   0  0  0  0  0  0
  -26.0760  -31.5613   20.5958 H   0  0  0  0  0  0
  -26.8372  -30.8567   21.9914 H   0  0  0  0  0  0
  -28.1278  -29.0244   21.1450 H   0  0  0  0  0  0
  -26.0215  -25.9102   19.0390 H   0  0  0  0  0  0
  -23.9753  -27.2744   19.0469 H   0  0  0  0  0  0
  -23.7444  -30.5716   19.4024 H   0  0  0  0  0  0
  -22.7536  -29.2237   19.8724 H   0  0  0  0  0  0
  -25.1292  -36.1937   25.0822 H   0  0  0  0  0  0
  -20.9951  -28.3263   24.1452 H   0  0  0  0  0  0
  -20.5693  -26.2286   23.3628 H   0  0  0  0  0  0
  -21.6636  -26.7486   22.1208 H   0  0  0  0  0  0
  -19.6899  -25.6315   21.1258 H   0  0  0  0  0  0
  -19.6699  -27.3225   20.6766 H   0  0  0  0  0  0
  -17.4197  -26.6720   21.4028 H   0  0  0  0  0  0
  -18.0299  -26.0109   22.9029 H   0  0  0  0  0  0
  -19.7906  -30.7275   24.2335 H   0  0  0  0  0  0
  -17.4991  -31.6304   24.5142 H   0  0  0  0  0  0
  -15.5334  -30.3016   23.7667 H   0  0  0  0  0  0
  -15.8652  -28.0833   22.7141 H   0  0  0  0  0  0
  -24.5933  -30.7008   25.7766 H   0  0  0  0  0  0
  -24.8836  -32.2874   26.4821 H   0  0  0  0  0  0
  -25.8033  -30.8945   27.0251 H   0  0  0  0  0  0
  -26.2871  -29.6820   24.1144 H   0  0  0  0  0  0
  -27.3948  -29.7243   25.4646 H   0  0  0  0  0  0
  -27.8754  -30.4301   23.9397 H   0  0  0  0  0  0
  -27.2725  -33.3620   26.2064 H   0  0  0  0  0  0
  -28.3898  -32.6819   25.0333 H   0  0  0  0  0  0
  -28.0708  -31.8419   26.5420 H   0  0  0  0  0  0
  -28.2604  -38.0085   24.7518 H   0  0  0  0  0  0
  -28.1050  -36.2622   24.6307 H   0  0  0  0  0  0
  -27.2297  -37.1466   25.8874 H   0  0  0  0  0  0
  -20.9390  -29.8679   21.6865 H   0  0  0  0  0  0
  -26.0165  -38.2846   24.1435 H   0  0  0  0  0  0
  -28.1074  -20.2559   22.4500 H   0  0  0  0  0  0
  -30.5374  -17.6924   19.9268 H   0  0  0  0  0  0
  -28.0146  -18.4256   25.2007 H   0  0  0  0  0  0
  -26.5997  -17.8091   24.3286 H   0  0  0  0  0  0
  -26.9931  -19.5183   24.2752 H   0  0  0  0  0  0
  -29.3731  -15.1578   23.9335 H   0  0  0  0  0  0
  -27.6905  -15.2196   23.3787 H   0  0  0  0  0  0
  -28.2254  -16.1382   24.7722 H   0  0  0  0  0  0
  -30.7203  -24.3607   17.8722 H   0  0  0  0  0  0
  -31.0471  -25.0732   19.4461 H   0  0  0  0  0  0
  -29.9954  -25.8935   18.2984 H   0  0  0  0  0  0
  -28.5166  -23.2549   17.3865 H   0  0  0  0  0  0
  -27.7619  -24.8136   17.6792 H   0  0  0  0  0  0
  -27.1730  -23.3918   18.5164 H   0  0  0  0  0  0
  -30.3913  -22.4346   19.0898 H   0  0  0  0  0  0
  -30.3363  -23.0173   20.7026 H   0  0  0  0  0  0
  -28.0576  -21.3656   19.5006 H   0  0  0  0  0  0
  -28.3828  -21.7392   21.1707 H   0  0  0  0  0  0
  -28.9234  -25.0276   21.3040 H   0  0  0  0  0  0
  -27.3743  -24.7846   20.5915 H   0  0  0  0  0  0
  -29.4295  -14.7533   22.0917 H   0  0  0  0  0  0
  1 25  1  0  0  0
  1 30  2  0  0  0
  1 85  1  0  0  0
  2  3  1  0  0  0
  2 25  1  0  0  0
  2 87  1  0  0  0
  2 88  1  0  0  0
  3  4  1  0  0  0
  3 89  1  0  0  0
  3 90  1  0  0  0
  4  5  1  0  0  0
  4 91  1  0  0  0
  4 92  1  0  0  0
  5  6  1  0  0  0
  5 26  1  0  0  0
  5 93  1  0  0  0
  6 25  1  0  0  0
  6 94  1  0  0  0
  6 95  1  0  0  0
  7  8  2  0  0  0
  7 26  1  0  0  0
  7 29  1  0  0  0
  8  9  1  0  0  0
  8 22  1  0  0  0
  9 10  1  0  0  0
  9 27  2  0  0  0
 10 11  2  0  0  0
 10 15  1  0  0  0
 11 12  1  0  0  0
 11 96  1  0  0  0
 12 13  2  0  0  0
 12 97  1  0  0  0
 13 14  1  0  0  0
 13 31  1  0  0  0
 14 15  2  0  0  0
 14 98  1  0  0  0
 15 99  1  0  0  0
 16 17  2  0  0  0
 16 21  1  0  0  0
 16 31  1  0  0  0
 17 18  1  0  0  0
 17100  1  0  0  0
 18 19  2  0  0  0
 18101  1  0  0  0
 19 20  1  0  0  0
 19 24  1  0  0  0
 20 21  2  0  0  0
 20102  1  0  0  0
 21 23  1  0  0  0
 22 28  1  0  0  0
 22 32  2  0  0  0
 26 27  1  0  0  0
 28103  1  0  0  0
 28104  1  0  0  0
 29105  1  0  0  0
 29106  1  0  0  0
 33 34  1  0  0  0
 33 66  1  0  0  0
 33 70  2  0  0  0
 34 36  1  0  0  0
 34 59  1  0  0  0
 34107  1  0  0  0
 35 44  2  0  0  0
 35 45  1  0  0  0
 35 68  1  0  0  0
 36 56  1  0  0  0
 36108  1  0  0  0
 37 39  1  0  0  0
 37 47  1  0  0  0
 37 66  1  0  0  0
 37109  1  0  0  0
 38 43  2  0  0  0
 38 46  1  0  0  0
 38 47  1  0  0  0
 39 64  1  0  0  0
 39 67  2  0  0  0
 40 52  1  0  0  0
 40 53  2  0  0  0
 40 58  1  0  0  0
 41110  1  0  0  0
 41111  1  0  0  0
 41112  1  0  0  0
 41 48  1  0  0  0
 42 43  1  0  0  0
 42 66  1  0  0  0
 42113  1  0  0  0
 42114  1  0  0  0
 43 44  1  0  0  0
 44115  1  0  0  0
 45 46  2  0  0  0
 45116  1  0  0  0
 46117  1  0  0  0
 47118  1  0  0  0
 47119  1  0  0  0
 48 56  1  0  0  0
 48 65  1  0  0  0
 48120  1  0  0  0
 49 50  1  0  0  0
 49 53  1  0  0  0
 49 64  1  0  0  0
 49121  1  0  0  0
 50 51  1  0  0  0
 50122  1  0  0  0
 50123  1  0  0  0
 51 52  1  0  0  0
 51124  1  0  0  0
 51125  1  0  0  0
 52126  1  0  0  0
 52127  1  0  0  0
 53 54  1  0  0  0
 54 55  2  0  0  0
 54128  1  0  0  0
 55 57  1  0  0  0
 55129  1  0  0  0
 56 69  2  0  0  0
 57 58  2  0  0  0
 57130  1  0  0  0
 58131  1  0  0  0
 59 60  1  0  0  0
 59 61  1  0  0  0
 59 62  1  0  0  0
 60132  1  0  0  0
 60133  1  0  0  0
 60134  1  0  0  0
 61135  1  0  0  0
 61136  1  0  0  0
 61137  1  0  0  0
 62138  1  0  0  0
 62139  1  0  0  0
 62140  1  0  0  0
 63 65  1  0  0  0
 63141  1  0  0  0
 63142  1  0  0  0
 63143  1  0  0  0
 64144  1  0  0  0
 65145  1  0  0  0
 68 83  1  0  0  0
 71 73  2  0  0  0
 71 76  1  0  0  0
 71146  1  0  0  0
 72 75  1  0  0  0
 72 76  2  0  0  0
 72147  1  0  0  0
 73 74  1  0  0  0
 73 77  1  0  0  0
 74 75  2  0  0  0
 74 78  1  0  0  0
 75 85  1  0  0  0
 76 86  1  0  0  0
 77148  1  0  0  0
 77149  1  0  0  0
 77150  1  0  0  0
 78151  1  0  0  0
 78152  1  0  0  0
 78153  1  0  0  0
 79154  1  0  0  0
 79155  1  0  0  0
 79156  1  0  0  0
 79 84  1  0  0  0
 80 84  1  0  0  0
 80157  1  0  0  0
 80158  1  0  0  0
 80159  1  0  0  0
 81 82  1  0  0  0
 81 84  1  0  0  0
 81160  1  0  0  0
 81161  1  0  0  0
 82 86  1  0  0  0
 82162  1  0  0  0
 82163  1  0  0  0
 83 84  1  0  0  0
 83164  1  0  0  0
 83165  1  0  0  0
 85166  1  0  0  0
M  ISO  4   1 100  68 101  83 101  85 100
M  END
> <chiral flag>
0

> <version>
0

> <s_m_source_file>
/data/baiqing/PycharmProjects/Reinvent-master-3.2/result/LINK_invent/BTK/process_docking_weight1_custom_product_contain_oxygen_bond_distance_aromatic_linkinvent_7_9_3/rearranged_h_0137.sdf

> <i_m_source_file_index>
9

> <r_mmod_Potential_Energy-OPLS-2005>
114.122581481934

> <r_mmod_Stretch_Energy-OPLS-2005>
78.2131881713867

> <r_mmod_Bend_Energy-OPLS-2005>
188.256607055664

> <r_mmod_Torsional_Energy-OPLS-2005>
245.992477416992

> <r_mmod_Improper_Torsional_Energy-OPLS-2005>
4.51229763031006

> <r_mmod_Van_der_Waal_Energy-OPLS-2005>
156.391052246094

> <r_mmod_Electrostatic_Energy-OPLS-2005>
-386.628631591797

> <r_mmod_Solvation_Energy-OPLS-2005>
-202.766082763672

> <b_mmod_Minimization_Converged-OPLS-2005>
0

> <r_mmod_RMS_Derivative-OPLS-2005>
3.56898427009583

$$$$
9
                    3D
 Structure written by MMmdl.
157165  0  0  1  0            999 V2000
  -30.6171  -14.7424   20.4164 C   0  0  0  0  0  0
  -30.4309  -12.4427   19.4827 C   0  0  0  0  0  0
  -29.5226  -12.4983   18.2345 C   0  0  0  0  0  0
  -28.0423  -12.3286   18.6338 C   0  0  0  0  0  0
  -27.6401  -13.2348   19.8299 C   0  0  2  0  0  0
  -28.6771  -13.1894   20.9729 C   0  0  0  0  0  0
  -25.2515  -13.8184   20.5638 C   0  0  0  0  0  0
  -24.1808  -13.0423   20.9151 C   0  0  0  0  0  0
  -24.6377  -11.6898   20.8651 C   0  0  0  0  0  0
  -23.9058  -10.4257   21.0342 C   0  0  0  0  0  0
  -24.3605   -9.4179   21.9136 C   0  0  0  0  0  0
  -23.6275   -8.2228   22.0750 C   0  0  0  0  0  0
  -22.4257   -8.0247   21.3535 C   0  0  0  0  0  0
  -21.9869   -9.0230   20.4649 C   0  0  0  0  0  0
  -22.7211  -10.2100   20.3015 C   0  0  0  0  0  0
  -21.6841   -6.0673   22.5260 C   0  0  0  0  0  0
  -21.4015   -6.5588   23.8190 C   0  0  0  0  0  0
  -21.3684   -5.6771   24.9162 C   0  0  0  0  0  0
  -21.6072   -4.3035   24.7231 C   0  0  0  0  0  0
  -21.8840   -3.8094   23.4357 C   0  0  0  0  0  0
  -21.9198   -4.6894   22.3389 C   0  0  0  0  0  0
  -22.7821  -13.5241   21.1815 C   0  0  0  0  0  0
  -22.1658   -4.2060   21.0969 F   0  0  0  0  0  0
  -21.5643   -3.4545   25.7754 F   0  0  0  0  0  0
  -29.9896  -13.5165   20.4024 N   0  0  0  0  0  0
  -26.2908  -12.9407   20.3123 N   0  0  0  0  0  0
  -25.9304  -11.6533   20.5609 N   0  0  0  0  0  0
  -22.0435  -12.8256   22.0372 N   0  0  0  0  0  0
  -25.4270  -15.1911   20.4115 N   0  0  0  0  0  0
  -31.8036  -14.8271   20.0901 O   0  0  0  0  0  0
  -21.6632   -6.8829   21.4215 O   0  0  0  0  0  0
  -22.3495  -14.5533   20.6638 O   0  0  0  0  0  0
  -24.6317  -31.8581   23.1993 C   0  0  0  0  0  0
  -25.9130  -32.4804   23.8345 C   0  0  1  0  0  0
  -27.2254  -27.2605   20.1008 C   0  0  0  0  0  0
  -25.5939  -33.8600   24.2264 N   0  0  0  0  0  0
  -23.4293  -30.4789   21.5490 C   0  0  2  0  0  0
  -24.8750  -28.9253   20.1182 C   0  0  0  0  0  0
  -22.7508  -29.4610   22.4971 C   0  0  0  0  0  0
  -18.0280  -28.1392   22.8499 C   0  0  0  0  0  0
  -24.1500  -36.7257   23.2638 C   0  0  0  0  0  0
  -25.9793  -30.7660   21.3838 C   0  0  0  0  0  0
  -26.0526  -29.3900   20.7169 C   0  0  0  0  0  0
  -27.2312  -28.5709   20.6957 C   0  0  0  0  0  0
  -26.0116  -26.8647   19.4915 C   0  0  0  0  0  0
  -24.8574  -27.6680   19.5022 C   0  0  0  0  0  0
  -23.6483  -29.8146   20.1664 C   0  0  0  0  0  0
  -25.4134  -36.3090   24.0334 C   0  0  1  0  0  0
  -20.5889  -28.3696   23.1304 C   0  0  2  0  0  0
  -20.6799  -26.9431   22.5416 C   0  0  0  0  0  0
  -19.5765  -26.6385   21.5233 C   0  0  0  0  0  0
  -18.1935  -26.7936   22.1627 C   0  0  0  0  0  0
  -19.1539  -28.8856   23.2889 C   0  0  0  0  0  0
  -18.9454  -30.1465   23.8900 C   0  0  0  0  0  0
  -17.6461  -30.6608   24.0547 C   0  0  0  0  0  0
  -25.9079  -34.9473   23.5099 C   0  0  0  0  0  0
  -16.5348  -29.9105   23.6333 C   0  0  0  0  0  0
  -16.7270  -28.6507   23.0374 C   0  0  0  0  0  0
  -26.4469  -31.6645   25.0751 C   0  0  0  0  0  0
  -25.3642  -31.3822   26.1441 C   0  0  0  0  0  0
  -27.0307  -30.3064   24.6240 C   0  0  0  0  0  0
  -27.6053  -32.4375   25.7495 C   0  0  0  0  0  0
  -27.5593  -37.1786   24.8462 C   0  0  0  0  0  0
  -21.4212  -29.3041   22.3696 N   0  0  0  0  0  0
  -26.4297  -37.3796   23.9422 N   0  0  0  0  0  0
  -24.7000  -31.0519   22.1009 N   0  0  0  0  0  0
  -23.4200  -28.8161   23.3078 O   0  0  0  0  0  0
  -28.3242  -26.3611   20.1238 O   0  0  0  0  0  0
  -26.5647  -34.8939   22.4660 O   0  0  0  0  0  0
  -23.5469  -32.1404   23.7262 O   0  0  0  0  0  0
  -29.5806  -18.4918   20.6587 C   0  0  0  0  0  0
  -30.4545  -17.3514   18.7003 C   0  0  0  0  0  0
  -30.0794  -19.7835   18.6587 C   0  0  0  0  0  0
  -29.9891  -17.2415   20.0321 C   0  0  0  0  0  0
  -29.6117  -19.7885   19.9901 C   0  0  0  0  0  0
  -30.4987  -18.5932   18.0314 C   0  0  0  0  0  0
  -30.3255  -23.8851   19.1234 C   0  0  0  0  0  0
  -29.6804  -23.8761   21.5513 C   0  0  0  0  0  0
  -28.0791  -24.8958   19.8421 C   0  0  0  0  0  0
  -28.6253  -22.1758   19.9374 C   0  0  0  0  0  0
  -29.1605  -23.7091   20.1169 C   0  0  0  0  0  0
  -29.8607  -15.8838   20.6360 N   0  0  0  0  0  0
  -29.2855  -21.0200   20.6260 O   0  0  0  0  0  0
  -30.9484  -18.6333   16.7531 F   0  0  0  0  0  0
  -31.4780  -12.5461   19.1855 H   0  0  0  0  0  0
  -30.3614  -11.4732   19.9797 H   0  0  0  0  0  0
  -29.8176  -11.7169   17.5350 H   0  0  0  0  0  0
  -29.6634  -13.4453   17.7080 H   0  0  0  0  0  0
  -27.9002  -11.2822   18.9045 H   0  0  0  0  0  0
  -27.3981  -12.5097   17.7719 H   0  0  0  0  0  0
  -27.6319  -14.2514   19.4348 H   0  0  0  0  0  0
  -28.6966  -12.2052   21.4414 H   0  0  0  0  0  0
  -28.4007  -13.9003   21.7556 H   0  0  0  0  0  0
  -25.2756   -9.5674   22.4715 H   0  0  0  0  0  0
  -23.9973   -7.4650   22.7514 H   0  0  0  0  0  0
  -21.0788   -8.8739   19.9006 H   0  0  0  0  0  0
  -22.3650  -10.9611   19.6120 H   0  0  0  0  0  0
  -21.1973   -7.6108   23.9674 H   0  0  0  0  0  0
  -21.1511   -6.0481   25.9082 H   0  0  0  0  0  0
  -22.0590   -2.7549   23.2866 H   0  0  0  0  0  0
  -22.4060  -11.9954   22.4860 H   0  0  0  0  0  0
  -21.1067  -13.1311   22.2564 H   0  0  0  0  0  0
  -24.6697  -15.8530   20.5475 H   0  0  0  0  0  0
  -26.2865  -15.6258   20.0934 H   0  0  0  0  0  0
  -26.7202  -32.5434   23.1097 H   0  0  0  0  0  0
  -25.0091  -33.9756   25.0416 H   0  0  0  0  0  0
  -22.7241  -31.3007   21.4055 H   0  0  0  0  0  0
  -23.3812  -35.9538   23.3290 H   0  0  0  0  0  0
  -24.3580  -36.8867   22.2048 H   0  0  0  0  0  0
  -23.7203  -37.6435   23.6659 H   0  0  0  0  0  0
  -26.1242  -31.5299   20.6178 H   0  0  0  0  0  0
  -26.8539  -30.8081   22.0221 H   0  0  0  0  0  0
  -28.1355  -28.9260   21.1703 H   0  0  0  0  0  0
  -25.9104  -25.9032   19.0146 H   0  0  0  0  0  0
  -23.9491  -27.2973   19.0466 H   0  0  0  0  0  0
  -23.7821  -30.5942   19.4163 H   0  0  0  0  0  0
  -22.7640  -29.2556   19.8563 H   0  0  0  0  0  0
  -25.1326  -36.1931   25.0830 H   0  0  0  0  0  0
  -20.9952  -28.3276   24.1440 H   0  0  0  0  0  0
  -20.5753  -26.2304   23.3612 H   0  0  0  0  0  0
  -21.6665  -26.7516   22.1181 H   0  0  0  0  0  0
  -19.6942  -25.6291   21.1277 H   0  0  0  0  0  0
  -19.6718  -27.3185   20.6761 H   0  0  0  0  0  0
  -17.4224  -26.6686   21.4014 H   0  0  0  0  0  0
  -18.0332  -26.0087   22.9025 H   0  0  0  0  0  0
  -19.7932  -30.7267   24.2295 H   0  0  0  0  0  0
  -17.5019  -31.6297   24.5139 H   0  0  0  0  0  0
  -15.5353  -30.3002   23.7666 H   0  0  0  0  0  0
  -15.8665  -28.0817   22.7116 H   0  0  0  0  0  0
  -24.5806  -30.7215   25.7721 H   0  0  0  0  0  0
  -24.8827  -32.3001   26.4827 H   0  0  0  0  0  0
  -25.7877  -30.8986   27.0246 H   0  0  0  0  0  0
  -26.2892  -29.6852   24.1202 H   0  0  0  0  0  0
  -27.3919  -29.7328   25.4781 H   0  0  0  0  0  0
  -27.8807  -30.4373   23.9537 H   0  0  0  0  0  0
  -27.2709  -33.3684   26.2086 H   0  0  0  0  0  0
  -28.3823  -32.6919   25.0280 H   0  0  0  0  0  0
  -28.0767  -31.8480   26.5367 H   0  0  0  0  0  0
  -28.2618  -38.0084   24.7561 H   0  0  0  0  0  0
  -28.1085  -36.2619   24.6249 H   0  0  0  0  0  0
  -27.2301  -37.1381   25.8858 H   0  0  0  0  0  0
  -20.9423  -29.8713   21.6846 H   0  0  0  0  0  0
  -26.0179  -38.2863   24.1446 H   0  0  0  0  0  0
  -29.2325  -18.4727   21.6819 H   0  0  0  0  0  0
  -30.7576  -16.4755   18.1480 H   0  0  0  0  0  0
  -30.1604  -20.7072   18.1067 H   0  0  0  0  0  0
  -30.7597  -24.8829   19.1830 H   0  0  0  0  0  0
  -29.9919  -23.7456   18.0935 H   0  0  0  0  0  0
  -31.1201  -23.1602   19.3066 H   0  0  0  0  0  0
  -30.0785  -24.8788   21.7115 H   0  0  0  0  0  0
  -30.4831  -23.1707   21.7675 H   0  0  0  0  0  0
  -28.8886  -23.7089   22.2796 H   0  0  0  0  0  0
  -27.1823  -24.6150   20.3926 H   0  0  0  0  0  0
  -27.8140  -24.8239   18.7865 H   0  0  0  0  0  0
  -28.4942  -21.9672   18.8751 H   0  0  0  0  0  0
  -27.6052  -22.1608   20.3225 H   0  0  0  0  0  0
  -28.9777  -15.7073   21.0858 H   0  0  0  0  0  0
  1 25  1  0  0  0
  1 30  2  0  0  0
  1 82  1  0  0  0
  2  3  1  0  0  0
  2 25  1  0  0  0
  2 85  1  0  0  0
  2 86  1  0  0  0
  3  4  1  0  0  0
  3 87  1  0  0  0
  3 88  1  0  0  0
  4  5  1  0  0  0
  4 89  1  0  0  0
  4 90  1  0  0  0
  5  6  1  0  0  0
  5 26  1  0  0  0
  5 91  1  0  0  0
  6 25  1  0  0  0
  6 92  1  0  0  0
  6 93  1  0  0  0
  7  8  2  0  0  0
  7 26  1  0  0  0
  7 29  1  0  0  0
  8  9  1  0  0  0
  8 22  1  0  0  0
  9 10  1  0  0  0
  9 27  2  0  0  0
 10 11  2  0  0  0
 10 15  1  0  0  0
 11 12  1  0  0  0
 11 94  1  0  0  0
 12 13  2  0  0  0
 12 95  1  0  0  0
 13 14  1  0  0  0
 13 31  1  0  0  0
 14 15  2  0  0  0
 14 96  1  0  0  0
 15 97  1  0  0  0
 16 17  2  0  0  0
 16 21  1  0  0  0
 16 31  1  0  0  0
 17 18  1  0  0  0
 17 98  1  0  0  0
 18 19  2  0  0  0
 18 99  1  0  0  0
 19 20  1  0  0  0
 19 24  1  0  0  0
 20 21  2  0  0  0
 20100  1  0  0  0
 21 23  1  0  0  0
 22 28  1  0  0  0
 22 32  2  0  0  0
 26 27  1  0  0  0
 28101  1  0  0  0
 28102  1  0  0  0
 29103  1  0  0  0
 29104  1  0  0  0
 33 34  1  0  0  0
 33 66  1  0  0  0
 33 70  2  0  0  0
 34 36  1  0  0  0
 34 59  1  0  0  0
 34105  1  0  0  0
 35 44  2  0  0  0
 35 45  1  0  0  0
 35 68  1  0  0  0
 36 56  1  0  0  0
 36106  1  0  0  0
 37 39  1  0  0  0
 37 47  1  0  0  0
 37 66  1  0  0  0
 37107  1  0  0  0
 38 43  2  0  0  0
 38 46  1  0  0  0
 38 47  1  0  0  0
 39 64  1  0  0  0
 39 67  2  0  0  0
 40 52  1  0  0  0
 40 53  2  0  0  0
 40 58  1  0  0  0
 41108  1  0  0  0
 41109  1  0  0  0
 41110  1  0  0  0
 41 48  1  0  0  0
 42 43  1  0  0  0
 42 66  1  0  0  0
 42111  1  0  0  0
 42112  1  0  0  0
 43 44  1  0  0  0
 44113  1  0  0  0
 45 46  2  0  0  0
 45114  1  0  0  0
 46115  1  0  0  0
 47116  1  0  0  0
 47117  1  0  0  0
 48 56  1  0  0  0
 48 65  1  0  0  0
 48118  1  0  0  0
 49 50  1  0  0  0
 49 53  1  0  0  0
 49 64  1  0  0  0
 49119  1  0  0  0
 50 51  1  0  0  0
 50120  1  0  0  0
 50121  1  0  0  0
 51 52  1  0  0  0
 51122  1  0  0  0
 51123  1  0  0  0
 52124  1  0  0  0
 52125  1  0  0  0
 53 54  1  0  0  0
 54 55  2  0  0  0
 54126  1  0  0  0
 55 57  1  0  0  0
 55127  1  0  0  0
 56 69  2  0  0  0
 57 58  2  0  0  0
 57128  1  0  0  0
 58129  1  0  0  0
 59 60  1  0  0  0
 59 61  1  0  0  0
 59 62  1  0  0  0
 60130  1  0  0  0
 60131  1  0  0  0
 60132  1  0  0  0
 61133  1  0  0  0
 61134  1  0  0  0
 61135  1  0  0  0
 62136  1  0  0  0
 62137  1  0  0  0
 62138  1  0  0  0
 63 65  1  0  0  0
 63139  1  0  0  0
 63140  1  0  0  0
 63141  1  0  0  0
 64142  1  0  0  0
 65143  1  0  0  0
 68 79  1  0  0  0
 71 74  2  0  0  0
 71 75  1  0  0  0
 71144  1  0  0  0
 72 74  1  0  0  0
 72 76  2  0  0  0
 72145  1  0  0  0
 73 75  2  0  0  0
 73 76  1  0  0  0
 73146  1  0  0  0
 74 82  1  0  0  0
 75 83  1  0  0  0
 76 84  1  0  0  0
 77147  1  0  0  0
 77148  1  0  0  0
 77149  1  0  0  0
 77 81  1  0  0  0
 78 81  1  0  0  0
 78150  1  0  0  0
 78151  1  0  0  0
 78152  1  0  0  0
 79 81  1  0  0  0
 79153  1  0  0  0
 79154  1  0  0  0
 80 81  1  0  0  0
 80 83  1  0  0  0
 80155  1  0  0  0
 80156  1  0  0  0
 82157  1  0  0  0
M  ISO  4   1 100  68 101  79 101  82 100
M  END
> <chiral flag>
0

> <version>
0

> <s_m_source_file>
/data/baiqing/PycharmProjects/Reinvent-master-3.2/result/LINK_invent/BTK/process_docking_weight1_custom_product_contain_oxygen_bond_distance_aromatic_linkinvent_7_9_3/rearranged_h_0137.sdf

> <i_m_source_file_index>
10

> <r_mmod_Potential_Energy-OPLS-2005>
235.293075561523

> <r_mmod_Stretch_Energy-OPLS-2005>
131.582733154297

> <r_mmod_Bend_Energy-OPLS-2005>
170.778106689453

> <r_mmod_Torsional_Energy-OPLS-2005>
251.910232543945

> <r_mmod_Improper_Torsional_Energy-OPLS-2005>
4.68502616882324

> <r_mmod_Van_der_Waal_Energy-OPLS-2005>
139.491836547852

> <r_mmod_Electrostatic_Energy-OPLS-2005>
-342.597900390625

> <r_mmod_Solvation_Energy-OPLS-2005>
-207.261444091797

> <b_mmod_Minimization_Converged-OPLS-2005>
0

> <r_mmod_RMS_Derivative-OPLS-2005>
4.51184749603271

$$$$
10
                    3D
 Structure written by MMmdl.
168176  0  0  1  0            999 V2000
  -30.6438  -14.6302   20.4884 C   0  0  0  0  0  0
  -30.4418  -12.3868   19.4452 C   0  0  0  0  0  0
  -29.5085  -12.5028   18.2199 C   0  0  0  0  0  0
  -28.0315  -12.3420   18.6340 C   0  0  0  0  0  0
  -27.6542  -13.2101   19.8630 C   0  0  2  0  0  0
  -28.7046  -13.0802   20.9897 C   0  0  0  0  0  0
  -25.2516  -13.8094   20.5702 C   0  0  0  0  0  0
  -24.1803  -13.0372   20.9210 C   0  0  0  0  0  0
  -24.6392  -11.6863   20.8752 C   0  0  0  0  0  0
  -23.9060  -10.4265   21.0413 C   0  0  0  0  0  0
  -24.3610   -9.4189   21.9192 C   0  0  0  0  0  0
  -23.6283   -8.2231   22.0762 C   0  0  0  0  0  0
  -22.4264   -8.0280   21.3552 C   0  0  0  0  0  0
  -21.9896   -9.0250   20.4651 C   0  0  0  0  0  0
  -22.7233  -10.2123   20.3058 C   0  0  0  0  0  0
  -21.6849   -6.0737   22.5285 C   0  0  0  0  0  0
  -21.4011   -6.5635   23.8216 C   0  0  0  0  0  0
  -21.3655   -5.6787   24.9177 C   0  0  0  0  0  0
  -21.6043   -4.3052   24.7227 C   0  0  0  0  0  0
  -21.8818   -3.8149   23.4347 C   0  0  0  0  0  0
  -21.9190   -4.6965   22.3404 C   0  0  0  0  0  0
  -22.7831  -13.5194   21.1854 C   0  0  0  0  0  0
  -22.1663   -4.2153   21.0983 F   0  0  0  0  0  0
  -21.5624   -3.4537   25.7740 F   0  0  0  0  0  0
  -30.0208  -13.4120   20.4186 N   0  0  0  0  0  0
  -26.2987  -12.9308   20.3324 N   0  0  0  0  0  0
  -25.9322  -11.6467   20.5766 N   0  0  0  0  0  0
  -22.0447  -12.8217   22.0416 N   0  0  0  0  0  0
  -25.4057  -15.1804   20.4139 N   0  0  0  0  0  0
  -31.8182  -14.7793   20.1435 O   0  0  0  0  0  0
  -21.6628   -6.8882   21.4248 O   0  0  0  0  0  0
  -22.3538  -14.5512   20.6703 O   0  0  0  0  0  0
  -24.6234  -31.8622   23.2057 C   0  0  0  0  0  0
  -25.9088  -32.4791   23.8378 C   0  0  1  0  0  0
  -27.2274  -27.3458   20.1088 C   0  0  0  0  0  0
  -25.5908  -33.8593   24.2300 N   0  0  0  0  0  0
  -23.4159  -30.4859   21.5486 C   0  0  2  0  0  0
  -24.8617  -28.9450   20.1151 C   0  0  0  0  0  0
  -22.7465  -29.4629   22.4961 C   0  0  0  0  0  0
  -18.0284  -28.1377   22.8500 C   0  0  0  0  0  0
  -24.1483  -36.7302   23.2640 C   0  0  0  0  0  0
  -25.9554  -30.8000   21.3747 C   0  0  0  0  0  0
  -26.0299  -29.4298   20.7163 C   0  0  0  0  0  0
  -27.2158  -28.6419   20.7033 C   0  0  0  0  0  0
  -26.0361  -26.9094   19.4839 C   0  0  0  0  0  0
  -24.8651  -27.6884   19.4923 C   0  0  0  0  0  0
  -23.6290  -29.8223   20.1636 C   0  0  0  0  0  0
  -25.4104  -36.3092   24.0332 C   0  0  1  0  0  0
  -20.5884  -28.3675   23.1296 C   0  0  2  0  0  0
  -20.6769  -26.9399   22.5417 C   0  0  0  0  0  0
  -19.5740  -26.6382   21.5221 C   0  0  0  0  0  0
  -18.1922  -26.7923   22.1634 C   0  0  0  0  0  0
  -19.1537  -28.8843   23.2895 C   0  0  0  0  0  0
  -18.9462  -30.1446   23.8906 C   0  0  0  0  0  0
  -17.6460  -30.6582   24.0563 C   0  0  0  0  0  0
  -25.9042  -34.9456   23.5117 C   0  0  0  0  0  0
  -16.5352  -29.9083   23.6323 C   0  0  0  0  0  0
  -16.7273  -28.6497   23.0357 C   0  0  0  0  0  0
  -26.4487  -31.6590   25.0734 C   0  0  0  0  0  0
  -25.3733  -31.3720   26.1471 C   0  0  0  0  0  0
  -27.0327  -30.3018   24.6169 C   0  0  0  0  0  0
  -27.6053  -32.4323   25.7493 C   0  0  0  0  0  0
  -27.5573  -37.1800   24.8462 C   0  0  0  0  0  0
  -21.4182  -29.3033   22.3698 N   0  0  0  0  0  0
  -26.4286  -37.3779   23.9405 N   0  0  0  0  0  0
  -24.6833  -31.0654   22.0998 N   0  0  0  0  0  0
  -23.4205  -28.8166   23.3026 O   0  0  0  0  0  0
  -28.3672  -26.5346   20.1186 O   0  0  0  0  0  0
  -26.5617  -34.8917   22.4690 O   0  0  0  0  0  0
  -23.5400  -32.1414   23.7392 O   0  0  0  0  0  0
  -29.1780  -19.3174   19.7081 C   0  0  0  0  0  0
  -31.0390  -17.8599   21.2131 C   0  0  0  0  0  0
  -29.0810  -17.8983   19.7999 C   0  0  0  0  0  0
  -30.1916  -20.0456   20.3714 C   0  0  0  0  0  0
  -30.0132  -17.1290   20.5625 C   0  0  0  0  0  0
  -31.1275  -19.2790   21.1202 C   0  0  0  0  0  0
  -27.2791  -15.9381   16.9335 C   0  0  0  0  0  0
  -29.7835  -24.2859   18.5527 C   0  0  0  0  0  0
  -30.6202  -24.6834   20.8937 C   0  0  0  0  0  0
  -27.9564  -17.2249   19.0357 C   0  0  0  0  0  0
  -30.3782  -21.5861   20.1614 C   0  0  0  0  0  0
  -28.4238  -16.6005   17.7118 C   0  0  0  0  0  0
  -29.1881  -22.6097   20.3980 C   0  0  0  0  0  0
  -28.1930  -25.0847   20.3289 C   0  0  0  0  0  0
  -29.4441  -24.1530   20.0514 C   0  0  0  0  0  0
  -29.8258  -15.6923   20.7539 N   0  0  0  0  0  0
  -32.1476  -19.9055   21.7547 F   0  0  0  0  0  0
  -31.4832  -12.5093   19.1409 H   0  0  0  0  0  0
  -30.3750  -11.3933   19.8905 H   0  0  0  0  0  0
  -29.7707  -11.7512   17.4736 H   0  0  0  0  0  0
  -29.6525  -13.4706   17.7379 H   0  0  0  0  0  0
  -27.8645  -11.2887   18.8624 H   0  0  0  0  0  0
  -27.3792  -12.5775   17.7929 H   0  0  0  0  0  0
  -27.6693  -14.2394   19.5158 H   0  0  0  0  0  0
  -28.7162  -12.0658   21.3905 H   0  0  0  0  0  0
  -28.4564  -13.7299   21.8306 H   0  0  0  0  0  0
  -25.2755   -9.5661   22.4768 H   0  0  0  0  0  0
  -23.9991   -7.4613   22.7470 H   0  0  0  0  0  0
  -21.0830   -8.8771   19.8953 H   0  0  0  0  0  0
  -22.3702  -10.9663   19.6170 H   0  0  0  0  0  0
  -21.2006   -7.6144   23.9721 H   0  0  0  0  0  0
  -21.1474   -6.0518   25.9077 H   0  0  0  0  0  0
  -22.0601   -2.7612   23.2844 H   0  0  0  0  0  0
  -22.4050  -11.9894   22.4840 H   0  0  0  0  0  0
  -21.1075  -13.1278   22.2598 H   0  0  0  0  0  0
  -24.6178  -15.8124   20.5065 H   0  0  0  0  0  0
  -26.2258  -15.6249   20.0306 H   0  0  0  0  0  0
  -26.7159  -32.5467   23.1132 H   0  0  0  0  0  0
  -25.0019  -33.9747   25.0417 H   0  0  0  0  0  0
  -22.7078  -31.3049   21.4078 H   0  0  0  0  0  0
  -23.3738  -35.9642   23.3312 H   0  0  0  0  0  0
  -24.3576  -36.8911   22.2052 H   0  0  0  0  0  0
  -23.7244  -37.6510   23.6659 H   0  0  0  0  0  0
  -26.0869  -31.5659   20.6093 H   0  0  0  0  0  0
  -26.8362  -30.8466   22.0036 H   0  0  0  0  0  0
  -28.1153  -29.0118   21.1752 H   0  0  0  0  0  0
  -25.9819  -25.9657   18.9649 H   0  0  0  0  0  0
  -23.9715  -27.3149   19.0114 H   0  0  0  0  0  0
  -23.7472  -30.5998   19.4081 H   0  0  0  0  0  0
  -22.7492  -29.2513   19.8611 H   0  0  0  0  0  0
  -25.1281  -36.1951   25.0825 H   0  0  0  0  0  0
  -20.9981  -28.3241   24.1413 H   0  0  0  0  0  0
  -20.5673  -26.2280   23.3614 H   0  0  0  0  0  0
  -21.6635  -26.7427   22.1203 H   0  0  0  0  0  0
  -19.6895  -25.6299   21.1234 H   0  0  0  0  0  0
  -19.6665  -27.3204   20.6761 H   0  0  0  0  0  0
  -17.4190  -26.6685   21.4036 H   0  0  0  0  0  0
  -18.0308  -26.0062   22.9024 H   0  0  0  0  0  0
  -19.7935  -30.7265   24.2277 H   0  0  0  0  0  0
  -17.5012  -31.6262   24.5161 H   0  0  0  0  0  0
  -15.5351  -30.2989   23.7631 H   0  0  0  0  0  0
  -15.8676  -28.0811   22.7074 H   0  0  0  0  0  0
  -24.5906  -30.7069   25.7803 H   0  0  0  0  0  0
  -24.8929  -32.2886   26.4905 H   0  0  0  0  0  0
  -25.8070  -30.8894   27.0239 H   0  0  0  0  0  0
  -26.2897  -29.6772   24.1198 H   0  0  0  0  0  0
  -27.4038  -29.7261   25.4659 H   0  0  0  0  0  0
  -27.8762  -30.4306   23.9382 H   0  0  0  0  0  0
  -27.2670  -33.3620   26.2078 H   0  0  0  0  0  0
  -28.3855  -32.6888   25.0314 H   0  0  0  0  0  0
  -28.0738  -31.8451   26.5401 H   0  0  0  0  0  0
  -28.2596  -38.0089   24.7500 H   0  0  0  0  0  0
  -28.1064  -36.2623   24.6298 H   0  0  0  0  0  0
  -27.2298  -37.1460   25.8867 H   0  0  0  0  0  0
  -20.9358  -29.8762   21.6916 H   0  0  0  0  0  0
  -26.0172  -38.2856   24.1405 H   0  0  0  0  0  0
  -28.4701  -19.8569   19.0947 H   0  0  0  0  0  0
  -31.7702  -17.3372   21.8118 H   0  0  0  0  0  0
  -27.6482  -15.4721   16.0191 H   0  0  0  0  0  0
  -26.5216  -16.6694   16.6497 H   0  0  0  0  0  0
  -26.7848  -15.1635   17.5199 H   0  0  0  0  0  0
  -30.7306  -23.8107   18.3004 H   0  0  0  0  0  0
  -29.8646  -25.3322   18.2543 H   0  0  0  0  0  0
  -29.0104  -23.8329   17.9303 H   0  0  0  0  0  0
  -31.5414  -24.1307   20.7116 H   0  0  0  0  0  0
  -30.4003  -24.6221   21.9600 H   0  0  0  0  0  0
  -30.8302  -25.7287   20.6651 H   0  0  0  0  0  0
  -27.1627  -17.9476   18.8419 H   0  0  0  0  0  0
  -27.5174  -16.4734   19.6803 H   0  0  0  0  0  0
  -30.7280  -21.6941   19.1354 H   0  0  0  0  0  0
  -31.2170  -21.8976   20.7819 H   0  0  0  0  0  0
  -28.8826  -17.3695   17.0887 H   0  0  0  0  0  0
  -29.2023  -15.8628   17.9044 H   0  0  0  0  0  0
  -28.8835  -22.5363   21.4427 H   0  0  0  0  0  0
  -28.3257  -22.2703   19.8240 H   0  0  0  0  0  0
  -27.8740  -24.9461   21.3629 H   0  0  0  0  0  0
  -27.3847  -24.6838   19.7223 H   0  0  0  0  0  0
  -28.8739  -15.4089   20.9207 H   0  0  0  0  0  0
  1 25  1  0  0  0
  1 30  2  0  0  0
  1 86  1  0  0  0
  2  3  1  0  0  0
  2 25  1  0  0  0
  2 88  1  0  0  0
  2 89  1  0  0  0
  3  4  1  0  0  0
  3 90  1  0  0  0
  3 91  1  0  0  0
  4  5  1  0  0  0
  4 92  1  0  0  0
  4 93  1  0  0  0
  5  6  1  0  0  0
  5 26  1  0  0  0
  5 94  1  0  0  0
  6 25  1  0  0  0
  6 95  1  0  0  0
  6 96  1  0  0  0
  7  8  2  0  0  0
  7 26  1  0  0  0
  7 29  1  0  0  0
  8  9  1  0  0  0
  8 22  1  0  0  0
  9 10  1  0  0  0
  9 27  2  0  0  0
 10 11  2  0  0  0
 10 15  1  0  0  0
 11 12  1  0  0  0
 11 97  1  0  0  0
 12 13  2  0  0  0
 12 98  1  0  0  0
 13 14  1  0  0  0
 13 31  1  0  0  0
 14 15  2  0  0  0
 14 99  1  0  0  0
 15100  1  0  0  0
 16 17  2  0  0  0
 16 21  1  0  0  0
 16 31  1  0  0  0
 17 18  1  0  0  0
 17101  1  0  0  0
 18 19  2  0  0  0
 18102  1  0  0  0
 19 20  1  0  0  0
 19 24  1  0  0  0
 20 21  2  0  0  0
 20103  1  0  0  0
 21 23  1  0  0  0
 22 28  1  0  0  0
 22 32  2  0  0  0
 26 27  1  0  0  0
 28104  1  0  0  0
 28105  1  0  0  0
 29106  1  0  0  0
 29107  1  0  0  0
 33 34  1  0  0  0
 33 66  1  0  0  0
 33 70  2  0  0  0
 34 36  1  0  0  0
 34 59  1  0  0  0
 34108  1  0  0  0
 35 44  2  0  0  0
 35 45  1  0  0  0
 35 68  1  0  0  0
 36 56  1  0  0  0
 36109  1  0  0  0
 37 39  1  0  0  0
 37 47  1  0  0  0
 37 66  1  0  0  0
 37110  1  0  0  0
 38 43  2  0  0  0
 38 46  1  0  0  0
 38 47  1  0  0  0
 39 64  1  0  0  0
 39 67  2  0  0  0
 40 52  1  0  0  0
 40 53  2  0  0  0
 40 58  1  0  0  0
 41111  1  0  0  0
 41112  1  0  0  0
 41113  1  0  0  0
 41 48  1  0  0  0
 42 43  1  0  0  0
 42 66  1  0  0  0
 42114  1  0  0  0
 42115  1  0  0  0
 43 44  1  0  0  0
 44116  1  0  0  0
 45 46  2  0  0  0
 45117  1  0  0  0
 46118  1  0  0  0
 47119  1  0  0  0
 47120  1  0  0  0
 48 56  1  0  0  0
 48 65  1  0  0  0
 48121  1  0  0  0
 49 50  1  0  0  0
 49 53  1  0  0  0
 49 64  1  0  0  0
 49122  1  0  0  0
 50 51  1  0  0  0
 50123  1  0  0  0
 50124  1  0  0  0
 51 52  1  0  0  0
 51125  1  0  0  0
 51126  1  0  0  0
 52127  1  0  0  0
 52128  1  0  0  0
 53 54  1  0  0  0
 54 55  2  0  0  0
 54129  1  0  0  0
 55 57  1  0  0  0
 55130  1  0  0  0
 56 69  2  0  0  0
 57 58  2  0  0  0
 57131  1  0  0  0
 58132  1  0  0  0
 59 60  1  0  0  0
 59 61  1  0  0  0
 59 62  1  0  0  0
 60133  1  0  0  0
 60134  1  0  0  0
 60135  1  0  0  0
 61136  1  0  0  0
 61137  1  0  0  0
 61138  1  0  0  0
 62139  1  0  0  0
 62140  1  0  0  0
 62141  1  0  0  0
 63 65  1  0  0  0
 63142  1  0  0  0
 63143  1  0  0  0
 63144  1  0  0  0
 64145  1  0  0  0
 65146  1  0  0  0
 68 84  1  0  0  0
 71 73  2  0  0  0
 71 74  1  0  0  0
 71147  1  0  0  0
 72 75  2  0  0  0
 72 76  1  0  0  0
 72148  1  0  0  0
 73 75  1  0  0  0
 73 80  1  0  0  0
 74 76  2  0  0  0
 74 81  1  0  0  0
 75 86  1  0  0  0
 76 87  1  0  0  0
 77 82  1  0  0  0
 77149  1  0  0  0
 77150  1  0  0  0
 77151  1  0  0  0
 78152  1  0  0  0
 78153  1  0  0  0
 78154  1  0  0  0
 78 85  1  0  0  0
 79 85  1  0  0  0
 79155  1  0  0  0
 79156  1  0  0  0
 79157  1  0  0  0
 80 82  1  0  0  0
 80158  1  0  0  0
 80159  1  0  0  0
 81 83  1  0  0  0
 81160  1  0  0  0
 81161  1  0  0  0
 82162  1  0  0  0
 82163  1  0  0  0
 83 85  1  0  0  0
 83164  1  0  0  0
 83165  1  0  0  0
 84 85  1  0  0  0
 84166  1  0  0  0
 84167  1  0  0  0
 86168  1  0  0  0
M  ISO  4   1 100  68 101  84 101  86 100
M  END
> <chiral flag>
0

> <version>
0

> <s_m_source_file>
/data/baiqing/PycharmProjects/Reinvent-master-3.2/result/LINK_invent/BTK/process_docking_weight1_custom_product_contain_oxygen_bond_distance_aromatic_linkinvent_7_9_3/rearranged_h_0137.sdf

> <i_m_source_file_index>
11

> <r_mmod_Potential_Energy-OPLS-2005>
77.1327362060547

> <r_mmod_Stretch_Energy-OPLS-2005>
72.1492309570312

> <r_mmod_Bend_Energy-OPLS-2005>
128.114700317383

> <r_mmod_Torsional_Energy-OPLS-2005>
247.128112792969

> <r_mmod_Improper_Torsional_Energy-OPLS-2005>
6.47865104675293

> <r_mmod_Van_der_Waal_Energy-OPLS-2005>
131.616714477539

> <r_mmod_Electrostatic_Energy-OPLS-2005>
-360.612182617188

> <r_mmod_Solvation_Energy-OPLS-2005>
-188.690002441406

> <b_mmod_Minimization_Converged-OPLS-2005>
0

> <r_mmod_RMS_Derivative-OPLS-2005>
1.28554451465607

$$$$
11
                    3D
 Structure written by MMmdl.
162170  0  0  1  0            999 V2000
  -30.6312  -14.6092   20.5255 C   0  0  0  0  0  0
  -30.4411  -12.3782   19.4498 C   0  0  0  0  0  0
  -29.5093  -12.5098   18.2244 C   0  0  0  0  0  0
  -28.0310  -12.3523   18.6339 C   0  0  0  0  0  0
  -27.6576  -13.2142   19.8689 C   0  0  2  0  0  0
  -28.6995  -13.0462   20.9982 C   0  0  0  0  0  0
  -25.2574  -13.8164   20.5659 C   0  0  0  0  0  0
  -24.1841  -13.0438   20.9189 C   0  0  0  0  0  0
  -24.6400  -11.6912   20.8738 C   0  0  0  0  0  0
  -23.9069  -10.4293   21.0407 C   0  0  0  0  0  0
  -24.3622   -9.4208   21.9185 C   0  0  0  0  0  0
  -23.6293   -8.2245   22.0757 C   0  0  0  0  0  0
  -22.4279   -8.0284   21.3542 C   0  0  0  0  0  0
  -21.9914   -9.0259   20.4648 C   0  0  0  0  0  0
  -22.7242  -10.2135   20.3054 C   0  0  0  0  0  0
  -21.6855   -6.0738   22.5281 C   0  0  0  0  0  0
  -21.4013   -6.5642   23.8212 C   0  0  0  0  0  0
  -21.3661   -5.6793   24.9177 C   0  0  0  0  0  0
  -21.6044   -4.3056   24.7225 C   0  0  0  0  0  0
  -21.8819   -3.8148   23.4347 C   0  0  0  0  0  0
  -21.9192   -4.6968   22.3401 C   0  0  0  0  0  0
  -22.7857  -13.5233   21.1845 C   0  0  0  0  0  0
  -22.1661   -4.2150   21.0979 F   0  0  0  0  0  0
  -21.5630   -3.4539   25.7738 F   0  0  0  0  0  0
  -30.0220  -13.3855   20.4432 N   0  0  0  0  0  0
  -26.3013  -12.9343   20.3335 N   0  0  0  0  0  0
  -25.9334  -11.6501   20.5768 N   0  0  0  0  0  0
  -22.0500  -12.8224   22.0405 N   0  0  0  0  0  0
  -25.4269  -15.1877   20.4032 N   0  0  0  0  0  0
  -31.7764  -14.7928   20.0995 O   0  0  0  0  0  0
  -21.6642   -6.8886   21.4243 O   0  0  0  0  0  0
  -22.3545  -14.5538   20.6703 O   0  0  0  0  0  0
  -24.6226  -31.8612   23.2045 C   0  0  0  0  0  0
  -25.9102  -32.4779   23.8343 C   0  0  1  0  0  0
  -27.2239  -27.3484   20.1056 C   0  0  0  0  0  0
  -25.5926  -33.8584   24.2265 N   0  0  0  0  0  0
  -23.4133  -30.4862   21.5457 C   0  0  2  0  0  0
  -24.8594  -28.9473   20.1088 C   0  0  0  0  0  0
  -22.7441  -29.4637   22.4943 C   0  0  0  0  0  0
  -18.0290  -28.1389   22.8498 C   0  0  0  0  0  0
  -24.1495  -36.7303   23.2635 C   0  0  0  0  0  0
  -25.9502  -30.8017   21.3701 C   0  0  0  0  0  0
  -26.0248  -29.4309   20.7159 C   0  0  0  0  0  0
  -27.2072  -28.6391   20.7111 C   0  0  0  0  0  0
  -26.0385  -26.9192   19.4621 C   0  0  0  0  0  0
  -24.8652  -27.6941   19.4785 C   0  0  0  0  0  0
  -23.6250  -29.8212   20.1595 C   0  0  0  0  0  0
  -25.4115  -36.3074   24.0313 C   0  0  1  0  0  0
  -20.5878  -28.3678   23.1307 C   0  0  2  0  0  0
  -20.6771  -26.9410   22.5404 C   0  0  0  0  0  0
  -19.5748  -26.6396   21.5209 C   0  0  0  0  0  0
  -18.1936  -26.7935   22.1623 C   0  0  0  0  0  0
  -19.1540  -28.8851   23.2902 C   0  0  0  0  0  0
  -18.9464  -30.1458   23.8909 C   0  0  0  0  0  0
  -17.6460  -30.6592   24.0579 C   0  0  0  0  0  0
  -25.9046  -34.9453   23.5086 C   0  0  0  0  0  0
  -16.5351  -29.9096   23.6333 C   0  0  0  0  0  0
  -16.7274  -28.6513   23.0347 C   0  0  0  0  0  0
  -26.4495  -31.6583   25.0702 C   0  0  0  0  0  0
  -25.3741  -31.3725   26.1434 C   0  0  0  0  0  0
  -27.0316  -30.3006   24.6127 C   0  0  0  0  0  0
  -27.6047  -32.4306   25.7491 C   0  0  0  0  0  0
  -27.5573  -37.1798   24.8458 C   0  0  0  0  0  0
  -21.4154  -29.3042   22.3699 N   0  0  0  0  0  0
  -26.4287  -37.3767   23.9403 N   0  0  0  0  0  0
  -24.6815  -31.0634   22.0990 N   0  0  0  0  0  0
  -23.4193  -28.8187   23.3011 O   0  0  0  0  0  0
  -28.3594  -26.5327   20.1635 O   0  0  0  0  0  0
  -26.5607  -34.8914   22.4649 O   0  0  0  0  0  0
  -23.5396  -32.1416   23.7390 O   0  0  0  0  0  0
  -30.7826  -19.2163   19.9912 C   0  0  0  0  0  0
  -30.7841  -17.7919   20.0369 C   0  0  0  0  0  0
  -29.0084  -19.2832   21.6170 C   0  0  0  0  0  0
  -29.9066  -19.9984   20.7904 C   0  0  0  0  0  0
  -29.0093  -17.8580   21.6765 C   0  0  0  0  0  0
  -29.9081  -17.0752   20.8946 C   0  0  0  0  0  0
  -28.0425  -17.1773   22.6319 C   0  0  0  0  0  0
  -30.6595  -24.5629   20.3789 C   0  0  0  0  0  0
  -28.9338  -24.3182   22.1836 C   0  0  0  0  0  0
  -30.0797  -21.5481   20.9212 C   0  0  0  0  0  0
  -29.0350  -22.5701   20.3064 C   0  0  0  0  0  0
  -28.2307  -25.0873   19.9005 C   0  0  0  0  0  0
  -29.2155  -24.1193   20.6801 C   0  0  0  0  0  0
  -29.8431  -15.6209   20.9923 N   0  0  0  0  0  0
  -31.4817  -12.5072   19.1466 H   0  0  0  0  0  0
  -30.3776  -11.3775   19.8794 H   0  0  0  0  0  0
  -29.7696  -11.7644   17.4724 H   0  0  0  0  0  0
  -29.6569  -13.4828   17.7534 H   0  0  0  0  0  0
  -27.8607  -11.2983   18.8555 H   0  0  0  0  0  0
  -27.3790  -12.5946   17.7939 H   0  0  0  0  0  0
  -27.6841  -14.2541   19.5415 H   0  0  0  0  0  0
  -28.7035  -12.0197   21.3671 H   0  0  0  0  0  0
  -28.4426  -13.6644   21.8599 H   0  0  0  0  0  0
  -25.2769   -9.5685   22.4759 H   0  0  0  0  0  0
  -24.0005   -7.4637   22.7473 H   0  0  0  0  0  0
  -21.0849   -8.8779   19.8950 H   0  0  0  0  0  0
  -22.3707  -10.9677   19.6164 H   0  0  0  0  0  0
  -21.2007   -7.6149   23.9718 H   0  0  0  0  0  0
  -21.1482   -6.0522   25.9076 H   0  0  0  0  0  0
  -22.0598   -2.7611   23.2844 H   0  0  0  0  0  0
  -22.4115  -11.9887   22.4788 H   0  0  0  0  0  0
  -21.1118  -13.1253   22.2603 H   0  0  0  0  0  0
  -24.6551  -15.8387   20.4978 H   0  0  0  0  0  0
  -26.2678  -15.6226   20.0453 H   0  0  0  0  0  0
  -26.7162  -32.5432   23.1080 H   0  0  0  0  0  0
  -25.0080  -33.9742   25.0412 H   0  0  0  0  0  0
  -22.7066  -31.3063   21.4042 H   0  0  0  0  0  0
  -23.3738  -35.9653   23.3296 H   0  0  0  0  0  0
  -24.3596  -36.8928   22.2051 H   0  0  0  0  0  0
  -23.7274  -37.6514   23.6663 H   0  0  0  0  0  0
  -26.0661  -31.5661   20.6000 H   0  0  0  0  0  0
  -26.8375  -30.8557   21.9894 H   0  0  0  0  0  0
  -28.0989  -29.0038   21.2017 H   0  0  0  0  0  0
  -25.9865  -25.9736   18.9435 H   0  0  0  0  0  0
  -23.9718  -27.3193   18.9985 H   0  0  0  0  0  0
  -23.7346  -30.5972   19.3998 H   0  0  0  0  0  0
  -22.7475  -29.2420   19.8619 H   0  0  0  0  0  0
  -25.1301  -36.1908   25.0798 H   0  0  0  0  0  0
  -20.9973  -28.3237   24.1429 H   0  0  0  0  0  0
  -20.5686  -26.2278   23.3593 H   0  0  0  0  0  0
  -21.6644  -26.7459   22.1196 H   0  0  0  0  0  0
  -19.6915  -25.6318   21.1230 H   0  0  0  0  0  0
  -19.6693  -27.3216   20.6756 H   0  0  0  0  0  0
  -17.4200  -26.6691   21.4033 H   0  0  0  0  0  0
  -18.0344  -26.0081   22.9020 H   0  0  0  0  0  0
  -19.7934  -30.7277   24.2276 H   0  0  0  0  0  0
  -17.5015  -31.6274   24.5167 H   0  0  0  0  0  0
  -15.5351  -30.2996   23.7658 H   0  0  0  0  0  0
  -15.8670  -28.0840   22.7038 H   0  0  0  0  0  0
  -24.5931  -30.7051   25.7776 H   0  0  0  0  0  0
  -24.8927  -32.2901   26.4825 H   0  0  0  0  0  0
  -25.8092  -30.8938   27.0222 H   0  0  0  0  0  0
  -26.2874  -29.6773   24.1155 H   0  0  0  0  0  0
  -27.4032  -29.7231   25.4602 H   0  0  0  0  0  0
  -27.8739  -30.4288   23.9327 H   0  0  0  0  0  0
  -27.2648  -33.3602   26.2076 H   0  0  0  0  0  0
  -28.3884  -32.6871   25.0349 H   0  0  0  0  0  0
  -28.0690  -31.8421   26.5415 H   0  0  0  0  0  0
  -28.2567  -38.0112   24.7496 H   0  0  0  0  0  0
  -28.1086  -36.2635   24.6286 H   0  0  0  0  0  0
  -27.2293  -37.1456   25.8861 H   0  0  0  0  0  0
  -20.9311  -29.8763   21.6920 H   0  0  0  0  0  0
  -26.0155  -38.2833   24.1416 H   0  0  0  0  0  0
  -31.5066  -19.7120   19.3592 H   0  0  0  0  0  0
  -31.4825  -17.2596   19.4083 H   0  0  0  0  0  0
  -28.3407  -19.8402   22.2596 H   0  0  0  0  0  0
  -27.5232  -17.8994   23.2632 H   0  0  0  0  0  0
  -28.5757  -16.4931   23.2932 H   0  0  0  0  0  0
  -27.2903  -16.6123   22.0812 H   0  0  0  0  0  0
  -31.3815  -24.0480   21.0130 H   0  0  0  0  0  0
  -30.7944  -25.6291   20.5643 H   0  0  0  0  0  0
  -30.9309  -24.3694   19.3422 H   0  0  0  0  0  0
  -29.6271  -23.7648   22.8161 H   0  0  0  0  0  0
  -27.9226  -24.0056   22.4479 H   0  0  0  0  0  0
  -29.0272  -25.3692   22.4633 H   0  0  0  0  0  0
  -31.0636  -21.7891   20.5178 H   0  0  0  0  0  0
  -30.1586  -21.7423   21.9900 H   0  0  0  0  0  0
  -28.0330  -22.2557   20.6003 H   0  0  0  0  0  0
  -29.0584  -22.4637   19.2211 H   0  0  0  0  0  0
  -28.3505  -24.9376   18.8266 H   0  0  0  0  0  0
  -27.2281  -24.7387   20.1436 H   0  0  0  0  0  0
  -28.9944  -15.2771   21.4134 H   0  0  0  0  0  0
  1 25  1  0  0  0
  1 30  2  0  0  0
  1 84  1  0  0  0
  2  3  1  0  0  0
  2 25  1  0  0  0
  2 85  1  0  0  0
  2 86  1  0  0  0
  3  4  1  0  0  0
  3 87  1  0  0  0
  3 88  1  0  0  0
  4  5  1  0  0  0
  4 89  1  0  0  0
  4 90  1  0  0  0
  5  6  1  0  0  0
  5 26  1  0  0  0
  5 91  1  0  0  0
  6 25  1  0  0  0
  6 92  1  0  0  0
  6 93  1  0  0  0
  7  8  2  0  0  0
  7 26  1  0  0  0
  7 29  1  0  0  0
  8  9  1  0  0  0
  8 22  1  0  0  0
  9 10  1  0  0  0
  9 27  2  0  0  0
 10 11  2  0  0  0
 10 15  1  0  0  0
 11 12  1  0  0  0
 11 94  1  0  0  0
 12 13  2  0  0  0
 12 95  1  0  0  0
 13 14  1  0  0  0
 13 31  1  0  0  0
 14 15  2  0  0  0
 14 96  1  0  0  0
 15 97  1  0  0  0
 16 17  2  0  0  0
 16 21  1  0  0  0
 16 31  1  0  0  0
 17 18  1  0  0  0
 17 98  1  0  0  0
 18 19  2  0  0  0
 18 99  1  0  0  0
 19 20  1  0  0  0
 19 24  1  0  0  0
 20 21  2  0  0  0
 20100  1  0  0  0
 21 23  1  0  0  0
 22 28  1  0  0  0
 22 32  2  0  0  0
 26 27  1  0  0  0
 28101  1  0  0  0
 28102  1  0  0  0
 29103  1  0  0  0
 29104  1  0  0  0
 33 34  1  0  0  0
 33 66  1  0  0  0
 33 70  2  0  0  0
 34 36  1  0  0  0
 34 59  1  0  0  0
 34105  1  0  0  0
 35 44  2  0  0  0
 35 45  1  0  0  0
 35 68  1  0  0  0
 36 56  1  0  0  0
 36106  1  0  0  0
 37 39  1  0  0  0
 37 47  1  0  0  0
 37 66  1  0  0  0
 37107  1  0  0  0
 38 43  2  0  0  0
 38 46  1  0  0  0
 38 47  1  0  0  0
 39 64  1  0  0  0
 39 67  2  0  0  0
 40 52  1  0  0  0
 40 53  2  0  0  0
 40 58  1  0  0  0
 41108  1  0  0  0
 41109  1  0  0  0
 41110  1  0  0  0
 41 48  1  0  0  0
 42 43  1  0  0  0
 42 66  1  0  0  0
 42111  1  0  0  0
 42112  1  0  0  0
 43 44  1  0  0  0
 44113  1  0  0  0
 45 46  2  0  0  0
 45114  1  0  0  0
 46115  1  0  0  0
 47116  1  0  0  0
 47117  1  0  0  0
 48 56  1  0  0  0
 48 65  1  0  0  0
 48118  1  0  0  0
 49 50  1  0  0  0
 49 53  1  0  0  0
 49 64  1  0  0  0
 49119  1  0  0  0
 50 51  1  0  0  0
 50120  1  0  0  0
 50121  1  0  0  0
 51 52  1  0  0  0
 51122  1  0  0  0
 51123  1  0  0  0
 52124  1  0  0  0
 52125  1  0  0  0
 53 54  1  0  0  0
 54 55  2  0  0  0
 54126  1  0  0  0
 55 57  1  0  0  0
 55127  1  0  0  0
 56 69  2  0  0  0
 57 58  2  0  0  0
 57128  1  0  0  0
 58129  1  0  0  0
 59 60  1  0  0  0
 59 61  1  0  0  0
 59 62  1  0  0  0
 60130  1  0  0  0
 60131  1  0  0  0
 60132  1  0  0  0
 61133  1  0  0  0
 61134  1  0  0  0
 61135  1  0  0  0
 62136  1  0  0  0
 62137  1  0  0  0
 62138  1  0  0  0
 63 65  1  0  0  0
 63139  1  0  0  0
 63140  1  0  0  0
 63141  1  0  0  0
 64142  1  0  0  0
 65143  1  0  0  0
 68 82  1  0  0  0
 71 72  2  0  0  0
 71 74  1  0  0  0
 71144  1  0  0  0
 72 76  1  0  0  0
 72145  1  0  0  0
 73 74  2  0  0  0
 73 75  1  0  0  0
 73146  1  0  0  0
 74 80  1  0  0  0
 75 76  2  0  0  0
 75 77  1  0  0  0
 76 84  1  0  0  0
 77147  1  0  0  0
 77148  1  0  0  0
 77149  1  0  0  0
 78150  1  0  0  0
 78151  1  0  0  0
 78152  1  0  0  0
 78 83  1  0  0  0
 79 83  1  0  0  0
 79153  1  0  0  0
 79154  1  0  0  0
 79155  1  0  0  0
 80 81  1  0  0  0
 80156  1  0  0  0
 80157  1  0  0  0
 81 83  1  0  0  0
 81158  1  0  0  0
 81159  1  0  0  0
 82 83  1  0  0  0
 82160  1  0  0  0
 82161  1  0  0  0
 84162  1  0  0  0
M  ISO  4   1 100  68 101  82 101  84 100
M  END
> <chiral flag>
0

> <version>
0

> <s_m_source_file>
/data/baiqing/PycharmProjects/Reinvent-master-3.2/result/LINK_invent/BTK/process_docking_weight1_custom_product_contain_oxygen_bond_distance_aromatic_linkinvent_7_9_3/rearranged_h_0137.sdf

> <i_m_source_file_index>
12

> <r_mmod_Potential_Energy-OPLS-2005>
25.7066287994385

> <r_mmod_Stretch_Energy-OPLS-2005>
71.2707366943359

> <r_mmod_Bend_Energy-OPLS-2005>
133.864517211914

> <r_mmod_Torsional_Energy-OPLS-2005>
221.897705078125

> <r_mmod_Improper_Torsional_Energy-OPLS-2005>
4.36692476272583

> <r_mmod_Van_der_Waal_Energy-OPLS-2005>
146.378509521484

> <r_mmod_Electrostatic_Energy-OPLS-2005>
-397.1767578125

> <r_mmod_Solvation_Energy-OPLS-2005>
-192.410583496094

> <b_mmod_Minimization_Converged-OPLS-2005>
0

> <r_mmod_RMS_Derivative-OPLS-2005>
2.17398476600647

$$$$
12
                    3D
 Structure written by MMmdl.
162170  0  0  1  0            999 V2000
  -30.6457  -14.5812   20.5712 C   0  0  0  0  0  0
  -30.4389  -12.3726   19.4542 C   0  0  0  0  0  0
  -29.5095  -12.5239   18.2297 C   0  0  0  0  0  0
  -28.0281  -12.3782   18.6330 C   0  0  0  0  0  0
  -27.6604  -13.2212   19.8833 C   0  0  2  0  0  0
  -28.6987  -13.0240   21.0090 C   0  0  0  0  0  0
  -25.2546  -13.8196   20.5731 C   0  0  0  0  0  0
  -24.1808  -13.0422   20.9182 C   0  0  0  0  0  0
  -24.6395  -11.6915   20.8737 C   0  0  0  0  0  0
  -23.9072  -10.4288   21.0408 C   0  0  0  0  0  0
  -24.3630   -9.4210   21.9178 C   0  0  0  0  0  0
  -23.6316   -8.2236   22.0751 C   0  0  0  0  0  0
  -22.4289   -8.0283   21.3545 C   0  0  0  0  0  0
  -21.9921   -9.0246   20.4635 C   0  0  0  0  0  0
  -22.7251  -10.2128   20.3051 C   0  0  0  0  0  0
  -21.6854   -6.0753   22.5285 C   0  0  0  0  0  0
  -21.4013   -6.5659   23.8226 C   0  0  0  0  0  0
  -21.3656   -5.6811   24.9184 C   0  0  0  0  0  0
  -21.6044   -4.3069   24.7226 C   0  0  0  0  0  0
  -21.8822   -3.8159   23.4342 C   0  0  0  0  0  0
  -21.9192   -4.6977   22.3403 C   0  0  0  0  0  0
  -22.7824  -13.5197   21.1868 C   0  0  0  0  0  0
  -22.1658   -4.2167   21.0977 F   0  0  0  0  0  0
  -21.5625   -3.4551   25.7730 F   0  0  0  0  0  0
  -30.0242  -13.3660   20.4633 N   0  0  0  0  0  0
  -26.3013  -12.9396   20.3417 N   0  0  0  0  0  0
  -25.9328  -11.6537   20.5768 N   0  0  0  0  0  0
  -22.0497  -12.8151   22.0431 N   0  0  0  0  0  0
  -25.4226  -15.1920   20.4201 N   0  0  0  0  0  0
  -31.7818  -14.7698   20.1226 O   0  0  0  0  0  0
  -21.6642   -6.8887   21.4246 O   0  0  0  0  0  0
  -22.3495  -14.5507   20.6755 O   0  0  0  0  0  0
  -24.6230  -31.8625   23.2000 C   0  0  0  0  0  0
  -25.9092  -32.4778   23.8323 C   0  0  1  0  0  0
  -27.2335  -27.3443   20.1326 C   0  0  0  0  0  0
  -25.5947  -33.8587   24.2229 N   0  0  0  0  0  0
  -23.4193  -30.4820   21.5415 C   0  0  2  0  0  0
  -24.8691  -28.9431   20.1151 C   0  0  0  0  0  0
  -22.7474  -29.4618   22.4908 C   0  0  0  0  0  0
  -18.0294  -28.1392   22.8484 C   0  0  0  0  0  0
  -24.1511  -36.7315   23.2639 C   0  0  0  0  0  0
  -25.9550  -30.8076   21.3653 C   0  0  0  0  0  0
  -26.0345  -29.4354   20.7133 C   0  0  0  0  0  0
  -27.2221  -28.6496   20.7088 C   0  0  0  0  0  0
  -26.0458  -26.9072   19.4997 C   0  0  0  0  0  0
  -24.8744  -27.6839   19.5016 C   0  0  0  0  0  0
  -23.6360  -29.8169   20.1577 C   0  0  0  0  0  0
  -25.4133  -36.3085   24.0312 C   0  0  1  0  0  0
  -20.5890  -28.3696   23.1271 C   0  0  2  0  0  0
  -20.6780  -26.9411   22.5407 C   0  0  0  0  0  0
  -19.5768  -26.6389   21.5209 C   0  0  0  0  0  0
  -18.1944  -26.7942   22.1612 C   0  0  0  0  0  0
  -19.1539  -28.8861   23.2881 C   0  0  0  0  0  0
  -18.9468  -30.1479   23.8881 C   0  0  0  0  0  0
  -17.6465  -30.6595   24.0570 C   0  0  0  0  0  0
  -25.9073  -34.9464   23.5066 C   0  0  0  0  0  0
  -16.5357  -29.9090   23.6343 C   0  0  0  0  0  0
  -16.7284  -28.6519   23.0336 C   0  0  0  0  0  0
  -26.4511  -31.6586   25.0685 C   0  0  0  0  0  0
  -25.3729  -31.3694   26.1384 C   0  0  0  0  0  0
  -27.0370  -30.3022   24.6138 C   0  0  0  0  0  0
  -27.6089  -32.4295   25.7468 C   0  0  0  0  0  0
  -27.5586  -37.1806   24.8461 C   0  0  0  0  0  0
  -21.4182  -29.3055   22.3658 N   0  0  0  0  0  0
  -26.4313  -37.3765   23.9396 N   0  0  0  0  0  0
  -24.6837  -31.0668   22.0939 N   0  0  0  0  0  0
  -23.4199  -28.8152   23.2976 O   0  0  0  0  0  0
  -28.3594  -26.5121   20.1802 O   0  0  0  0  0  0
  -26.5632  -34.8944   22.4625 O   0  0  0  0  0  0
  -23.5397  -32.1418   23.7346 O   0  0  0  0  0  0
  -29.6581  -19.2900   21.9548 C   0  0  0  0  0  0
  -29.6481  -17.8695   22.0730 C   0  0  0  0  0  0
  -30.3320  -19.0741   19.6527 C   0  0  0  0  0  0
  -30.0173  -19.9305   20.7429 C   0  0  0  0  0  0
  -30.0011  -17.0191   20.9917 C   0  0  0  0  0  0
  -30.3196  -17.6559   19.7635 C   0  0  0  0  0  0
  -27.8320  -21.9766   19.8719 C   0  0  0  0  0  0
  -30.3981  -24.5443   21.4376 C   0  0  0  0  0  0
  -29.9843  -24.2349   18.9813 C   0  0  0  0  0  0
  -30.2266  -21.4829   20.6384 C   0  0  0  0  0  0
  -28.1333  -25.0793   20.4707 C   0  0  0  0  0  0
  -29.0176  -22.5202   20.6905 C   0  0  1  0  0  0
  -29.3664  -24.0747   20.3887 C   0  0  0  0  0  0
  -29.9138  -15.5766   21.1447 N   0  0  0  0  0  0
  -30.5840  -16.9135   18.6615 F   0  0  0  0  0  0
  -31.4812  -12.4967   19.1573 H   0  0  0  0  0  0
  -30.3693  -11.3651   19.8678 H   0  0  0  0  0  0
  -29.7649  -11.7857   17.4681 H   0  0  0  0  0  0
  -29.6658  -13.5012   17.7706 H   0  0  0  0  0  0
  -27.8386  -11.3225   18.8288 H   0  0  0  0  0  0
  -27.3863  -12.6556   17.7962 H   0  0  0  0  0  0
  -27.6952  -14.2671   19.5790 H   0  0  0  0  0  0
  -28.6932  -11.9877   21.3483 H   0  0  0  0  0  0
  -28.4420  -13.6145   21.8896 H   0  0  0  0  0  0
  -25.2776   -9.5696   22.4743 H   0  0  0  0  0  0
  -24.0033   -7.4624   22.7464 H   0  0  0  0  0  0
  -21.0866   -8.8777   19.8919 H   0  0  0  0  0  0
  -22.3729  -10.9674   19.6159 H   0  0  0  0  0  0
  -21.2012   -7.6170   23.9737 H   0  0  0  0  0  0
  -21.1473   -6.0535   25.9093 H   0  0  0  0  0  0
  -22.0597   -2.7620   23.2846 H   0  0  0  0  0  0
  -22.4144  -11.9808   22.4779 H   0  0  0  0  0  0
  -21.1110  -13.1142   22.2655 H   0  0  0  0  0  0
  -24.6547  -15.8461   20.5333 H   0  0  0  0  0  0
  -26.2824  -15.6381   20.1249 H   0  0  0  0  0  0
  -26.7127  -32.5472   23.1057 H   0  0  0  0  0  0
  -25.0080  -33.9715   25.0357 H   0  0  0  0  0  0
  -22.7129  -31.2997   21.3895 H   0  0  0  0  0  0
  -23.3779  -35.9646   23.3313 H   0  0  0  0  0  0
  -24.3572  -36.8948   22.2050 H   0  0  0  0  0  0
  -23.7291  -37.6534   23.6655 H   0  0  0  0  0  0
  -26.0647  -31.5698   20.5930 H   0  0  0  0  0  0
  -26.8447  -30.8645   21.9822 H   0  0  0  0  0  0
  -28.1198  -29.0328   21.1732 H   0  0  0  0  0  0
  -25.9931  -25.9585   18.9895 H   0  0  0  0  0  0
  -23.9827  -27.3006   19.0264 H   0  0  0  0  0  0
  -23.7570  -30.5936   19.4011 H   0  0  0  0  0  0
  -22.7605  -29.2399   19.8531 H   0  0  0  0  0  0
  -25.1304  -36.1931   25.0799 H   0  0  0  0  0  0
  -20.9974  -28.3294   24.1399 H   0  0  0  0  0  0
  -20.5687  -26.2306   23.3609 H   0  0  0  0  0  0
  -21.6635  -26.7427   22.1181 H   0  0  0  0  0  0
  -19.6941  -25.6303   21.1251 H   0  0  0  0  0  0
  -19.6730  -27.3180   20.6732 H   0  0  0  0  0  0
  -17.4192  -26.6700   21.4034 H   0  0  0  0  0  0
  -18.0344  -26.0092   22.9016 H   0  0  0  0  0  0
  -19.7944  -30.7318   24.2217 H   0  0  0  0  0  0
  -17.5018  -31.6275   24.5178 H   0  0  0  0  0  0
  -15.5355  -30.2977   23.7703 H   0  0  0  0  0  0
  -15.8695  -28.0872   22.6996 H   0  0  0  0  0  0
  -24.5948  -30.7003   25.7678 H   0  0  0  0  0  0
  -24.8861  -32.2841   26.4780 H   0  0  0  0  0  0
  -25.8047  -30.8880   27.0166 H   0  0  0  0  0  0
  -26.2939  -29.6731   24.1227 H   0  0  0  0  0  0
  -27.4155  -29.7314   25.4637 H   0  0  0  0  0  0
  -27.8753  -30.4329   23.9292 H   0  0  0  0  0  0
  -27.2740  -33.3618   26.2021 H   0  0  0  0  0  0
  -28.3934  -32.6804   25.0311 H   0  0  0  0  0  0
  -28.0713  -31.8414   26.5405 H   0  0  0  0  0  0
  -28.2575  -38.0127   24.7484 H   0  0  0  0  0  0
  -28.1099  -36.2639   24.6297 H   0  0  0  0  0  0
  -27.2274  -37.1471   25.8859 H   0  0  0  0  0  0
  -20.9360  -29.8779   21.6870 H   0  0  0  0  0  0
  -26.0215  -38.2843   24.1409 H   0  0  0  0  0  0
  -29.4186  -19.8872   22.8241 H   0  0  0  0  0  0
  -29.3738  -17.4300   23.0226 H   0  0  0  0  0  0
  -30.6146  -19.5025   18.7032 H   0  0  0  0  0  0
  -27.5864  -20.9569   20.1709 H   0  0  0  0  0  0
  -28.0489  -21.9661   18.8042 H   0  0  0  0  0  0
  -26.9239  -22.5538   20.0303 H   0  0  0  0  0  0
  -30.5509  -25.6251   21.4083 H   0  0  0  0  0  0
  -31.3728  -24.0825   21.2827 H   0  0  0  0  0  0
  -30.0731  -24.2963   22.4491 H   0  0  0  0  0  0
  -30.3278  -25.2581   18.8226 H   0  0  0  0  0  0
  -29.2608  -24.0174   18.1957 H   0  0  0  0  0  0
  -30.8539  -23.5996   18.8207 H   0  0  0  0  0  0
  -30.7635  -21.6353   19.7052 H   0  0  0  0  0  0
  -30.9452  -21.7453   21.4136 H   0  0  0  0  0  0
  -27.7051  -25.0208   21.4721 H   0  0  0  0  0  0
  -27.3717  -24.6859   19.8060 H   0  0  0  0  0  0
  -28.6708  -22.4886   21.7231 H   0  0  0  0  0  0
  -29.0975  -15.2503   21.6401 H   0  0  0  0  0  0
  1 25  1  0  0  0
  1 30  2  0  0  0
  1 84  1  0  0  0
  2  3  1  0  0  0
  2 25  1  0  0  0
  2 86  1  0  0  0
  2 87  1  0  0  0
  3  4  1  0  0  0
  3 88  1  0  0  0
  3 89  1  0  0  0
  4  5  1  0  0  0
  4 90  1  0  0  0
  4 91  1  0  0  0
  5  6  1  0  0  0
  5 26  1  0  0  0
  5 92  1  0  0  0
  6 25  1  0  0  0
  6 93  1  0  0  0
  6 94  1  0  0  0
  7  8  2  0  0  0
  7 26  1  0  0  0
  7 29  1  0  0  0
  8  9  1  0  0  0
  8 22  1  0  0  0
  9 10  1  0  0  0
  9 27  2  0  0  0
 10 11  2  0  0  0
 10 15  1  0  0  0
 11 12  1  0  0  0
 11 95  1  0  0  0
 12 13  2  0  0  0
 12 96  1  0  0  0
 13 14  1  0  0  0
 13 31  1  0  0  0
 14 15  2  0  0  0
 14 97  1  0  0  0
 15 98  1  0  0  0
 16 17  2  0  0  0
 16 21  1  0  0  0
 16 31  1  0  0  0
 17 18  1  0  0  0
 17 99  1  0  0  0
 18 19  2  0  0  0
 18100  1  0  0  0
 19 20  1  0  0  0
 19 24  1  0  0  0
 20 21  2  0  0  0
 20101  1  0  0  0
 21 23  1  0  0  0
 22 28  1  0  0  0
 22 32  2  0  0  0
 26 27  1  0  0  0
 28102  1  0  0  0
 28103  1  0  0  0
 29104  1  0  0  0
 29105  1  0  0  0
 33 34  1  0  0  0
 33 66  1  0  0  0
 33 70  2  0  0  0
 34 36  1  0  0  0
 34 59  1  0  0  0
 34106  1  0  0  0
 35 44  2  0  0  0
 35 45  1  0  0  0
 35 68  1  0  0  0
 36 56  1  0  0  0
 36107  1  0  0  0
 37 39  1  0  0  0
 37 47  1  0  0  0
 37 66  1  0  0  0
 37108  1  0  0  0
 38 43  2  0  0  0
 38 46  1  0  0  0
 38 47  1  0  0  0
 39 64  1  0  0  0
 39 67  2  0  0  0
 40 52  1  0  0  0
 40 53  2  0  0  0
 40 58  1  0  0  0
 41109  1  0  0  0
 41110  1  0  0  0
 41111  1  0  0  0
 41 48  1  0  0  0
 42 43  1  0  0  0
 42 66  1  0  0  0
 42112  1  0  0  0
 42113  1  0  0  0
 43 44  1  0  0  0
 44114  1  0  0  0
 45 46  2  0  0  0
 45115  1  0  0  0
 46116  1  0  0  0
 47117  1  0  0  0
 47118  1  0  0  0
 48 56  1  0  0  0
 48 65  1  0  0  0
 48119  1  0  0  0
 49 50  1  0  0  0
 49 53  1  0  0  0
 49 64  1  0  0  0
 49120  1  0  0  0
 50 51  1  0  0  0
 50121  1  0  0  0
 50122  1  0  0  0
 51 52  1  0  0  0
 51123  1  0  0  0
 51124  1  0  0  0
 52125  1  0  0  0
 52126  1  0  0  0
 53 54  1  0  0  0
 54 55  2  0  0  0
 54127  1  0  0  0
 55 57  1  0  0  0
 55128  1  0  0  0
 56 69  2  0  0  0
 57 58  2  0  0  0
 57129  1  0  0  0
 58130  1  0  0  0
 59 60  1  0  0  0
 59 61  1  0  0  0
 59 62  1  0  0  0
 60131  1  0  0  0
 60132  1  0  0  0
 60133  1  0  0  0
 61134  1  0  0  0
 61135  1  0  0  0
 61136  1  0  0  0
 62137  1  0  0  0
 62138  1  0  0  0
 62139  1  0  0  0
 63 65  1  0  0  0
 63140  1  0  0  0
 63141  1  0  0  0
 63142  1  0  0  0
 64143  1  0  0  0
 65144  1  0  0  0
 68 81  1  0  0  0
 71 72  2  0  0  0
 71 74  1  0  0  0
 71145  1  0  0  0
 72 75  1  0  0  0
 72146  1  0  0  0
 73 74  2  0  0  0
 73 76  1  0  0  0
 73147  1  0  0  0
 74 80  1  0  0  0
 75 76  2  0  0  0
 75 84  1  0  0  0
 76 85  1  0  0  0
 77148  1  0  0  0
 77149  1  0  0  0
 77150  1  0  0  0
 77 82  1  0  0  0
 78151  1  0  0  0
 78152  1  0  0  0
 78153  1  0  0  0
 78 83  1  0  0  0
 79 83  1  0  0  0
 79154  1  0  0  0
 79155  1  0  0  0
 79156  1  0  0  0
 80 82  1  0  0  0
 80157  1  0  0  0
 80158  1  0  0  0
 81 83  1  0  0  0
 81159  1  0  0  0
 81160  1  0  0  0
 82 83  1  0  0  0
 82161  1  0  0  0
 84162  1  0  0  0
M  ISO  4   1 100  68 101  81 101  84 100
M  END
> <chiral flag>
0

> <version>
0

> <s_m_source_file>
/data/baiqing/PycharmProjects/Reinvent-master-3.2/result/LINK_invent/BTK/process_docking_weight1_custom_product_contain_oxygen_bond_distance_aromatic_linkinvent_7_9_3/rearranged_h_0137.sdf

> <i_m_source_file_index>
13

> <r_mmod_Potential_Energy-OPLS-2005>
54.6768455505371

> <r_mmod_Stretch_Energy-OPLS-2005>
77.1873474121094

> <r_mmod_Bend_Energy-OPLS-2005>
133.552841186523

> <r_mmod_Torsional_Energy-OPLS-2005>
249.903839111328

> <r_mmod_Improper_Torsional_Energy-OPLS-2005>
3.3370041847229

> <r_mmod_Van_der_Waal_Energy-OPLS-2005>
148.249588012695

> <r_mmod_Electrostatic_Energy-OPLS-2005>
-395.048645019531

> <r_mmod_Solvation_Energy-OPLS-2005>
-196.68571472168

> <b_mmod_Minimization_Converged-OPLS-2005>
0

> <r_mmod_RMS_Derivative-OPLS-2005>
3.28664183616638

$$$$
13
                    3D
 Structure written by MMmdl.
164172  0  0  1  0            999 V2000
  -30.6576  -14.5893   20.3492 C   0  0  0  0  0  0
  -30.4188  -12.3089   19.4597 C   0  0  0  0  0  0
  -29.5060  -12.3738   18.2127 C   0  0  0  0  0  0
  -28.0044  -12.3795   18.5747 C   0  0  0  0  0  0
  -27.6430  -13.2252   19.8323 C   0  0  2  0  0  0
  -28.6993  -13.0996   20.9534 C   0  0  0  0  0  0
  -25.2619  -13.8143   20.5820 C   0  0  0  0  0  0
  -24.1886  -13.0426   20.9255 C   0  0  0  0  0  0
  -24.6421  -11.6904   20.8734 C   0  0  0  0  0  0
  -23.9018  -10.4271   21.0385 C   0  0  0  0  0  0
  -24.3531   -9.4197   21.9175 C   0  0  0  0  0  0
  -23.6326   -8.2192   22.0691 C   0  0  0  0  0  0
  -22.4304   -8.0223   21.3476 C   0  0  0  0  0  0
  -21.9877   -9.0179   20.4572 C   0  0  0  0  0  0
  -22.7195  -10.2082   20.3041 C   0  0  0  0  0  0
  -21.6865   -6.0723   22.5260 C   0  0  0  0  0  0
  -21.3996   -6.5641   23.8190 C   0  0  0  0  0  0
  -21.3619   -5.6781   24.9145 C   0  0  0  0  0  0
  -21.6068   -4.3053   24.7184 C   0  0  0  0  0  0
  -21.8846   -3.8129   23.4314 C   0  0  0  0  0  0
  -21.9217   -4.6940   22.3369 C   0  0  0  0  0  0
  -22.7910  -13.5169   21.1946 C   0  0  0  0  0  0
  -22.1700   -4.2153   21.0940 F   0  0  0  0  0  0
  -21.5587   -3.4491   25.7659 F   0  0  0  0  0  0
  -30.0159  -13.3853   20.3705 N   0  0  0  0  0  0
  -26.3003  -12.9359   20.3283 N   0  0  0  0  0  0
  -25.9350  -11.6494   20.5747 N   0  0  0  0  0  0
  -22.0497  -12.8110   22.0374 N   0  0  0  0  0  0
  -25.4301  -15.1924   20.4397 N   0  0  0  0  0  0
  -31.8618  -14.6999   20.1168 O   0  0  0  0  0  0
  -21.6661   -6.8859   21.4221 O   0  0  0  0  0  0
  -22.3602  -14.5525   20.6899 O   0  0  0  0  0  0
  -24.6076  -31.8660   23.2088 C   0  0  0  0  0  0
  -25.8993  -32.4817   23.8343 C   0  0  1  0  0  0
  -27.2447  -27.4089   20.1374 C   0  0  0  0  0  0
  -25.5820  -33.8616   24.2261 N   0  0  0  0  0  0
  -23.3965  -30.4816   21.5540 C   0  0  2  0  0  0
  -24.8469  -28.9367   20.1308 C   0  0  0  0  0  0
  -22.7379  -29.4584   22.5047 C   0  0  0  0  0  0
  -18.0239  -28.1376   22.8517 C   0  0  0  0  0  0
  -24.1444  -36.7286   23.2654 C   0  0  0  0  0  0
  -25.9229  -30.8289   21.3606 C   0  0  0  0  0  0
  -26.0063  -29.4540   20.7250 C   0  0  0  0  0  0
  -27.2003  -28.6975   20.7319 C   0  0  0  0  0  0
  -26.0703  -26.9144   19.5209 C   0  0  0  0  0  0
  -24.8704  -27.6609   19.5390 C   0  0  0  0  0  0
  -23.6046  -29.8016   20.1730 C   0  0  0  0  0  0
  -25.4086  -36.3080   24.0328 C   0  0  1  0  0  0
  -20.5827  -28.3585   23.1398 C   0  0  2  0  0  0
  -20.6727  -26.9320   22.5478 C   0  0  0  0  0  0
  -19.5715  -26.6353   21.5251 C   0  0  0  0  0  0
  -18.1883  -26.7922   22.1648 C   0  0  0  0  0  0
  -19.1516  -28.8806   23.2942 C   0  0  0  0  0  0
  -18.9447  -30.1452   23.8882 C   0  0  0  0  0  0
  -17.6471  -30.6596   24.0589 C   0  0  0  0  0  0
  -25.9014  -34.9461   23.5066 C   0  0  0  0  0  0
  -16.5332  -29.9107   23.6390 C   0  0  0  0  0  0
  -16.7249  -28.6549   23.0331 C   0  0  0  0  0  0
  -26.4408  -31.6653   25.0693 C   0  0  0  0  0  0
  -25.3675  -31.3869   26.1448 C   0  0  0  0  0  0
  -27.0261  -30.3089   24.6104 C   0  0  0  0  0  0
  -27.5943  -32.4403   25.7507 C   0  0  0  0  0  0
  -27.5563  -37.1785   24.8474 C   0  0  0  0  0  0
  -21.4110  -29.2940   22.3815 N   0  0  0  0  0  0
  -26.4248  -37.3796   23.9425 N   0  0  0  0  0  0
  -24.6625  -31.0724   22.0999 N   0  0  0  0  0  0
  -23.4205  -28.8197   23.3094 O   0  0  0  0  0  0
  -28.4189  -26.6817   20.1435 O   0  0  0  0  0  0
  -26.5611  -34.8958   22.4656 O   0  0  0  0  0  0
  -23.5302  -32.1385   23.7522 O   0  0  0  0  0  0
  -30.1732  -19.5713   18.5680 C   0  0  0  0  0  0
  -30.1739  -18.4207   17.7497 C   0  0  0  0  0  0
  -30.0096  -18.1502   20.5320 C   0  0  0  0  0  0
  -30.0291  -19.4655   19.9672 C   0  0  0  0  0  0
  -30.0088  -17.1337   18.3076 C   0  0  0  0  0  0
  -30.0188  -16.9675   19.7280 C   0  0  0  0  0  0
  -29.7742  -24.6423   20.4820 C   0  0  0  0  0  0
  -29.6756  -16.0035   17.3385 C   0  0  0  0  0  0
  -29.0044  -23.1226   22.4288 C   0  0  0  0  0  0
  -31.4256  -23.7259   22.1855 C   0  0  0  0  0  0
  -29.7446  -20.7248   20.8469 C   0  0  0  0  0  0
  -28.3486  -25.2656   20.4462 C   0  0  0  0  0  0
  -30.3903  -22.1061   20.4579 C   0  0  0  0  0  0
  -30.1227  -23.3866   21.3805 C   0  0  0  0  0  0
  -29.8333  -15.6710   20.3471 N   0  0  0  0  0  0
  -30.6477  -25.1342   19.7573 O   0  0  0  0  0  0
  -31.4675  -12.3820   19.1719 H   0  0  0  0  0  0
  -30.3169  -11.3476   19.9693 H   0  0  0  0  0  0
  -29.7107  -11.5137   17.5666 H   0  0  0  0  0  0
  -29.7575  -13.2459   17.6120 H   0  0  0  0  0  0
  -27.6796  -11.3434   18.6883 H   0  0  0  0  0  0
  -27.4362  -12.7546   17.7210 H   0  0  0  0  0  0
  -27.6381  -14.2561   19.4869 H   0  0  0  0  0  0
  -28.6908  -12.1010   21.3874 H   0  0  0  0  0  0
  -28.4815  -13.7727   21.7818 H   0  0  0  0  0  0
  -25.2558   -9.5790   22.4896 H   0  0  0  0  0  0
  -24.0099   -7.4565   22.7368 H   0  0  0  0  0  0
  -21.0827   -8.8634   19.8894 H   0  0  0  0  0  0
  -22.3570  -10.9622   19.6241 H   0  0  0  0  0  0
  -21.2001   -7.6153   23.9681 H   0  0  0  0  0  0
  -21.1422   -6.0498   25.9057 H   0  0  0  0  0  0
  -22.0682   -2.7597   23.2783 H   0  0  0  0  0  0
  -22.4025  -11.9795   22.4892 H   0  0  0  0  0  0
  -21.1141  -13.1195   22.2429 H   0  0  0  0  0  0
  -24.6618  -15.8235   20.6391 H   0  0  0  0  0  0
  -26.2585  -15.6610   20.0956 H   0  0  0  0  0  0
  -26.7051  -32.5533   23.1141 H   0  0  0  0  0  0
  -24.9937  -33.9771   25.0352 H   0  0  0  0  0  0
  -22.6795  -31.2919   21.4189 H   0  0  0  0  0  0
  -23.3714  -35.9611   23.3341 H   0  0  0  0  0  0
  -24.3530  -36.8885   22.2071 H   0  0  0  0  0  0
  -23.7198  -37.6489   23.6668 H   0  0  0  0  0  0
  -26.0175  -31.5912   20.5858 H   0  0  0  0  0  0
  -26.8093  -30.8902   21.9739 H   0  0  0  0  0  0
  -28.0804  -29.0871   21.2268 H   0  0  0  0  0  0
  -26.0793  -25.9538   19.0222 H   0  0  0  0  0  0
  -23.9771  -27.2441   19.0946 H   0  0  0  0  0  0
  -23.7113  -30.5690   19.4084 H   0  0  0  0  0  0
  -22.7246  -29.2218   19.8865 H   0  0  0  0  0  0
  -25.1283  -36.1915   25.0822 H   0  0  0  0  0  0
  -20.9916  -28.3099   24.1516 H   0  0  0  0  0  0
  -20.5610  -26.2159   23.3644 H   0  0  0  0  0  0
  -21.6596  -26.7368   22.1268 H   0  0  0  0  0  0
  -19.6865  -25.6270   21.1227 H   0  0  0  0  0  0
  -19.6698  -27.3195   20.6821 H   0  0  0  0  0  0
  -17.4177  -26.6682   21.4016 H   0  0  0  0  0  0
  -18.0279  -26.0056   22.9040 H   0  0  0  0  0  0
  -19.7924  -30.7293   24.2153 H   0  0  0  0  0  0
  -17.5023  -31.6260   24.5203 H   0  0  0  0  0  0
  -15.5340  -30.3010   23.7721 H   0  0  0  0  0  0
  -15.8629  -28.0924   22.6958 H   0  0  0  0  0  0
  -24.5740  -30.7325   25.7837 H   0  0  0  0  0  0
  -24.8992  -32.3099   26.4874 H   0  0  0  0  0  0
  -25.7967  -30.9054   27.0229 H   0  0  0  0  0  0
  -26.2843  -29.6884   24.1058 H   0  0  0  0  0  0
  -27.3922  -29.7313   25.4602 H   0  0  0  0  0  0
  -27.8701  -30.4436   23.9336 H   0  0  0  0  0  0
  -27.2478  -33.3698   26.2058 H   0  0  0  0  0  0
  -28.3783  -32.6983   25.0376 H   0  0  0  0  0  0
  -28.0534  -31.8536   26.5478 H   0  0  0  0  0  0
  -28.2574  -38.0091   24.7509 H   0  0  0  0  0  0
  -28.1015  -36.2606   24.6249 H   0  0  0  0  0  0
  -27.2272  -37.1393   25.8872 H   0  0  0  0  0  0
  -20.9229  -29.8710   21.7118 H   0  0  0  0  0  0
  -26.0114  -38.2838   24.1483 H   0  0  0  0  0  0
  -30.2036  -20.5280   18.0598 H   0  0  0  0  0  0
  -30.2220  -18.5494   16.6732 H   0  0  0  0  0  0
  -29.9104  -18.0535   21.6028 H   0  0  0  0  0  0
  -30.5382  -15.3930   17.0461 H   0  0  0  0  0  0
  -29.2123  -16.4070   16.4264 H   0  0  0  0  0  0
  -28.9120  -15.3651   17.7814 H   0  0  0  0  0  0
  -28.7130  -24.0130   22.9960 H   0  0  0  0  0  0
  -29.3216  -22.3901   23.1733 H   0  0  0  0  0  0
  -28.0981  -22.7221   21.9757 H   0  0  0  0  0  0
  -32.3306  -23.3222   21.7298 H   0  0  0  0  0  0
  -31.3878  -23.3373   23.2062 H   0  0  0  0  0  0
  -31.5997  -24.8013   22.2880 H   0  0  0  0  0  0
  -29.9993  -20.5068   21.8843 H   0  0  0  0  0  0
  -28.6626  -20.8587   20.8282 H   0  0  0  0  0  0
  -27.8275  -25.1225   21.3944 H   0  0  0  0  0  0
  -27.7861  -24.7462   19.6688 H   0  0  0  0  0  0
  -30.0990  -22.3637   19.4366 H   0  0  0  0  0  0
  -31.4613  -21.9197   20.3905 H   0  0  0  0  0  0
  -28.8849  -15.4468   20.5958 H   0  0  0  0  0  0
  1 25  1  0  0  0
  1 30  2  0  0  0
  1 85  1  0  0  0
  2  3  1  0  0  0
  2 25  1  0  0  0
  2 87  1  0  0  0
  2 88  1  0  0  0
  3  4  1  0  0  0
  3 89  1  0  0  0
  3 90  1  0  0  0
  4  5  1  0  0  0
  4 91  1  0  0  0
  4 92  1  0  0  0
  5  6  1  0  0  0
  5 26  1  0  0  0
  5 93  1  0  0  0
  6 25  1  0  0  0
  6 94  1  0  0  0
  6 95  1  0  0  0
  7  8  2  0  0  0
  7 26  1  0  0  0
  7 29  1  0  0  0
  8  9  1  0  0  0
  8 22  1  0  0  0
  9 10  1  0  0  0
  9 27  2  0  0  0
 10 11  2  0  0  0
 10 15  1  0  0  0
 11 12  1  0  0  0
 11 96  1  0  0  0
 12 13  2  0  0  0
 12 97  1  0  0  0
 13 14  1  0  0  0
 13 31  1  0  0  0
 14 15  2  0  0  0
 14 98  1  0  0  0
 15 99  1  0  0  0
 16 17  2  0  0  0
 16 21  1  0  0  0
 16 31  1  0  0  0
 17 18  1  0  0  0
 17100  1  0  0  0
 18 19  2  0  0  0
 18101  1  0  0  0
 19 20  1  0  0  0
 19 24  1  0  0  0
 20 21  2  0  0  0
 20102  1  0  0  0
 21 23  1  0  0  0
 22 28  1  0  0  0
 22 32  2  0  0  0
 26 27  1  0  0  0
 28103  1  0  0  0
 28104  1  0  0  0
 29105  1  0  0  0
 29106  1  0  0  0
 33 34  1  0  0  0
 33 66  1  0  0  0
 33 70  2  0  0  0
 34 36  1  0  0  0
 34 59  1  0  0  0
 34107  1  0  0  0
 35 44  2  0  0  0
 35 45  1  0  0  0
 35 68  1  0  0  0
 36 56  1  0  0  0
 36108  1  0  0  0
 37 39  1  0  0  0
 37 47  1  0  0  0
 37 66  1  0  0  0
 37109  1  0  0  0
 38 43  2  0  0  0
 38 46  1  0  0  0
 38 47  1  0  0  0
 39 64  1  0  0  0
 39 67  2  0  0  0
 40 52  1  0  0  0
 40 53  2  0  0  0
 40 58  1  0  0  0
 41110  1  0  0  0
 41111  1  0  0  0
 41112  1  0  0  0
 41 48  1  0  0  0
 42 43  1  0  0  0
 42 66  1  0  0  0
 42113  1  0  0  0
 42114  1  0  0  0
 43 44  1  0  0  0
 44115  1  0  0  0
 45 46  2  0  0  0
 45116  1  0  0  0
 46117  1  0  0  0
 47118  1  0  0  0
 47119  1  0  0  0
 48 56  1  0  0  0
 48 65  1  0  0  0
 48120  1  0  0  0
 49 50  1  0  0  0
 49 53  1  0  0  0
 49 64  1  0  0  0
 49121  1  0  0  0
 50 51  1  0  0  0
 50122  1  0  0  0
 50123  1  0  0  0
 51 52  1  0  0  0
 51124  1  0  0  0
 51125  1  0  0  0
 52126  1  0  0  0
 52127  1  0  0  0
 53 54  1  0  0  0
 54 55  2  0  0  0
 54128  1  0  0  0
 55 57  1  0  0  0
 55129  1  0  0  0
 56 69  2  0  0  0
 57 58  2  0  0  0
 57130  1  0  0  0
 58131  1  0  0  0
 59 60  1  0  0  0
 59 61  1  0  0  0
 59 62  1  0  0  0
 60132  1  0  0  0
 60133  1  0  0  0
 60134  1  0  0  0
 61135  1  0  0  0
 61136  1  0  0  0
 61137  1  0  0  0
 62138  1  0  0  0
 62139  1  0  0  0
 62140  1  0  0  0
 63 65  1  0  0  0
 63141  1  0  0  0
 63142  1  0  0  0
 63143  1  0  0  0
 64144  1  0  0  0
 65145  1  0  0  0
 68 82  1  0  0  0
 71 72  2  0  0  0
 71 74  1  0  0  0
 71146  1  0  0  0
 72 75  1  0  0  0
 72147  1  0  0  0
 73 74  2  0  0  0
 73 76  1  0  0  0
 73148  1  0  0  0
 74 81  1  0  0  0
 75 76  2  0  0  0
 75 78  1  0  0  0
 76 85  1  0  0  0
 77 82  1  0  0  0
 77 84  1  0  0  0
 77 86  2  0  0  0
 78149  1  0  0  0
 78150  1  0  0  0
 78151  1  0  0  0
 79152  1  0  0  0
 79153  1  0  0  0
 79154  1  0  0  0
 79 84  1  0  0  0
 80 84  1  0  0  0
 80155  1  0  0  0
 80156  1  0  0  0
 80157  1  0  0  0
 81 83  1  0  0  0
 81158  1  0  0  0
 81159  1  0  0  0
 82160  1  0  0  0
 82161  1  0  0  0
 83 84  1  0  0  0
 83162  1  0  0  0
 83163  1  0  0  0
 85164  1  0  0  0
M  ISO  4   1 100  68 101  82 101  85 100
M  END
> <chiral flag>
0

> <version>
0

> <s_m_source_file>
/data/baiqing/PycharmProjects/Reinvent-master-3.2/result/LINK_invent/BTK/process_docking_weight1_custom_product_contain_oxygen_bond_distance_aromatic_linkinvent_7_9_3/rearranged_h_0137.sdf

> <i_m_source_file_index>
14

> <r_mmod_Potential_Energy-OPLS-2005>
132.033233642578

> <r_mmod_Stretch_Energy-OPLS-2005>
65.6570053100586

> <r_mmod_Bend_Energy-OPLS-2005>
121.614974975586

> <r_mmod_Torsional_Energy-OPLS-2005>
307.212829589844

> <r_mmod_Improper_Torsional_Energy-OPLS-2005>
8.58180713653564

> <r_mmod_Van_der_Waal_Energy-OPLS-2005>
150.059143066406

> <r_mmod_Electrostatic_Energy-OPLS-2005>
-335.313537597656

> <r_mmod_Solvation_Energy-OPLS-2005>
-224.057540893555

> <b_mmod_Minimization_Converged-OPLS-2005>
0

> <r_mmod_RMS_Derivative-OPLS-2005>
11.4246482849121

$$$$
14
                    3D
 Structure written by MMmdl.
177185  0  0  1  0            999 V2000
  -30.6559  -14.5462   20.6298 C   0  0  0  0  0  0
  -30.4498  -12.3756   19.4264 C   0  0  0  0  0  0
  -29.5048  -12.5198   18.2136 C   0  0  0  0  0  0
  -28.0289  -12.3562   18.6288 C   0  0  0  0  0  0
  -27.6621  -13.2023   19.8764 C   0  0  2  0  0  0
  -28.7029  -12.9958   20.9994 C   0  0  0  0  0  0
  -25.2572  -13.8131   20.5599 C   0  0  0  0  0  0
  -24.1837  -13.0435   20.9141 C   0  0  0  0  0  0
  -24.6384  -11.6896   20.8737 C   0  0  0  0  0  0
  -23.9055  -10.4292   21.0413 C   0  0  0  0  0  0
  -24.3606   -9.4208   21.9188 C   0  0  0  0  0  0
  -23.6281   -8.2249   22.0762 C   0  0  0  0  0  0
  -22.4268   -8.0277   21.3555 C   0  0  0  0  0  0
  -21.9897   -9.0248   20.4657 C   0  0  0  0  0  0
  -22.7227  -10.2135   20.3060 C   0  0  0  0  0  0
  -21.6856   -6.0718   22.5265 C   0  0  0  0  0  0
  -21.4026   -6.5634   23.8197 C   0  0  0  0  0  0
  -21.3652   -5.6789   24.9171 C   0  0  0  0  0  0
  -21.6050   -4.3052   24.7221 C   0  0  0  0  0  0
  -21.8820   -3.8130   23.4346 C   0  0  0  0  0  0
  -21.9208   -4.6948   22.3397 C   0  0  0  0  0  0
  -22.7868  -13.5243   21.1813 C   0  0  0  0  0  0
  -22.1670   -4.2126   21.0974 F   0  0  0  0  0  0
  -21.5623   -3.4535   25.7736 F   0  0  0  0  0  0
  -30.0269  -13.3461   20.4511 N   0  0  0  0  0  0
  -26.3019  -12.9292   20.3334 N   0  0  0  0  0  0
  -25.9321  -11.6466   20.5783 N   0  0  0  0  0  0
  -22.0510  -12.8246   22.0393 N   0  0  0  0  0  0
  -25.4282  -15.1833   20.3847 N   0  0  0  0  0  0
  -31.7867  -14.7769   20.1867 O   0  0  0  0  0  0
  -21.6650   -6.8855   21.4229 O   0  0  0  0  0  0
  -22.3562  -14.5556   20.6675 O   0  0  0  0  0  0
  -24.6193  -31.8665   23.2059 C   0  0  0  0  0  0
  -25.9070  -32.4826   23.8349 C   0  0  1  0  0  0
  -27.2321  -27.3967   20.1052 C   0  0  0  0  0  0
  -25.5877  -33.8606   24.2288 N   0  0  0  0  0  0
  -23.4086  -30.4947   21.5480 C   0  0  2  0  0  0
  -24.8558  -28.9497   20.1160 C   0  0  0  0  0  0
  -22.7397  -29.4726   22.4961 C   0  0  0  0  0  0
  -18.0265  -28.1474   22.8518 C   0  0  0  0  0  0
  -24.1477  -36.7287   23.2649 C   0  0  0  0  0  0
  -25.9403  -30.8203   21.3610 C   0  0  0  0  0  0
  -26.0196  -29.4516   20.7149 C   0  0  0  0  0  0
  -27.2169  -28.6876   20.6989 C   0  0  0  0  0  0
  -26.0549  -26.9232   19.4914 C   0  0  0  0  0  0
  -24.8710  -27.6901   19.4978 C   0  0  0  0  0  0
  -23.6200  -29.8237   20.1650 C   0  0  0  0  0  0
  -25.4111  -36.3097   24.0358 C   0  0  1  0  0  0
  -20.5868  -28.3719   23.1327 C   0  0  2  0  0  0
  -20.6786  -26.9446   22.5466 C   0  0  0  0  0  0
  -19.5771  -26.6415   21.5269 C   0  0  0  0  0  0
  -18.1915  -26.8017   22.1616 C   0  0  0  0  0  0
  -19.1546  -28.8892   23.2941 C   0  0  0  0  0  0
  -18.9498  -30.1497   23.8939 C   0  0  0  0  0  0
  -17.6522  -30.6660   24.0635 C   0  0  0  0  0  0
  -25.9038  -34.9488   23.5137 C   0  0  0  0  0  0
  -16.5398  -29.9199   23.6381 C   0  0  0  0  0  0
  -16.7260  -28.6617   23.0391 C   0  0  0  0  0  0
  -26.4468  -31.6611   25.0675 C   0  0  0  0  0  0
  -25.3724  -31.3778   26.1413 C   0  0  0  0  0  0
  -27.0272  -30.3058   24.6034 C   0  0  0  0  0  0
  -27.6036  -32.4307   25.7455 C   0  0  0  0  0  0
  -27.5597  -37.1795   24.8482 C   0  0  0  0  0  0
  -21.4143  -29.3085   22.3717 N   0  0  0  0  0  0
  -26.4300  -37.3785   23.9434 N   0  0  0  0  0  0
  -24.6768  -31.0731   22.0993 N   0  0  0  0  0  0
  -23.4168  -28.8267   23.3030 O   0  0  0  0  0  0
  -28.3573  -26.5824   20.0587 O   0  0  0  0  0  0
  -26.5611  -34.8958   22.4704 O   0  0  0  0  0  0
  -23.5378  -32.1422   23.7438 O   0  0  0  0  0  0
  -30.0968  -19.2946   23.0793 C   0  0  0  0  0  0
  -30.4309  -16.8701   23.1097 C   0  0  0  0  0  0
  -29.8461  -18.0036   21.0294 C   0  0  0  0  0  0
  -30.4081  -18.1120   23.7806 C   0  0  0  0  0  0
  -29.8347  -19.2707   21.6889 C   0  0  0  0  0  0
  -30.1338  -16.7939   21.7320 C   0  0  0  0  0  0
  -30.6605  -18.1777   25.2749 C   0  0  0  0  0  0
  -32.0502  -22.5561   23.0350 C   0  0  0  0  0  0
  -30.9355  -25.9933   22.6616 C   0  0  0  0  0  0
  -29.7079  -22.9805   19.0911 C   0  0  0  0  0  0
  -28.0327  -26.2528   22.5184 C   0  0  0  0  0  0
  -29.4900  -20.5824   20.9218 C   0  0  0  0  0  0
  -31.5909  -21.8321   21.7623 C   0  0  0  0  0  0
  -30.2626  -26.2860   21.3179 C   0  0  0  0  0  0
  -28.5940  -24.2338   21.0466 C   0  0  0  0  0  0
  -29.7759  -23.2683   20.6000 C   0  0  1  0  0  0
  -30.0625  -21.9546   21.4635 C   0  0  1  0  0  0
  -28.7864  -25.8194   21.2271 C   0  0  2  0  0  0
  -29.8577  -15.5026   21.1684 N   0  0  0  0  0  0
  -31.4832  -12.5368   19.1136 H   0  0  0  0  0  0
  -30.4127  -11.3629   19.8292 H   0  0  0  0  0  0
  -29.7607  -11.7825   17.4519 H   0  0  0  0  0  0
  -29.6490  -13.4980   17.7517 H   0  0  0  0  0  0
  -27.8595  -11.2989   18.8378 H   0  0  0  0  0  0
  -27.3735  -12.6114   17.7951 H   0  0  0  0  0  0
  -27.7020  -14.2481   19.5702 H   0  0  0  0  0  0
  -28.7014  -11.9611   21.3435 H   0  0  0  0  0  0
  -28.4345  -13.5843   21.8787 H   0  0  0  0  0  0
  -25.2752   -9.5694   22.4764 H   0  0  0  0  0  0
  -23.9989   -7.4646   22.7494 H   0  0  0  0  0  0
  -21.0827   -8.8775   19.8958 H   0  0  0  0  0  0
  -22.3682  -10.9676   19.6170 H   0  0  0  0  0  0
  -21.2019   -7.6144   23.9692 H   0  0  0  0  0  0
  -21.1469   -6.0524   25.9066 H   0  0  0  0  0  0
  -22.0607   -2.7595   23.2858 H   0  0  0  0  0  0
  -22.4120  -11.9890   22.4745 H   0  0  0  0  0  0
  -21.1156  -13.1312   22.2639 H   0  0  0  0  0  0
  -24.6429  -15.8244   20.4174 H   0  0  0  0  0  0
  -26.2670  -15.6085   20.0104 H   0  0  0  0  0  0
  -26.7126  -32.5507   23.1098 H   0  0  0  0  0  0
  -25.0008  -33.9773   25.0407 H   0  0  0  0  0  0
  -22.7019  -31.3181   21.4050 H   0  0  0  0  0  0
  -23.3767  -35.9587   23.3324 H   0  0  0  0  0  0
  -24.3568  -36.8854   22.2055 H   0  0  0  0  0  0
  -23.7233  -37.6494   23.6650 H   0  0  0  0  0  0
  -26.0580  -31.5797   20.5876 H   0  0  0  0  0  0
  -26.8280  -30.8723   21.9785 H   0  0  0  0  0  0
  -28.1178  -29.0804   21.1538 H   0  0  0  0  0  0
  -26.0493  -25.9507   19.0204 H   0  0  0  0  0  0
  -23.9781  -27.3058   19.0233 H   0  0  0  0  0  0
  -23.7431  -30.5999   19.4099 H   0  0  0  0  0  0
  -22.7368  -29.2545   19.8615 H   0  0  0  0  0  0
  -25.1303  -36.1928   25.0855 H   0  0  0  0  0  0
  -20.9961  -28.3301   24.1447 H   0  0  0  0  0  0
  -20.5731  -26.2318   23.3648 H   0  0  0  0  0  0
  -21.6658  -26.7530   22.1263 H   0  0  0  0  0  0
  -19.6973  -25.6329   21.1282 H   0  0  0  0  0  0
  -19.6781  -27.3252   20.6826 H   0  0  0  0  0  0
  -17.4243  -26.6830   21.3950 H   0  0  0  0  0  0
  -18.0259  -26.0134   22.8972 H   0  0  0  0  0  0
  -19.8006  -30.7296   24.2291 H   0  0  0  0  0  0
  -17.5149  -31.6340   24.5259 H   0  0  0  0  0  0
  -15.5451  -30.3187   23.7726 H   0  0  0  0  0  0
  -15.8621  -28.1013   22.7075 H   0  0  0  0  0  0
  -24.5982  -30.6992   25.7825 H   0  0  0  0  0  0
  -24.8815  -32.2918   26.4721 H   0  0  0  0  0  0
  -25.8054  -30.9135   27.0268 H   0  0  0  0  0  0
  -26.2810  -29.6851   24.1052 H   0  0  0  0  0  0
  -27.4021  -29.7256   25.4464 H   0  0  0  0  0  0
  -27.8634  -30.4399   23.9196 H   0  0  0  0  0  0
  -27.2684  -33.3660   26.1959 H   0  0  0  0  0  0
  -28.3875  -32.6735   25.0282 H   0  0  0  0  0  0
  -28.0628  -31.8449   26.5421 H   0  0  0  0  0  0
  -28.2610  -38.0096   24.7493 H   0  0  0  0  0  0
  -28.1073  -36.2611   24.6299 H   0  0  0  0  0  0
  -27.2317  -37.1425   25.8887 H   0  0  0  0  0  0
  -20.9282  -29.8782   21.6932 H   0  0  0  0  0  0
  -26.0186  -38.2855   24.1428 H   0  0  0  0  0  0
  -30.0643  -20.2296   23.6237 H   0  0  0  0  0  0
  -30.6135  -15.9668   23.6774 H   0  0  0  0  0  0
  -29.5814  -17.9571   19.9828 H   0  0  0  0  0  0
  -31.2104  -19.0819   25.5410 H   0  0  0  0  0  0
  -31.2375  -17.3208   25.6230 H   0  0  0  0  0  0
  -29.7114  -18.1886   25.8122 H   0  0  0  0  0  0
  -33.0370  -22.2146   23.3447 H   0  0  0  0  0  0
  -31.3610  -22.4039   23.8677 H   0  0  0  0  0  0
  -32.1692  -23.6166   22.8580 H   0  0  0  0  0  0
  -30.6148  -26.6957   23.4323 H   0  0  0  0  0  0
  -32.0220  -26.0627   22.5696 H   0  0  0  0  0  0
  -30.6564  -25.0035   23.0152 H   0  0  0  0  0  0
  -29.6591  -23.9081   18.5231 H   0  0  0  0  0  0
  -28.8318  -22.3901   18.8234 H   0  0  0  0  0  0
  -30.5885  -22.4326   18.7524 H   0  0  0  0  0  0
  -28.2784  -25.6144   23.3678 H   0  0  0  0  0  0
  -26.9522  -26.1971   22.3999 H   0  0  0  0  0  0
  -28.2741  -27.2704   22.8245 H   0  0  0  0  0  0
  -28.4048  -20.6538   20.8664 H   0  0  0  0  0  0
  -29.8312  -20.4395   19.8973 H   0  0  0  0  0  0
  -31.8978  -20.7947   21.8779 H   0  0  0  0  0  0
  -32.1836  -22.1777   20.9132 H   0  0  0  0  0  0
  -30.8400  -25.8704   20.4928 H   0  0  0  0  0  0
  -30.3306  -27.3613   21.1536 H   0  0  0  0  0  0
  -28.2297  -23.8324   21.9915 H   0  0  0  0  0  0
  -27.7395  -24.0795   20.3848 H   0  0  0  0  0  0
  -30.6885  -23.8347   20.7284 H   0  0  0  0  0  0
  -29.5722  -22.1078   22.4238 H   0  0  0  0  0  0
  -28.9452  -15.1432   21.3992 H   0  0  0  0  0  0
  1 25  1  0  0  0
  1 30  2  0  0  0
  1 89  1  0  0  0
  2  3  1  0  0  0
  2 25  1  0  0  0
  2 90  1  0  0  0
  2 91  1  0  0  0
  3  4  1  0  0  0
  3 92  1  0  0  0
  3 93  1  0  0  0
  4  5  1  0  0  0
  4 94  1  0  0  0
  4 95  1  0  0  0
  5  6  1  0  0  0
  5 26  1  0  0  0
  5 96  1  0  0  0
  6 25  1  0  0  0
  6 97  1  0  0  0
  6 98  1  0  0  0
  7  8  2  0  0  0
  7 26  1  0  0  0
  7 29  1  0  0  0
  8  9  1  0  0  0
  8 22  1  0  0  0
  9 10  1  0  0  0
  9 27  2  0  0  0
 10 11  2  0  0  0
 10 15  1  0  0  0
 11 12  1  0  0  0
 11 99  1  0  0  0
 12 13  2  0  0  0
 12100  1  0  0  0
 13 14  1  0  0  0
 13 31  1  0  0  0
 14 15  2  0  0  0
 14101  1  0  0  0
 15102  1  0  0  0
 16 17  2  0  0  0
 16 21  1  0  0  0
 16 31  1  0  0  0
 17 18  1  0  0  0
 17103  1  0  0  0
 18 19  2  0  0  0
 18104  1  0  0  0
 19 20  1  0  0  0
 19 24  1  0  0  0
 20 21  2  0  0  0
 20105  1  0  0  0
 21 23  1  0  0  0
 22 28  1  0  0  0
 22 32  2  0  0  0
 26 27  1  0  0  0
 28106  1  0  0  0
 28107  1  0  0  0
 29108  1  0  0  0
 29109  1  0  0  0
 33 34  1  0  0  0
 33 66  1  0  0  0
 33 70  2  0  0  0
 34 36  1  0  0  0
 34 59  1  0  0  0
 34110  1  0  0  0
 35 44  2  0  0  0
 35 45  1  0  0  0
 35 68  1  0  0  0
 36 56  1  0  0  0
 36111  1  0  0  0
 37 39  1  0  0  0
 37 47  1  0  0  0
 37 66  1  0  0  0
 37112  1  0  0  0
 38 43  2  0  0  0
 38 46  1  0  0  0
 38 47  1  0  0  0
 39 64  1  0  0  0
 39 67  2  0  0  0
 40 52  1  0  0  0
 40 53  2  0  0  0
 40 58  1  0  0  0
 41113  1  0  0  0
 41114  1  0  0  0
 41115  1  0  0  0
 41 48  1  0  0  0
 42 43  1  0  0  0
 42 66  1  0  0  0
 42116  1  0  0  0
 42117  1  0  0  0
 43 44  1  0  0  0
 44118  1  0  0  0
 45 46  2  0  0  0
 45119  1  0  0  0
 46120  1  0  0  0
 47121  1  0  0  0
 47122  1  0  0  0
 48 56  1  0  0  0
 48 65  1  0  0  0
 48123  1  0  0  0
 49 50  1  0  0  0
 49 53  1  0  0  0
 49 64  1  0  0  0
 49124  1  0  0  0
 50 51  1  0  0  0
 50125  1  0  0  0
 50126  1  0  0  0
 51 52  1  0  0  0
 51127  1  0  0  0
 51128  1  0  0  0
 52129  1  0  0  0
 52130  1  0  0  0
 53 54  1  0  0  0
 54 55  2  0  0  0
 54131  1  0  0  0
 55 57  1  0  0  0
 55132  1  0  0  0
 56 69  2  0  0  0
 57 58  2  0  0  0
 57133  1  0  0  0
 58134  1  0  0  0
 59 60  1  0  0  0
 59 61  1  0  0  0
 59 62  1  0  0  0
 60135  1  0  0  0
 60136  1  0  0  0
 60137  1  0  0  0
 61138  1  0  0  0
 61139  1  0  0  0
 61140  1  0  0  0
 62141  1  0  0  0
 62142  1  0  0  0
 62143  1  0  0  0
 63 65  1  0  0  0
 63144  1  0  0  0
 63145  1  0  0  0
 63146  1  0  0  0
 64147  1  0  0  0
 65148  1  0  0  0
 68 88  1  0  0  0
 71 74  2  0  0  0
 71 75  1  0  0  0
 71149  1  0  0  0
 72 74  1  0  0  0
 72 76  2  0  0  0
 72150  1  0  0  0
 73 75  2  0  0  0
 73 76  1  0  0  0
 73151  1  0  0  0
 74 77  1  0  0  0
 75 82  1  0  0  0
 76 89  1  0  0  0
 77152  1  0  0  0
 77153  1  0  0  0
 77154  1  0  0  0
 78 83  1  0  0  0
 78155  1  0  0  0
 78156  1  0  0  0
 78157  1  0  0  0
 79 84  1  0  0  0
 79158  1  0  0  0
 79159  1  0  0  0
 79160  1  0  0  0
 80161  1  0  0  0
 80162  1  0  0  0
 80163  1  0  0  0
 80 86  1  0  0  0
 81164  1  0  0  0
 81165  1  0  0  0
 81166  1  0  0  0
 81 88  1  0  0  0
 82167  1  0  0  0
 82168  1  0  0  0
 82 87  1  0  0  0
 83 87  1  0  0  0
 83169  1  0  0  0
 83170  1  0  0  0
 84 88  1  0  0  0
 84171  1  0  0  0
 84172  1  0  0  0
 85 86  1  0  0  0
 85 88  1  0  0  0
 85173  1  0  0  0
 85174  1  0  0  0
 86 87  1  0  0  0
 86175  1  0  0  0
 87176  1  0  0  0
 89177  1  0  0  0
M  ISO  4   1 100  68 101  88 101  89 100
M  END
> <chiral flag>
0

> <version>
0

> <s_m_source_file>
/data/baiqing/PycharmProjects/Reinvent-master-3.2/result/LINK_invent/BTK/process_docking_weight1_custom_product_contain_oxygen_bond_distance_aromatic_linkinvent_7_9_3/rearranged_h_0137.sdf

> <i_m_source_file_index>
15

> <r_mmod_Potential_Energy-OPLS-2005>
166.932556152344

> <r_mmod_Stretch_Energy-OPLS-2005>
68.0023040771484

> <r_mmod_Bend_Energy-OPLS-2005>
147.98518371582

> <r_mmod_Torsional_Energy-OPLS-2005>
327.985107421875

> <r_mmod_Improper_Torsional_Energy-OPLS-2005>
6.88683462142944

> <r_mmod_Van_der_Waal_Energy-OPLS-2005>
161.407760620117

> <r_mmod_Electrostatic_Energy-OPLS-2005>
-382.913604736328

> <r_mmod_Solvation_Energy-OPLS-2005>
-186.217803955078

> <b_mmod_Minimization_Converged-OPLS-2005>
0

> <r_mmod_RMS_Derivative-OPLS-2005>
5.67925453186035

$$$$
15
                    3D
 Structure written by MMmdl.
167175  0  0  1  0            999 V2000
  -30.7252  -14.3509   20.6940 C   0  0  0  0  0  0
  -30.4212  -12.2812   19.3893 C   0  0  0  0  0  0
  -29.4846  -12.5322   18.1911 C   0  0  0  0  0  0
  -28.0061  -12.3925   18.6015 C   0  0  0  0  0  0
  -27.6669  -13.1952   19.8856 C   0  0  2  0  0  0
  -28.7018  -12.8898   20.9903 C   0  0  0  0  0  0
  -25.2628  -13.8154   20.5664 C   0  0  0  0  0  0
  -24.1849  -13.0427   20.9144 C   0  0  0  0  0  0
  -24.6380  -11.6891   20.8688 C   0  0  0  0  0  0
  -23.9042  -10.4285   21.0388 C   0  0  0  0  0  0
  -24.3601   -9.4220   21.9183 C   0  0  0  0  0  0
  -23.6289   -8.2246   22.0756 C   0  0  0  0  0  0
  -22.4273   -8.0272   21.3546 C   0  0  0  0  0  0
  -21.9889   -9.0237   20.4649 C   0  0  0  0  0  0
  -22.7204  -10.2130   20.3057 C   0  0  0  0  0  0
  -21.6849   -6.0728   22.5282 C   0  0  0  0  0  0
  -21.4005   -6.5633   23.8213 C   0  0  0  0  0  0
  -21.3661   -5.6791   24.9183 C   0  0  0  0  0  0
  -21.6046   -4.3050   24.7224 C   0  0  0  0  0  0
  -21.8825   -3.8141   23.4345 C   0  0  0  0  0  0
  -21.9187   -4.6959   22.3404 C   0  0  0  0  0  0
  -22.7888  -13.5266   21.1815 C   0  0  0  0  0  0
  -22.1661   -4.2141   21.0986 F   0  0  0  0  0  0
  -21.5629   -3.4539   25.7742 F   0  0  0  0  0  0
  -30.0446  -13.2006   20.4687 N   0  0  0  0  0  0
  -26.3035  -12.9280   20.3397 N   0  0  0  0  0  0
  -25.9305  -11.6445   20.5740 N   0  0  0  0  0  0
  -22.0521  -12.8241   22.0379 N   0  0  0  0  0  0
  -25.4357  -15.1856   20.4059 N   0  0  0  0  0  0
  -31.7427  -14.6761   20.0683 O   0  0  0  0  0  0
  -21.6629   -6.8872   21.4247 O   0  0  0  0  0  0
  -22.3555  -14.5560   20.6679 O   0  0  0  0  0  0
  -24.6183  -31.8701   23.2193 C   0  0  0  0  0  0
  -25.9064  -32.4820   23.8482 C   0  0  1  0  0  0
  -27.2048  -27.4263   20.0619 C   0  0  0  0  0  0
  -25.5912  -33.8631   24.2374 N   0  0  0  0  0  0
  -23.4022  -30.5064   21.5611 C   0  0  2  0  0  0
  -24.8411  -28.9934   20.1018 C   0  0  0  0  0  0
  -22.7421  -29.4705   22.5004 C   0  0  0  0  0  0
  -18.0288  -28.1364   22.8495 C   0  0  0  0  0  0
  -24.1481  -36.7342   23.2636 C   0  0  0  0  0  0
  -25.9419  -30.8282   21.3811 C   0  0  0  0  0  0
  -26.0089  -29.4725   20.7108 C   0  0  0  0  0  0
  -27.1919  -28.6927   20.6970 C   0  0  0  0  0  0
  -26.0207  -27.0059   19.4024 C   0  0  0  0  0  0
  -24.8446  -27.7601   19.4451 C   0  0  0  0  0  0
  -23.6051  -29.8571   20.1700 C   0  0  0  0  0  0
  -25.4094  -36.3128   24.0350 C   0  0  1  0  0  0
  -20.5876  -28.3655   23.1300 C   0  0  2  0  0  0
  -20.6766  -26.9388   22.5405 C   0  0  0  0  0  0
  -19.5748  -26.6378   21.5204 C   0  0  0  0  0  0
  -18.1930  -26.7915   22.1629 C   0  0  0  0  0  0
  -19.1527  -28.8842   23.2892 C   0  0  0  0  0  0
  -18.9457  -30.1443   23.8903 C   0  0  0  0  0  0
  -17.6455  -30.6575   24.0567 C   0  0  0  0  0  0
  -25.9024  -34.9482   23.5152 C   0  0  0  0  0  0
  -16.5352  -29.9075   23.6314 C   0  0  0  0  0  0
  -16.7274  -28.6491   23.0344 C   0  0  0  0  0  0
  -26.4481  -31.6611   25.0814 C   0  0  0  0  0  0
  -25.3752  -31.3732   26.1561 C   0  0  0  0  0  0
  -27.0301  -30.3044   24.6216 C   0  0  0  0  0  0
  -27.6052  -32.4332   25.7568 C   0  0  0  0  0  0
  -27.5572  -37.1834   24.8461 C   0  0  0  0  0  0
  -21.4157  -29.3029   22.3728 N   0  0  0  0  0  0
  -26.4286  -37.3798   23.9398 N   0  0  0  0  0  0
  -24.6733  -31.0813   22.1113 N   0  0  0  0  0  0
  -23.4197  -28.8200   23.3006 O   0  0  0  0  0  0
  -28.3360  -26.6217   20.1013 O   0  0  0  0  0  0
  -26.5583  -34.8914   22.4711 O   0  0  0  0  0  0
  -23.5368  -32.1486   23.7588 O   0  0  0  0  0  0
  -30.5567  -17.4329   21.0284 C   0  0  0  0  0  0
  -31.0101  -16.7365   23.3168 C   0  0  0  0  0  0
  -30.9812  -18.7456   21.3264 C   0  0  0  0  0  0
  -31.5201  -19.0277   22.6123 C   0  0  0  0  0  0
  -30.6151  -16.4193   22.0048 C   0  0  0  0  0  0
  -31.4743  -18.0327   23.6152 C   0  0  0  0  0  0
  -28.2872  -22.8316   20.5501 C   0  0  0  0  0  0
  -32.1604  -20.3676   22.9471 C   0  0  0  0  0  0
  -29.4295  -21.9621   18.4240 C   0  0  0  0  0  0
  -27.7574  -20.5394   19.6314 C   0  0  0  0  0  0
  -30.8149  -19.8146   20.2486 C   0  0  0  0  0  0
  -28.9998  -24.1974   20.5147 C   0  0  0  0  0  0
  -30.0115  -21.0466   20.7357 C   0  0  0  0  0  0
  -28.1076  -25.2266   19.8011 C   0  0  0  0  0  0
  -28.8861  -21.5957   19.8218 C   0  0  0  0  0  0
  -30.2313  -15.0973   21.6915 N   0  0  0  0  0  0
  -27.2545  -22.7197   21.2184 O   0  0  0  0  0  0
  -31.9011  -18.3095   24.8714 F   0  0  0  0  0  0
  -31.4636  -12.4002   19.0862 H   0  0  0  0  0  0
  -30.3330  -11.2502   19.7351 H   0  0  0  0  0  0
  -29.7151  -11.8388   17.3810 H   0  0  0  0  0  0
  -29.6626  -13.5327   17.7943 H   0  0  0  0  0  0
  -27.8021  -11.3336   18.7630 H   0  0  0  0  0  0
  -27.3591  -12.7087   17.7824 H   0  0  0  0  0  0
  -27.7387  -14.2540   19.6381 H   0  0  0  0  0  0
  -28.6647  -11.8332   21.2550 H   0  0  0  0  0  0
  -28.4431  -13.4151   21.9110 H   0  0  0  0  0  0
  -25.2752   -9.5685   22.4749 H   0  0  0  0  0  0
  -23.9985   -7.4636   22.7479 H   0  0  0  0  0  0
  -21.0810   -8.8759   19.8959 H   0  0  0  0  0  0
  -22.3664  -10.9664   19.6151 H   0  0  0  0  0  0
  -21.1999   -7.6142   23.9715 H   0  0  0  0  0  0
  -21.1478   -6.0523   25.9087 H   0  0  0  0  0  0
  -22.0598   -2.7599   23.2855 H   0  0  0  0  0  0
  -22.4106  -11.9884   22.4756 H   0  0  0  0  0  0
  -21.1157  -13.1298   22.2617 H   0  0  0  0  0  0
  -24.6765  -15.8480   20.5197 H   0  0  0  0  0  0
  -26.2978  -15.6218   20.1024 H   0  0  0  0  0  0
  -26.7141  -32.5498   23.1246 H   0  0  0  0  0  0
  -25.0063  -33.9811   25.0524 H   0  0  0  0  0  0
  -22.6926  -31.3276   21.4338 H   0  0  0  0  0  0
  -23.3720  -35.9693   23.3308 H   0  0  0  0  0  0
  -24.3598  -36.8946   22.2050 H   0  0  0  0  0  0
  -23.7253  -37.6565   23.6639 H   0  0  0  0  0  0
  -26.0686  -31.5996   20.6211 H   0  0  0  0  0  0
  -26.8255  -30.8657   22.0077 H   0  0  0  0  0  0
  -28.0884  -29.0516   21.1791 H   0  0  0  0  0  0
  -25.9570  -26.0956   18.8275 H   0  0  0  0  0  0
  -23.9559  -27.4000   18.9461 H   0  0  0  0  0  0
  -23.7075  -30.6391   19.4186 H   0  0  0  0  0  0
  -22.7261  -29.2835   19.8660 H   0  0  0  0  0  0
  -25.1264  -36.2025   25.0846 H   0  0  0  0  0  0
  -20.9971  -28.3209   24.1423 H   0  0  0  0  0  0
  -20.5667  -26.2272   23.3588 H   0  0  0  0  0  0
  -21.6635  -26.7432   22.1200 H   0  0  0  0  0  0
  -19.6893  -25.6296   21.1218 H   0  0  0  0  0  0
  -19.6658  -27.3202   20.6740 H   0  0  0  0  0  0
  -17.4187  -26.6651   21.4034 H   0  0  0  0  0  0
  -18.0332  -26.0049   22.9026 H   0  0  0  0  0  0
  -19.7935  -30.7247   24.2263 H   0  0  0  0  0  0
  -17.5019  -31.6249   24.5171 H   0  0  0  0  0  0
  -15.5354  -30.2983   23.7635 H   0  0  0  0  0  0
  -15.8669  -28.0819   22.7047 H   0  0  0  0  0  0
  -24.5935  -30.7040   25.7946 H   0  0  0  0  0  0
  -24.8923  -32.2879   26.5003 H   0  0  0  0  0  0
  -25.8122  -30.8950   27.0336 H   0  0  0  0  0  0
  -26.2873  -29.6829   24.1191 H   0  0  0  0  0  0
  -27.3961  -29.7248   25.4706 H   0  0  0  0  0  0
  -27.8760  -30.4337   23.9458 H   0  0  0  0  0  0
  -27.2662  -33.3610   26.2180 H   0  0  0  0  0  0
  -28.3839  -32.6925   25.0389 H   0  0  0  0  0  0
  -28.0730  -31.8443   26.5463 H   0  0  0  0  0  0
  -28.2608  -38.0115   24.7485 H   0  0  0  0  0  0
  -28.1056  -36.2654   24.6310 H   0  0  0  0  0  0
  -27.2301  -37.1510   25.8868 H   0  0  0  0  0  0
  -20.9333  -29.8817   21.6990 H   0  0  0  0  0  0
  -26.0188  -38.2888   24.1373 H   0  0  0  0  0  0
  -30.1877  -17.1910   20.0415 H   0  0  0  0  0  0
  -31.0073  -15.9793   24.0896 H   0  0  0  0  0  0
  -31.4432  -21.0539   23.4012 H   0  0  0  0  0  0
  -32.5862  -20.8349   22.0600 H   0  0  0  0  0  0
  -32.9876  -20.2228   23.6437 H   0  0  0  0  0  0
  -28.6273  -22.3284   17.7813 H   0  0  0  0  0  0
  -29.8743  -21.1000   17.9205 H   0  0  0  0  0  0
  -30.1980  -22.7289   18.4628 H   0  0  0  0  0  0
  -26.9804  -20.9227   18.9624 H   0  0  0  0  0  0
  -27.2552  -20.2815   20.5642 H   0  0  0  0  0  0
  -28.1184  -19.6107   19.1915 H   0  0  0  0  0  0
  -30.3433  -19.3646   19.3785 H   0  0  0  0  0  0
  -31.8010  -20.1199   19.9025 H   0  0  0  0  0  0
  -29.1556  -24.5089   21.5454 H   0  0  0  0  0  0
  -29.9838  -24.1226   20.0639 H   0  0  0  0  0  0
  -30.7277  -21.8424   20.9434 H   0  0  0  0  0  0
  -29.5532  -20.8065   21.6959 H   0  0  0  0  0  0
  -27.0984  -24.9557   20.1188 H   0  0  0  0  0  0
  -28.1709  -25.0782   18.7200 H   0  0  0  0  0  0
  -29.4984  -14.6777   22.2445 H   0  0  0  0  0  0
  1 25  1  0  0  0
  1 30  2  0  0  0
  1 86  1  0  0  0
  2  3  1  0  0  0
  2 25  1  0  0  0
  2 89  1  0  0  0
  2 90  1  0  0  0
  3  4  1  0  0  0
  3 91  1  0  0  0
  3 92  1  0  0  0
  4  5  1  0  0  0
  4 93  1  0  0  0
  4 94  1  0  0  0
  5  6  1  0  0  0
  5 26  1  0  0  0
  5 95  1  0  0  0
  6 25  1  0  0  0
  6 96  1  0  0  0
  6 97  1  0  0  0
  7  8  2  0  0  0
  7 26  1  0  0  0
  7 29  1  0  0  0
  8  9  1  0  0  0
  8 22  1  0  0  0
  9 10  1  0  0  0
  9 27  2  0  0  0
 10 11  2  0  0  0
 10 15  1  0  0  0
 11 12  1  0  0  0
 11 98  1  0  0  0
 12 13  2  0  0  0
 12 99  1  0  0  0
 13 14  1  0  0  0
 13 31  1  0  0  0
 14 15  2  0  0  0
 14100  1  0  0  0
 15101  1  0  0  0
 16 17  2  0  0  0
 16 21  1  0  0  0
 16 31  1  0  0  0
 17 18  1  0  0  0
 17102  1  0  0  0
 18 19  2  0  0  0
 18103  1  0  0  0
 19 20  1  0  0  0
 19 24  1  0  0  0
 20 21  2  0  0  0
 20104  1  0  0  0
 21 23  1  0  0  0
 22 28  1  0  0  0
 22 32  2  0  0  0
 26 27  1  0  0  0
 28105  1  0  0  0
 28106  1  0  0  0
 29107  1  0  0  0
 29108  1  0  0  0
 33 34  1  0  0  0
 33 66  1  0  0  0
 33 70  2  0  0  0
 34 36  1  0  0  0
 34 59  1  0  0  0
 34109  1  0  0  0
 35 44  2  0  0  0
 35 45  1  0  0  0
 35 68  1  0  0  0
 36 56  1  0  0  0
 36110  1  0  0  0
 37 39  1  0  0  0
 37 47  1  0  0  0
 37 66  1  0  0  0
 37111  1  0  0  0
 38 43  2  0  0  0
 38 46  1  0  0  0
 38 47  1  0  0  0
 39 64  1  0  0  0
 39 67  2  0  0  0
 40 52  1  0  0  0
 40 53  2  0  0  0
 40 58  1  0  0  0
 41112  1  0  0  0
 41113  1  0  0  0
 41114  1  0  0  0
 41 48  1  0  0  0
 42 43  1  0  0  0
 42 66  1  0  0  0
 42115  1  0  0  0
 42116  1  0  0  0
 43 44  1  0  0  0
 44117  1  0  0  0
 45 46  2  0  0  0
 45118  1  0  0  0
 46119  1  0  0  0
 47120  1  0  0  0
 47121  1  0  0  0
 48 56  1  0  0  0
 48 65  1  0  0  0
 48122  1  0  0  0
 49 50  1  0  0  0
 49 53  1  0  0  0
 49 64  1  0  0  0
 49123  1  0  0  0
 50 51  1  0  0  0
 50124  1  0  0  0
 50125  1  0  0  0
 51 52  1  0  0  0
 51126  1  0  0  0
 51127  1  0  0  0
 52128  1  0  0  0
 52129  1  0  0  0
 53 54  1  0  0  0
 54 55  2  0  0  0
 54130  1  0  0  0
 55 57  1  0  0  0
 55131  1  0  0  0
 56 69  2  0  0  0
 57 58  2  0  0  0
 57132  1  0  0  0
 58133  1  0  0  0
 59 60  1  0  0  0
 59 61  1  0  0  0
 59 62  1  0  0  0
 60134  1  0  0  0
 60135  1  0  0  0
 60136  1  0  0  0
 61137  1  0  0  0
 61138  1  0  0  0
 61139  1  0  0  0
 62140  1  0  0  0
 62141  1  0  0  0
 62142  1  0  0  0
 63 65  1  0  0  0
 63143  1  0  0  0
 63144  1  0  0  0
 63145  1  0  0  0
 64146  1  0  0  0
 65147  1  0  0  0
 68 84  1  0  0  0
 71 73  2  0  0  0
 71 75  1  0  0  0
 71148  1  0  0  0
 72 75  2  0  0  0
 72 76  1  0  0  0
 72149  1  0  0  0
 73 74  1  0  0  0
 73 81  1  0  0  0
 74 76  2  0  0  0
 74 78  1  0  0  0
 75 86  1  0  0  0
 76 88  1  0  0  0
 77 82  1  0  0  0
 77 85  1  0  0  0
 77 87  2  0  0  0
 78150  1  0  0  0
 78151  1  0  0  0
 78152  1  0  0  0
 79153  1  0  0  0
 79154  1  0  0  0
 79155  1  0  0  0
 79 85  1  0  0  0
 80 85  1  0  0  0
 80156  1  0  0  0
 80157  1  0  0  0
 80158  1  0  0  0
 81 83  1  0  0  0
 81159  1  0  0  0
 81160  1  0  0  0
 82 84  1  0  0  0
 82161  1  0  0  0
 82162  1  0  0  0
 83 85  1  0  0  0
 83163  1  0  0  0
 83164  1  0  0  0
 84165  1  0  0  0
 84166  1  0  0  0
 86167  1  0  0  0
M  ISO  4   1 100  68 101  84 101  86 100
M  END
> <chiral flag>
0

> <version>
0

> <s_m_source_file>
/data/baiqing/PycharmProjects/Reinvent-master-3.2/result/LINK_invent/BTK/process_docking_weight1_custom_product_contain_oxygen_bond_distance_aromatic_linkinvent_7_9_3/rearranged_h_0137.sdf

> <i_m_source_file_index>
16

> <r_mmod_Potential_Energy-OPLS-2005>
17.0774269104004

> <r_mmod_Stretch_Energy-OPLS-2005>
38.5930023193359

> <r_mmod_Bend_Energy-OPLS-2005>
102.745811462402

> <r_mmod_Torsional_Energy-OPLS-2005>
260.507446289062

> <r_mmod_Improper_Torsional_Energy-OPLS-2005>
2.30104231834412

> <r_mmod_Van_der_Waal_Energy-OPLS-2005>
185.580795288086

> <r_mmod_Electrostatic_Energy-OPLS-2005>
-376.167053222656

> <r_mmod_Solvation_Energy-OPLS-2005>
-211.333709716797

> <b_mmod_Minimization_Converged-OPLS-2005>
0

> <r_mmod_RMS_Derivative-OPLS-2005>
6.20881414413452

$$$$
16
                    3D
 Structure written by MMmdl.
157165  0  0  1  0            999 V2000
  -30.5616  -14.7486   20.4336 C   0  0  0  0  0  0
  -30.4293  -12.4460   19.4762 C   0  0  0  0  0  0
  -29.5132  -12.5267   18.2337 C   0  0  0  0  0  0
  -28.0299  -12.3697   18.6341 C   0  0  0  0  0  0
  -27.6447  -13.2352   19.8617 C   0  0  2  0  0  0
  -28.6888  -13.1201   20.9953 C   0  0  0  0  0  0
  -25.2493  -13.8223   20.5679 C   0  0  0  0  0  0
  -24.1772  -13.0468   20.9196 C   0  0  0  0  0  0
  -24.6380  -11.6947   20.8743 C   0  0  0  0  0  0
  -23.9031  -10.4331   21.0440 C   0  0  0  0  0  0
  -24.3599   -9.4247   21.9195 C   0  0  0  0  0  0
  -23.6267   -8.2272   22.0774 C   0  0  0  0  0  0
  -22.4256   -8.0305   21.3560 C   0  0  0  0  0  0
  -21.9892   -9.0288   20.4674 C   0  0  0  0  0  0
  -22.7223  -10.2162   20.3072 C   0  0  0  0  0  0
  -21.6864   -6.0731   22.5260 C   0  0  0  0  0  0
  -21.4050   -6.5630   23.8201 C   0  0  0  0  0  0
  -21.3663   -5.6769   24.9162 C   0  0  0  0  0  0
  -21.6025   -4.3029   24.7221 C   0  0  0  0  0  0
  -21.8818   -3.8137   23.4353 C   0  0  0  0  0  0
  -21.9216   -4.6955   22.3415 C   0  0  0  0  0  0
  -22.7798  -13.5269   21.1860 C   0  0  0  0  0  0
  -22.1672   -4.2151   21.0992 F   0  0  0  0  0  0
  -21.5635   -3.4508   25.7739 F   0  0  0  0  0  0
  -29.9901  -13.4941   20.4283 N   0  0  0  0  0  0
  -26.2922  -12.9427   20.3293 N   0  0  0  0  0  0
  -25.9319  -11.6595   20.5754 N   0  0  0  0  0  0
  -22.0418  -12.8242   22.0394 N   0  0  0  0  0  0
  -25.4194  -15.1924   20.4048 N   0  0  0  0  0  0
  -31.7310  -14.8837   20.0604 O   0  0  0  0  0  0
  -21.6639   -6.8898   21.4231 O   0  0  0  0  0  0
  -22.3490  -14.5563   20.6659 O   0  0  0  0  0  0
  -24.6345  -31.8545   23.1999 C   0  0  0  0  0  0
  -25.9142  -32.4745   23.8327 C   0  0  1  0  0  0
  -27.2120  -27.2416   20.1366 C   0  0  0  0  0  0
  -25.5965  -33.8535   24.2274 N   0  0  0  0  0  0
  -23.4344  -30.4799   21.5404 C   0  0  2  0  0  0
  -24.8833  -28.9206   20.1186 C   0  0  0  0  0  0
  -22.7517  -29.4638   22.4912 C   0  0  0  0  0  0
  -18.0291  -28.1324   22.8535 C   0  0  0  0  0  0
  -24.1493  -36.7263   23.2631 C   0  0  0  0  0  0
  -25.9818  -30.7657   21.3833 C   0  0  0  0  0  0
  -26.0583  -29.3840   20.7281 C   0  0  0  0  0  0
  -27.2340  -28.5562   20.7218 C   0  0  0  0  0  0
  -26.0200  -26.8590   19.4967 C   0  0  0  0  0  0
  -24.8704  -27.6682   19.4901 C   0  0  0  0  0  0
  -23.6583  -29.8119   20.1567 C   0  0  0  0  0  0
  -25.4118  -36.3064   24.0328 C   0  0  1  0  0  0
  -20.5914  -28.3681   23.1203 C   0  0  2  0  0  0
  -20.6779  -26.9347   22.5475 C   0  0  0  0  0  0
  -19.5675  -26.6117   21.5407 C   0  0  0  0  0  0
  -18.1927  -26.7771   22.1913 C   0  0  0  0  0  0
  -19.1552  -28.8835   23.2801 C   0  0  0  0  0  0
  -18.9459  -30.1469   23.8731 C   0  0  0  0  0  0
  -17.6459  -30.6567   24.0465 C   0  0  0  0  0  0
  -25.9067  -34.9433   23.5122 C   0  0  0  0  0  0
  -16.5352  -29.9015   23.6298 C   0  0  0  0  0  0
  -16.7277  -28.6402   23.0400 C   0  0  0  0  0  0
  -26.4501  -31.6584   25.0738 C   0  0  0  0  0  0
  -25.3718  -31.3742   26.1462 C   0  0  0  0  0  0
  -27.0359  -30.2999   24.6250 C   0  0  0  0  0  0
  -27.6065  -32.4300   25.7494 C   0  0  0  0  0  0
  -27.5575  -37.1809   24.8471 C   0  0  0  0  0  0
  -21.4264  -29.2999   22.3572 N   0  0  0  0  0  0
  -26.4291  -37.3759   23.9435 N   0  0  0  0  0  0
  -24.7014  -31.0533   22.0954 N   0  0  0  0  0  0
  -23.4191  -28.8163   23.2985 O   0  0  0  0  0  0
  -28.2942  -26.3378   20.0983 O   0  0  0  0  0  0
  -26.5606  -34.8896   22.4651 O   0  0  0  0  0  0
  -23.5504  -32.1340   23.7302 O   0  0  0  0  0  0
  -29.8416  -17.2746   18.6630 C   0  0  0  0  0  0
  -29.2540  -19.6751   18.6290 C   0  0  0  0  0  0
  -29.1737  -18.4087   20.7044 C   0  0  0  0  0  0
  -29.6306  -18.4876   17.9611 C   0  0  0  0  0  0
  -29.6326  -17.1813   20.0616 C   0  0  0  0  0  0
  -29.0147  -19.6906   20.0200 C   0  0  0  0  0  0
  -29.7820  -18.5235   16.4509 C   0  0  0  0  0  0
  -27.2953  -23.5137   18.7525 C   0  0  0  0  0  0
  -28.2065  -24.9910   20.7801 C   0  0  0  0  0  0
  -28.9869  -22.2765   20.2889 C   0  0  0  0  0  0
  -27.9134  -23.4965   20.1602 C   0  0  2  0  0  0
  -29.7623  -15.8508   20.7311 N   0  0  0  0  0  0
  -28.5408  -20.8865   20.6456 O   0  0  0  0  0  0
  -31.4712  -12.5694   19.1784 H   0  0  0  0  0  0
  -30.3681  -11.4621   19.9436 H   0  0  0  0  0  0
  -29.7920  -11.7685   17.5012 H   0  0  0  0  0  0
  -29.6503  -13.4914   17.7419 H   0  0  0  0  0  0
  -27.8386  -11.3192   18.8473 H   0  0  0  0  0  0
  -27.3902  -12.6306   17.7925 H   0  0  0  0  0  0
  -27.6536  -14.2666   19.5137 H   0  0  0  0  0  0
  -28.7161  -12.1023   21.3881 H   0  0  0  0  0  0
  -28.4305  -13.7604   21.8372 H   0  0  0  0  0  0
  -25.2750   -9.5723   22.4744 H   0  0  0  0  0  0
  -24.0000   -7.4667   22.7476 H   0  0  0  0  0  0
  -21.0820   -8.8824   19.8949 H   0  0  0  0  0  0
  -22.3711  -10.9712   19.6176 H   0  0  0  0  0  0
  -21.2040   -7.6130   23.9717 H   0  0  0  0  0  0
  -21.1461   -6.0490   25.9064 H   0  0  0  0  0  0
  -22.0587   -2.7592   23.2843 H   0  0  0  0  0  0
  -22.4007  -11.9961   22.4849 H   0  0  0  0  0  0
  -21.1077  -13.1372   22.2634 H   0  0  0  0  0  0
  -24.6371  -15.8327   20.4692 H   0  0  0  0  0  0
  -26.2441  -15.6180   19.9961 H   0  0  0  0  0  0
  -26.7214  -32.5405   23.1068 H   0  0  0  0  0  0
  -25.0169  -33.9648   25.0461 H   0  0  0  0  0  0
  -22.7328  -31.3030   21.3929 H   0  0  0  0  0  0
  -23.3768  -35.9585   23.3292 H   0  0  0  0  0  0
  -24.3597  -36.8877   22.2056 H   0  0  0  0  0  0
  -23.7253  -37.6453   23.6654 H   0  0  0  0  0  0
  -26.1294  -31.5278   20.6144 H   0  0  0  0  0  0
  -26.8478  -30.8079   22.0305 H   0  0  0  0  0  0
  -28.1469  -28.9038   21.1888 H   0  0  0  0  0  0
  -25.9761  -25.9188   18.9843 H   0  0  0  0  0  0
  -23.9748  -27.3248   18.9930 H   0  0  0  0  0  0
  -23.7956  -30.5876   19.4016 H   0  0  0  0  0  0
  -22.7785  -29.2493   19.8380 H   0  0  0  0  0  0
  -25.1309  -36.1890   25.0823 H   0  0  0  0  0  0
  -20.9986  -28.3357   24.1323 H   0  0  0  0  0  0
  -20.5806  -26.2314   23.3767 H   0  0  0  0  0  0
  -21.6616  -26.7411   22.1196 H   0  0  0  0  0  0
  -19.6752  -25.5898   21.1707 H   0  0  0  0  0  0
  -19.6562  -27.2679   20.6735 H   0  0  0  0  0  0
  -17.4054  -26.6221   21.4496 H   0  0  0  0  0  0
  -18.0501  -26.0121   22.9565 H   0  0  0  0  0  0
  -19.7934  -30.7318   24.1988 H   0  0  0  0  0  0
  -17.4998  -31.6268   24.5007 H   0  0  0  0  0  0
  -15.5385  -30.2928   23.7639 H   0  0  0  0  0  0
  -15.8673  -28.0640   22.7185 H   0  0  0  0  0  0
  -24.5894  -30.7068   25.7810 H   0  0  0  0  0  0
  -24.8875  -32.2895   26.4868 H   0  0  0  0  0  0
  -25.8000  -30.8957   27.0272 H   0  0  0  0  0  0
  -26.2963  -29.6743   24.1238 H   0  0  0  0  0  0
  -27.3992  -29.7260   25.4783 H   0  0  0  0  0  0
  -27.8849  -30.4245   23.9521 H   0  0  0  0  0  0
  -27.2696  -33.3605   26.2050 H   0  0  0  0  0  0
  -28.3859  -32.6842   25.0303 H   0  0  0  0  0  0
  -28.0728  -31.8435   26.5419 H   0  0  0  0  0  0
  -28.2602  -38.0100   24.7517 H   0  0  0  0  0  0
  -28.1066  -36.2640   24.6288 H   0  0  0  0  0  0
  -27.2310  -37.1438   25.8873 H   0  0  0  0  0  0
  -20.9472  -29.8748   21.6792 H   0  0  0  0  0  0
  -26.0175  -38.2829   24.1409 H   0  0  0  0  0  0
  -30.1081  -16.3910   18.1003 H   0  0  0  0  0  0
  -29.0912  -20.5684   18.0398 H   0  0  0  0  0  0
  -28.9325  -18.3618   21.7568 H   0  0  0  0  0  0
  -29.9446  -17.5333   16.0222 H   0  0  0  0  0  0
  -30.6360  -19.1433   16.1770 H   0  0  0  0  0  0
  -28.8850  -18.9482   15.9908 H   0  0  0  0  0  0
  -27.9006  -24.1042   18.0629 H   0  0  0  0  0  0
  -27.2024  -22.5045   18.3477 H   0  0  0  0  0  0
  -26.2812  -23.9063   18.7578 H   0  0  0  0  0  0
  -29.1421  -24.9109   21.3325 H   0  0  0  0  0  0
  -27.4738  -25.1207   21.5792 H   0  0  0  0  0  0
  -29.6825  -22.5323   21.0912 H   0  0  0  0  0  0
  -29.6135  -22.2618   19.3971 H   0  0  0  0  0  0
  -27.1079  -23.1391   20.8040 H   0  0  0  0  0  0
  -29.0242  -15.6425   21.3859 H   0  0  0  0  0  0
  1 25  1  0  0  0
  1 30  2  0  0  0
  1 82  1  0  0  0
  2  3  1  0  0  0
  2 25  1  0  0  0
  2 84  1  0  0  0
  2 85  1  0  0  0
  3  4  1  0  0  0
  3 86  1  0  0  0
  3 87  1  0  0  0
  4  5  1  0  0  0
  4 88  1  0  0  0
  4 89  1  0  0  0
  5  6  1  0  0  0
  5 26  1  0  0  0
  5 90  1  0  0  0
  6 25  1  0  0  0
  6 91  1  0  0  0
  6 92  1  0  0  0
  7  8  2  0  0  0
  7 26  1  0  0  0
  7 29  1  0  0  0
  8  9  1  0  0  0
  8 22  1  0  0  0
  9 10  1  0  0  0
  9 27  2  0  0  0
 10 11  2  0  0  0
 10 15  1  0  0  0
 11 12  1  0  0  0
 11 93  1  0  0  0
 12 13  2  0  0  0
 12 94  1  0  0  0
 13 14  1  0  0  0
 13 31  1  0  0  0
 14 15  2  0  0  0
 14 95  1  0  0  0
 15 96  1  0  0  0
 16 17  2  0  0  0
 16 21  1  0  0  0
 16 31  1  0  0  0
 17 18  1  0  0  0
 17 97  1  0  0  0
 18 19  2  0  0  0
 18 98  1  0  0  0
 19 20  1  0  0  0
 19 24  1  0  0  0
 20 21  2  0  0  0
 20 99  1  0  0  0
 21 23  1  0  0  0
 22 28  1  0  0  0
 22 32  2  0  0  0
 26 27  1  0  0  0
 28100  1  0  0  0
 28101  1  0  0  0
 29102  1  0  0  0
 29103  1  0  0  0
 33 34  1  0  0  0
 33 66  1  0  0  0
 33 70  2  0  0  0
 34 36  1  0  0  0
 34 59  1  0  0  0
 34104  1  0  0  0
 35 44  2  0  0  0
 35 45  1  0  0  0
 35 68  1  0  0  0
 36 56  1  0  0  0
 36105  1  0  0  0
 37 39  1  0  0  0
 37 47  1  0  0  0
 37 66  1  0  0  0
 37106  1  0  0  0
 38 43  2  0  0  0
 38 46  1  0  0  0
 38 47  1  0  0  0
 39 64  1  0  0  0
 39 67  2  0  0  0
 40 52  1  0  0  0
 40 53  2  0  0  0
 40 58  1  0  0  0
 41107  1  0  0  0
 41108  1  0  0  0
 41109  1  0  0  0
 41 48  1  0  0  0
 42 43  1  0  0  0
 42 66  1  0  0  0
 42110  1  0  0  0
 42111  1  0  0  0
 43 44  1  0  0  0
 44112  1  0  0  0
 45 46  2  0  0  0
 45113  1  0  0  0
 46114  1  0  0  0
 47115  1  0  0  0
 47116  1  0  0  0
 48 56  1  0  0  0
 48 65  1  0  0  0
 48117  1  0  0  0
 49 50  1  0  0  0
 49 53  1  0  0  0
 49 64  1  0  0  0
 49118  1  0  0  0
 50 51  1  0  0  0
 50119  1  0  0  0
 50120  1  0  0  0
 51 52  1  0  0  0
 51121  1  0  0  0
 51122  1  0  0  0
 52123  1  0  0  0
 52124  1  0  0  0
 53 54  1  0  0  0
 54 55  2  0  0  0
 54125  1  0  0  0
 55 57  1  0  0  0
 55126  1  0  0  0
 56 69  2  0  0  0
 57 58  2  0  0  0
 57127  1  0  0  0
 58128  1  0  0  0
 59 60  1  0  0  0
 59 61  1  0  0  0
 59 62  1  0  0  0
 60129  1  0  0  0
 60130  1  0  0  0
 60131  1  0  0  0
 61132  1  0  0  0
 61133  1  0  0  0
 61134  1  0  0  0
 62135  1  0  0  0
 62136  1  0  0  0
 62137  1  0  0  0
 63 65  1  0  0  0
 63138  1  0  0  0
 63139  1  0  0  0
 63140  1  0  0  0
 64141  1  0  0  0
 65142  1  0  0  0
 68 79  1  0  0  0
 71 74  2  0  0  0
 71 75  1  0  0  0
 71143  1  0  0  0
 72 74  1  0  0  0
 72 76  2  0  0  0
 72144  1  0  0  0
 73 75  2  0  0  0
 73 76  1  0  0  0
 73145  1  0  0  0
 74 77  1  0  0  0
 75 82  1  0  0  0
 76 83  1  0  0  0
 77146  1  0  0  0
 77147  1  0  0  0
 77148  1  0  0  0
 78149  1  0  0  0
 78150  1  0  0  0
 78151  1  0  0  0
 78 81  1  0  0  0
 79 81  1  0  0  0
 79152  1  0  0  0
 79153  1  0  0  0
 80 81  1  0  0  0
 80 83  1  0  0  0
 80154  1  0  0  0
 80155  1  0  0  0
 81156  1  0  0  0
 82157  1  0  0  0
M  ISO  4   1 100  68 101  79 101  82 100
M  END
> <chiral flag>
0

> <version>
0

> <s_m_source_file>
/data/baiqing/PycharmProjects/Reinvent-master-3.2/result/LINK_invent/BTK/process_docking_weight1_custom_product_contain_oxygen_bond_distance_aromatic_linkinvent_7_9_3/rearranged_h_0137.sdf

> <i_m_source_file_index>
17

> <r_mmod_Potential_Energy-OPLS-2005>
302.763519287109

> <r_mmod_Stretch_Energy-OPLS-2005>
139.171585083008

> <r_mmod_Bend_Energy-OPLS-2005>
202.228897094727

> <r_mmod_Torsional_Energy-OPLS-2005>
295.323333740234

> <r_mmod_Improper_Torsional_Energy-OPLS-2005>
5.20035171508789

> <r_mmod_Van_der_Waal_Energy-OPLS-2005>
131.804244995117

> <r_mmod_Electrostatic_Energy-OPLS-2005>
-351.951995849609

> <r_mmod_Solvation_Energy-OPLS-2005>
-207.860000610352

> <b_mmod_Minimization_Converged-OPLS-2005>
0

> <r_mmod_RMS_Derivative-OPLS-2005>
6.98789167404175

$$$$
17
                    3D
 Structure written by MMmdl.
167175  0  0  1  0            999 V2000
  -30.7123  -14.4445   20.5987 C   0  0  0  0  0  0
  -30.4225  -12.2911   19.4431 C   0  0  0  0  0  0
  -29.5055  -12.4928   18.2189 C   0  0  0  0  0  0
  -28.0219  -12.3562   18.6154 C   0  0  0  0  0  0
  -27.6598  -13.2001   19.8662 C   0  0  2  0  0  0
  -28.6875  -12.9697   20.9911 C   0  0  0  0  0  0
  -25.2572  -13.8140   20.5644 C   0  0  0  0  0  0
  -24.1810  -13.0444   20.9130 C   0  0  0  0  0  0
  -24.6337  -11.6897   20.8680 C   0  0  0  0  0  0
  -23.8999  -10.4296   21.0370 C   0  0  0  0  0  0
  -24.3562   -9.4222   21.9154 C   0  0  0  0  0  0
  -23.6246   -8.2263   22.0745 C   0  0  0  0  0  0
  -22.4237   -8.0270   21.3537 C   0  0  0  0  0  0
  -21.9854   -9.0234   20.4640 C   0  0  0  0  0  0
  -22.7161  -10.2127   20.3030 C   0  0  0  0  0  0
  -21.6852   -6.0695   22.5259 C   0  0  0  0  0  0
  -21.4022   -6.5613   23.8189 C   0  0  0  0  0  0
  -21.3668   -5.6773   24.9166 C   0  0  0  0  0  0
  -21.6054   -4.3031   24.7215 C   0  0  0  0  0  0
  -21.8822   -3.8112   23.4337 C   0  0  0  0  0  0
  -21.9194   -4.6924   22.3396 C   0  0  0  0  0  0
  -22.7829  -13.5248   21.1802 C   0  0  0  0  0  0
  -22.1655   -4.2107   21.0971 F   0  0  0  0  0  0
  -21.5632   -3.4525   25.7732 F   0  0  0  0  0  0
  -30.0286  -13.2746   20.4665 N   0  0  0  0  0  0
  -26.2982  -12.9301   20.3253 N   0  0  0  0  0  0
  -25.9262  -11.6473   20.5680 N   0  0  0  0  0  0
  -22.0477  -12.8280   22.0387 N   0  0  0  0  0  0
  -25.4336  -15.1859   20.4126 N   0  0  0  0  0  0
  -31.8349  -14.6191   20.1181 O   0  0  0  0  0  0
  -21.6637   -6.8841   21.4219 O   0  0  0  0  0  0
  -22.3524  -14.5552   20.6629 O   0  0  0  0  0  0
  -24.6106  -31.8720   23.2133 C   0  0  0  0  0  0
  -25.9004  -32.4855   23.8416 C   0  0  1  0  0  0
  -27.2306  -27.4620   20.1071 C   0  0  0  0  0  0
  -25.5883  -33.8646   24.2353 N   0  0  0  0  0  0
  -23.4004  -30.4942   21.5541 C   0  0  2  0  0  0
  -24.8503  -28.9738   20.1052 C   0  0  0  0  0  0
  -22.7434  -29.4642   22.4988 C   0  0  0  0  0  0
  -18.0286  -28.1358   22.8476 C   0  0  0  0  0  0
  -24.1492  -36.7308   23.2633 C   0  0  0  0  0  0
  -25.9243  -30.8491   21.3617 C   0  0  0  0  0  0
  -26.0058  -29.4858   20.7102 C   0  0  0  0  0  0
  -27.1995  -28.7357   20.7133 C   0  0  0  0  0  0
  -26.0749  -26.9712   19.4664 C   0  0  0  0  0  0
  -24.8803  -27.7172   19.4737 C   0  0  0  0  0  0
  -23.6051  -29.8288   20.1656 C   0  0  0  0  0  0
  -25.4111  -36.3125   24.0340 C   0  0  1  0  0  0
  -20.5858  -28.3678   23.1286 C   0  0  2  0  0  0
  -20.6785  -26.9410   22.5389 C   0  0  0  0  0  0
  -19.5744  -26.6340   21.5224 C   0  0  0  0  0  0
  -18.1937  -26.7873   22.1653 C   0  0  0  0  0  0
  -19.1517  -28.8859   23.2850 C   0  0  0  0  0  0
  -18.9448  -30.1460   23.8836 C   0  0  0  0  0  0
  -17.6456  -30.6587   24.0504 C   0  0  0  0  0  0
  -25.9049  -34.9492   23.5151 C   0  0  0  0  0  0
  -16.5343  -29.9078   23.6278 C   0  0  0  0  0  0
  -16.7270  -28.6465   23.0360 C   0  0  0  0  0  0
  -26.4463  -31.6599   25.0719 C   0  0  0  0  0  0
  -25.3728  -31.3671   26.1456 C   0  0  0  0  0  0
  -27.0269  -30.3049   24.6042 C   0  0  0  0  0  0
  -27.6081  -32.4285   25.7452 C   0  0  0  0  0  0
  -27.5586  -37.1804   24.8477 C   0  0  0  0  0  0
  -21.4160  -29.3051   22.3734 N   0  0  0  0  0  0
  -26.4300  -37.3793   23.9417 N   0  0  0  0  0  0
  -24.6637  -31.0839   22.1026 N   0  0  0  0  0  0
  -23.4211  -28.8139   23.2985 O   0  0  0  0  0  0
  -28.3417  -26.6579   20.2163 O   0  0  0  0  0  0
  -26.5623  -34.8938   22.4724 O   0  0  0  0  0  0
  -23.5306  -32.1437   23.7549 O   0  0  0  0  0  0
  -29.0534  -17.2106   22.4456 C   0  0  0  0  0  0
  -29.6956  -15.0895   23.4619 C   0  0  0  0  0  0
  -28.6385  -16.8330   24.8125 C   0  0  0  0  0  0
  -29.5980  -15.9112   22.3145 C   0  0  0  0  0  0
  -28.5731  -17.6804   23.6861 C   0  0  0  0  0  0
  -29.2050  -15.5464   24.7026 C   0  0  0  0  0  0
  -28.3164  -24.8843   24.1777 C   0  0  0  0  0  0
  -27.3445  -24.0180   20.5734 C   0  0  0  0  0  0
  -28.9157  -22.5836   23.3050 C   0  0  0  0  0  0
  -28.4495  -26.0844   21.5373 C   0  0  0  0  0  0
  -28.8790  -20.0354   23.7547 C   0  0  0  0  0  0
  -28.1107  -23.8933   23.0039 C   0  0  2  0  0  0
  -28.3866  -24.5240   21.5829 C   0  0  1  0  0  0
  -28.2395  -21.2185   22.9820 C   0  0  2  0  0  0
  -30.0206  -15.5224   21.0086 N   0  0  0  0  0  0
  -28.3765  -20.9358   21.6022 O   0  0  0  0  0  0
  -27.9855  -18.9217   23.7895 O   0  0  0  0  0  0
  -29.2758  -14.7414   25.7907 F   0  0  0  0  0  0
  -31.4707  -12.3796   19.1474 H   0  0  0  0  0  0
  -30.3157  -11.2796   19.8386 H   0  0  0  0  0  0
  -29.7520  -11.7681   17.4431 H   0  0  0  0  0  0
  -29.6763  -13.4772   17.7811 H   0  0  0  0  0  0
  -27.8314  -11.3000   18.8130 H   0  0  0  0  0  0
  -27.3785  -12.6246   17.7760 H   0  0  0  0  0  0
  -27.7115  -14.2498   19.5743 H   0  0  0  0  0  0
  -28.6598  -11.9337   21.3301 H   0  0  0  0  0  0
  -28.4083  -13.5610   21.8577 H   0  0  0  0  0  0
  -25.2711   -9.5719   22.4706 H   0  0  0  0  0  0
  -23.9952   -7.4683   22.7490 H   0  0  0  0  0  0
  -21.0772   -8.8731   19.8961 H   0  0  0  0  0  0
  -22.3578  -10.9647   19.6133 H   0  0  0  0  0  0
  -21.2013   -7.6123   23.9681 H   0  0  0  0  0  0
  -21.1492   -6.0506   25.9071 H   0  0  0  0  0  0
  -22.0591   -2.7564   23.2845 H   0  0  0  0  0  0
  -22.4097  -11.9945   22.4771 H   0  0  0  0  0  0
  -21.1105  -13.1329   22.2627 H   0  0  0  0  0  0
  -24.6761  -15.8463   20.5434 H   0  0  0  0  0  0
  -26.3007  -15.6240   20.1265 H   0  0  0  0  0  0
  -26.7063  -32.5607   23.1168 H   0  0  0  0  0  0
  -25.0007  -33.9803   25.0482 H   0  0  0  0  0  0
  -22.6836  -31.3072   21.4226 H   0  0  0  0  0  0
  -23.3775  -35.9629   23.3331 H   0  0  0  0  0  0
  -24.3572  -36.8906   22.2046 H   0  0  0  0  0  0
  -23.7239  -37.6515   23.6630 H   0  0  0  0  0  0
  -26.0330  -31.6142   20.5912 H   0  0  0  0  0  0
  -26.8121  -30.9064   21.9776 H   0  0  0  0  0  0
  -28.0869  -29.1125   21.2032 H   0  0  0  0  0  0
  -26.0849  -26.0018   18.9911 H   0  0  0  0  0  0
  -23.9949  -27.3222   18.9939 H   0  0  0  0  0  0
  -23.6908  -30.6057   19.4048 H   0  0  0  0  0  0
  -22.7311  -29.2391   19.8819 H   0  0  0  0  0  0
  -25.1278  -36.1996   25.0832 H   0  0  0  0  0  0
  -20.9919  -28.3223   24.1412 H   0  0  0  0  0  0
  -20.5717  -26.2327   23.3606 H   0  0  0  0  0  0
  -21.6648  -26.7464   22.1132 H   0  0  0  0  0  0
  -19.6904  -25.6231   21.1346 H   0  0  0  0  0  0
  -19.6677  -27.3109   20.6694 H   0  0  0  0  0  0
  -17.4158  -26.6570   21.4085 H   0  0  0  0  0  0
  -18.0418  -26.0039   22.9108 H   0  0  0  0  0  0
  -19.7923  -30.7282   24.2159 H   0  0  0  0  0  0
  -17.5020  -31.6271   24.5108 H   0  0  0  0  0  0
  -15.5347  -30.3008   23.7564 H   0  0  0  0  0  0
  -15.8679  -28.0757   22.7127 H   0  0  0  0  0  0
  -24.5930  -30.6996   25.7749 H   0  0  0  0  0  0
  -24.8866  -32.2813   26.4881 H   0  0  0  0  0  0
  -25.8054  -30.8833   27.0224 H   0  0  0  0  0  0
  -26.2786  -29.6839   24.1102 H   0  0  0  0  0  0
  -27.4080  -29.7228   25.4444 H   0  0  0  0  0  0
  -27.8606  -30.4385   23.9140 H   0  0  0  0  0  0
  -27.2760  -33.3589   26.2056 H   0  0  0  0  0  0
  -28.3853  -32.6839   25.0236 H   0  0  0  0  0  0
  -28.0799  -31.8395   26.5328 H   0  0  0  0  0  0
  -28.2613  -38.0082   24.7502 H   0  0  0  0  0  0
  -28.1059  -36.2622   24.6318 H   0  0  0  0  0  0
  -27.2302  -37.1476   25.8874 H   0  0  0  0  0  0
  -20.9307  -29.8813   21.6992 H   0  0  0  0  0  0
  -26.0218  -38.2886   24.1397 H   0  0  0  0  0  0
  -28.9824  -17.8537   21.5798 H   0  0  0  0  0  0
  -30.1215  -14.0986   23.4080 H   0  0  0  0  0  0
  -28.2536  -17.1673   25.7660 H   0  0  0  0  0  0
  -28.1169  -24.4054   25.1362 H   0  0  0  0  0  0
  -27.6251  -25.7245   24.1495 H   0  0  0  0  0  0
  -29.3328  -25.2804   24.2084 H   0  0  0  0  0  0
  -27.6110  -24.3059   19.5564 H   0  0  0  0  0  0
  -26.3600  -24.4318   20.7908 H   0  0  0  0  0  0
  -27.2525  -22.9359   20.5823 H   0  0  0  0  0  0
  -29.0929  -22.5620   24.3805 H   0  0  0  0  0  0
  -29.9171  -22.6369   22.8802 H   0  0  0  0  0  0
  -29.3874  -26.4239   21.9780 H   0  0  0  0  0  0
  -27.6616  -26.4831   22.1767 H   0  0  0  0  0  0
  -29.0407  -20.3182   24.7966 H   0  0  0  0  0  0
  -29.8621  -19.7838   23.3518 H   0  0  0  0  0  0
  -27.0512  -23.6329   23.0544 H   0  0  0  0  0  0
  -29.3638  -24.1783   21.2393 H   0  0  0  0  0  0
  -27.1799  -21.2698   23.2397 H   0  0  0  0  0  0
  -30.2789  -16.3251   20.4546 H   0  0  0  0  0  0
  -27.9141  -20.1195   21.4353 H   0  0  0  0  0  0
  1 25  1  0  0  0
  1 30  2  0  0  0
  1 85  1  0  0  0
  2  3  1  0  0  0
  2 25  1  0  0  0
  2 89  1  0  0  0
  2 90  1  0  0  0
  3  4  1  0  0  0
  3 91  1  0  0  0
  3 92  1  0  0  0
  4  5  1  0  0  0
  4 93  1  0  0  0
  4 94  1  0  0  0
  5  6  1  0  0  0
  5 26  1  0  0  0
  5 95  1  0  0  0
  6 25  1  0  0  0
  6 96  1  0  0  0
  6 97  1  0  0  0
  7  8  2  0  0  0
  7 26  1  0  0  0
  7 29  1  0  0  0
  8  9  1  0  0  0
  8 22  1  0  0  0
  9 10  1  0  0  0
  9 27  2  0  0  0
 10 11  2  0  0  0
 10 15  1  0  0  0
 11 12  1  0  0  0
 11 98  1  0  0  0
 12 13  2  0  0  0
 12 99  1  0  0  0
 13 14  1  0  0  0
 13 31  1  0  0  0
 14 15  2  0  0  0
 14100  1  0  0  0
 15101  1  0  0  0
 16 17  2  0  0  0
 16 21  1  0  0  0
 16 31  1  0  0  0
 17 18  1  0  0  0
 17102  1  0  0  0
 18 19  2  0  0  0
 18103  1  0  0  0
 19 20  1  0  0  0
 19 24  1  0  0  0
 20 21  2  0  0  0
 20104  1  0  0  0
 21 23  1  0  0  0
 22 28  1  0  0  0
 22 32  2  0  0  0
 26 27  1  0  0  0
 28105  1  0  0  0
 28106  1  0  0  0
 29107  1  0  0  0
 29108  1  0  0  0
 33 34  1  0  0  0
 33 66  1  0  0  0
 33 70  2  0  0  0
 34 36  1  0  0  0
 34 59  1  0  0  0
 34109  1  0  0  0
 35 44  2  0  0  0
 35 45  1  0  0  0
 35 68  1  0  0  0
 36 56  1  0  0  0
 36110  1  0  0  0
 37 39  1  0  0  0
 37 47  1  0  0  0
 37 66  1  0  0  0
 37111  1  0  0  0
 38 43  2  0  0  0
 38 46  1  0  0  0
 38 47  1  0  0  0
 39 64  1  0  0  0
 39 67  2  0  0  0
 40 52  1  0  0  0
 40 53  2  0  0  0
 40 58  1  0  0  0
 41112  1  0  0  0
 41113  1  0  0  0
 41114  1  0  0  0
 41 48  1  0  0  0
 42 43  1  0  0  0
 42 66  1  0  0  0
 42115  1  0  0  0
 42116  1  0  0  0
 43 44  1  0  0  0
 44117  1  0  0  0
 45 46  2  0  0  0
 45118  1  0  0  0
 46119  1  0  0  0
 47120  1  0  0  0
 47121  1  0  0  0
 48 56  1  0  0  0
 48 65  1  0  0  0
 48122  1  0  0  0
 49 50  1  0  0  0
 49 53  1  0  0  0
 49 64  1  0  0  0
 49123  1  0  0  0
 50 51  1  0  0  0
 50124  1  0  0  0
 50125  1  0  0  0
 51 52  1  0  0  0
 51126  1  0  0  0
 51127  1  0  0  0
 52128  1  0  0  0
 52129  1  0  0  0
 53 54  1  0  0  0
 54 55  2  0  0  0
 54130  1  0  0  0
 55 57  1  0  0  0
 55131  1  0  0  0
 56 69  2  0  0  0
 57 58  2  0  0  0
 57132  1  0  0  0
 58133  1  0  0  0
 59 60  1  0  0  0
 59 61  1  0  0  0
 59 62  1  0  0  0
 60134  1  0  0  0
 60135  1  0  0  0
 60136  1  0  0  0
 61137  1  0  0  0
 61138  1  0  0  0
 61139  1  0  0  0
 62140  1  0  0  0
 62141  1  0  0  0
 62142  1  0  0  0
 63 65  1  0  0  0
 63143  1  0  0  0
 63144  1  0  0  0
 63145  1  0  0  0
 64146  1  0  0  0
 65147  1  0  0  0
 68 80  1  0  0  0
 71 74  2  0  0  0
 71 75  1  0  0  0
 71148  1  0  0  0
 72 74  1  0  0  0
 72 76  2  0  0  0
 72149  1  0  0  0
 73 75  2  0  0  0
 73 76  1  0  0  0
 73150  1  0  0  0
 74 85  1  0  0  0
 75 87  1  0  0  0
 76 88  1  0  0  0
 77151  1  0  0  0
 77152  1  0  0  0
 77153  1  0  0  0
 77 82  1  0  0  0
 78154  1  0  0  0
 78155  1  0  0  0
 78156  1  0  0  0
 78 83  1  0  0  0
 79 82  1  0  0  0
 79 84  1  0  0  0
 79157  1  0  0  0
 79158  1  0  0  0
 80 83  1  0  0  0
 80159  1  0  0  0
 80160  1  0  0  0
 81 84  1  0  0  0
 81 87  1  0  0  0
 81161  1  0  0  0
 81162  1  0  0  0
 82 83  1  0  0  0
 82163  1  0  0  0
 83164  1  0  0  0
 84 86  1  0  0  0
 84165  1  0  0  0
 85166  1  0  0  0
 86167  1  0  0  0
M  ISO  4   1 100  68 101  80 101  85 100
M  END
> <chiral flag>
0

> <version>
0

> <s_m_source_file>
/data/baiqing/PycharmProjects/Reinvent-master-3.2/result/LINK_invent/BTK/process_docking_weight1_custom_product_contain_oxygen_bond_distance_aromatic_linkinvent_7_9_3/rearranged_h_0137.sdf

> <i_m_source_file_index>
18

> <r_mmod_Potential_Energy-OPLS-2005>
127.658332824707

> <r_mmod_Stretch_Energy-OPLS-2005>
41.3986282348633

> <r_mmod_Bend_Energy-OPLS-2005>
119.700660705566

> <r_mmod_Torsional_Energy-OPLS-2005>
338.904724121094

> <r_mmod_Improper_Torsional_Energy-OPLS-2005>
10.2382507324219

> <r_mmod_Van_der_Waal_Energy-OPLS-2005>
156.285140991211

> <r_mmod_Electrostatic_Energy-OPLS-2005>
-347.882202148438

> <r_mmod_Solvation_Energy-OPLS-2005>
-206.316619873047

> <b_mmod_Minimization_Converged-OPLS-2005>
0

> <r_mmod_RMS_Derivative-OPLS-2005>
3.72725796699524

$$$$
18
                    3D
 Structure written by MMmdl.
157165  0  0  1  0            999 V2000
  -30.6091  -14.6515   20.5036 C   0  0  0  0  0  0
  -30.4394  -12.3982   19.4599 C   0  0  0  0  0  0
  -29.5112  -12.5035   18.2287 C   0  0  0  0  0  0
  -28.0346  -12.3376   18.6395 C   0  0  0  0  0  0
  -27.6521  -13.2144   19.8616 C   0  0  2  0  0  0
  -28.6933  -13.0745   20.9950 C   0  0  0  0  0  0
  -25.2518  -13.8150   20.5537 C   0  0  0  0  0  0
  -24.1824  -13.0440   20.9193 C   0  0  0  0  0  0
  -24.6402  -11.6911   20.8776 C   0  0  0  0  0  0
  -23.9068  -10.4300   21.0434 C   0  0  0  0  0  0
  -24.3623   -9.4209   21.9199 C   0  0  0  0  0  0
  -23.6292   -8.2249   22.0753 C   0  0  0  0  0  0
  -22.4275   -8.0296   21.3549 C   0  0  0  0  0  0
  -21.9913   -9.0277   20.4650 C   0  0  0  0  0  0
  -22.7245  -10.2152   20.3072 C   0  0  0  0  0  0
  -21.6855   -6.0742   22.5277 C   0  0  0  0  0  0
  -21.4026   -6.5645   23.8216 C   0  0  0  0  0  0
  -21.3652   -5.6785   24.9172 C   0  0  0  0  0  0
  -21.6035   -4.3049   24.7220 C   0  0  0  0  0  0
  -21.8819   -3.8145   23.4342 C   0  0  0  0  0  0
  -21.9191   -4.6963   22.3397 C   0  0  0  0  0  0
  -22.7851  -13.5254   21.1838 C   0  0  0  0  0  0
  -22.1658   -4.2148   21.0975 F   0  0  0  0  0  0
  -21.5604   -3.4539   25.7735 F   0  0  0  0  0  0
  -30.0091  -13.4196   20.4354 N   0  0  0  0  0  0
  -26.2975  -12.9339   20.3272 N   0  0  0  0  0  0
  -25.9331  -11.6515   20.5792 N   0  0  0  0  0  0
  -22.0484  -12.8268   22.0402 N   0  0  0  0  0  0
  -25.4142  -15.1837   20.3659 N   0  0  0  0  0  0
  -31.7695  -14.8143   20.1165 O   0  0  0  0  0  0
  -21.6641   -6.8889   21.4240 O   0  0  0  0  0  0
  -22.3553  -14.5560   20.6676 O   0  0  0  0  0  0
  -24.6268  -31.8597   23.2041 C   0  0  0  0  0  0
  -25.9109  -32.4776   23.8366 C   0  0  1  0  0  0
  -27.2212  -27.3181   20.1144 C   0  0  0  0  0  0
  -25.5921  -33.8575   24.2290 N   0  0  0  0  0  0
  -23.4202  -30.4848   21.5471 C   0  0  2  0  0  0
  -24.8652  -28.9436   20.1114 C   0  0  0  0  0  0
  -22.7485  -29.4613   22.4934 C   0  0  0  0  0  0
  -18.0296  -28.1387   22.8487 C   0  0  0  0  0  0
  -24.1496  -36.7302   23.2644 C   0  0  0  0  0  0
  -25.9627  -30.7904   21.3755 C   0  0  0  0  0  0
  -26.0362  -29.4193   20.7153 C   0  0  0  0  0  0
  -27.2180  -28.6195   20.7055 C   0  0  0  0  0  0
  -26.0225  -26.8971   19.4890 C   0  0  0  0  0  0
  -24.8607  -27.6881   19.4889 C   0  0  0  0  0  0
  -23.6343  -29.8238   20.1613 C   0  0  0  0  0  0
  -25.4119  -36.3080   24.0331 C   0  0  1  0  0  0
  -20.5894  -28.3688   23.1280 C   0  0  2  0  0  0
  -20.6782  -26.9412   22.5407 C   0  0  0  0  0  0
  -19.5755  -26.6382   21.5215 C   0  0  0  0  0  0
  -18.1938  -26.7926   22.1630 C   0  0  0  0  0  0
  -19.1548  -28.8860   23.2876 C   0  0  0  0  0  0
  -18.9467  -30.1458   23.8896 C   0  0  0  0  0  0
  -17.6465  -30.6578   24.0572 C   0  0  0  0  0  0
  -25.9042  -34.9445   23.5108 C   0  0  0  0  0  0
  -16.5355  -29.9079   23.6330 C   0  0  0  0  0  0
  -16.7282  -28.6498   23.0346 C   0  0  0  0  0  0
  -26.4496  -31.6584   25.0732 C   0  0  0  0  0  0
  -25.3734  -31.3742   26.1465 C   0  0  0  0  0  0
  -27.0324  -30.3004   24.6181 C   0  0  0  0  0  0
  -27.6064  -32.4319   25.7479 C   0  0  0  0  0  0
  -27.5570  -37.1828   24.8477 C   0  0  0  0  0  0
  -21.4199  -29.3039   22.3675 N   0  0  0  0  0  0
  -26.4311  -37.3756   23.9375 N   0  0  0  0  0  0
  -24.6889  -31.0607   22.0990 N   0  0  0  0  0  0
  -23.4205  -28.8145   23.3005 O   0  0  0  0  0  0
  -28.3364  -26.4633   20.1609 O   0  0  0  0  0  0
  -26.5605  -34.8904   22.4670 O   0  0  0  0  0  0
  -23.5434  -32.1393   23.7372 O   0  0  0  0  0  0
  -28.7673  -19.3967   20.9360 C   0  0  0  0  0  0
  -30.9544  -17.8443   20.1292 C   0  0  0  0  0  0
  -28.7623  -17.9781   21.1193 C   0  0  0  0  0  0
  -29.8559  -17.1504   20.7043 C   0  0  0  0  0  0
  -29.8701  -20.0843   20.3674 C   0  0  0  0  0  0
  -30.9633  -19.2621   19.9770 C   0  0  0  0  0  0
  -27.5434  -17.3924   21.8129 C   0  0  0  0  0  0
  -29.9433  -24.2339   21.7105 C   0  0  0  0  0  0
  -28.0801  -25.0026   20.1185 C   0  0  0  0  0  0
  -28.8526  -22.4122   20.2883 C   0  0  0  0  0  0
  -29.2551  -23.9587   20.3645 C   0  0  2  0  0  0
  -29.7928  -15.6918   20.8772 N   0  0  0  0  0  0
  -29.9822  -21.4850   20.2124 O   0  0  0  0  0  0
  -32.0599  -19.8465   19.4357 F   0  0  0  0  0  0
  -31.4821  -12.5256   19.1602 H   0  0  0  0  0  0
  -30.3763  -11.4038   19.9048 H   0  0  0  0  0  0
  -29.7787  -11.7504   17.4868 H   0  0  0  0  0  0
  -29.6519  -13.4721   17.7454 H   0  0  0  0  0  0
  -27.8762  -11.2842   18.8768 H   0  0  0  0  0  0
  -27.3814  -12.5578   17.7944 H   0  0  0  0  0  0
  -27.6688  -14.2484   19.5161 H   0  0  0  0  0  0
  -28.7070  -12.0543   21.3804 H   0  0  0  0  0  0
  -28.4331  -13.7059   21.8465 H   0  0  0  0  0  0
  -25.2787   -9.5666   22.4764 H   0  0  0  0  0  0
  -23.9993   -7.4634   22.7480 H   0  0  0  0  0  0
  -21.0834   -8.8815   19.8973 H   0  0  0  0  0  0
  -22.3727  -10.9694   19.6174 H   0  0  0  0  0  0
  -21.2042   -7.6162   23.9721 H   0  0  0  0  0  0
  -21.1462   -6.0521   25.9069 H   0  0  0  0  0  0
  -22.0606   -2.7610   23.2851 H   0  0  0  0  0  0
  -22.4120  -11.9955   22.4816 H   0  0  0  0  0  0
  -21.1102  -13.1311   22.2599 H   0  0  0  0  0  0
  -24.6089  -15.8000   20.3734 H   0  0  0  0  0  0
  -26.1994  -15.5712   19.8584 H   0  0  0  0  0  0
  -26.7174  -32.5447   23.1116 H   0  0  0  0  0  0
  -25.0067  -33.9722   25.0432 H   0  0  0  0  0  0
  -22.7137  -31.3052   21.4071 H   0  0  0  0  0  0
  -23.3698  -35.9707   23.3418 H   0  0  0  0  0  0
  -24.3562  -36.8799   22.2035 H   0  0  0  0  0  0
  -23.7339  -37.6582   23.6576 H   0  0  0  0  0  0
  -26.0948  -31.5543   20.6083 H   0  0  0  0  0  0
  -26.8430  -30.8381   22.0043 H   0  0  0  0  0  0
  -28.1165  -28.9791   21.1887 H   0  0  0  0  0  0
  -25.9450  -25.9406   18.9963 H   0  0  0  0  0  0
  -23.9633  -27.3193   19.0105 H   0  0  0  0  0  0
  -23.7540  -30.6029   19.4078 H   0  0  0  0  0  0
  -22.7539  -29.2554   19.8566 H   0  0  0  0  0  0
  -25.1310  -36.1961   25.0830 H   0  0  0  0  0  0
  -20.9988  -28.3272   24.1401 H   0  0  0  0  0  0
  -20.5689  -26.2305   23.3611 H   0  0  0  0  0  0
  -21.6648  -26.7438   22.1201 H   0  0  0  0  0  0
  -19.6912  -25.6295   21.1240 H   0  0  0  0  0  0
  -19.6681  -27.3199   20.6752 H   0  0  0  0  0  0
  -17.4205  -26.6677   21.4036 H   0  0  0  0  0  0
  -18.0333  -26.0067   22.9024 H   0  0  0  0  0  0
  -19.7942  -30.7283   24.2255 H   0  0  0  0  0  0
  -17.5011  -31.6256   24.5175 H   0  0  0  0  0  0
  -15.5355  -30.2980   23.7631 H   0  0  0  0  0  0
  -15.8688  -28.0809   22.7052 H   0  0  0  0  0  0
  -24.5897  -30.7097   25.7811 H   0  0  0  0  0  0
  -24.8936  -32.2919   26.4881 H   0  0  0  0  0  0
  -25.8058  -30.8929   27.0245 H   0  0  0  0  0  0
  -26.2897  -29.6763   24.1199 H   0  0  0  0  0  0
  -27.4018  -29.7255   25.4683 H   0  0  0  0  0  0
  -27.8771  -30.4290   23.9409 H   0  0  0  0  0  0
  -27.2677  -33.3610   26.2077 H   0  0  0  0  0  0
  -28.3845  -32.6900   25.0281 H   0  0  0  0  0  0
  -28.0759  -31.8436   26.5373 H   0  0  0  0  0  0
  -28.2672  -38.0034   24.7380 H   0  0  0  0  0  0
  -28.0974  -36.2563   24.6483 H   0  0  0  0  0  0
  -27.2263  -37.1706   25.8877 H   0  0  0  0  0  0
  -20.9382  -29.8775   21.6896 H   0  0  0  0  0  0
  -26.0203  -38.2857   24.1276 H   0  0  0  0  0  0
  -27.9096  -19.9601   21.2732 H   0  0  0  0  0  0
  -31.8243  -17.2971   19.8017 H   0  0  0  0  0  0
  -27.5208  -17.7285   22.8513 H   0  0  0  0  0  0
  -27.5168  -16.3050   21.8178 H   0  0  0  0  0  0
  -26.6345  -17.7487   21.3241 H   0  0  0  0  0  0
  -30.2383  -25.2797   21.8009 H   0  0  0  0  0  0
  -30.8429  -23.6272   21.8192 H   0  0  0  0  0  0
  -29.2835  -23.9996   22.5470 H   0  0  0  0  0  0
  -27.2890  -24.7847   20.8384 H   0  0  0  0  0  0
  -27.6801  -24.7602   19.1345 H   0  0  0  0  0  0
  -28.2418  -22.2498   19.3991 H   0  0  0  0  0  0
  -28.2215  -22.1697   21.1436 H   0  0  0  0  0  0
  -29.9877  -24.1377   19.5767 H   0  0  0  0  0  0
  -28.9059  -15.3620   21.2240 H   0  0  0  0  0  0
  1 25  1  0  0  0
  1 30  2  0  0  0
  1 82  1  0  0  0
  2  3  1  0  0  0
  2 25  1  0  0  0
  2 85  1  0  0  0
  2 86  1  0  0  0
  3  4  1  0  0  0
  3 87  1  0  0  0
  3 88  1  0  0  0
  4  5  1  0  0  0
  4 89  1  0  0  0
  4 90  1  0  0  0
  5  6  1  0  0  0
  5 26  1  0  0  0
  5 91  1  0  0  0
  6 25  1  0  0  0
  6 92  1  0  0  0
  6 93  1  0  0  0
  7  8  2  0  0  0
  7 26  1  0  0  0
  7 29  1  0  0  0
  8  9  1  0  0  0
  8 22  1  0  0  0
  9 10  1  0  0  0
  9 27  2  0  0  0
 10 11  2  0  0  0
 10 15  1  0  0  0
 11 12  1  0  0  0
 11 94  1  0  0  0
 12 13  2  0  0  0
 12 95  1  0  0  0
 13 14  1  0  0  0
 13 31  1  0  0  0
 14 15  2  0  0  0
 14 96  1  0  0  0
 15 97  1  0  0  0
 16 17  2  0  0  0
 16 21  1  0  0  0
 16 31  1  0  0  0
 17 18  1  0  0  0
 17 98  1  0  0  0
 18 19  2  0  0  0
 18 99  1  0  0  0
 19 20  1  0  0  0
 19 24  1  0  0  0
 20 21  2  0  0  0
 20100  1  0  0  0
 21 23  1  0  0  0
 22 28  1  0  0  0
 22 32  2  0  0  0
 26 27  1  0  0  0
 28101  1  0  0  0
 28102  1  0  0  0
 29103  1  0  0  0
 29104  1  0  0  0
 33 34  1  0  0  0
 33 66  1  0  0  0
 33 70  2  0  0  0
 34 36  1  0  0  0
 34 59  1  0  0  0
 34105  1  0  0  0
 35 44  2  0  0  0
 35 45  1  0  0  0
 35 68  1  0  0  0
 36 56  1  0  0  0
 36106  1  0  0  0
 37 39  1  0  0  0
 37 47  1  0  0  0
 37 66  1  0  0  0
 37107  1  0  0  0
 38 43  2  0  0  0
 38 46  1  0  0  0
 38 47  1  0  0  0
 39 64  1  0  0  0
 39 67  2  0  0  0
 40 52  1  0  0  0
 40 53  2  0  0  0
 40 58  1  0  0  0
 41108  1  0  0  0
 41109  1  0  0  0
 41110  1  0  0  0
 41 48  1  0  0  0
 42 43  1  0  0  0
 42 66  1  0  0  0
 42111  1  0  0  0
 42112  1  0  0  0
 43 44  1  0  0  0
 44113  1  0  0  0
 45 46  2  0  0  0
 45114  1  0  0  0
 46115  1  0  0  0
 47116  1  0  0  0
 47117  1  0  0  0
 48 56  1  0  0  0
 48 65  1  0  0  0
 48118  1  0  0  0
 49 50  1  0  0  0
 49 53  1  0  0  0
 49 64  1  0  0  0
 49119  1  0  0  0
 50 51  1  0  0  0
 50120  1  0  0  0
 50121  1  0  0  0
 51 52  1  0  0  0
 51122  1  0  0  0
 51123  1  0  0  0
 52124  1  0  0  0
 52125  1  0  0  0
 53 54  1  0  0  0
 54 55  2  0  0  0
 54126  1  0  0  0
 55 57  1  0  0  0
 55127  1  0  0  0
 56 69  2  0  0  0
 57 58  2  0  0  0
 57128  1  0  0  0
 58129  1  0  0  0
 59 60  1  0  0  0
 59 61  1  0  0  0
 59 62  1  0  0  0
 60130  1  0  0  0
 60131  1  0  0  0
 60132  1  0  0  0
 61133  1  0  0  0
 61134  1  0  0  0
 61135  1  0  0  0
 62136  1  0  0  0
 62137  1  0  0  0
 62138  1  0  0  0
 63 65  1  0  0  0
 63139  1  0  0  0
 63140  1  0  0  0
 63141  1  0  0  0
 64142  1  0  0  0
 65143  1  0  0  0
 68 79  1  0  0  0
 71 73  2  0  0  0
 71 75  1  0  0  0
 71144  1  0  0  0
 72 74  2  0  0  0
 72 76  1  0  0  0
 72145  1  0  0  0
 73 74  1  0  0  0
 73 77  1  0  0  0
 74 82  1  0  0  0
 75 76  2  0  0  0
 75 83  1  0  0  0
 76 84  1  0  0  0
 77146  1  0  0  0
 77147  1  0  0  0
 77148  1  0  0  0
 78149  1  0  0  0
 78150  1  0  0  0
 78151  1  0  0  0
 78 81  1  0  0  0
 79 81  1  0  0  0
 79152  1  0  0  0
 79153  1  0  0  0
 80 81  1  0  0  0
 80 83  1  0  0  0
 80154  1  0  0  0
 80155  1  0  0  0
 81156  1  0  0  0
 82157  1  0  0  0
M  ISO  4   1 100  68 101  79 101  82 100
M  END
> <chiral flag>
0

> <version>
0

> <s_m_source_file>
/data/baiqing/PycharmProjects/Reinvent-master-3.2/result/LINK_invent/BTK/process_docking_weight1_custom_product_contain_oxygen_bond_distance_aromatic_linkinvent_7_9_3/rearranged_h_0137.sdf

> <i_m_source_file_index>
19

> <r_mmod_Potential_Energy-OPLS-2005>
77.9789199829102

> <r_mmod_Stretch_Energy-OPLS-2005>
81.0401077270508

> <r_mmod_Bend_Energy-OPLS-2005>
145.524185180664

> <r_mmod_Torsional_Energy-OPLS-2005>
217.535095214844

> <r_mmod_Improper_Torsional_Energy-OPLS-2005>
5.42015981674194

> <r_mmod_Van_der_Waal_Energy-OPLS-2005>
145.207595825195

> <r_mmod_Electrostatic_Energy-OPLS-2005>
-363.003997802734

> <r_mmod_Solvation_Energy-OPLS-2005>
-205.142623901367

> <b_mmod_Minimization_Converged-OPLS-2005>
0

> <r_mmod_RMS_Derivative-OPLS-2005>
2.30945563316345

$$$$
19
                    3D
 Structure written by MMmdl.
171179  0  0  1  0            999 V2000
  -30.5891  -14.6940   20.5258 C   0  0  0  0  0  0
  -30.4341  -12.4448   19.4414 C   0  0  0  0  0  0
  -29.4999  -12.5574   18.2170 C   0  0  0  0  0  0
  -28.0234  -12.3663   18.6270 C   0  0  0  0  0  0
  -27.6402  -13.2248   19.8594 C   0  0  2  0  0  0
  -28.6865  -13.0962   20.9861 C   0  0  0  0  0  0
  -25.2481  -13.8181   20.5737 C   0  0  0  0  0  0
  -24.1769  -13.0443   20.9243 C   0  0  0  0  0  0
  -24.6325  -11.6913   20.8725 C   0  0  0  0  0  0
  -23.8994  -10.4299   21.0374 C   0  0  0  0  0  0
  -24.3551   -9.4231   21.9159 C   0  0  0  0  0  0
  -23.6255   -8.2252   22.0741 C   0  0  0  0  0  0
  -22.4237   -8.0266   21.3532 C   0  0  0  0  0  0
  -21.9854   -9.0235   20.4636 C   0  0  0  0  0  0
  -22.7151  -10.2123   20.3042 C   0  0  0  0  0  0
  -21.6838   -6.0711   22.5267 C   0  0  0  0  0  0
  -21.4011   -6.5624   23.8195 C   0  0  0  0  0  0
  -21.3679   -5.6782   24.9174 C   0  0  0  0  0  0
  -21.6051   -4.3042   24.7217 C   0  0  0  0  0  0
  -21.8821   -3.8125   23.4339 C   0  0  0  0  0  0
  -21.9197   -4.6951   22.3395 C   0  0  0  0  0  0
  -22.7803  -13.5257   21.1898 C   0  0  0  0  0  0
  -22.1668   -4.2151   21.0972 F   0  0  0  0  0  0
  -21.5647   -3.4510   25.7718 F   0  0  0  0  0  0
  -29.9897  -13.4629   20.4143 N   0  0  0  0  0  0
  -26.2890  -12.9370   20.3291 N   0  0  0  0  0  0
  -25.9244  -11.6521   20.5694 N   0  0  0  0  0  0
  -22.0425  -12.8250   22.0445 N   0  0  0  0  0  0
  -25.4225  -15.1900   20.4199 N   0  0  0  0  0  0
  -31.7760  -14.8522   20.2256 O   0  0  0  0  0  0
  -21.6640   -6.8830   21.4216 O   0  0  0  0  0  0
  -22.3489  -14.5558   20.6739 O   0  0  0  0  0  0
  -24.6293  -31.8560   23.2049 C   0  0  0  0  0  0
  -25.9145  -32.4749   23.8357 C   0  0  1  0  0  0
  -27.2105  -27.2758   20.1297 C   0  0  0  0  0  0
  -25.5955  -33.8549   24.2277 N   0  0  0  0  0  0
  -23.4244  -30.4837   21.5454 C   0  0  2  0  0  0
  -24.8707  -28.9380   20.1113 C   0  0  0  0  0  0
  -22.7497  -29.4600   22.4903 C   0  0  0  0  0  0
  -18.0300  -28.1366   22.8483 C   0  0  0  0  0  0
  -24.1483  -36.7255   23.2638 C   0  0  0  0  0  0
  -25.9723  -30.7741   21.3862 C   0  0  0  0  0  0
  -26.0423  -29.4005   20.7232 C   0  0  0  0  0  0
  -27.2158  -28.5816   20.7222 C   0  0  0  0  0  0
  -26.0144  -26.8838   19.4851 C   0  0  0  0  0  0
  -24.8607  -27.6865   19.4817 C   0  0  0  0  0  0
  -23.6436  -29.8257   20.1585 C   0  0  0  0  0  0
  -25.4114  -36.3051   24.0321 C   0  0  1  0  0  0
  -20.5902  -28.3678   23.1266 C   0  0  2  0  0  0
  -20.6774  -26.9393   22.5411 C   0  0  0  0  0  0
  -19.5756  -26.6369   21.5203 C   0  0  0  0  0  0
  -18.1935  -26.7914   22.1614 C   0  0  0  0  0  0
  -19.1553  -28.8841   23.2871 C   0  0  0  0  0  0
  -18.9468  -30.1441   23.8887 C   0  0  0  0  0  0
  -17.6471  -30.6571   24.0551 C   0  0  0  0  0  0
  -25.9055  -34.9426   23.5095 C   0  0  0  0  0  0
  -16.5362  -29.9065   23.6332 C   0  0  0  0  0  0
  -16.7285  -28.6481   23.0356 C   0  0  0  0  0  0
  -26.4526  -31.6570   25.0739 C   0  0  0  0  0  0
  -25.3767  -31.3721   26.1473 C   0  0  0  0  0  0
  -27.0380  -30.2981   24.6243 C   0  0  0  0  0  0
  -27.6072  -32.4318   25.7526 C   0  0  0  0  0  0
  -27.5567  -37.1786   24.8469 C   0  0  0  0  0  0
  -21.4203  -29.3025   22.3647 N   0  0  0  0  0  0
  -26.4278  -37.3758   23.9411 N   0  0  0  0  0  0
  -24.6941  -31.0552   22.1016 N   0  0  0  0  0  0
  -23.4214  -28.8116   23.2970 O   0  0  0  0  0  0
  -28.2998  -26.3791   20.1910 O   0  0  0  0  0  0
  -26.5610  -34.8901   22.4653 O   0  0  0  0  0  0
  -23.5449  -32.1358   23.7371 O   0  0  0  0  0  0
  -29.7445  -18.3461   20.6169 C   0  0  0  0  0  0
  -29.7075  -19.6516   21.2598 C   0  0  0  0  0  0
  -29.7628  -19.6387   22.6824 C   0  0  0  0  0  0
  -29.9102  -17.1639   22.7489 C   0  0  0  0  0  0
  -29.8679  -17.0855   21.3316 C   0  0  0  0  0  0
  -29.8522  -18.4177   23.3918 C   0  0  0  0  0  0
  -29.9794  -15.9309   23.6477 C   0  0  0  0  0  0
  -28.4612  -21.1850   24.2469 C   0  0  0  0  0  0
  -27.5927  -21.8741   19.4965 C   0  0  0  0  0  0
  -29.8628  -24.2042   21.6862 C   0  0  0  0  0  0
  -30.1532  -23.9146   19.2151 C   0  0  0  0  0  0
  -29.8005  -21.0385   20.4649 C   0  0  0  0  0  0
  -29.7860  -20.9126   23.5199 C   0  0  0  0  0  0
  -28.0099  -24.9061   20.1307 C   0  0  0  0  0  0
  -28.6855  -22.2216   20.5241 C   0  0  1  0  0  0
  -29.1551  -23.7913   20.3821 C   0  0  0  0  0  0
  -29.7274  -15.7607   20.7027 N   0  0  0  0  0  0
  -29.8962  -18.4527   24.7479 F   0  0  0  0  0  0
  -31.4735  -12.5950   19.1467 H   0  0  0  0  0  0
  -30.3846  -11.4479   19.8800 H   0  0  0  0  0  0
  -29.7758  -11.8414   17.4438 H   0  0  0  0  0  0
  -29.6195  -13.5457   17.7675 H   0  0  0  0  0  0
  -27.8574  -11.3100   18.8395 H   0  0  0  0  0  0
  -27.3707  -12.6121   17.7899 H   0  0  0  0  0  0
  -27.6457  -14.2598   19.5169 H   0  0  0  0  0  0
  -28.7110  -12.0784   21.3799 H   0  0  0  0  0  0
  -28.4258  -13.7360   21.8303 H   0  0  0  0  0  0
  -25.2675   -9.5764   22.4746 H   0  0  0  0  0  0
  -23.9991   -7.4651   22.7453 H   0  0  0  0  0  0
  -21.0799   -8.8704   19.8926 H   0  0  0  0  0  0
  -22.3562  -10.9653   19.6161 H   0  0  0  0  0  0
  -21.1992   -7.6123   23.9685 H   0  0  0  0  0  0
  -21.1495   -6.0516   25.9067 H   0  0  0  0  0  0
  -22.0575   -2.7592   23.2830 H   0  0  0  0  0  0
  -22.3990  -11.9905   22.4833 H   0  0  0  0  0  0
  -21.1033  -13.1286   22.2576 H   0  0  0  0  0  0
  -24.6600  -15.8461   20.5474 H   0  0  0  0  0  0
  -26.2562  -15.6240   20.0453 H   0  0  0  0  0  0
  -26.7206  -32.5402   23.1086 H   0  0  0  0  0  0
  -25.0160  -33.9687   25.0464 H   0  0  0  0  0  0
  -22.7185  -31.3054   21.4040 H   0  0  0  0  0  0
  -23.3746  -35.9585   23.3315 H   0  0  0  0  0  0
  -24.3569  -36.8862   22.2048 H   0  0  0  0  0  0
  -23.7240  -37.6460   23.6658 H   0  0  0  0  0  0
  -26.1207  -31.5418   20.6249 H   0  0  0  0  0  0
  -26.8453  -30.8108   22.0269 H   0  0  0  0  0  0
  -28.1096  -28.9271   21.2222 H   0  0  0  0  0  0
  -25.9295  -25.9340   18.9836 H   0  0  0  0  0  0
  -23.9651  -27.3265   18.9944 H   0  0  0  0  0  0
  -23.7777  -30.6060   19.4079 H   0  0  0  0  0  0
  -22.7606  -29.2638   19.8476 H   0  0  0  0  0  0
  -25.1300  -36.1881   25.0811 H   0  0  0  0  0  0
  -21.0011  -28.3256   24.1380 H   0  0  0  0  0  0
  -20.5664  -26.2278   23.3609 H   0  0  0  0  0  0
  -21.6642  -26.7407   22.1205 H   0  0  0  0  0  0
  -19.6911  -25.6280   21.1224 H   0  0  0  0  0  0
  -19.6698  -27.3180   20.6733 H   0  0  0  0  0  0
  -17.4209  -26.6677   21.4009 H   0  0  0  0  0  0
  -18.0335  -26.0054   22.9009 H   0  0  0  0  0  0
  -19.7950  -30.7253   24.2258 H   0  0  0  0  0  0
  -17.5031  -31.6260   24.5142 H   0  0  0  0  0  0
  -15.5361  -30.2956   23.7672 H   0  0  0  0  0  0
  -15.8688  -28.0797   22.7077 H   0  0  0  0  0  0
  -24.5960  -30.7032   25.7837 H   0  0  0  0  0  0
  -24.8936  -32.2883   26.4872 H   0  0  0  0  0  0
  -25.8108  -30.8946   27.0265 H   0  0  0  0  0  0
  -26.2964  -29.6715   24.1272 H   0  0  0  0  0  0
  -27.4053  -29.7260   25.4773 H   0  0  0  0  0  0
  -27.8854  -30.4240   23.9501 H   0  0  0  0  0  0
  -27.2677  -33.3635   26.2064 H   0  0  0  0  0  0
  -28.3922  -32.6841   25.0388 H   0  0  0  0  0  0
  -28.0697  -31.8465   26.5482 H   0  0  0  0  0  0
  -28.2591  -38.0080   24.7505 H   0  0  0  0  0  0
  -28.1052  -36.2600   24.6305 H   0  0  0  0  0  0
  -27.2276  -37.1463   25.8874 H   0  0  0  0  0  0
  -20.9369  -29.8762   21.6876 H   0  0  0  0  0  0
  -26.0139  -38.2821   24.1429 H   0  0  0  0  0  0
  -29.6923  -18.3074   19.5387 H   0  0  0  0  0  0
  -30.3491  -15.0360   23.1574 H   0  0  0  0  0  0
  -28.9954  -15.7038   24.0580 H   0  0  0  0  0  0
  -30.6543  -16.1135   24.4852 H   0  0  0  0  0  0
  -28.5027  -22.1408   24.7683 H   0  0  0  0  0  0
  -28.2417  -20.4172   24.9900 H   0  0  0  0  0  0
  -27.6237  -21.2203   23.5509 H   0  0  0  0  0  0
  -27.1934  -20.8756   19.6801 H   0  0  0  0  0  0
  -27.9871  -21.8852   18.4796 H   0  0  0  0  0  0
  -26.7517  -22.5662   19.5401 H   0  0  0  0  0  0
  -30.1350  -25.2607   21.6764 H   0  0  0  0  0  0
  -30.7837  -23.6449   21.8453 H   0  0  0  0  0  0
  -29.2147  -24.0464   22.5501 H   0  0  0  0  0  0
  -30.4473  -24.9523   19.0523 H   0  0  0  0  0  0
  -29.7203  -23.5567   18.2818 H   0  0  0  0  0  0
  -31.0669  -23.3494   19.3938 H   0  0  0  0  0  0
  -29.9997  -20.8041   19.4180 H   0  0  0  0  0  0
  -30.7386  -21.4745   20.8052 H   0  0  0  0  0  0
  -30.0579  -21.7747   22.9245 H   0  0  0  0  0  0
  -30.5878  -20.8253   24.2537 H   0  0  0  0  0  0
  -27.1948  -24.7014   20.8278 H   0  0  0  0  0  0
  -27.6158  -24.7006   19.1351 H   0  0  0  0  0  0
  -28.1987  -22.1581   21.4966 H   0  0  0  0  0  0
  -28.7677  -15.4622   20.6471 H   0  0  0  0  0  0
  1 25  1  0  0  0
  1 30  2  0  0  0
  1 87  1  0  0  0
  2  3  1  0  0  0
  2 25  1  0  0  0
  2 89  1  0  0  0
  2 90  1  0  0  0
  3  4  1  0  0  0
  3 91  1  0  0  0
  3 92  1  0  0  0
  4  5  1  0  0  0
  4 93  1  0  0  0
  4 94  1  0  0  0
  5  6  1  0  0  0
  5 26  1  0  0  0
  5 95  1  0  0  0
  6 25  1  0  0  0
  6 96  1  0  0  0
  6 97  1  0  0  0
  7  8  2  0  0  0
  7 26  1  0  0  0
  7 29  1  0  0  0
  8  9  1  0  0  0
  8 22  1  0  0  0
  9 10  1  0  0  0
  9 27  2  0  0  0
 10 11  2  0  0  0
 10 15  1  0  0  0
 11 12  1  0  0  0
 11 98  1  0  0  0
 12 13  2  0  0  0
 12 99  1  0  0  0
 13 14  1  0  0  0
 13 31  1  0  0  0
 14 15  2  0  0  0
 14100  1  0  0  0
 15101  1  0  0  0
 16 17  2  0  0  0
 16 21  1  0  0  0
 16 31  1  0  0  0
 17 18  1  0  0  0
 17102  1  0  0  0
 18 19  2  0  0  0
 18103  1  0  0  0
 19 20  1  0  0  0
 19 24  1  0  0  0
 20 21  2  0  0  0
 20104  1  0  0  0
 21 23  1  0  0  0
 22 28  1  0  0  0
 22 32  2  0  0  0
 26 27  1  0  0  0
 28105  1  0  0  0
 28106  1  0  0  0
 29107  1  0  0  0
 29108  1  0  0  0
 33 34  1  0  0  0
 33 66  1  0  0  0
 33 70  2  0  0  0
 34 36  1  0  0  0
 34 59  1  0  0  0
 34109  1  0  0  0
 35 44  2  0  0  0
 35 45  1  0  0  0
 35 68  1  0  0  0
 36 56  1  0  0  0
 36110  1  0  0  0
 37 39  1  0  0  0
 37 47  1  0  0  0
 37 66  1  0  0  0
 37111  1  0  0  0
 38 43  2  0  0  0
 38 46  1  0  0  0
 38 47  1  0  0  0
 39 64  1  0  0  0
 39 67  2  0  0  0
 40 52  1  0  0  0
 40 53  2  0  0  0
 40 58  1  0  0  0
 41112  1  0  0  0
 41113  1  0  0  0
 41114  1  0  0  0
 41 48  1  0  0  0
 42 43  1  0  0  0
 42 66  1  0  0  0
 42115  1  0  0  0
 42116  1  0  0  0
 43 44  1  0  0  0
 44117  1  0  0  0
 45 46  2  0  0  0
 45118  1  0  0  0
 46119  1  0  0  0
 47120  1  0  0  0
 47121  1  0  0  0
 48 56  1  0  0  0
 48 65  1  0  0  0
 48122  1  0  0  0
 49 50  1  0  0  0
 49 53  1  0  0  0
 49 64  1  0  0  0
 49123  1  0  0  0
 50 51  1  0  0  0
 50124  1  0  0  0
 50125  1  0  0  0
 51 52  1  0  0  0
 51126  1  0  0  0
 51127  1  0  0  0
 52128  1  0  0  0
 52129  1  0  0  0
 53 54  1  0  0  0
 54 55  2  0  0  0
 54130  1  0  0  0
 55 57  1  0  0  0
 55131  1  0  0  0
 56 69  2  0  0  0
 57 58  2  0  0  0
 57132  1  0  0  0
 58133  1  0  0  0
 59 60  1  0  0  0
 59 61  1  0  0  0
 59 62  1  0  0  0
 60134  1  0  0  0
 60135  1  0  0  0
 60136  1  0  0  0
 61137  1  0  0  0
 61138  1  0  0  0
 61139  1  0  0  0
 62140  1  0  0  0
 62141  1  0  0  0
 62142  1  0  0  0
 63 65  1  0  0  0
 63143  1  0  0  0
 63144  1  0  0  0
 63145  1  0  0  0
 64146  1  0  0  0
 65147  1  0  0  0
 68 84  1  0  0  0
 71 72  2  0  0  0
 71 75  1  0  0  0
 71148  1  0  0  0
 72 73  1  0  0  0
 72 82  1  0  0  0
 73 76  2  0  0  0
 73 83  1  0  0  0
 74 75  2  0  0  0
 74 76  1  0  0  0
 74 77  1  0  0  0
 75 87  1  0  0  0
 76 88  1  0  0  0
 77149  1  0  0  0
 77150  1  0  0  0
 77151  1  0  0  0
 78 83  1  0  0  0
 78152  1  0  0  0
 78153  1  0  0  0
 78154  1  0  0  0
 79155  1  0  0  0
 79156  1  0  0  0
 79157  1  0  0  0
 79 85  1  0  0  0
 80158  1  0  0  0
 80159  1  0  0  0
 80160  1  0  0  0
 80 86  1  0  0  0
 81 86  1  0  0  0
 81161  1  0  0  0
 81162  1  0  0  0
 81163  1  0  0  0
 82 85  1  0  0  0
 82164  1  0  0  0
 82165  1  0  0  0
 83166  1  0  0  0
 83167  1  0  0  0
 84 86  1  0  0  0
 84168  1  0  0  0
 84169  1  0  0  0
 85 86  1  0  0  0
 85170  1  0  0  0
 87171  1  0  0  0
M  ISO  4   1 100  68 101  84 101  87 100
M  END
> <chiral flag>
0

> <version>
0

> <s_m_source_file>
/data/baiqing/PycharmProjects/Reinvent-master-3.2/result/LINK_invent/BTK/process_docking_weight1_custom_product_contain_oxygen_bond_distance_aromatic_linkinvent_7_9_3/rearranged_h_0137.sdf

> <i_m_source_file_index>
20

> <r_mmod_Potential_Energy-OPLS-2005>
235.474914550781

> <r_mmod_Stretch_Energy-OPLS-2005>
125.038703918457

> <r_mmod_Bend_Energy-OPLS-2005>
169.562957763672

> <r_mmod_Torsional_Energy-OPLS-2005>
273.414093017578

> <r_mmod_Improper_Torsional_Energy-OPLS-2005>
9.97257709503174

> <r_mmod_Van_der_Waal_Energy-OPLS-2005>
144.158203125

> <r_mmod_Electrostatic_Energy-OPLS-2005>
-371.060333251953

> <r_mmod_Solvation_Energy-OPLS-2005>
-188.892181396484

> <b_mmod_Minimization_Converged-OPLS-2005>
0

> <r_mmod_RMS_Derivative-OPLS-2005>
3.53445410728455

$$$$
20
                    3D
 Structure written by MMmdl.
177185  0  0  1  0            999 V2000
  -30.4861  -15.2823   20.3470 C   0  0  0  0  0  0
  -30.4278  -12.8271   19.5252 C   0  0  0  0  0  0
  -29.5327  -12.5879   18.2885 C   0  0  0  0  0  0
  -28.0797  -12.3166   18.7066 C   0  0  0  0  0  0
  -27.6045  -13.2894   19.8162 C   0  0  2  0  0  0
  -28.6390  -13.4924   20.9435 C   0  0  0  0  0  0
  -25.2340  -13.8290   20.5717 C   0  0  0  0  0  0
  -24.1731  -13.0445   20.9265 C   0  0  0  0  0  0
  -24.6418  -11.6964   20.8744 C   0  0  0  0  0  0
  -23.9118  -10.4312   21.0383 C   0  0  0  0  0  0
  -24.3665   -9.4224   21.9166 C   0  0  0  0  0  0
  -23.6334   -8.2261   22.0737 C   0  0  0  0  0  0
  -22.4307   -8.0295   21.3544 C   0  0  0  0  0  0
  -21.9947   -9.0264   20.4627 C   0  0  0  0  0  0
  -22.7288  -10.2146   20.3037 C   0  0  0  0  0  0
  -21.6870   -6.0738   22.5281 C   0  0  0  0  0  0
  -21.4014   -6.5630   23.8220 C   0  0  0  0  0  0
  -21.3673   -5.6782   24.9187 C   0  0  0  0  0  0
  -21.6067   -4.3050   24.7219 C   0  0  0  0  0  0
  -21.8820   -3.8147   23.4335 C   0  0  0  0  0  0
  -21.9198   -4.6966   22.3402 C   0  0  0  0  0  0
  -22.7746  -13.5150   21.1926 C   0  0  0  0  0  0
  -22.1656   -4.2150   21.0980 F   0  0  0  0  0  0
  -21.5651   -3.4533   25.7736 F   0  0  0  0  0  0
  -29.8690  -13.9958   20.3062 N   0  0  0  0  0  0
  -26.2783  -12.9591   20.3199 N   0  0  0  0  0  0
  -25.9344  -11.6674   20.5669 N   0  0  0  0  0  0
  -22.0408  -12.8118   22.0475 N   0  0  0  0  0  0
  -25.3963  -15.2034   20.4169 N   0  0  0  0  0  0
  -31.7146  -15.1741   20.2289 O   0  0  0  0  0  0
  -21.6674   -6.8891   21.4243 O   0  0  0  0  0  0
  -22.3410  -14.5459   20.6787 O   0  0  0  0  0  0
  -24.6616  -31.8263   23.1721 C   0  0  0  0  0  0
  -25.9319  -32.4600   23.8182 C   0  0  1  0  0  0
  -27.2088  -26.9237   20.2010 C   0  0  0  0  0  0
  -25.6000  -33.8409   24.2102 N   0  0  0  0  0  0
  -23.4762  -30.4365   21.5203 C   0  0  2  0  0  0
  -24.9267  -28.8173   20.1211 C   0  0  0  0  0  0
  -22.7663  -29.4460   22.4794 C   0  0  0  0  0  0
  -18.0320  -28.1408   22.8468 C   0  0  0  0  0  0
  -24.1496  -36.7199   23.2652 C   0  0  0  0  0  0
  -26.0455  -30.6289   21.4040 C   0  0  0  0  0  0
  -26.1106  -29.2155   20.7556 C   0  0  0  0  0  0
  -27.2474  -28.2896   20.7705 C   0  0  0  0  0  0
  -25.9975  -26.6776   19.5164 C   0  0  0  0  0  0
  -24.8953  -27.5680   19.4808 C   0  0  0  0  0  0
  -23.7174  -29.7489   20.1476 C   0  0  0  0  0  0
  -25.4135  -36.2969   24.0303 C   0  0  1  0  0  0
  -20.5943  -28.3763   23.1188 C   0  0  2  0  0  0
  -20.6804  -26.9443   22.5396 C   0  0  0  0  0  0
  -19.5778  -26.6382   21.5214 C   0  0  0  0  0  0
  -18.1961  -26.7947   22.1620 C   0  0  0  0  0  0
  -19.1576  -28.8896   23.2822 C   0  0  0  0  0  0
  -18.9502  -30.1487   23.8858 C   0  0  0  0  0  0
  -17.6496  -30.6598   24.0559 C   0  0  0  0  0  0
  -25.9103  -34.9354   23.5017 C   0  0  0  0  0  0
  -16.5385  -29.9087   23.6353 C   0  0  0  0  0  0
  -16.7303  -28.6501   23.0378 C   0  0  0  0  0  0
  -26.4573  -31.6536   25.0702 C   0  0  0  0  0  0
  -25.3695  -31.3767   26.1355 C   0  0  0  0  0  0
  -27.0488  -30.2916   24.6406 C   0  0  0  0  0  0
  -27.6080  -32.4327   25.7500 C   0  0  0  0  0  0
  -27.5568  -37.1758   24.8466 C   0  0  0  0  0  0
  -21.4335  -29.3068   22.3542 N   0  0  0  0  0  0
  -26.4271  -37.3711   23.9420 N   0  0  0  0  0  0
  -24.7501  -30.9905   22.0866 N   0  0  0  0  0  0
  -23.4201  -28.8038   23.3055 O   0  0  0  0  0  0
  -28.2196  -25.8282   20.2378 O   0  0  0  0  0  0
  -26.5695  -34.8872   22.4603 O   0  0  0  0  0  0
  -23.5683  -32.1245   23.6812 O   0  0  0  0  0  0
  -32.0860  -18.7014   18.1517 C   0  0  0  0  0  0
  -31.3023  -17.8043   18.8758 C   0  0  0  0  0  0
  -30.7758  -20.4853   19.0277 C   0  0  0  0  0  0
  -31.8462  -20.0592   18.2361 C   0  0  0  0  0  0
  -29.8976  -19.6803   19.8147 C   0  0  0  0  0  0
  -30.2471  -18.1057   19.7888 C   0  0  0  0  0  0
  -26.9217  -19.0964   19.9287 C   0  0  0  0  0  0
  -27.9228  -21.6047   22.8095 C   0  0  0  0  0  0
  -32.4680  -23.5324   17.7310 C   0  0  0  0  0  0
  -33.5344  -22.1311   19.5297 C   0  0  0  0  0  0
  -34.7058  -22.4924   17.3656 C   0  0  0  0  0  0
  -32.6380  -21.0283   17.3519 C   0  0  0  0  0  0
  -27.4023  -20.5565   19.8294 C   0  0  0  0  0  0
  -28.8023  -20.6665   21.9651 C   0  0  0  0  0  0
  -28.9375  -22.7053   20.1281 C   0  0  0  0  0  0
  -27.9596  -24.2015   20.3984 C   0  0  0  0  0  0
  -28.7951  -20.8923   20.4274 C   0  0  0  0  0  0
  -33.3191  -22.2749   18.0080 C   0  0  0  0  0  0
  -29.8218  -16.6344   20.3473 N   0  0  0  0  0  0
  -31.4449  -13.0162   19.1798 H   0  0  0  0  0  0
  -30.4925  -11.9317   20.1444 H   0  0  0  0  0  0
  -29.9171  -11.7536   17.6998 H   0  0  0  0  0  0
  -29.5691  -13.4663   17.6429 H   0  0  0  0  0  0
  -28.0262  -11.2863   19.0629 H   0  0  0  0  0  0
  -27.4207  -12.3793   17.8403 H   0  0  0  0  0  0
  -27.5062  -14.2553   19.3188 H   0  0  0  0  0  0
  -28.8112  -12.5684   21.4976 H   0  0  0  0  0  0
  -28.2716  -14.2248   21.6633 H   0  0  0  0  0  0
  -25.2797   -9.5702   22.4771 H   0  0  0  0  0  0
  -24.0047   -7.4636   22.7430 H   0  0  0  0  0  0
  -21.0887   -8.8770   19.8897 H   0  0  0  0  0  0
  -22.3726  -10.9690   19.6159 H   0  0  0  0  0  0
  -21.1985   -7.6141   23.9702 H   0  0  0  0  0  0
  -21.1502   -6.0526   25.9090 H   0  0  0  0  0  0
  -22.0582   -2.7594   23.2845 H   0  0  0  0  0  0
  -22.4041  -11.9824   22.4925 H   0  0  0  0  0  0
  -21.0991  -13.1069   22.2629 H   0  0  0  0  0  0
  -24.6264  -15.8533   20.5365 H   0  0  0  0  0  0
  -26.2394  -15.6468   20.0782 H   0  0  0  0  0  0
  -26.7389  -32.5129   23.0897 H   0  0  0  0  0  0
  -25.0144  -33.9512   25.0242 H   0  0  0  0  0  0
  -22.7907  -31.2685   21.3481 H   0  0  0  0  0  0
  -23.3777  -35.9510   23.3268 H   0  0  0  0  0  0
  -24.3591  -36.8896   22.2082 H   0  0  0  0  0  0
  -23.7223  -37.6360   23.6728 H   0  0  0  0  0  0
  -26.2175  -31.3642   20.6174 H   0  0  0  0  0  0
  -26.9118  -30.6956   22.0504 H   0  0  0  0  0  0
  -28.1419  -28.5897   21.2965 H   0  0  0  0  0  0
  -25.8729  -25.7269   19.0203 H   0  0  0  0  0  0
  -23.9935  -27.2573   18.9681 H   0  0  0  0  0  0
  -23.8798  -30.5184   19.3919 H   0  0  0  0  0  0
  -22.8269  -29.2046   19.8263 H   0  0  0  0  0  0
  -25.1326  -36.1779   25.0789 H   0  0  0  0  0  0
  -21.0020  -28.3380   24.1319 H   0  0  0  0  0  0
  -20.5712  -26.2386   23.3647 H   0  0  0  0  0  0
  -21.6671  -26.7451   22.1191 H   0  0  0  0  0  0
  -19.6957  -25.6284   21.1283 H   0  0  0  0  0  0
  -19.6721  -27.3167   20.6725 H   0  0  0  0  0  0
  -17.4239  -26.6704   21.4016 H   0  0  0  0  0  0
  -18.0346  -26.0082   22.9002 H   0  0  0  0  0  0
  -19.7979  -30.7305   24.2218 H   0  0  0  0  0  0
  -17.5056  -31.6284   24.5161 H   0  0  0  0  0  0
  -15.5390  -30.2985   23.7691 H   0  0  0  0  0  0
  -15.8709  -28.0805   22.7138 H   0  0  0  0  0  0
  -24.5904  -30.7094   25.7654 H   0  0  0  0  0  0
  -24.8844  -32.2952   26.4656 H   0  0  0  0  0  0
  -25.7920  -30.9019   27.0221 H   0  0  0  0  0  0
  -26.3164  -29.6586   24.1384 H   0  0  0  0  0  0
  -27.4040  -29.7274   25.5046 H   0  0  0  0  0  0
  -27.9086  -30.4146   23.9815 H   0  0  0  0  0  0
  -27.2685  -33.3687   26.1929 H   0  0  0  0  0  0
  -28.3956  -32.6787   25.0367 H   0  0  0  0  0  0
  -28.0657  -31.8539   26.5533 H   0  0  0  0  0  0
  -28.2543  -38.0096   24.7532 H   0  0  0  0  0  0
  -28.1101  -36.2618   24.6250 H   0  0  0  0  0  0
  -27.2285  -37.1340   25.8868 H   0  0  0  0  0  0
  -20.9583  -29.8732   21.6653 H   0  0  0  0  0  0
  -26.0118  -38.2760   24.1453 H   0  0  0  0  0  0
  -32.8558  -18.3193   17.4950 H   0  0  0  0  0  0
  -31.5805  -16.8005   18.6220 H   0  0  0  0  0  0
  -30.6509  -21.5426   18.9726 H   0  0  0  0  0  0
  -25.9133  -18.9997   19.5243 H   0  0  0  0  0  0
  -26.8913  -18.7401   20.9578 H   0  0  0  0  0  0
  -27.5494  -18.4208   19.3508 H   0  0  0  0  0  0
  -27.8957  -21.2757   23.8472 H   0  0  0  0  0  0
  -26.8937  -21.6425   22.4511 H   0  0  0  0  0  0
  -28.3234  -22.6160   22.8274 H   0  0  0  0  0  0
  -32.9961  -24.4517   17.9936 H   0  0  0  0  0  0
  -31.5377  -23.5244   18.3008 H   0  0  0  0  0  0
  -32.2017  -23.6095   16.6747 H   0  0  0  0  0  0
  -34.1205  -22.9618   19.9249 H   0  0  0  0  0  0
  -34.0653  -21.2094   19.7718 H   0  0  0  0  0  0
  -32.5967  -22.1233   20.0823 H   0  0  0  0  0  0
  -35.1847  -23.3913   17.7566 H   0  0  0  0  0  0
  -34.6416  -22.6124   16.2835 H   0  0  0  0  0  0
  -35.3753  -21.6522   17.5591 H   0  0  0  0  0  0
  -31.9855  -21.3312   16.5320 H   0  0  0  0  0  0
  -33.4091  -20.4348   16.8580 H   0  0  0  0  0  0
  -27.4315  -20.8155   18.7711 H   0  0  0  0  0  0
  -26.6394  -21.2080   20.2558 H   0  0  0  0  0  0
  -28.5200  -19.6373   22.1885 H   0  0  0  0  0  0
  -29.8297  -20.7552   22.3232 H   0  0  0  0  0  0
  -29.9204  -22.9693   20.5191 H   0  0  0  0  0  0
  -29.0365  -22.7755   19.0458 H   0  0  0  0  0  0
  -27.6420  -24.1447   21.4378 H   0  0  0  0  0  0
  -27.0341  -24.0104   19.8569 H   0  0  0  0  0  0
  -28.8607  -16.5771   20.6453 H   0  0  0  0  0  0
  1 25  1  0  0  0
  1 30  2  0  0  0
  1 89  1  0  0  0
  2  3  1  0  0  0
  2 25  1  0  0  0
  2 90  1  0  0  0
  2 91  1  0  0  0
  3  4  1  0  0  0
  3 92  1  0  0  0
  3 93  1  0  0  0
  4  5  1  0  0  0
  4 94  1  0  0  0
  4 95  1  0  0  0
  5  6  1  0  0  0
  5 26  1  0  0  0
  5 96  1  0  0  0
  6 25  1  0  0  0
  6 97  1  0  0  0
  6 98  1  0  0  0
  7  8  2  0  0  0
  7 26  1  0  0  0
  7 29  1  0  0  0
  8  9  1  0  0  0
  8 22  1  0  0  0
  9 10  1  0  0  0
  9 27  2  0  0  0
 10 11  2  0  0  0
 10 15  1  0  0  0
 11 12  1  0  0  0
 11 99  1  0  0  0
 12 13  2  0  0  0
 12100  1  0  0  0
 13 14  1  0  0  0
 13 31  1  0  0  0
 14 15  2  0  0  0
 14101  1  0  0  0
 15102  1  0  0  0
 16 17  2  0  0  0
 16 21  1  0  0  0
 16 31  1  0  0  0
 17 18  1  0  0  0
 17103  1  0  0  0
 18 19  2  0  0  0
 18104  1  0  0  0
 19 20  1  0  0  0
 19 24  1  0  0  0
 20 21  2  0  0  0
 20105  1  0  0  0
 21 23  1  0  0  0
 22 28  1  0  0  0
 22 32  2  0  0  0
 26 27  1  0  0  0
 28106  1  0  0  0
 28107  1  0  0  0
 29108  1  0  0  0
 29109  1  0  0  0
 33 34  1  0  0  0
 33 66  1  0  0  0
 33 70  2  0  0  0
 34 36  1  0  0  0
 34 59  1  0  0  0
 34110  1  0  0  0
 35 44  2  0  0  0
 35 45  1  0  0  0
 35 68  1  0  0  0
 36 56  1  0  0  0
 36111  1  0  0  0
 37 39  1  0  0  0
 37 47  1  0  0  0
 37 66  1  0  0  0
 37112  1  0  0  0
 38 43  2  0  0  0
 38 46  1  0  0  0
 38 47  1  0  0  0
 39 64  1  0  0  0
 39 67  2  0  0  0
 40 52  1  0  0  0
 40 53  2  0  0  0
 40 58  1  0  0  0
 41113  1  0  0  0
 41114  1  0  0  0
 41115  1  0  0  0
 41 48  1  0  0  0
 42 43  1  0  0  0
 42 66  1  0  0  0
 42116  1  0  0  0
 42117  1  0  0  0
 43 44  1  0  0  0
 44118  1  0  0  0
 45 46  2  0  0  0
 45119  1  0  0  0
 46120  1  0  0  0
 47121  1  0  0  0
 47122  1  0  0  0
 48 56  1  0  0  0
 48 65  1  0  0  0
 48123  1  0  0  0
 49 50  1  0  0  0
 49 53  1  0  0  0
 49 64  1  0  0  0
 49124  1  0  0  0
 50 51  1  0  0  0
 50125  1  0  0  0
 50126  1  0  0  0
 51 52  1  0  0  0
 51127  1  0  0  0
 51128  1  0  0  0
 52129  1  0  0  0
 52130  1  0  0  0
 53 54  1  0  0  0
 54 55  2  0  0  0
 54131  1  0  0  0
 55 57  1  0  0  0
 55132  1  0  0  0
 56 69  2  0  0  0
 57 58  2  0  0  0
 57133  1  0  0  0
 58134  1  0  0  0
 59 60  1  0  0  0
 59 61  1  0  0  0
 59 62  1  0  0  0
 60135  1  0  0  0
 60136  1  0  0  0
 60137  1  0  0  0
 61138  1  0  0  0
 61139  1  0  0  0
 61140  1  0  0  0
 62141  1  0  0  0
 62142  1  0  0  0
 62143  1  0  0  0
 63 65  1  0  0  0
 63144  1  0  0  0
 63145  1  0  0  0
 63146  1  0  0  0
 64147  1  0  0  0
 65148  1  0  0  0
 68 86  1  0  0  0
 71 72  2  0  0  0
 71 74  1  0  0  0
 71149  1  0  0  0
 72 76  1  0  0  0
 72150  1  0  0  0
 73 74  2  0  0  0
 73 75  1  0  0  0
 73151  1  0  0  0
 74 82  1  0  0  0
 75 76  2  0  0  0
 75 87  1  0  0  0
 76 89  1  0  0  0
 77 83  1  0  0  0
 77152  1  0  0  0
 77153  1  0  0  0
 77154  1  0  0  0
 78 84  1  0  0  0
 78155  1  0  0  0
 78156  1  0  0  0
 78157  1  0  0  0
 79158  1  0  0  0
 79159  1  0  0  0
 79160  1  0  0  0
 79 88  1  0  0  0
 80 88  1  0  0  0
 80161  1  0  0  0
 80162  1  0  0  0
 80163  1  0  0  0
 81 88  1  0  0  0
 81164  1  0  0  0
 81165  1  0  0  0
 81166  1  0  0  0
 82 88  1  0  0  0
 82167  1  0  0  0
 82168  1  0  0  0
 83169  1  0  0  0
 83170  1  0  0  0
 83 87  1  0  0  0
 84 87  1  0  0  0
 84171  1  0  0  0
 84172  1  0  0  0
 85 86  1  0  0  0
 85 87  1  0  0  0
 85173  1  0  0  0
 85174  1  0  0  0
 86175  1  0  0  0
 86176  1  0  0  0
 89177  1  0  0  0
M  ISO  4   1 100  68 101  86 101  89 100
M  END
> <chiral flag>
0

> <version>
0

> <s_m_source_file>
/data/baiqing/PycharmProjects/Reinvent-master-3.2/result/LINK_invent/BTK/process_docking_weight1_custom_product_contain_oxygen_bond_distance_aromatic_linkinvent_7_9_3/rearranged_h_0137.sdf

> <i_m_source_file_index>
21

> <r_mmod_Potential_Energy-OPLS-2005>
1596.10827636719

> <r_mmod_Stretch_Energy-OPLS-2005>
700.47705078125

> <r_mmod_Bend_Energy-OPLS-2005>
573.607299804688

> <r_mmod_Torsional_Energy-OPLS-2005>
258.920196533203

> <r_mmod_Improper_Torsional_Energy-OPLS-2005>
4.3328971862793

> <r_mmod_Van_der_Waal_Energy-OPLS-2005>
156.57341003418

> <r_mmod_Electrostatic_Energy-OPLS-2005>
-372.799224853516

> <r_mmod_Solvation_Energy-OPLS-2005>
-189.007293701172

> <b_mmod_Minimization_Converged-OPLS-2005>
0

> <r_mmod_RMS_Derivative-OPLS-2005>
3.6707124710083

$$$$
21
                    3D
 Structure written by MMmdl.
161169  0  0  1  0            999 V2000
  -30.6284  -14.7417   20.5820 C   0  0  0  0  0  0
  -30.4458  -12.4823   19.4739 C   0  0  0  0  0  0
  -29.5189  -12.5557   18.2382 C   0  0  0  0  0  0
  -28.0471  -12.3516   18.6460 C   0  0  0  0  0  0
  -27.6551  -13.2261   19.8645 C   0  0  2  0  0  0
  -28.6953  -13.1119   20.9997 C   0  0  0  0  0  0
  -25.2570  -13.8192   20.5712 C   0  0  0  0  0  0
  -24.1837  -13.0468   20.9221 C   0  0  0  0  0  0
  -24.6399  -11.6939   20.8755 C   0  0  0  0  0  0
  -23.9060  -10.4328   21.0448 C   0  0  0  0  0  0
  -24.3605   -9.4230   21.9211 C   0  0  0  0  0  0
  -23.6292   -8.2260   22.0746 C   0  0  0  0  0  0
  -22.4269   -8.0292   21.3567 C   0  0  0  0  0  0
  -21.9913   -9.0262   20.4661 C   0  0  0  0  0  0
  -22.7235  -10.2157   20.3078 C   0  0  0  0  0  0
  -21.6846   -6.0751   22.5308 C   0  0  0  0  0  0
  -21.3999   -6.5644   23.8243 C   0  0  0  0  0  0
  -21.3667   -5.6782   24.9193 C   0  0  0  0  0  0
  -21.6031   -4.3057   24.7240 C   0  0  0  0  0  0
  -21.8804   -3.8164   23.4365 C   0  0  0  0  0  0
  -21.9187   -4.6980   22.3418 C   0  0  0  0  0  0
  -22.7862  -13.5278   21.1905 C   0  0  0  0  0  0
  -22.1647   -4.2186   21.0995 F   0  0  0  0  0  0
  -21.5643   -3.4517   25.7749 F   0  0  0  0  0  0
  -30.0100  -13.5054   20.4567 N   0  0  0  0  0  0
  -26.3006  -12.9371   20.3312 N   0  0  0  0  0  0
  -25.9339  -11.6527   20.5730 N   0  0  0  0  0  0
  -22.0420  -12.8285   22.0422 N   0  0  0  0  0  0
  -25.4350  -15.1899   20.4172 N   0  0  0  0  0  0
  -31.7136  -14.9345   20.0272 O   0  0  0  0  0  0
  -21.6639   -6.8891   21.4267 O   0  0  0  0  0  0
  -22.3568  -14.5599   20.6763 O   0  0  0  0  0  0
  -24.6356  -31.8529   23.1980 C   0  0  0  0  0  0
  -25.9178  -32.4749   23.8326 C   0  0  1  0  0  0
  -27.2392  -27.2554   20.1506 C   0  0  0  0  0  0
  -25.5985  -33.8547   24.2274 N   0  0  0  0  0  0
  -23.4335  -30.4738   21.5418 C   0  0  2  0  0  0
  -24.8843  -28.9183   20.1134 C   0  0  0  0  0  0
  -22.7538  -29.4581   22.4943 C   0  0  0  0  0  0
  -18.0281  -28.1374   22.8467 C   0  0  0  0  0  0
  -24.1485  -36.7254   23.2633 C   0  0  0  0  0  0
  -25.9786  -30.7695   21.3747 C   0  0  0  0  0  0
  -26.0559  -29.3911   20.7180 C   0  0  0  0  0  0
  -27.2356  -28.5768   20.7149 C   0  0  0  0  0  0
  -26.0356  -26.8493   19.5228 C   0  0  0  0  0  0
  -24.8811  -27.6583   19.4992 C   0  0  0  0  0  0
  -23.6523  -29.8013   20.1593 C   0  0  0  0  0  0
  -25.4101  -36.3059   24.0336 C   0  0  1  0  0  0
  -20.5893  -28.3687   23.1253 C   0  0  2  0  0  0
  -20.6773  -26.9406   22.5387 C   0  0  0  0  0  0
  -19.5758  -26.6364   21.5187 C   0  0  0  0  0  0
  -18.1930  -26.7921   22.1588 C   0  0  0  0  0  0
  -19.1533  -28.8848   23.2849 C   0  0  0  0  0  0
  -18.9467  -30.1449   23.8871 C   0  0  0  0  0  0
  -17.6470  -30.6593   24.0525 C   0  0  0  0  0  0
  -25.9044  -34.9437   23.5089 C   0  0  0  0  0  0
  -16.5357  -29.9069   23.6338 C   0  0  0  0  0  0
  -16.7269  -28.6467   23.0388 C   0  0  0  0  0  0
  -26.4540  -31.6606   25.0750 C   0  0  0  0  0  0
  -25.3763  -31.3824   26.1485 C   0  0  0  0  0  0
  -27.0383  -30.3014   24.6270 C   0  0  0  0  0  0
  -27.6074  -32.4376   25.7541 C   0  0  0  0  0  0
  -27.5583  -37.1754   24.8447 C   0  0  0  0  0  0
  -21.4246  -29.3039   22.3674 N   0  0  0  0  0  0
  -26.4265  -37.3774   23.9438 N   0  0  0  0  0  0
  -24.7016  -31.0489   22.0954 N   0  0  0  0  0  0
  -23.4217  -28.8089   23.3031 O   0  0  0  0  0  0
  -28.3479  -26.3695   20.2195 O   0  0  0  0  0  0
  -26.5583  -34.8923   22.4640 O   0  0  0  0  0  0
  -23.5505  -32.1336   23.7285 O   0  0  0  0  0  0
  -30.7149  -20.4747   20.5210 C   0  0  0  0  0  0
  -29.3900  -20.8185   20.6710 C   0  0  0  0  0  0
  -28.7885  -19.5065   20.8937 C   0  0  0  0  0  0
  -29.7569  -18.4996   20.9405 C   0  0  0  0  0  0
  -29.6972  -17.1189   21.5197 C   0  0  0  0  0  0
  -29.9686  -15.7485   21.4847 C   0  0  0  0  0  0
  -26.5441  -19.1596   19.7997 C   0  0  0  0  0  0
  -30.0996  -24.0577   21.7264 C   0  0  0  0  0  0
  -30.1529  -23.7544   19.2424 C   0  0  0  0  0  0
  -28.6213  -22.2304   20.6610 C   0  0  0  0  0  0
  -27.3096  -19.2899   21.1231 C   0  0  0  0  0  0
  -28.0949  -24.8824   20.3142 C   0  0  0  0  0  0
  -29.2438  -23.7289   20.4840 C   0  0  0  0  0  0
  -30.9523  -19.1122   20.6861 O   0  0  0  0  0  0
  -31.4847  -12.6154   19.1733 H   0  0  0  0  0  0
  -30.3970  -11.4904   19.9228 H   0  0  0  0  0  0
  -29.8125  -11.8112   17.4969 H   0  0  0  0  0  0
  -29.6290  -13.5291   17.7574 H   0  0  0  0  0  0
  -27.9089  -11.2948   18.8835 H   0  0  0  0  0  0
  -27.3864  -12.5670   17.8063 H   0  0  0  0  0  0
  -27.6699  -14.2609   19.5196 H   0  0  0  0  0  0
  -28.7332  -12.0922   21.3858 H   0  0  0  0  0  0
  -28.3734  -13.7195   21.8417 H   0  0  0  0  0  0
  -25.2735   -9.5717   22.4825 H   0  0  0  0  0  0
  -24.0019   -7.4607   22.7406 H   0  0  0  0  0  0
  -21.0870   -8.8755   19.8943 H   0  0  0  0  0  0
  -22.3658  -10.9683   19.6204 H   0  0  0  0  0  0
  -21.1950   -7.6139   23.9748 H   0  0  0  0  0  0
  -21.1513   -6.0521   25.9098 H   0  0  0  0  0  0
  -22.0576   -2.7633   23.2860 H   0  0  0  0  0  0
  -22.3930  -11.9941   22.4877 H   0  0  0  0  0  0
  -21.1053  -13.1400   22.2575 H   0  0  0  0  0  0
  -24.6776  -15.8561   20.5198 H   0  0  0  0  0  0
  -26.3060  -15.6212   20.1325 H   0  0  0  0  0  0
  -26.7249  -32.5412   23.1065 H   0  0  0  0  0  0
  -25.0309  -33.9687   25.0538 H   0  0  0  0  0  0
  -22.7337  -31.2985   21.3938 H   0  0  0  0  0  0
  -23.3796  -35.9533   23.3226 H   0  0  0  0  0  0
  -24.3595  -36.8944   22.2065 H   0  0  0  0  0  0
  -23.7183  -37.6413   23.6682 H   0  0  0  0  0  0
  -26.1201  -31.5311   20.6060 H   0  0  0  0  0  0
  -26.8509  -30.8138   22.0142 H   0  0  0  0  0  0
  -28.1338  -28.9356   21.1972 H   0  0  0  0  0  0
  -25.9501  -25.8814   19.0529 H   0  0  0  0  0  0
  -23.9834  -27.2924   19.0184 H   0  0  0  0  0  0
  -23.7743  -30.5691   19.3944 H   0  0  0  0  0  0
  -22.7707  -29.2289   19.8645 H   0  0  0  0  0  0
  -25.1270  -36.1872   25.0826 H   0  0  0  0  0  0
  -20.9945  -28.3238   24.1388 H   0  0  0  0  0  0
  -20.5649  -26.2308   23.3593 H   0  0  0  0  0  0
  -21.6649  -26.7435   22.1198 H   0  0  0  0  0  0
  -19.6919  -25.6250   21.1279 H   0  0  0  0  0  0
  -19.6695  -27.3119   20.6665 H   0  0  0  0  0  0
  -17.4201  -26.6678   21.3982 H   0  0  0  0  0  0
  -18.0308  -26.0063   22.8980 H   0  0  0  0  0  0
  -19.7953  -30.7253   24.2246 H   0  0  0  0  0  0
  -17.5034  -31.6278   24.5111 H   0  0  0  0  0  0
  -15.5352  -30.2958   23.7681 H   0  0  0  0  0  0
  -15.8669  -28.0754   22.7181 H   0  0  0  0  0  0
  -24.5864  -30.7257   25.7824 H   0  0  0  0  0  0
  -24.9072  -32.3053   26.4909 H   0  0  0  0  0  0
  -25.8067  -30.8985   27.0261 H   0  0  0  0  0  0
  -26.2972  -29.6786   24.1252 H   0  0  0  0  0  0
  -27.4002  -29.7272   25.4809 H   0  0  0  0  0  0
  -27.8878  -30.4284   23.9556 H   0  0  0  0  0  0
  -27.2628  -33.3667   26.2088 H   0  0  0  0  0  0
  -28.3882  -32.6956   25.0378 H   0  0  0  0  0  0
  -28.0735  -31.8562   26.5507 H   0  0  0  0  0  0
  -28.2511  -38.0138   24.7593 H   0  0  0  0  0  0
  -28.1161  -36.2671   24.6096 H   0  0  0  0  0  0
  -27.2334  -37.1193   25.8856 H   0  0  0  0  0  0
  -20.9459  -29.8790   21.6897 H   0  0  0  0  0  0
  -26.0142  -38.2834   24.1500 H   0  0  0  0  0  0
  -31.6047  -21.0613   20.3440 H   0  0  0  0  0  0
  -29.2279  -17.2854   22.4802 H   0  0  0  0  0  0
  -29.6356  -15.2766   22.3967 H   0  0  0  0  0  0
  -25.4767  -19.0185   19.9770 H   0  0  0  0  0  0
  -26.8981  -18.3044   19.2229 H   0  0  0  0  0  0
  -26.6619  -20.0530   19.1855 H   0  0  0  0  0  0
  -30.9177  -23.3458   21.8543 H   0  0  0  0  0  0
  -29.5091  -24.0281   22.6422 H   0  0  0  0  0  0
  -30.5349  -25.0562   21.6563 H   0  0  0  0  0  0
  -31.0026  -23.0788   19.3447 H   0  0  0  0  0  0
  -30.5518  -24.7530   19.0628 H   0  0  0  0  0  0
  -29.6090  -23.4559   18.3461 H   0  0  0  0  0  0
  -28.0547  -22.2415   21.5921 H   0  0  0  0  0  0
  -27.8598  -22.1244   19.8894 H   0  0  0  0  0  0
  -26.9140  -20.1210   21.7071 H   0  0  0  0  0  0
  -27.1548  -18.3989   21.7339 H   0  0  0  0  0  0
  -27.3870  -24.7483   21.1342 H   0  0  0  0  0  0
  -27.5522  -24.5910   19.4183 H   0  0  0  0  0  0
  1 25  1  0  0  0
  1 30  2  0  0  0
  1 76  1  0  0  0
  2  3  1  0  0  0
  2 25  1  0  0  0
  2 85  1  0  0  0
  2 86  1  0  0  0
  3  4  1  0  0  0
  3 87  1  0  0  0
  3 88  1  0  0  0
  4  5  1  0  0  0
  4 89  1  0  0  0
  4 90  1  0  0  0
  5  6  1  0  0  0
  5 26  1  0  0  0
  5 91  1  0  0  0
  6 25  1  0  0  0
  6 92  1  0  0  0
  6 93  1  0  0  0
  7  8  2  0  0  0
  7 26  1  0  0  0
  7 29  1  0  0  0
  8  9  1  0  0  0
  8 22  1  0  0  0
  9 10  1  0  0  0
  9 27  2  0  0  0
 10 11  2  0  0  0
 10 15  1  0  0  0
 11 12  1  0  0  0
 11 94  1  0  0  0
 12 13  2  0  0  0
 12 95  1  0  0  0
 13 14  1  0  0  0
 13 31  1  0  0  0
 14 15  2  0  0  0
 14 96  1  0  0  0
 15 97  1  0  0  0
 16 17  2  0  0  0
 16 21  1  0  0  0
 16 31  1  0  0  0
 17 18  1  0  0  0
 17 98  1  0  0  0
 18 19  2  0  0  0
 18 99  1  0  0  0
 19 20  1  0  0  0
 19 24  1  0  0  0
 20 21  2  0  0  0
 20100  1  0  0  0
 21 23  1  0  0  0
 22 28  1  0  0  0
 22 32  2  0  0  0
 26 27  1  0  0  0
 28101  1  0  0  0
 28102  1  0  0  0
 29103  1  0  0  0
 29104  1  0  0  0
 33 34  1  0  0  0
 33 66  1  0  0  0
 33 70  2  0  0  0
 34 36  1  0  0  0
 34 59  1  0  0  0
 34105  1  0  0  0
 35 44  2  0  0  0
 35 45  1  0  0  0
 35 68  1  0  0  0
 36 56  1  0  0  0
 36106  1  0  0  0
 37 39  1  0  0  0
 37 47  1  0  0  0
 37 66  1  0  0  0
 37107  1  0  0  0
 38 43  2  0  0  0
 38 46  1  0  0  0
 38 47  1  0  0  0
 39 64  1  0  0  0
 39 67  2  0  0  0
 40 52  1  0  0  0
 40 53  2  0  0  0
 40 58  1  0  0  0
 41108  1  0  0  0
 41109  1  0  0  0
 41110  1  0  0  0
 41 48  1  0  0  0
 42 43  1  0  0  0
 42 66  1  0  0  0
 42111  1  0  0  0
 42112  1  0  0  0
 43 44  1  0  0  0
 44113  1  0  0  0
 45 46  2  0  0  0
 45114  1  0  0  0
 46115  1  0  0  0
 47116  1  0  0  0
 47117  1  0  0  0
 48 56  1  0  0  0
 48 65  1  0  0  0
 48118  1  0  0  0
 49 50  1  0  0  0
 49 53  1  0  0  0
 49 64  1  0  0  0
 49119  1  0  0  0
 50 51  1  0  0  0
 50120  1  0  0  0
 50121  1  0  0  0
 51 52  1  0  0  0
 51122  1  0  0  0
 51123  1  0  0  0
 52124  1  0  0  0
 52125  1  0  0  0
 53 54  1  0  0  0
 54 55  2  0  0  0
 54126  1  0  0  0
 55 57  1  0  0  0
 55127  1  0  0  0
 56 69  2  0  0  0
 57 58  2  0  0  0
 57128  1  0  0  0
 58129  1  0  0  0
 59 60  1  0  0  0
 59 61  1  0  0  0
 59 62  1  0  0  0
 60130  1  0  0  0
 60131  1  0  0  0
 60132  1  0  0  0
 61133  1  0  0  0
 61134  1  0  0  0
 61135  1  0  0  0
 62136  1  0  0  0
 62137  1  0  0  0
 62138  1  0  0  0
 63 65  1  0  0  0
 63139  1  0  0  0
 63140  1  0  0  0
 63141  1  0  0  0
 64142  1  0  0  0
 65143  1  0  0  0
 68 82  1  0  0  0
 71 72  2  0  0  0
 71 84  1  0  0  0
 71144  1  0  0  0
 72 73  1  0  0  0
 72 80  1  0  0  0
 73 74  2  0  0  0
 73 81  1  0  0  0
 74 75  1  0  0  0
 74 84  1  0  0  0
 75 76  2  0  0  0
 75145  1  0  0  0
 76146  1  0  0  0
 77 81  1  0  0  0
 77147  1  0  0  0
 77148  1  0  0  0
 77149  1  0  0  0
 78150  1  0  0  0
 78151  1  0  0  0
 78152  1  0  0  0
 78 83  1  0  0  0
 79 83  1  0  0  0
 79153  1  0  0  0
 79154  1  0  0  0
 79155  1  0  0  0
 80 83  1  0  0  0
 80156  1  0  0  0
 80157  1  0  0  0
 81158  1  0  0  0
 81159  1  0  0  0
 82 83  1  0  0  0
 82160  1  0  0  0
 82161  1  0  0  0
M  ISO  4   1 100  68 101  76 100  82 101
M  END
> <chiral flag>
0

> <version>
0

> <s_m_source_file>
/data/baiqing/PycharmProjects/Reinvent-master-3.2/result/LINK_invent/BTK/process_docking_weight1_custom_product_contain_oxygen_bond_distance_aromatic_linkinvent_7_9_3/rearranged_h_0137.sdf

> <i_m_source_file_index>
22

> <r_mmod_Potential_Energy-OPLS-2005>
289.398254394531

> <r_mmod_Stretch_Energy-OPLS-2005>
129.829879760742

> <r_mmod_Bend_Energy-OPLS-2005>
273.313415527344

> <r_mmod_Torsional_Energy-OPLS-2005>
217.808090209961

> <r_mmod_Improper_Torsional_Energy-OPLS-2005>
4.99401903152466

> <r_mmod_Van_der_Waal_Energy-OPLS-2005>
112.852310180664

> <r_mmod_Electrostatic_Energy-OPLS-2005>
-339.248626708984

> <r_mmod_Solvation_Energy-OPLS-2005>
-194.714431762695

> <b_mmod_Minimization_Converged-OPLS-2005>
0

> <r_mmod_RMS_Derivative-OPLS-2005>
4.2594895362854

$$$$
22
                    3D
 Structure written by MMmdl.
166174  0  0  1  0            999 V2000
  -30.7198  -14.4491   20.5356 C   0  0  0  0  0  0
  -30.4120  -12.2800   19.4296 C   0  0  0  0  0  0
  -29.4920  -12.4883   18.2091 C   0  0  0  0  0  0
  -28.0128  -12.3599   18.6204 C   0  0  0  0  0  0
  -27.6599  -13.2081   19.8719 C   0  0  2  0  0  0
  -28.7012  -13.0050   20.9967 C   0  0  0  0  0  0
  -25.2587  -13.8168   20.5685 C   0  0  0  0  0  0
  -24.1839  -13.0444   20.9177 C   0  0  0  0  0  0
  -24.6395  -11.6911   20.8737 C   0  0  0  0  0  0
  -23.9066  -10.4295   21.0406 C   0  0  0  0  0  0
  -24.3619   -9.4209   21.9186 C   0  0  0  0  0  0
  -23.6292   -8.2246   22.0757 C   0  0  0  0  0  0
  -22.4273   -8.0284   21.3546 C   0  0  0  0  0  0
  -21.9910   -9.0258   20.4647 C   0  0  0  0  0  0
  -22.7238  -10.2136   20.3056 C   0  0  0  0  0  0
  -21.6852   -6.0737   22.5278 C   0  0  0  0  0  0
  -21.4014   -6.5641   23.8213 C   0  0  0  0  0  0
  -21.3660   -5.6792   24.9173 C   0  0  0  0  0  0
  -21.6042   -4.3055   24.7221 C   0  0  0  0  0  0
  -21.8819   -3.8148   23.4344 C   0  0  0  0  0  0
  -21.9192   -4.6965   22.3402 C   0  0  0  0  0  0
  -22.7863  -13.5241   21.1838 C   0  0  0  0  0  0
  -22.1659   -4.2155   21.0979 F   0  0  0  0  0  0
  -21.5630   -3.4537   25.7735 F   0  0  0  0  0  0
  -30.0349  -13.2800   20.4397 N   0  0  0  0  0  0
  -26.3017  -12.9341   20.3357 N   0  0  0  0  0  0
  -25.9321  -11.6499   20.5767 N   0  0  0  0  0  0
  -22.0502  -12.8234   22.0393 N   0  0  0  0  0  0
  -25.4323  -15.1887   20.4103 N   0  0  0  0  0  0
  -31.8789  -14.5659   20.1326 O   0  0  0  0  0  0
  -21.6638   -6.8880   21.4240 O   0  0  0  0  0  0
  -22.3548  -14.5547   20.6691 O   0  0  0  0  0  0
  -24.6120  -31.8698   23.2114 C   0  0  0  0  0  0
  -25.9031  -32.4827   23.8397 C   0  0  1  0  0  0
  -27.2379  -27.4607   20.1123 C   0  0  0  0  0  0
  -25.5904  -33.8622   24.2338 N   0  0  0  0  0  0
  -23.3978  -30.4916   21.5514 C   0  0  2  0  0  0
  -24.8465  -28.9582   20.1171 C   0  0  0  0  0  0
  -22.7389  -29.4660   22.5014 C   0  0  0  0  0  0
  -18.0264  -28.1373   22.8497 C   0  0  0  0  0  0
  -24.1491  -36.7309   23.2630 C   0  0  0  0  0  0
  -25.9213  -30.8471   21.3580 C   0  0  0  0  0  0
  -26.0016  -29.4819   20.7104 C   0  0  0  0  0  0
  -27.2023  -28.7432   20.7004 C   0  0  0  0  0  0
  -26.0752  -26.9492   19.5015 C   0  0  0  0  0  0
  -24.8764  -27.6897   19.5090 C   0  0  0  0  0  0
  -23.6045  -29.8186   20.1672 C   0  0  0  0  0  0
  -25.4103  -36.3107   24.0342 C   0  0  1  0  0  0
  -20.5851  -28.3649   23.1337 C   0  0  2  0  0  0
  -20.6759  -26.9392   22.5423 C   0  0  0  0  0  0
  -19.5736  -26.6377   21.5217 C   0  0  0  0  0  0
  -18.1913  -26.7918   22.1626 C   0  0  0  0  0  0
  -19.1513  -28.8826   23.2915 C   0  0  0  0  0  0
  -18.9447  -30.1434   23.8927 C   0  0  0  0  0  0
  -17.6453  -30.6585   24.0564 C   0  0  0  0  0  0
  -25.9042  -34.9474   23.5137 C   0  0  0  0  0  0
  -16.5342  -29.9090   23.6324 C   0  0  0  0  0  0
  -16.7255  -28.6502   23.0353 C   0  0  0  0  0  0
  -26.4473  -31.6586   25.0704 C   0  0  0  0  0  0
  -25.3751  -31.3681   26.1460 C   0  0  0  0  0  0
  -27.0287  -30.3032   24.6034 C   0  0  0  0  0  0
  -27.6053  -32.4297   25.7471 C   0  0  0  0  0  0
  -27.5599  -37.1775   24.8443 C   0  0  0  0  0  0
  -21.4120  -29.3024   22.3751 N   0  0  0  0  0  0
  -26.4280  -37.3801   23.9438 N   0  0  0  0  0  0
  -24.6614  -31.0832   22.0991 N   0  0  0  0  0  0
  -23.4168  -28.8211   23.3052 O   0  0  0  0  0  0
  -28.3991  -26.7244   20.0850 O   0  0  0  0  0  0
  -26.5599  -34.8924   22.4696 O   0  0  0  0  0  0
  -23.5326  -32.1439   23.7537 O   0  0  0  0  0  0
  -29.5313  -17.8765   21.4193 C   0  0  0  0  0  0
  -30.6358  -19.6690   20.1770 C   0  0  0  0  0  0
  -31.1436  -17.3448   19.6737 C   0  0  0  0  0  0
  -29.7201  -19.2580   21.1650 C   0  0  0  0  0  0
  -30.2501  -16.9006   20.6854 C   0  0  0  0  0  0
  -31.3428  -18.7146   19.4306 C   0  0  0  0  0  0
  -27.7221  -24.7248   21.3618 C   0  0  0  0  0  0
  -28.0902  -23.4389   21.5336 C   0  0  0  0  0  0
  -28.7818  -26.6941   22.5413 C   0  0  0  0  0  0
  -25.8542  -22.4784   20.8428 C   0  0  0  0  0  0
  -26.7638  -22.0410   23.1306 C   0  0  0  0  0  0
  -28.9520  -20.3245   21.9311 C   0  0  0  0  0  0
  -27.8250  -20.9564   21.0809 C   0  0  0  0  0  0
  -28.6824  -25.8989   21.2284 C   0  0  2  0  0  0
  -27.1484  -22.2360   21.6515 C   0  0  0  0  0  0
  -30.0056  -15.5123   20.9579 N   0  0  0  0  0  0
  -32.2109  -19.1134   18.4706 F   0  0  0  0  0  0
  -31.4593  -12.3518   19.1312 H   0  0  0  0  0  0
  -30.2890  -11.2745   19.8359 H   0  0  0  0  0  0
  -29.7268  -11.7587   17.4325 H   0  0  0  0  0  0
  -29.6700  -13.4712   17.7701 H   0  0  0  0  0  0
  -27.8201  -11.3054   18.8212 H   0  0  0  0  0  0
  -27.3647  -12.6319   17.7866 H   0  0  0  0  0  0
  -27.7003  -14.2530   19.5638 H   0  0  0  0  0  0
  -28.6667  -11.9795   21.3671 H   0  0  0  0  0  0
  -28.4746  -13.6358   21.8575 H   0  0  0  0  0  0
  -25.2764   -9.5686   22.4758 H   0  0  0  0  0  0
  -24.0003   -7.4639   22.7476 H   0  0  0  0  0  0
  -21.0843   -8.8772   19.8954 H   0  0  0  0  0  0
  -22.3696  -10.9674   19.6164 H   0  0  0  0  0  0
  -21.2006   -7.6147   23.9718 H   0  0  0  0  0  0
  -21.1481   -6.0521   25.9077 H   0  0  0  0  0  0
  -22.0597   -2.7610   23.2838 H   0  0  0  0  0  0
  -22.4117  -11.9891   22.4776 H   0  0  0  0  0  0
  -21.1124  -13.1270   22.2604 H   0  0  0  0  0  0
  -24.6684  -15.8463   20.5221 H   0  0  0  0  0  0
  -26.2874  -15.6274   20.0925 H   0  0  0  0  0  0
  -26.7105  -32.5569   23.1168 H   0  0  0  0  0  0
  -25.0051  -33.9780   25.0482 H   0  0  0  0  0  0
  -22.6855  -31.3077   21.4108 H   0  0  0  0  0  0
  -23.3772  -35.9621   23.3245 H   0  0  0  0  0  0
  -24.3612  -36.8976   22.2056 H   0  0  0  0  0  0
  -23.7206  -37.6481   23.6680 H   0  0  0  0  0  0
  -26.0282  -31.6136   20.5892 H   0  0  0  0  0  0
  -26.8108  -30.9037   21.9731 H   0  0  0  0  0  0
  -28.0980  -29.1496   21.1487 H   0  0  0  0  0  0
  -26.1005  -25.9763   19.0309 H   0  0  0  0  0  0
  -23.9879  -27.2811   19.0477 H   0  0  0  0  0  0
  -23.7040  -30.5903   19.4033 H   0  0  0  0  0  0
  -22.7314  -29.2308   19.8786 H   0  0  0  0  0  0
  -25.1268  -36.1955   25.0830 H   0  0  0  0  0  0
  -20.9938  -28.3212   24.1458 H   0  0  0  0  0  0
  -20.5666  -26.2260   23.3606 H   0  0  0  0  0  0
  -21.6632  -26.7443   22.1213 H   0  0  0  0  0  0
  -19.6909  -25.6294   21.1234 H   0  0  0  0  0  0
  -19.6681  -27.3198   20.6757 H   0  0  0  0  0  0
  -17.4182  -26.6677   21.4026 H   0  0  0  0  0  0
  -18.0306  -26.0046   22.9005 H   0  0  0  0  0  0
  -19.7927  -30.7236   24.2316 H   0  0  0  0  0  0
  -17.5008  -31.6272   24.5150 H   0  0  0  0  0  0
  -15.5345  -30.3004   23.7630 H   0  0  0  0  0  0
  -15.8653  -28.0831   22.7065 H   0  0  0  0  0  0
  -24.5908  -30.7055   25.7790 H   0  0  0  0  0  0
  -24.8965  -32.2837   26.4943 H   0  0  0  0  0  0
  -25.8101  -30.8814   27.0198 H   0  0  0  0  0  0
  -26.2811  -29.6815   24.1094 H   0  0  0  0  0  0
  -27.4082  -29.7239   25.4463 H   0  0  0  0  0  0
  -27.8640  -30.4366   23.9154 H   0  0  0  0  0  0
  -27.2668  -33.3572   26.2100 H   0  0  0  0  0  0
  -28.3833  -32.6893   25.0280 H   0  0  0  0  0  0
  -28.0751  -31.8388   26.5343 H   0  0  0  0  0  0
  -28.2525  -38.0162   24.7628 H   0  0  0  0  0  0
  -28.1180  -36.2699   24.6083 H   0  0  0  0  0  0
  -27.2349  -37.1207   25.8847 H   0  0  0  0  0  0
  -20.9271  -29.8744   21.6982 H   0  0  0  0  0  0
  -26.0165  -38.2864   24.1513 H   0  0  0  0  0  0
  -28.8299  -17.5685   22.1827 H   0  0  0  0  0  0
  -30.7908  -20.7199   19.9777 H   0  0  0  0  0  0
  -31.6926  -16.6589   19.0486 H   0  0  0  0  0  0
  -26.6745  -24.9803   21.3242 H   0  0  0  0  0  0
  -29.1470  -23.2198   21.5863 H   0  0  0  0  0  0
  -29.1336  -26.0569   23.3534 H   0  0  0  0  0  0
  -27.8181  -27.1013   22.8470 H   0  0  0  0  0  0
  -29.4856  -27.5212   22.4487 H   0  0  0  0  0  0
  -25.2578  -23.2963   21.2473 H   0  0  0  0  0  0
  -25.2097  -21.5982   20.8474 H   0  0  0  0  0  0
  -26.0738  -22.7115   19.8001 H   0  0  0  0  0  0
  -26.2082  -22.8996   23.5113 H   0  0  0  0  0  0
  -27.6408  -21.9268   23.7684 H   0  0  0  0  0  0
  -26.1362  -21.1594   23.2675 H   0  0  0  0  0  0
  -29.6626  -21.0860   22.2535 H   0  0  0  0  0  0
  -28.5418  -19.8885   22.8426 H   0  0  0  0  0  0
  -27.0739  -20.1824   20.9157 H   0  0  0  0  0  0
  -28.2128  -21.1948   20.0890 H   0  0  0  0  0  0
  -29.6718  -25.4799   21.0407 H   0  0  0  0  0  0
  -29.1231  -15.2907   21.3933 H   0  0  0  0  0  0
  1 25  1  0  0  0
  1 30  2  0  0  0
  1 86  1  0  0  0
  2  3  1  0  0  0
  2 25  1  0  0  0
  2 88  1  0  0  0
  2 89  1  0  0  0
  3  4  1  0  0  0
  3 90  1  0  0  0
  3 91  1  0  0  0
  4  5  1  0  0  0
  4 92  1  0  0  0
  4 93  1  0  0  0
  5  6  1  0  0  0
  5 26  1  0  0  0
  5 94  1  0  0  0
  6 25  1  0  0  0
  6 95  1  0  0  0
  6 96  1  0  0  0
  7  8  2  0  0  0
  7 26  1  0  0  0
  7 29  1  0  0  0
  8  9  1  0  0  0
  8 22  1  0  0  0
  9 10  1  0  0  0
  9 27  2  0  0  0
 10 11  2  0  0  0
 10 15  1  0  0  0
 11 12  1  0  0  0
 11 97  1  0  0  0
 12 13  2  0  0  0
 12 98  1  0  0  0
 13 14  1  0  0  0
 13 31  1  0  0  0
 14 15  2  0  0  0
 14 99  1  0  0  0
 15100  1  0  0  0
 16 17  2  0  0  0
 16 21  1  0  0  0
 16 31  1  0  0  0
 17 18  1  0  0  0
 17101  1  0  0  0
 18 19  2  0  0  0
 18102  1  0  0  0
 19 20  1  0  0  0
 19 24  1  0  0  0
 20 21  2  0  0  0
 20103  1  0  0  0
 21 23  1  0  0  0
 22 28  1  0  0  0
 22 32  2  0  0  0
 26 27  1  0  0  0
 28104  1  0  0  0
 28105  1  0  0  0
 29106  1  0  0  0
 29107  1  0  0  0
 33 34  1  0  0  0
 33 66  1  0  0  0
 33 70  2  0  0  0
 34 36  1  0  0  0
 34 59  1  0  0  0
 34108  1  0  0  0
 35 44  2  0  0  0
 35 45  1  0  0  0
 35 68  1  0  0  0
 36 56  1  0  0  0
 36109  1  0  0  0
 37 39  1  0  0  0
 37 47  1  0  0  0
 37 66  1  0  0  0
 37110  1  0  0  0
 38 43  2  0  0  0
 38 46  1  0  0  0
 38 47  1  0  0  0
 39 64  1  0  0  0
 39 67  2  0  0  0
 40 52  1  0  0  0
 40 53  2  0  0  0
 40 58  1  0  0  0
 41111  1  0  0  0
 41112  1  0  0  0
 41113  1  0  0  0
 41 48  1  0  0  0
 42 43  1  0  0  0
 42 66  1  0  0  0
 42114  1  0  0  0
 42115  1  0  0  0
 43 44  1  0  0  0
 44116  1  0  0  0
 45 46  2  0  0  0
 45117  1  0  0  0
 46118  1  0  0  0
 47119  1  0  0  0
 47120  1  0  0  0
 48 56  1  0  0  0
 48 65  1  0  0  0
 48121  1  0  0  0
 49 50  1  0  0  0
 49 53  1  0  0  0
 49 64  1  0  0  0
 49122  1  0  0  0
 50 51  1  0  0  0
 50123  1  0  0  0
 50124  1  0  0  0
 51 52  1  0  0  0
 51125  1  0  0  0
 51126  1  0  0  0
 52127  1  0  0  0
 52128  1  0  0  0
 53 54  1  0  0  0
 54 55  2  0  0  0
 54129  1  0  0  0
 55 57  1  0  0  0
 55130  1  0  0  0
 56 69  2  0  0  0
 57 58  2  0  0  0
 57131  1  0  0  0
 58132  1  0  0  0
 59 60  1  0  0  0
 59 61  1  0  0  0
 59 62  1  0  0  0
 60133  1  0  0  0
 60134  1  0  0  0
 60135  1  0  0  0
 61136  1  0  0  0
 61137  1  0  0  0
 61138  1  0  0  0
 62139  1  0  0  0
 62140  1  0  0  0
 62141  1  0  0  0
 63 65  1  0  0  0
 63142  1  0  0  0
 63143  1  0  0  0
 63144  1  0  0  0
 64145  1  0  0  0
 65146  1  0  0  0
 68 84  1  0  0  0
 71 74  2  0  0  0
 71 75  1  0  0  0
 71147  1  0  0  0
 72 74  1  0  0  0
 72 76  2  0  0  0
 72148  1  0  0  0
 73 75  2  0  0  0
 73 76  1  0  0  0
 73149  1  0  0  0
 74 82  1  0  0  0
 75 86  1  0  0  0
 76 87  1  0  0  0
 77 78  2  0  0  0
 77 84  1  0  0  0
 77150  1  0  0  0
 78 85  1  0  0  0
 78151  1  0  0  0
 79152  1  0  0  0
 79153  1  0  0  0
 79154  1  0  0  0
 79 84  1  0  0  0
 80155  1  0  0  0
 80156  1  0  0  0
 80157  1  0  0  0
 80 85  1  0  0  0
 81 85  1  0  0  0
 81158  1  0  0  0
 81159  1  0  0  0
 81160  1  0  0  0
 82 83  1  0  0  0
 82161  1  0  0  0
 82162  1  0  0  0
 83 85  1  0  0  0
 83163  1  0  0  0
 83164  1  0  0  0
 84165  1  0  0  0
 86166  1  0  0  0
M  ISO  4   1 100  68 101  84 101  86 100
M  END
> <chiral flag>
0

> <version>
0

> <s_m_source_file>
/data/baiqing/PycharmProjects/Reinvent-master-3.2/result/LINK_invent/BTK/process_docking_weight1_custom_product_contain_oxygen_bond_distance_aromatic_linkinvent_7_9_3/rearranged_h_0137.sdf

> <i_m_source_file_index>
23

> <r_mmod_Potential_Energy-OPLS-2005>
-31.4944801330566

> <r_mmod_Stretch_Energy-OPLS-2005>
36.4360885620117

> <r_mmod_Bend_Energy-OPLS-2005>
99.6308898925781

> <r_mmod_Torsional_Energy-OPLS-2005>
229.72575378418

> <r_mmod_Improper_Torsional_Energy-OPLS-2005>
3.76065516471863

> <r_mmod_Van_der_Waal_Energy-OPLS-2005>
158.039810180664

> <r_mmod_Electrostatic_Energy-OPLS-2005>
-385.482391357422

> <r_mmod_Solvation_Energy-OPLS-2005>
-186.611434936523

> <b_mmod_Minimization_Converged-OPLS-2005>
0

> <r_mmod_RMS_Derivative-OPLS-2005>
0.967579901218414

$$$$
23
                    3D
 Structure written by MMmdl.
162170  0  0  1  0            999 V2000
  -30.6201  -14.7065   20.4916 C   0  0  0  0  0  0
  -30.4482  -12.4368   19.4644 C   0  0  0  0  0  0
  -29.5107  -12.4808   18.2366 C   0  0  0  0  0  0
  -28.0424  -12.2977   18.6623 C   0  0  0  0  0  0
  -27.6476  -13.2131   19.8486 C   0  0  2  0  0  0
  -28.6932  -13.1430   20.9837 C   0  0  0  0  0  0
  -25.2568  -13.8144   20.5690 C   0  0  0  0  0  0
  -24.1814  -13.0444   20.9167 C   0  0  0  0  0  0
  -24.6344  -11.6911   20.8712 C   0  0  0  0  0  0
  -23.9013  -10.4300   21.0415 C   0  0  0  0  0  0
  -24.3575   -9.4231   21.9192 C   0  0  0  0  0  0
  -23.6253   -8.2274   22.0763 C   0  0  0  0  0  0
  -22.4229   -8.0289   21.3561 C   0  0  0  0  0  0
  -21.9850   -9.0263   20.4670 C   0  0  0  0  0  0
  -22.7181  -10.2140   20.3077 C   0  0  0  0  0  0
  -21.6864   -6.0724   22.5282 C   0  0  0  0  0  0
  -21.4042   -6.5628   23.8212 C   0  0  0  0  0  0
  -21.3637   -5.6785   24.9166 C   0  0  0  0  0  0
  -21.6035   -4.3049   24.7224 C   0  0  0  0  0  0
  -21.8820   -3.8134   23.4348 C   0  0  0  0  0  0
  -21.9194   -4.6962   22.3407 C   0  0  0  0  0  0
  -22.7843  -13.5291   21.1799 C   0  0  0  0  0  0
  -22.1681   -4.2159   21.0984 F   0  0  0  0  0  0
  -21.5600   -3.4521   25.7728 F   0  0  0  0  0  0
  -29.9954  -13.4872   20.3960 N   0  0  0  0  0  0
  -26.2954  -12.9319   20.3237 N   0  0  0  0  0  0
  -25.9257  -11.6490   20.5700 N   0  0  0  0  0  0
  -22.0424  -12.8361   22.0360 N   0  0  0  0  0  0
  -25.4282  -15.1859   20.4213 N   0  0  0  0  0  0
  -31.8163  -14.8299   20.2181 O   0  0  0  0  0  0
  -21.6639   -6.8855   21.4237 O   0  0  0  0  0  0
  -22.3581  -14.5594   20.6613 O   0  0  0  0  0  0
  -24.6268  -31.8558   23.2007 C   0  0  0  0  0  0
  -25.9064  -32.4786   23.8377 C   0  0  1  0  0  0
  -27.2292  -27.2897   20.1270 C   0  0  0  0  0  0
  -25.5830  -33.8595   24.2254 N   0  0  0  0  0  0
  -23.4269  -30.4777   21.5433 C   0  0  2  0  0  0
  -24.8778  -28.9286   20.1187 C   0  0  0  0  0  0
  -22.7500  -29.4573   22.4922 C   0  0  0  0  0  0
  -18.0265  -28.1416   22.8470 C   0  0  0  0  0  0
  -24.1467  -36.7313   23.2635 C   0  0  0  0  0  0
  -25.9717  -30.7826   21.3783 C   0  0  0  0  0  0
  -26.0490  -29.4071   20.7191 C   0  0  0  0  0  0
  -27.2307  -28.6012   20.7056 C   0  0  0  0  0  0
  -26.0341  -26.8741   19.4977 C   0  0  0  0  0  0
  -24.8737  -27.6720   19.4973 C   0  0  0  0  0  0
  -23.6484  -29.8134   20.1602 C   0  0  0  0  0  0
  -25.4083  -36.3093   24.0324 C   0  0  1  0  0  0
  -20.5873  -28.3694   23.1275 C   0  0  2  0  0  0
  -20.6750  -26.9411   22.5409 C   0  0  0  0  0  0
  -19.5737  -26.6389   21.5205 C   0  0  0  0  0  0
  -18.1913  -26.7947   22.1625 C   0  0  0  0  0  0
  -19.1524  -28.8872   23.2870 C   0  0  0  0  0  0
  -18.9461  -30.1465   23.8907 C   0  0  0  0  0  0
  -17.6474  -30.6622   24.0553 C   0  0  0  0  0  0
  -25.9022  -34.9464   23.5109 C   0  0  0  0  0  0
  -16.5357  -29.9130   23.6331 C   0  0  0  0  0  0
  -16.7253  -28.6542   23.0354 C   0  0  0  0  0  0
  -26.4406  -31.6650   25.0803 C   0  0  0  0  0  0
  -25.3590  -31.3909   26.1522 C   0  0  0  0  0  0
  -27.0201  -30.3021   24.6366 C   0  0  0  0  0  0
  -27.5968  -32.4396   25.7559 C   0  0  0  0  0  0
  -27.5573  -37.1792   24.8433 C   0  0  0  0  0  0
  -21.4197  -29.3046   22.3676 N   0  0  0  0  0  0
  -26.4251  -37.3789   23.9433 N   0  0  0  0  0  0
  -24.6934  -31.0551   22.0977 N   0  0  0  0  0  0
  -23.4201  -28.8088   23.2988 O   0  0  0  0  0  0
  -28.3394  -26.4222   20.1389 O   0  0  0  0  0  0
  -26.5650  -34.8928   22.4716 O   0  0  0  0  0  0
  -23.5407  -32.1352   23.7313 O   0  0  0  0  0  0
  -30.1788  -19.7714   22.3385 C   0  0  0  0  0  0
  -30.3793  -18.5974   23.0973 C   0  0  0  0  0  0
  -29.8077  -18.3833   20.3812 C   0  0  0  0  0  0
  -29.8736  -19.7128   20.9633 C   0  0  0  0  0  0
  -30.2907  -17.3121   22.5236 C   0  0  0  0  0  0
  -30.0249  -17.1612   21.1386 C   0  0  0  0  0  0
  -30.4374  -16.1041   23.4458 C   0  0  0  0  0  0
  -29.0364  -23.7316   18.5090 C   0  0  0  0  0  0
  -30.5777  -24.3013   20.3999 C   0  0  0  0  0  0
  -29.7769  -21.0742   20.1470 C   0  0  0  0  0  0
  -28.9054  -22.3434   20.6526 C   0  0  0  0  0  0
  -28.1406  -24.9915   20.5404 C   0  0  0  0  0  0
  -29.1530  -23.8324   20.0417 C   0  0  0  0  0  0
  -29.7948  -15.8084   20.6092 N   0  0  0  0  0  0
  -31.4869  -12.5797   19.1580 H   0  0  0  0  0  0
  -30.4124  -11.4635   19.9548 H   0  0  0  0  0  0
  -29.7933  -11.7042   17.5235 H   0  0  0  0  0  0
  -29.6272  -13.4304   17.7118 H   0  0  0  0  0  0
  -27.9105  -11.2518   18.9470 H   0  0  0  0  0  0
  -27.3797  -12.4704   17.8148 H   0  0  0  0  0  0
  -27.6423  -14.2279   19.4523 H   0  0  0  0  0  0
  -28.7209  -12.1492   21.4330 H   0  0  0  0  0  0
  -28.4297  -13.8284   21.7912 H   0  0  0  0  0  0
  -25.2717   -9.5742   22.4758 H   0  0  0  0  0  0
  -23.9974   -7.4680   22.7492 H   0  0  0  0  0  0
  -21.0774   -8.8773   19.8969 H   0  0  0  0  0  0
  -22.3622  -10.9678   19.6193 H   0  0  0  0  0  0
  -21.2063   -7.6151   23.9727 H   0  0  0  0  0  0
  -21.1439   -6.0508   25.9070 H   0  0  0  0  0  0
  -22.0601   -2.7608   23.2850 H   0  0  0  0  0  0
  -22.4020  -12.0089   22.4886 H   0  0  0  0  0  0
  -21.1054  -13.1476   22.2502 H   0  0  0  0  0  0
  -24.6570  -15.8303   20.5488 H   0  0  0  0  0  0
  -26.2740  -15.6366   20.0947 H   0  0  0  0  0  0
  -26.7166  -32.5449   23.1161 H   0  0  0  0  0  0
  -24.9796  -33.9757   25.0268 H   0  0  0  0  0  0
  -22.7209  -31.2976   21.3974 H   0  0  0  0  0  0
  -23.3728  -35.9640   23.3252 H   0  0  0  0  0  0
  -24.3547  -36.8997   22.2054 H   0  0  0  0  0  0
  -23.7239  -37.6505   23.6695 H   0  0  0  0  0  0
  -26.1068  -31.5484   20.6130 H   0  0  0  0  0  0
  -26.8473  -30.8310   22.0149 H   0  0  0  0  0  0
  -28.1378  -28.9661   21.1698 H   0  0  0  0  0  0
  -25.9824  -25.9188   18.9984 H   0  0  0  0  0  0
  -23.9749  -27.3072   19.0201 H   0  0  0  0  0  0
  -23.7795  -30.5905   19.4057 H   0  0  0  0  0  0
  -22.7697  -29.2462   19.8489 H   0  0  0  0  0  0
  -25.1261  -36.1911   25.0810 H   0  0  0  0  0  0
  -20.9948  -28.3269   24.1397 H   0  0  0  0  0  0
  -20.5605  -26.2308   23.3610 H   0  0  0  0  0  0
  -21.6623  -26.7408   22.1235 H   0  0  0  0  0  0
  -19.6873  -25.6280   21.1276 H   0  0  0  0  0  0
  -19.6692  -27.3162   20.6706 H   0  0  0  0  0  0
  -17.4155  -26.6645   21.4056 H   0  0  0  0  0  0
  -18.0337  -26.0120   22.9060 H   0  0  0  0  0  0
  -19.7931  -30.7254   24.2318 H   0  0  0  0  0  0
  -17.5031  -31.6303   24.5150 H   0  0  0  0  0  0
  -15.5359  -30.3057   23.7655 H   0  0  0  0  0  0
  -15.8637  -28.0873   22.7108 H   0  0  0  0  0  0
  -24.5715  -30.7301   25.7876 H   0  0  0  0  0  0
  -24.8825  -32.3134   26.4852 H   0  0  0  0  0  0
  -25.7829  -30.9148   27.0370 H   0  0  0  0  0  0
  -26.2820  -29.6879   24.1194 H   0  0  0  0  0  0
  -27.3559  -29.7220   25.4971 H   0  0  0  0  0  0
  -27.8835  -30.4217   23.9822 H   0  0  0  0  0  0
  -27.2547  -33.3666   26.2178 H   0  0  0  0  0  0
  -28.3729  -32.7034   25.0361 H   0  0  0  0  0  0
  -28.0683  -31.8518   26.5447 H   0  0  0  0  0  0
  -28.2544  -38.0138   24.7526 H   0  0  0  0  0  0
  -28.1124  -36.2672   24.6157 H   0  0  0  0  0  0
  -27.2321  -37.1331   25.8846 H   0  0  0  0  0  0
  -20.9365  -29.8836   21.6954 H   0  0  0  0  0  0
  -26.0121  -38.2839   24.1517 H   0  0  0  0  0  0
  -30.2826  -20.7281   22.8304 H   0  0  0  0  0  0
  -30.5902  -18.6950   24.1530 H   0  0  0  0  0  0
  -29.5882  -18.2982   19.3283 H   0  0  0  0  0  0
  -30.5048  -16.4009   24.4940 H   0  0  0  0  0  0
  -31.3406  -15.5392   23.2135 H   0  0  0  0  0  0
  -29.5807  -15.4343   23.3558 H   0  0  0  0  0  0
  -29.8634  -23.1594   18.0861 H   0  0  0  0  0  0
  -29.0480  -24.7176   18.0405 H   0  0  0  0  0  0
  -28.1107  -23.2369   18.2122 H   0  0  0  0  0  0
  -31.3404  -23.6153   20.0359 H   0  0  0  0  0  0
  -30.7105  -24.4028   21.4780 H   0  0  0  0  0  0
  -30.7951  -25.2748   19.9547 H   0  0  0  0  0  0
  -29.4778  -20.8338   19.1265 H   0  0  0  0  0  0
  -30.8115  -21.4077   20.0656 H   0  0  0  0  0  0
  -29.0005  -22.4158   21.7340 H   0  0  0  0  0  0
  -27.8591  -22.0857   20.4908 H   0  0  0  0  0  0
  -28.1628  -25.0012   21.6316 H   0  0  0  0  0  0
  -27.1321  -24.6590   20.3015 H   0  0  0  0  0  0
  -28.8197  -15.5602   20.5548 H   0  0  0  0  0  0
  1 25  1  0  0  0
  1 30  2  0  0  0
  1 84  1  0  0  0
  2  3  1  0  0  0
  2 25  1  0  0  0
  2 85  1  0  0  0
  2 86  1  0  0  0
  3  4  1  0  0  0
  3 87  1  0  0  0
  3 88  1  0  0  0
  4  5  1  0  0  0
  4 89  1  0  0  0
  4 90  1  0  0  0
  5  6  1  0  0  0
  5 26  1  0  0  0
  5 91  1  0  0  0
  6 25  1  0  0  0
  6 92  1  0  0  0
  6 93  1  0  0  0
  7  8  2  0  0  0
  7 26  1  0  0  0
  7 29  1  0  0  0
  8  9  1  0  0  0
  8 22  1  0  0  0
  9 10  1  0  0  0
  9 27  2  0  0  0
 10 11  2  0  0  0
 10 15  1  0  0  0
 11 12  1  0  0  0
 11 94  1  0  0  0
 12 13  2  0  0  0
 12 95  1  0  0  0
 13 14  1  0  0  0
 13 31  1  0  0  0
 14 15  2  0  0  0
 14 96  1  0  0  0
 15 97  1  0  0  0
 16 17  2  0  0  0
 16 21  1  0  0  0
 16 31  1  0  0  0
 17 18  1  0  0  0
 17 98  1  0  0  0
 18 19  2  0  0  0
 18 99  1  0  0  0
 19 20  1  0  0  0
 19 24  1  0  0  0
 20 21  2  0  0  0
 20100  1  0  0  0
 21 23  1  0  0  0
 22 28  1  0  0  0
 22 32  2  0  0  0
 26 27  1  0  0  0
 28101  1  0  0  0
 28102  1  0  0  0
 29103  1  0  0  0
 29104  1  0  0  0
 33 34  1  0  0  0
 33 66  1  0  0  0
 33 70  2  0  0  0
 34 36  1  0  0  0
 34 59  1  0  0  0
 34105  1  0  0  0
 35 44  2  0  0  0
 35 45  1  0  0  0
 35 68  1  0  0  0
 36 56  1  0  0  0
 36106  1  0  0  0
 37 39  1  0  0  0
 37 47  1  0  0  0
 37 66  1  0  0  0
 37107  1  0  0  0
 38 43  2  0  0  0
 38 46  1  0  0  0
 38 47  1  0  0  0
 39 64  1  0  0  0
 39 67  2  0  0  0
 40 52  1  0  0  0
 40 53  2  0  0  0
 40 58  1  0  0  0
 41108  1  0  0  0
 41109  1  0  0  0
 41110  1  0  0  0
 41 48  1  0  0  0
 42 43  1  0  0  0
 42 66  1  0  0  0
 42111  1  0  0  0
 42112  1  0  0  0
 43 44  1  0  0  0
 44113  1  0  0  0
 45 46  2  0  0  0
 45114  1  0  0  0
 46115  1  0  0  0
 47116  1  0  0  0
 47117  1  0  0  0
 48 56  1  0  0  0
 48 65  1  0  0  0
 48118  1  0  0  0
 49 50  1  0  0  0
 49 53  1  0  0  0
 49 64  1  0  0  0
 49119  1  0  0  0
 50 51  1  0  0  0
 50120  1  0  0  0
 50121  1  0  0  0
 51 52  1  0  0  0
 51122  1  0  0  0
 51123  1  0  0  0
 52124  1  0  0  0
 52125  1  0  0  0
 53 54  1  0  0  0
 54 55  2  0  0  0
 54126  1  0  0  0
 55 57  1  0  0  0
 55127  1  0  0  0
 56 69  2  0  0  0
 57 58  2  0  0  0
 57128  1  0  0  0
 58129  1  0  0  0
 59 60  1  0  0  0
 59 61  1  0  0  0
 59 62  1  0  0  0
 60130  1  0  0  0
 60131  1  0  0  0
 60132  1  0  0  0
 61133  1  0  0  0
 61134  1  0  0  0
 61135  1  0  0  0
 62136  1  0  0  0
 62137  1  0  0  0
 62138  1  0  0  0
 63 65  1  0  0  0
 63139  1  0  0  0
 63140  1  0  0  0
 63141  1  0  0  0
 64142  1  0  0  0
 65143  1  0  0  0
 68 82  1  0  0  0
 71 72  2  0  0  0
 71 74  1  0  0  0
 71144  1  0  0  0
 72 75  1  0  0  0
 72145  1  0  0  0
 73 74  2  0  0  0
 73 76  1  0  0  0
 73146  1  0  0  0
 74 80  1  0  0  0
 75 76  2  0  0  0
 75 77  1  0  0  0
 76 84  1  0  0  0
 77147  1  0  0  0
 77148  1  0  0  0
 77149  1  0  0  0
 78150  1  0  0  0
 78151  1  0  0  0
 78152  1  0  0  0
 78 83  1  0  0  0
 79 83  1  0  0  0
 79153  1  0  0  0
 79154  1  0  0  0
 79155  1  0  0  0
 80 81  1  0  0  0
 80156  1  0  0  0
 80157  1  0  0  0
 81 83  1  0  0  0
 81158  1  0  0  0
 81159  1  0  0  0
 82 83  1  0  0  0
 82160  1  0  0  0
 82161  1  0  0  0
 84162  1  0  0  0
M  ISO  4   1 100  68 101  82 101  84 100
M  END
> <chiral flag>
0

> <version>
0

> <s_m_source_file>
/data/baiqing/PycharmProjects/Reinvent-master-3.2/result/LINK_invent/BTK/process_docking_weight1_custom_product_contain_oxygen_bond_distance_aromatic_linkinvent_7_9_3/rearranged_h_0137.sdf

> <i_m_source_file_index>
24

> <r_mmod_Potential_Energy-OPLS-2005>
164.450424194336

> <r_mmod_Stretch_Energy-OPLS-2005>
112.34693145752

> <r_mmod_Bend_Energy-OPLS-2005>
152.161178588867

> <r_mmod_Torsional_Energy-OPLS-2005>
267.224243164062

> <r_mmod_Improper_Torsional_Energy-OPLS-2005>
9.07799816131592

> <r_mmod_Van_der_Waal_Energy-OPLS-2005>
134.015930175781

> <r_mmod_Electrostatic_Energy-OPLS-2005>
-386.710815429688

> <r_mmod_Solvation_Energy-OPLS-2005>
-195.256378173828

> <b_mmod_Minimization_Converged-OPLS-2005>
0

> <r_mmod_RMS_Derivative-OPLS-2005>
4.81595277786255

$$$$
24
                    3D
 Structure written by MMmdl.
165173  0  0  1  0            999 V2000
  -30.5769  -14.5989   20.5540 C   0  0  0  0  0  0
  -30.4612  -12.3742   19.4326 C   0  0  0  0  0  0
  -29.5200  -12.5238   18.2118 C   0  0  0  0  0  0
  -28.0391  -12.3323   18.6150 C   0  0  0  0  0  0
  -27.6635  -13.1641   19.8662 C   0  0  2  0  0  0
  -28.7089  -12.9325   20.9869 C   0  0  0  0  0  0
  -25.2664  -13.7996   20.5639 C   0  0  0  0  0  0
  -24.1872  -13.0346   20.9174 C   0  0  0  0  0  0
  -24.6376  -11.6794   20.8743 C   0  0  0  0  0  0
  -23.9001  -10.4220   21.0440 C   0  0  0  0  0  0
  -24.3543   -9.4129   21.9212 C   0  0  0  0  0  0
  -23.6219   -8.2176   22.0760 C   0  0  0  0  0  0
  -22.4212   -8.0237   21.3533 C   0  0  0  0  0  0
  -21.9848   -9.0219   20.4638 C   0  0  0  0  0  0
  -22.7181  -10.2100   20.3067 C   0  0  0  0  0  0
  -21.6814   -6.0683   22.5273 C   0  0  0  0  0  0
  -21.3975   -6.5591   23.8202 C   0  0  0  0  0  0
  -21.3674   -5.6769   24.9179 C   0  0  0  0  0  0
  -21.6049   -4.3031   24.7241 C   0  0  0  0  0  0
  -21.8811   -3.8104   23.4368 C   0  0  0  0  0  0
  -21.9169   -4.6910   22.3410 C   0  0  0  0  0  0
  -22.7913  -13.5221   21.1859 C   0  0  0  0  0  0
  -22.1647   -4.2083   21.0993 F   0  0  0  0  0  0
  -21.5661   -3.4531   25.7766 F   0  0  0  0  0  0
  -30.0232  -13.3426   20.4560 N   0  0  0  0  0  0
  -26.3037  -12.9074   20.3261 N   0  0  0  0  0  0
  -25.9263  -11.6281   20.5680 N   0  0  0  0  0  0
  -22.0500  -12.8260   22.0414 N   0  0  0  0  0  0
  -25.4436  -15.1712   20.4047 N   0  0  0  0  0  0
  -31.7271  -14.8106   20.1505 O   0  0  0  0  0  0
  -21.6572   -6.8835   21.4236 O   0  0  0  0  0  0
  -22.3642  -14.5547   20.6714 O   0  0  0  0  0  0
  -24.6212  -31.8625   23.2005 C   0  0  0  0  0  0
  -25.9092  -32.4775   23.8328 C   0  0  1  0  0  0
  -27.2390  -27.3772   20.1307 C   0  0  0  0  0  0
  -25.5921  -33.8570   24.2297 N   0  0  0  0  0  0
  -23.4092  -30.4828   21.5436 C   0  0  2  0  0  0
  -24.8569  -28.9307   20.1190 C   0  0  0  0  0  0
  -22.7416  -29.4659   22.4976 C   0  0  0  0  0  0
  -18.0274  -28.1391   22.8515 C   0  0  0  0  0  0
  -24.1476  -36.7267   23.2635 C   0  0  0  0  0  0
  -25.9391  -30.8163   21.3518 C   0  0  0  0  0  0
  -26.0183  -29.4407   20.7137 C   0  0  0  0  0  0
  -27.2097  -28.6730   20.7088 C   0  0  0  0  0  0
  -26.0598  -26.8950   19.5200 C   0  0  0  0  0  0
  -24.8758  -27.6605   19.5150 C   0  0  0  0  0  0
  -23.6176  -29.8010   20.1635 C   0  0  0  0  0  0
  -25.4092  -36.3066   24.0340 C   0  0  1  0  0  0
  -20.5866  -28.3680   23.1311 C   0  0  2  0  0  0
  -20.6738  -26.9416   22.5414 C   0  0  0  0  0  0
  -19.5716  -26.6410   21.5212 C   0  0  0  0  0  0
  -18.1901  -26.7955   22.1640 C   0  0  0  0  0  0
  -19.1524  -28.8857   23.2916 C   0  0  0  0  0  0
  -18.9460  -30.1454   23.8946 C   0  0  0  0  0  0
  -17.6459  -30.6597   24.0580 C   0  0  0  0  0  0
  -25.9041  -34.9442   23.5114 C   0  0  0  0  0  0
  -16.5354  -29.9111   23.6322 C   0  0  0  0  0  0
  -16.7265  -28.6518   23.0378 C   0  0  0  0  0  0
  -26.4516  -31.6541   25.0655 C   0  0  0  0  0  0
  -25.3797  -31.3637   26.1420 C   0  0  0  0  0  0
  -27.0305  -30.2978   24.5988 C   0  0  0  0  0  0
  -27.6103  -32.4219   25.7436 C   0  0  0  0  0  0
  -27.5557  -37.1777   24.8487 C   0  0  0  0  0  0
  -21.4147  -29.3038   22.3710 N   0  0  0  0  0  0
  -26.4267  -37.3759   23.9432 N   0  0  0  0  0  0
  -24.6768  -31.0686   22.0910 N   0  0  0  0  0  0
  -23.4164  -28.8225   23.3054 O   0  0  0  0  0  0
  -28.4103  -26.6303   20.1253 O   0  0  0  0  0  0
  -26.5594  -34.8914   22.4673 O   0  0  0  0  0  0
  -23.5391  -32.1416   23.7356 O   0  0  0  0  0  0
  -32.1718  -19.6179   22.2055 C   0  0  0  0  0  0
  -31.5311  -20.7927   21.7677 C   0  0  0  0  0  0
  -29.8228  -19.4336   20.7384 C   0  0  0  0  0  0
  -30.4160  -18.2263   21.2341 C   0  0  0  0  0  0
  -31.6251  -18.3356   21.9695 C   0  0  0  0  0  0
  -30.3360  -20.7356   21.0111 C   0  0  0  0  0  0
  -29.5636  -17.0000   21.1374 C   0  0  0  0  0  0
  -29.5888  -15.6459   20.9388 C   0  0  0  0  0  0
  -31.4833  -17.5922   25.0085 C   0  0  0  0  0  0
  -29.6677  -24.1727   18.6156 C   0  0  0  0  0  0
  -32.3280  -17.1431   22.6095 C   0  0  0  0  0  0
  -31.6222  -16.5843   23.8580 C   0  0  0  0  0  0
  -30.1147  -23.1937   20.9452 C   0  0  0  0  0  0
  -28.3637  -25.2377   20.5595 C   0  0  0  0  0  0
  -29.6498  -24.4547   20.1214 C   0  0  2  0  0  0
  -29.6476  -21.8730   20.5544 O   0  0  0  0  0  0
  -31.4990  -12.5333   19.1357 H   0  0  0  0  0  0
  -30.4213  -11.3558   19.8243 H   0  0  0  0  0  0
  -29.7936  -11.8117   17.4309 H   0  0  0  0  0  0
  -29.6522  -13.5166   17.7781 H   0  0  0  0  0  0
  -27.8765  -11.2732   18.8130 H   0  0  0  0  0  0
  -27.3875  -12.5923   17.7800 H   0  0  0  0  0  0
  -27.6916  -14.1989   19.5330 H   0  0  0  0  0  0
  -28.7290  -11.8762   21.2570 H   0  0  0  0  0  0
  -28.4502  -13.4381   21.9193 H   0  0  0  0  0  0
  -25.2690   -9.5571   22.4809 H   0  0  0  0  0  0
  -23.9887   -7.4538   22.7487 H   0  0  0  0  0  0
  -21.0771   -8.8750   19.8952 H   0  0  0  0  0  0
  -22.3646  -10.9650   19.6182 H   0  0  0  0  0  0
  -21.1929   -7.6093   23.9676 H   0  0  0  0  0  0
  -21.1535   -6.0516   25.9089 H   0  0  0  0  0  0
  -22.0582   -2.7553   23.2894 H   0  0  0  0  0  0
  -22.4005  -11.9877   22.4814 H   0  0  0  0  0  0
  -21.1129  -13.1375   22.2592 H   0  0  0  0  0  0
  -24.6772  -15.8256   20.5077 H   0  0  0  0  0  0
  -26.2897  -15.6040   20.0547 H   0  0  0  0  0  0
  -26.7148  -32.5500   23.1075 H   0  0  0  0  0  0
  -25.0093  -33.9709   25.0461 H   0  0  0  0  0  0
  -22.7015  -31.3013   21.3951 H   0  0  0  0  0  0
  -23.3722  -35.9615   23.3318 H   0  0  0  0  0  0
  -24.3579  -36.8860   22.2042 H   0  0  0  0  0  0
  -23.7230  -37.6488   23.6639 H   0  0  0  0  0  0
  -26.0395  -31.5656   20.5663 H   0  0  0  0  0  0
  -26.8333  -30.8884   21.9595 H   0  0  0  0  0  0
  -28.1087  -29.0601   21.1676 H   0  0  0  0  0  0
  -26.0491  -25.9272   19.0382 H   0  0  0  0  0  0
  -23.9835  -27.2658   19.0451 H   0  0  0  0  0  0
  -23.7154  -30.5680   19.3942 H   0  0  0  0  0  0
  -22.7421  -29.2122   19.8793 H   0  0  0  0  0  0
  -25.1253  -36.1910   25.0823 H   0  0  0  0  0  0
  -20.9981  -28.3261   24.1427 H   0  0  0  0  0  0
  -20.5605  -26.2316   23.3608 H   0  0  0  0  0  0
  -21.6609  -26.7425   22.1233 H   0  0  0  0  0  0
  -19.6856  -25.6336   21.1202 H   0  0  0  0  0  0
  -19.6631  -27.3255   20.6764 H   0  0  0  0  0  0
  -17.4153  -26.6718   21.4044 H   0  0  0  0  0  0
  -18.0310  -26.0090   22.9028 H   0  0  0  0  0  0
  -19.7936  -30.7245   24.2346 H   0  0  0  0  0  0
  -17.5024  -31.6299   24.5158 H   0  0  0  0  0  0
  -15.5355  -30.3028   23.7616 H   0  0  0  0  0  0
  -15.8670  -28.0823   22.7104 H   0  0  0  0  0  0
  -24.6020  -30.6901   25.7804 H   0  0  0  0  0  0
  -24.8925  -32.2769   26.4840 H   0  0  0  0  0  0
  -25.8203  -30.8880   27.0187 H   0  0  0  0  0  0
  -26.2839  -29.6779   24.1018 H   0  0  0  0  0  0
  -27.4055  -29.7162   25.4420 H   0  0  0  0  0  0
  -27.8687  -30.4283   23.9136 H   0  0  0  0  0  0
  -27.2767  -33.3517   26.2048 H   0  0  0  0  0  0
  -28.3943  -32.6753   25.0287 H   0  0  0  0  0  0
  -28.0746  -31.8292   26.5331 H   0  0  0  0  0  0
  -28.2601  -38.0049   24.7515 H   0  0  0  0  0  0
  -28.1013  -36.2579   24.6326 H   0  0  0  0  0  0
  -27.2298  -37.1475   25.8901 H   0  0  0  0  0  0
  -20.9311  -29.8755   21.6924 H   0  0  0  0  0  0
  -26.0139  -38.2821   24.1460 H   0  0  0  0  0  0
  -33.0814  -19.7138   22.7817 H   0  0  0  0  0  0
  -31.9906  -21.7281   22.0461 H   0  0  0  0  0  0
  -28.8950  -19.3650   20.1874 H   0  0  0  0  0  0
  -28.5503  -17.3005   21.3656 H   0  0  0  0  0  0
  -28.5764  -15.3163   21.0688 H   0  0  0  0  0  0
  -30.9379  -17.1378   25.8373 H   0  0  0  0  0  0
  -30.9362  -18.4845   24.7019 H   0  0  0  0  0  0
  -32.4565  -17.9082   25.3889 H   0  0  0  0  0  0
  -30.6185  -23.7347   18.3116 H   0  0  0  0  0  0
  -29.5277  -25.0897   18.0450 H   0  0  0  0  0  0
  -28.8760  -23.4776   18.3363 H   0  0  0  0  0  0
  -33.3418  -17.4348   22.8844 H   0  0  0  0  0  0
  -32.4653  -16.3651   21.8679 H   0  0  0  0  0  0
  -30.6342  -16.2098   23.5939 H   0  0  0  0  0  0
  -32.1830  -15.7192   24.2147 H   0  0  0  0  0  0
  -29.9298  -23.3493   22.0092 H   0  0  0  0  0  0
  -31.1966  -23.2056   20.8199 H   0  0  0  0  0  0
  -28.2944  -25.2423   21.6485 H   0  0  0  0  0  0
  -27.4797  -24.7071   20.2072 H   0  0  0  0  0  0
  -30.4510  -25.1750   20.2983 H   0  0  0  0  0  0
  1 25  1  0  0  0
  1 30  2  0  0  0
  1 78  1  0  0  0
  2  3  1  0  0  0
  2 25  1  0  0  0
  2 87  1  0  0  0
  2 88  1  0  0  0
  3  4  1  0  0  0
  3 89  1  0  0  0
  3 90  1  0  0  0
  4  5  1  0  0  0
  4 91  1  0  0  0
  4 92  1  0  0  0
  5  6  1  0  0  0
  5 26  1  0  0  0
  5 93  1  0  0  0
  6 25  1  0  0  0
  6 94  1  0  0  0
  6 95  1  0  0  0
  7  8  2  0  0  0
  7 26  1  0  0  0
  7 29  1  0  0  0
  8  9  1  0  0  0
  8 22  1  0  0  0
  9 10  1  0  0  0
  9 27  2  0  0  0
 10 11  2  0  0  0
 10 15  1  0  0  0
 11 12  1  0  0  0
 11 96  1  0  0  0
 12 13  2  0  0  0
 12 97  1  0  0  0
 13 14  1  0  0  0
 13 31  1  0  0  0
 14 15  2  0  0  0
 14 98  1  0  0  0
 15 99  1  0  0  0
 16 17  2  0  0  0
 16 21  1  0  0  0
 16 31  1  0  0  0
 17 18  1  0  0  0
 17100  1  0  0  0
 18 19  2  0  0  0
 18101  1  0  0  0
 19 20  1  0  0  0
 19 24  1  0  0  0
 20 21  2  0  0  0
 20102  1  0  0  0
 21 23  1  0  0  0
 22 28  1  0  0  0
 22 32  2  0  0  0
 26 27  1  0  0  0
 28103  1  0  0  0
 28104  1  0  0  0
 29105  1  0  0  0
 29106  1  0  0  0
 33 34  1  0  0  0
 33 66  1  0  0  0
 33 70  2  0  0  0
 34 36  1  0  0  0
 34 59  1  0  0  0
 34107  1  0  0  0
 35 44  2  0  0  0
 35 45  1  0  0  0
 35 68  1  0  0  0
 36 56  1  0  0  0
 36108  1  0  0  0
 37 39  1  0  0  0
 37 47  1  0  0  0
 37 66  1  0  0  0
 37109  1  0  0  0
 38 43  2  0  0  0
 38 46  1  0  0  0
 38 47  1  0  0  0
 39 64  1  0  0  0
 39 67  2  0  0  0
 40 52  1  0  0  0
 40 53  2  0  0  0
 40 58  1  0  0  0
 41110  1  0  0  0
 41111  1  0  0  0
 41112  1  0  0  0
 41 48  1  0  0  0
 42 43  1  0  0  0
 42 66  1  0  0  0
 42113  1  0  0  0
 42114  1  0  0  0
 43 44  1  0  0  0
 44115  1  0  0  0
 45 46  2  0  0  0
 45116  1  0  0  0
 46117  1  0  0  0
 47118  1  0  0  0
 47119  1  0  0  0
 48 56  1  0  0  0
 48 65  1  0  0  0
 48120  1  0  0  0
 49 50  1  0  0  0
 49 53  1  0  0  0
 49 64  1  0  0  0
 49121  1  0  0  0
 50 51  1  0  0  0
 50122  1  0  0  0
 50123  1  0  0  0
 51 52  1  0  0  0
 51124  1  0  0  0
 51125  1  0  0  0
 52126  1  0  0  0
 52127  1  0  0  0
 53 54  1  0  0  0
 54 55  2  0  0  0
 54128  1  0  0  0
 55 57  1  0  0  0
 55129  1  0  0  0
 56 69  2  0  0  0
 57 58  2  0  0  0
 57130  1  0  0  0
 58131  1  0  0  0
 59 60  1  0  0  0
 59 61  1  0  0  0
 59 62  1  0  0  0
 60132  1  0  0  0
 60133  1  0  0  0
 60134  1  0  0  0
 61135  1  0  0  0
 61136  1  0  0  0
 61137  1  0  0  0
 62138  1  0  0  0
 62139  1  0  0  0
 62140  1  0  0  0
 63 65  1  0  0  0
 63141  1  0  0  0
 63142  1  0  0  0
 63143  1  0  0  0
 64144  1  0  0  0
 65145  1  0  0  0
 68 84  1  0  0  0
 71 72  2  0  0  0
 71 75  1  0  0  0
 71146  1  0  0  0
 72 76  1  0  0  0
 72147  1  0  0  0
 73 74  1  0  0  0
 73 76  2  0  0  0
 73148  1  0  0  0
 74 75  2  0  0  0
 74 77  1  0  0  0
 75 81  1  0  0  0
 76 86  1  0  0  0
 77 78  2  0  0  0
 77149  1  0  0  0
 78150  1  0  0  0
 79 82  1  0  0  0
 79151  1  0  0  0
 79152  1  0  0  0
 79153  1  0  0  0
 80154  1  0  0  0
 80155  1  0  0  0
 80156  1  0  0  0
 80 85  1  0  0  0
 81 82  1  0  0  0
 81157  1  0  0  0
 81158  1  0  0  0
 82159  1  0  0  0
 82160  1  0  0  0
 83 85  1  0  0  0
 83 86  1  0  0  0
 83161  1  0  0  0
 83162  1  0  0  0
 84 85  1  0  0  0
 84163  1  0  0  0
 84164  1  0  0  0
 85165  1  0  0  0
M  ISO  4   1 100  68 101  78 100  84 101
M  END
> <chiral flag>
0

> <version>
0

> <s_m_source_file>
/data/baiqing/PycharmProjects/Reinvent-master-3.2/result/LINK_invent/BTK/process_docking_weight1_custom_product_contain_oxygen_bond_distance_aromatic_linkinvent_7_9_3/rearranged_h_0137.sdf

> <i_m_source_file_index>
25

> <r_mmod_Potential_Energy-OPLS-2005>
175.285919189453

> <r_mmod_Stretch_Energy-OPLS-2005>
61.3855819702148

> <r_mmod_Bend_Energy-OPLS-2005>
214.742340087891

> <r_mmod_Torsional_Energy-OPLS-2005>
224.482315063477

> <r_mmod_Improper_Torsional_Energy-OPLS-2005>
7.9013729095459

> <r_mmod_Van_der_Waal_Energy-OPLS-2005>
159.038696289062

> <r_mmod_Electrostatic_Energy-OPLS-2005>
-331.860748291016

> <r_mmod_Solvation_Energy-OPLS-2005>
-191.838653564453

> <b_mmod_Minimization_Converged-OPLS-2005>
0

> <r_mmod_RMS_Derivative-OPLS-2005>
3.40218162536621

$$$$
25
                    3D
 Structure written by MMmdl.
159167  0  0  1  0            999 V2000
  -30.6918  -14.5428   20.5886 C   0  0  0  0  0  0
  -30.4142  -12.3606   19.4387 C   0  0  0  0  0  0
  -29.5008  -12.5486   18.2125 C   0  0  0  0  0  0
  -28.0188  -12.4057   18.6105 C   0  0  0  0  0  0
  -27.6556  -13.2281   19.8764 C   0  0  2  0  0  0
  -28.6972  -13.0326   21.0013 C   0  0  0  0  0  0
  -25.2545  -13.8192   20.5713 C   0  0  0  0  0  0
  -24.1815  -13.0430   20.9182 C   0  0  0  0  0  0
  -24.6396  -11.6915   20.8723 C   0  0  0  0  0  0
  -23.9057  -10.4291   21.0388 C   0  0  0  0  0  0
  -24.3609   -9.4199   21.9164 C   0  0  0  0  0  0
  -23.6282   -8.2232   22.0736 C   0  0  0  0  0  0
  -22.4264   -8.0265   21.3526 C   0  0  0  0  0  0
  -21.9897   -9.0231   20.4626 C   0  0  0  0  0  0
  -22.7225  -10.2113   20.3035 C   0  0  0  0  0  0
  -21.6848   -6.0717   22.5273 C   0  0  0  0  0  0
  -21.4016   -6.5629   23.8200 C   0  0  0  0  0  0
  -21.3664   -5.6784   24.9163 C   0  0  0  0  0  0
  -21.6051   -4.3048   24.7219 C   0  0  0  0  0  0
  -21.8816   -3.8131   23.4345 C   0  0  0  0  0  0
  -21.9187   -4.6947   22.3399 C   0  0  0  0  0  0
  -22.7840  -13.5209   21.1839 C   0  0  0  0  0  0
  -22.1661   -4.2139   21.0974 F   0  0  0  0  0  0
  -21.5628   -3.4537   25.7736 F   0  0  0  0  0  0
  -30.0161  -13.3625   20.4460 N   0  0  0  0  0  0
  -26.2986  -12.9390   20.3355 N   0  0  0  0  0  0
  -25.9330  -11.6532   20.5730 N   0  0  0  0  0  0
  -22.0478  -12.8192   22.0398 N   0  0  0  0  0  0
  -25.4253  -15.1915   20.4174 N   0  0  0  0  0  0
  -31.8296  -14.6823   20.1290 O   0  0  0  0  0  0
  -21.6627   -6.8864   21.4232 O   0  0  0  0  0  0
  -22.3521  -14.5500   20.6676 O   0  0  0  0  0  0
  -24.6206  -31.8649   23.2106 C   0  0  0  0  0  0
  -25.9081  -32.4825   23.8395 C   0  0  1  0  0  0
  -27.2374  -27.3539   20.1375 C   0  0  0  0  0  0
  -25.5929  -33.8641   24.2319 N   0  0  0  0  0  0
  -23.4118  -30.4933   21.5465 C   0  0  2  0  0  0
  -24.8642  -28.9582   20.1086 C   0  0  0  0  0  0
  -22.7435  -29.4658   22.4910 C   0  0  0  0  0  0
  -18.0273  -28.1405   22.8489 C   0  0  0  0  0  0
  -24.1451  -36.7268   23.2639 C   0  0  0  0  0  0
  -25.9500  -30.8096   21.3786 C   0  0  0  0  0  0
  -26.0265  -29.4418   20.7196 C   0  0  0  0  0  0
  -27.2085  -28.6529   20.7249 C   0  0  0  0  0  0
  -26.0542  -26.9294   19.4816 C   0  0  0  0  0  0
  -24.8793  -27.7060   19.4800 C   0  0  0  0  0  0
  -23.6292  -29.8318   20.1582 C   0  0  0  0  0  0
  -25.4087  -36.3129   24.0339 C   0  0  1  0  0  0
  -20.5871  -28.3674   23.1294 C   0  0  2  0  0  0
  -20.6742  -26.9392   22.5430 C   0  0  0  0  0  0
  -19.5732  -26.6380   21.5220 C   0  0  0  0  0  0
  -18.1905  -26.7953   22.1620 C   0  0  0  0  0  0
  -19.1534  -28.8848   23.2892 C   0  0  0  0  0  0
  -18.9485  -30.1453   23.8905 C   0  0  0  0  0  0
  -17.6493  -30.6612   24.0576 C   0  0  0  0  0  0
  -25.9043  -34.9510   23.5130 C   0  0  0  0  0  0
  -16.5366  -29.9129   23.6347 C   0  0  0  0  0  0
  -16.7265  -28.6543   23.0350 C   0  0  0  0  0  0
  -26.4467  -31.6666   25.0784 C   0  0  0  0  0  0
  -25.3706  -31.3831   26.1510 C   0  0  0  0  0  0
  -27.0275  -30.3073   24.6262 C   0  0  0  0  0  0
  -27.6022  -32.4375   25.7596 C   0  0  0  0  0  0
  -27.5541  -37.1815   24.8478 C   0  0  0  0  0  0
  -21.4151  -29.3053   22.3674 N   0  0  0  0  0  0
  -26.4253  -37.3828   23.9424 N   0  0  0  0  0  0
  -24.6788  -31.0712   22.1023 N   0  0  0  0  0  0
  -23.4178  -28.8181   23.2952 O   0  0  0  0  0  0
  -28.3906  -26.5613   20.2542 O   0  0  0  0  0  0
  -26.5597  -34.8956   22.4685 O   0  0  0  0  0  0
  -23.5391  -32.1408   23.7476 O   0  0  0  0  0  0
  -29.8179  -18.1416   21.1445 C   0  0  0  0  0  0
  -31.8297  -17.0596   21.9717 C   0  0  0  0  0  0
  -31.6901  -19.5040   21.9093 C   0  0  0  0  0  0
  -30.5472  -16.9323   21.3927 C   0  0  0  0  0  0
  -30.3759  -19.4419   21.3811 C   0  0  0  0  0  0
  -32.3939  -18.3245   22.2238 C   0  0  0  0  0  0
  -30.1032  -22.9945   20.5388 C   0  0  0  0  0  0
  -28.4349  -24.7497   18.6368 C   0  0  0  0  0  0
  -27.2417  -24.4027   20.9119 C   0  0  0  0  0  0
  -29.7232  -24.4965   20.8133 C   0  0  0  0  0  0
  -29.9076  -21.8925   21.6218 C   0  0  0  0  0  0
  -28.4084  -25.0838   20.1461 C   0  0  0  0  0  0
  -30.0097  -15.6101   21.1002 N   0  0  0  0  0  0
  -30.6372  -22.6875   19.4658 O   0  0  0  0  0  0
  -29.6365  -20.5788   21.0398 O   0  0  0  0  0  0
  -33.6377  -18.4060   22.7571 F   0  0  0  0  0  0
  -31.4636  -12.4417   19.1557 H   0  0  0  0  0  0
  -30.2944  -11.3540   19.8382 H   0  0  0  0  0  0
  -29.7522  -11.8329   17.4291 H   0  0  0  0  0  0
  -29.6719  -13.5379   17.7838 H   0  0  0  0  0  0
  -27.8196  -11.3476   18.7797 H   0  0  0  0  0  0
  -27.3770  -12.7069   17.7817 H   0  0  0  0  0  0
  -27.6861  -14.2780   19.5877 H   0  0  0  0  0  0
  -28.6926  -11.9961   21.3411 H   0  0  0  0  0  0
  -28.4558  -13.6319   21.8803 H   0  0  0  0  0  0
  -25.2747   -9.5675   22.4744 H   0  0  0  0  0  0
  -23.9979   -7.4630   22.7475 H   0  0  0  0  0  0
  -21.0806   -8.8733   19.8974 H   0  0  0  0  0  0
  -22.3649  -10.9631   19.6150 H   0  0  0  0  0  0
  -21.2026   -7.6146   23.9697 H   0  0  0  0  0  0
  -21.1493   -6.0523   25.9062 H   0  0  0  0  0  0
  -22.0604   -2.7597   23.2838 H   0  0  0  0  0  0
  -22.4074  -11.9857   22.4811 H   0  0  0  0  0  0
  -21.1103  -13.1234   22.2636 H   0  0  0  0  0  0
  -24.6626  -15.8490   20.5396 H   0  0  0  0  0  0
  -26.2810  -15.6314   20.1022 H   0  0  0  0  0  0
  -26.7160  -32.5488   23.1161 H   0  0  0  0  0  0
  -25.0133  -33.9798   25.0493 H   0  0  0  0  0  0
  -22.7029  -31.3122   21.4054 H   0  0  0  0  0  0
  -23.3754  -35.9576   23.3376 H   0  0  0  0  0  0
  -24.3491  -36.8802   22.2035 H   0  0  0  0  0  0
  -23.7165  -37.6478   23.6601 H   0  0  0  0  0  0
  -26.0781  -31.5797   20.6168 H   0  0  0  0  0  0
  -26.8279  -30.8508   22.0112 H   0  0  0  0  0  0
  -28.0945  -29.0236   21.2234 H   0  0  0  0  0  0
  -25.9822  -25.9812   18.9796 H   0  0  0  0  0  0
  -23.9933  -27.3264   18.9935 H   0  0  0  0  0  0
  -23.7504  -30.6125   19.4049 H   0  0  0  0  0  0
  -22.7491  -29.2658   19.8445 H   0  0  0  0  0  0
  -25.1281  -36.1981   25.0835 H   0  0  0  0  0  0
  -20.9965  -28.3257   24.1413 H   0  0  0  0  0  0
  -20.5571  -26.2300   23.3630 H   0  0  0  0  0  0
  -21.6622  -26.7366   22.1280 H   0  0  0  0  0  0
  -19.6879  -25.6288   21.1254 H   0  0  0  0  0  0
  -19.6711  -27.3188   20.6755 H   0  0  0  0  0  0
  -17.4176  -26.6709   21.4017 H   0  0  0  0  0  0
  -18.0294  -26.0102   22.9019 H   0  0  0  0  0  0
  -19.7970  -30.7256   24.2264 H   0  0  0  0  0  0
  -17.5077  -31.6302   24.5169 H   0  0  0  0  0  0
  -15.5377  -30.3057   23.7683 H   0  0  0  0  0  0
  -15.8653  -28.0890   22.7058 H   0  0  0  0  0  0
  -24.5985  -30.7021   25.7915 H   0  0  0  0  0  0
  -24.8764  -32.2992   26.4784 H   0  0  0  0  0  0
  -25.8058  -30.9232   27.0384 H   0  0  0  0  0  0
  -26.2899  -29.6948   24.1070 H   0  0  0  0  0  0
  -27.3689  -29.7230   25.4816 H   0  0  0  0  0  0
  -27.8903  -30.4342   23.9709 H   0  0  0  0  0  0
  -27.2684  -33.3742   26.2075 H   0  0  0  0  0  0
  -28.3965  -32.6785   25.0519 H   0  0  0  0  0  0
  -28.0542  -31.8533   26.5628 H   0  0  0  0  0  0
  -28.2633  -38.0039   24.7468 H   0  0  0  0  0  0
  -28.0950  -36.2577   24.6388 H   0  0  0  0  0  0
  -27.2232  -37.1574   25.8871 H   0  0  0  0  0  0
  -20.9296  -29.8814   21.6942 H   0  0  0  0  0  0
  -26.0151  -38.2901   24.1446 H   0  0  0  0  0  0
  -28.8180  -18.0847   20.7387 H   0  0  0  0  0  0
  -32.4057  -16.1807   22.2245 H   0  0  0  0  0  0
  -32.1963  -20.4446   22.0629 H   0  0  0  0  0  0
  -28.4282  -23.6761   18.4586 H   0  0  0  0  0  0
  -29.3425  -25.1488   18.1779 H   0  0  0  0  0  0
  -27.6029  -25.1493   18.0694 H   0  0  0  0  0  0
  -27.2874  -24.6362   21.9757 H   0  0  0  0  0  0
  -27.2917  -23.3179   20.8187 H   0  0  0  0  0  0
  -26.2454  -24.6651   20.5789 H   0  0  0  0  0  0
  -30.5717  -25.0908   20.4745 H   0  0  0  0  0  0
  -29.6888  -24.6530   21.8918 H   0  0  0  0  0  0
  -30.7856  -21.8896   22.2640 H   0  0  0  0  0  0
  -29.0696  -22.1677   22.2600 H   0  0  0  0  0  0
  -29.0217  -15.4725   21.2578 H   0  0  0  0  0  0
  1 25  1  0  0  0
  1 30  2  0  0  0
  1 83  1  0  0  0
  2  3  1  0  0  0
  2 25  1  0  0  0
  2 87  1  0  0  0
  2 88  1  0  0  0
  3  4  1  0  0  0
  3 89  1  0  0  0
  3 90  1  0  0  0
  4  5  1  0  0  0
  4 91  1  0  0  0
  4 92  1  0  0  0
  5  6  1  0  0  0
  5 26  1  0  0  0
  5 93  1  0  0  0
  6 25  1  0  0  0
  6 94  1  0  0  0
  6 95  1  0  0  0
  7  8  2  0  0  0
  7 26  1  0  0  0
  7 29  1  0  0  0
  8  9  1  0  0  0
  8 22  1  0  0  0
  9 10  1  0  0  0
  9 27  2  0  0  0
 10 11  2  0  0  0
 10 15  1  0  0  0
 11 12  1  0  0  0
 11 96  1  0  0  0
 12 13  2  0  0  0
 12 97  1  0  0  0
 13 14  1  0  0  0
 13 31  1  0  0  0
 14 15  2  0  0  0
 14 98  1  0  0  0
 15 99  1  0  0  0
 16 17  2  0  0  0
 16 21  1  0  0  0
 16 31  1  0  0  0
 17 18  1  0  0  0
 17100  1  0  0  0
 18 19  2  0  0  0
 18101  1  0  0  0
 19 20  1  0  0  0
 19 24  1  0  0  0
 20 21  2  0  0  0
 20102  1  0  0  0
 21 23  1  0  0  0
 22 28  1  0  0  0
 22 32  2  0  0  0
 26 27  1  0  0  0
 28103  1  0  0  0
 28104  1  0  0  0
 29105  1  0  0  0
 29106  1  0  0  0
 33 34  1  0  0  0
 33 66  1  0  0  0
 33 70  2  0  0  0
 34 36  1  0  0  0
 34 59  1  0  0  0
 34107  1  0  0  0
 35 44  2  0  0  0
 35 45  1  0  0  0
 35 68  1  0  0  0
 36 56  1  0  0  0
 36108  1  0  0  0
 37 39  1  0  0  0
 37 47  1  0  0  0
 37 66  1  0  0  0
 37109  1  0  0  0
 38 43  2  0  0  0
 38 46  1  0  0  0
 38 47  1  0  0  0
 39 64  1  0  0  0
 39 67  2  0  0  0
 40 52  1  0  0  0
 40 53  2  0  0  0
 40 58  1  0  0  0
 41110  1  0  0  0
 41111  1  0  0  0
 41112  1  0  0  0
 41 48  1  0  0  0
 42 43  1  0  0  0
 42 66  1  0  0  0
 42113  1  0  0  0
 42114  1  0  0  0
 43 44  1  0  0  0
 44115  1  0  0  0
 45 46  2  0  0  0
 45116  1  0  0  0
 46117  1  0  0  0
 47118  1  0  0  0
 47119  1  0  0  0
 48 56  1  0  0  0
 48 65  1  0  0  0
 48120  1  0  0  0
 49 50  1  0  0  0
 49 53  1  0  0  0
 49 64  1  0  0  0
 49121  1  0  0  0
 50 51  1  0  0  0
 50122  1  0  0  0
 50123  1  0  0  0
 51 52  1  0  0  0
 51124  1  0  0  0
 51125  1  0  0  0
 52126  1  0  0  0
 52127  1  0  0  0
 53 54  1  0  0  0
 54 55  2  0  0  0
 54128  1  0  0  0
 55 57  1  0  0  0
 55129  1  0  0  0
 56 69  2  0  0  0
 57 58  2  0  0  0
 57130  1  0  0  0
 58131  1  0  0  0
 59 60  1  0  0  0
 59 61  1  0  0  0
 59 62  1  0  0  0
 60132  1  0  0  0
 60133  1  0  0  0
 60134  1  0  0  0
 61135  1  0  0  0
 61136  1  0  0  0
 61137  1  0  0  0
 62138  1  0  0  0
 62139  1  0  0  0
 62140  1  0  0  0
 63 65  1  0  0  0
 63141  1  0  0  0
 63142  1  0  0  0
 63143  1  0  0  0
 64144  1  0  0  0
 65145  1  0  0  0
 68 82  1  0  0  0
 71 74  2  0  0  0
 71 75  1  0  0  0
 71146  1  0  0  0
 72 74  1  0  0  0
 72 76  2  0  0  0
 72147  1  0  0  0
 73 75  2  0  0  0
 73 76  1  0  0  0
 73148  1  0  0  0
 74 83  1  0  0  0
 75 85  1  0  0  0
 76 86  1  0  0  0
 77 80  1  0  0  0
 77 81  1  0  0  0
 77 84  2  0  0  0
 78149  1  0  0  0
 78150  1  0  0  0
 78151  1  0  0  0
 78 82  1  0  0  0
 79 82  1  0  0  0
 79152  1  0  0  0
 79153  1  0  0  0
 79154  1  0  0  0
 80 82  1  0  0  0
 80155  1  0  0  0
 80156  1  0  0  0
 81 85  1  0  0  0
 81157  1  0  0  0
 81158  1  0  0  0
 83159  1  0  0  0
M  ISO  4   1 100  68 101  82 101  83 100
M  END
> <chiral flag>
0

> <version>
0

> <s_m_source_file>
/data/baiqing/PycharmProjects/Reinvent-master-3.2/result/LINK_invent/BTK/process_docking_weight1_custom_product_contain_oxygen_bond_distance_aromatic_linkinvent_7_9_3/rearranged_h_0137.sdf

> <i_m_source_file_index>
26

> <r_mmod_Potential_Energy-OPLS-2005>
64.6280364990234

> <r_mmod_Stretch_Energy-OPLS-2005>
70.5650329589844

> <r_mmod_Bend_Energy-OPLS-2005>
143.45002746582

> <r_mmod_Torsional_Energy-OPLS-2005>
208.466217041016

> <r_mmod_Improper_Torsional_Energy-OPLS-2005>
3.98006510734558

> <r_mmod_Van_der_Waal_Energy-OPLS-2005>
161.43212890625

> <r_mmod_Electrostatic_Energy-OPLS-2005>
-329.585205078125

> <r_mmod_Solvation_Energy-OPLS-2005>
-224.229537963867

> <b_mmod_Minimization_Converged-OPLS-2005>
0

> <r_mmod_RMS_Derivative-OPLS-2005>
4.30348968505859

$$$$
26
                    3D
 Structure written by MMmdl.
154162  0  0  1  0            999 V2000
  -30.5601  -14.6909   20.5081 C   0  0  0  0  0  0
  -30.4553  -12.4198   19.4608 C   0  0  0  0  0  0
  -29.5220  -12.5174   18.2317 C   0  0  0  0  0  0
  -28.0439  -12.3387   18.6384 C   0  0  0  0  0  0
  -27.6555  -13.2075   19.8632 C   0  0  2  0  0  0
  -28.6986  -13.0441   20.9929 C   0  0  0  0  0  0
  -25.2571  -13.8135   20.5674 C   0  0  0  0  0  0
  -24.1822  -13.0429   20.9187 C   0  0  0  0  0  0
  -24.6360  -11.6888   20.8709 C   0  0  0  0  0  0
  -23.9016  -10.4284   21.0388 C   0  0  0  0  0  0
  -24.3575   -9.4205   21.9182 C   0  0  0  0  0  0
  -23.6264   -8.2234   22.0756 C   0  0  0  0  0  0
  -22.4247   -8.0259   21.3542 C   0  0  0  0  0  0
  -21.9872   -9.0226   20.4650 C   0  0  0  0  0  0
  -22.7191  -10.2118   20.3050 C   0  0  0  0  0  0
  -21.6857   -6.0710   22.5270 C   0  0  0  0  0  0
  -21.4023   -6.5617   23.8199 C   0  0  0  0  0  0
  -21.3670   -5.6770   24.9166 C   0  0  0  0  0  0
  -21.6044   -4.3028   24.7224 C   0  0  0  0  0  0
  -21.8822   -3.8124   23.4336 C   0  0  0  0  0  0
  -21.9196   -4.6936   22.3397 C   0  0  0  0  0  0
  -22.7845  -13.5252   21.1840 C   0  0  0  0  0  0
  -22.1665   -4.2127   21.0982 F   0  0  0  0  0  0
  -21.5626   -3.4521   25.7740 F   0  0  0  0  0  0
  -30.0117  -13.4290   20.4439 N   0  0  0  0  0  0
  -26.2983  -12.9286   20.3275 N   0  0  0  0  0  0
  -25.9287  -11.6456   20.5702 N   0  0  0  0  0  0
  -22.0460  -12.8269   22.0395 N   0  0  0  0  0  0
  -25.4294  -15.1856   20.4085 N   0  0  0  0  0  0
  -31.7041  -14.9150   20.0978 O   0  0  0  0  0  0
  -21.6625   -6.8858   21.4239 O   0  0  0  0  0  0
  -22.3544  -14.5554   20.6673 O   0  0  0  0  0  0
  -24.6276  -31.8620   23.2004 C   0  0  0  0  0  0
  -25.9117  -32.4790   23.8351 C   0  0  1  0  0  0
  -27.2226  -27.3036   20.1133 C   0  0  0  0  0  0
  -25.5924  -33.8594   24.2278 N   0  0  0  0  0  0
  -23.4218  -30.4857   21.5453 C   0  0  2  0  0  0
  -24.8677  -28.9410   20.1122 C   0  0  0  0  0  0
  -22.7477  -29.4646   22.4933 C   0  0  0  0  0  0
  -18.0293  -28.1382   22.8500 C   0  0  0  0  0  0
  -24.1488  -36.7306   23.2640 C   0  0  0  0  0  0
  -25.9657  -30.7890   21.3733 C   0  0  0  0  0  0
  -26.0403  -29.4154   20.7139 C   0  0  0  0  0  0
  -27.2216  -28.6101   20.7015 C   0  0  0  0  0  0
  -26.0200  -26.8889   19.4936 C   0  0  0  0  0  0
  -24.8607  -27.6829   19.4960 C   0  0  0  0  0  0
  -23.6364  -29.8225   20.1608 C   0  0  0  0  0  0
  -25.4109  -36.3102   24.0334 C   0  0  1  0  0  0
  -20.5896  -28.3701   23.1279 C   0  0  2  0  0  0
  -20.6779  -26.9420   22.5408 C   0  0  0  0  0  0
  -19.5750  -26.6388   21.5216 C   0  0  0  0  0  0
  -18.1935  -26.7923   22.1632 C   0  0  0  0  0  0
  -19.1546  -28.8853   23.2889 C   0  0  0  0  0  0
  -18.9464  -30.1449   23.8910 C   0  0  0  0  0  0
  -17.6468  -30.6591   24.0571 C   0  0  0  0  0  0
  -25.9049  -34.9468   23.5109 C   0  0  0  0  0  0
  -16.5358  -29.9085   23.6325 C   0  0  0  0  0  0
  -16.7283  -28.6495   23.0360 C   0  0  0  0  0  0
  -26.4486  -31.6595   25.0725 C   0  0  0  0  0  0
  -25.3689  -31.3761   26.1433 C   0  0  0  0  0  0
  -27.0324  -30.3004   24.6194 C   0  0  0  0  0  0
  -27.6051  -32.4325   25.7495 C   0  0  0  0  0  0
  -27.5587  -37.1801   24.8456 C   0  0  0  0  0  0
  -21.4188  -29.3064   22.3669 N   0  0  0  0  0  0
  -26.4291  -37.3793   23.9417 N   0  0  0  0  0  0
  -24.6907  -31.0607   22.0972 N   0  0  0  0  0  0
  -23.4201  -28.8189   23.3019 O   0  0  0  0  0  0
  -28.3370  -26.4407   20.1477 O   0  0  0  0  0  0
  -26.5629  -34.8939   22.4684 O   0  0  0  0  0  0
  -23.5430  -32.1445   23.7303 O   0  0  0  0  0  0
  -28.2782  -17.5530   21.2647 C   0  0  0  0  0  0
  -28.3111  -18.9709   21.0766 C   0  0  0  0  0  0
  -29.4822  -17.0327   20.8536 C   0  0  0  0  0  0
  -29.5433  -19.2622   20.5724 C   0  0  0  0  0  0
  -30.2458  -24.1160   19.0464 C   0  0  0  0  0  0
  -30.0152  -24.2454   21.5457 C   0  0  0  0  0  0
  -28.0918  -24.9712   20.0608 C   0  0  0  0  0  0
  -28.8141  -22.3634   20.2703 C   0  0  0  0  0  0
  -29.2852  -23.9127   20.2336 C   0  0  0  0  0  0
  -29.6865  -15.6546   20.9530 N   0  0  0  0  0  0
  -30.3041  -18.0798   20.4090 O   0  0  0  0  0  0
  -30.1259  -20.9783   20.2449 S   0  0  0  0  0  0
  -31.4955  -12.5717   19.1643 H   0  0  0  0  0  0
  -30.4121  -11.4228   19.9008 H   0  0  0  0  0  0
  -29.7948  -11.7667   17.4898 H   0  0  0  0  0  0
  -29.6588  -13.4859   17.7491 H   0  0  0  0  0  0
  -27.8934  -11.2867   18.8791 H   0  0  0  0  0  0
  -27.3911  -12.5524   17.7917 H   0  0  0  0  0  0
  -27.6780  -14.2426   19.5253 H   0  0  0  0  0  0
  -28.7236  -12.0075   21.3366 H   0  0  0  0  0  0
  -28.4250  -13.6317   21.8694 H   0  0  0  0  0  0
  -25.2731   -9.5683   22.4744 H   0  0  0  0  0  0
  -23.9974   -7.4626   22.7470 H   0  0  0  0  0  0
  -21.0801   -8.8732   19.8961 H   0  0  0  0  0  0
  -22.3643  -10.9634   19.6136 H   0  0  0  0  0  0
  -21.2023   -7.6122   23.9710 H   0  0  0  0  0  0
  -21.1497   -6.0491   25.9068 H   0  0  0  0  0  0
  -22.0597   -2.7584   23.2840 H   0  0  0  0  0  0
  -22.4047  -11.9938   22.4823 H   0  0  0  0  0  0
  -21.1083  -13.1309   22.2586 H   0  0  0  0  0  0
  -24.6505  -15.8301   20.4918 H   0  0  0  0  0  0
  -26.2532  -15.6121   20.0033 H   0  0  0  0  0  0
  -26.7197  -32.5465   23.1112 H   0  0  0  0  0  0
  -25.0022  -33.9734   25.0389 H   0  0  0  0  0  0
  -22.7174  -31.3072   21.4004 H   0  0  0  0  0  0
  -23.3757  -35.9631   23.3284 H   0  0  0  0  0  0
  -24.3584  -36.8939   22.2058 H   0  0  0  0  0  0
  -23.7222  -37.6499   23.6665 H   0  0  0  0  0  0
  -26.0956  -31.5553   20.6080 H   0  0  0  0  0  0
  -26.8468  -30.8404   22.0013 H   0  0  0  0  0  0
  -28.1216  -28.9707   21.1791 H   0  0  0  0  0  0
  -25.9331  -25.9312   19.0058 H   0  0  0  0  0  0
  -23.9612  -27.3089   19.0268 H   0  0  0  0  0  0
  -23.7555  -30.6005   19.4061 H   0  0  0  0  0  0
  -22.7566  -29.2520   19.8575 H   0  0  0  0  0  0
  -25.1279  -36.1962   25.0823 H   0  0  0  0  0  0
  -21.0000  -28.3280   24.1397 H   0  0  0  0  0  0
  -20.5681  -26.2313   23.3613 H   0  0  0  0  0  0
  -21.6643  -26.7450   22.1198 H   0  0  0  0  0  0
  -19.6904  -25.6295   21.1251 H   0  0  0  0  0  0
  -19.6670  -27.3195   20.6742 H   0  0  0  0  0  0
  -17.4195  -26.6694   21.4037 H   0  0  0  0  0  0
  -18.0325  -26.0062   22.9024 H   0  0  0  0  0  0
  -19.7947  -30.7261   24.2289 H   0  0  0  0  0  0
  -17.5025  -31.6264   24.5170 H   0  0  0  0  0  0
  -15.5358  -30.2997   23.7617 H   0  0  0  0  0  0
  -15.8687  -28.0808   22.7074 H   0  0  0  0  0  0
  -24.5843  -30.7144   25.7744 H   0  0  0  0  0  0
  -24.8898  -32.2943   26.4845 H   0  0  0  0  0  0
  -25.7967  -30.8928   27.0221 H   0  0  0  0  0  0
  -26.2916  -29.6769   24.1174 H   0  0  0  0  0  0
  -27.3959  -29.7249   25.4718 H   0  0  0  0  0  0
  -27.8814  -30.4279   23.9473 H   0  0  0  0  0  0
  -27.2666  -33.3620   26.2087 H   0  0  0  0  0  0
  -28.3848  -32.6892   25.0313 H   0  0  0  0  0  0
  -28.0738  -31.8441   26.5394 H   0  0  0  0  0  0
  -28.2579  -38.0124   24.7536 H   0  0  0  0  0  0
  -28.1105  -36.2650   24.6230 H   0  0  0  0  0  0
  -27.2317  -37.1396   25.8863 H   0  0  0  0  0  0
  -20.9348  -29.8800   21.6904 H   0  0  0  0  0  0
  -26.0177  -38.2871   24.1421 H   0  0  0  0  0  0
  -27.4504  -16.9865   21.6692 H   0  0  0  0  0  0
  -27.5347  -19.6855   21.3062 H   0  0  0  0  0  0
  -30.5477  -25.1612   18.9509 H   0  0  0  0  0  0
  -29.7740  -23.8275   18.1057 H   0  0  0  0  0  0
  -31.1545  -23.5239   19.1539 H   0  0  0  0  0  0
  -30.3966  -25.2664   21.5331 H   0  0  0  0  0  0
  -30.8615  -23.5810   21.7194 H   0  0  0  0  0  0
  -29.3440  -24.1613   22.4005 H   0  0  0  0  0  0
  -27.3218  -24.7288   20.7952 H   0  0  0  0  0  0
  -27.6532  -24.7529   19.0876 H   0  0  0  0  0  0
  -28.1592  -22.1838   19.4166 H   0  0  0  0  0  0
  -28.1848  -22.2046   21.1473 H   0  0  0  0  0  0
  -28.8727  -15.1933   21.3260 H   0  0  0  0  0  0
  1 25  1  0  0  0
  1 30  2  0  0  0
  1 80  1  0  0  0
  2  3  1  0  0  0
  2 25  1  0  0  0
  2 83  1  0  0  0
  2 84  1  0  0  0
  3  4  1  0  0  0
  3 85  1  0  0  0
  3 86  1  0  0  0
  4  5  1  0  0  0
  4 87  1  0  0  0
  4 88  1  0  0  0
  5  6  1  0  0  0
  5 26  1  0  0  0
  5 89  1  0  0  0
  6 25  1  0  0  0
  6 90  1  0  0  0
  6 91  1  0  0  0
  7  8  2  0  0  0
  7 26  1  0  0  0
  7 29  1  0  0  0
  8  9  1  0  0  0
  8 22  1  0  0  0
  9 10  1  0  0  0
  9 27  2  0  0  0
 10 11  2  0  0  0
 10 15  1  0  0  0
 11 12  1  0  0  0
 11 92  1  0  0  0
 12 13  2  0  0  0
 12 93  1  0  0  0
 13 14  1  0  0  0
 13 31  1  0  0  0
 14 15  2  0  0  0
 14 94  1  0  0  0
 15 95  1  0  0  0
 16 17  2  0  0  0
 16 21  1  0  0  0
 16 31  1  0  0  0
 17 18  1  0  0  0
 17 96  1  0  0  0
 18 19  2  0  0  0
 18 97  1  0  0  0
 19 20  1  0  0  0
 19 24  1  0  0  0
 20 21  2  0  0  0
 20 98  1  0  0  0
 21 23  1  0  0  0
 22 28  1  0  0  0
 22 32  2  0  0  0
 26 27  1  0  0  0
 28 99  1  0  0  0
 28100  1  0  0  0
 29101  1  0  0  0
 29102  1  0  0  0
 33 34  1  0  0  0
 33 66  1  0  0  0
 33 70  2  0  0  0
 34 36  1  0  0  0
 34 59  1  0  0  0
 34103  1  0  0  0
 35 44  2  0  0  0
 35 45  1  0  0  0
 35 68  1  0  0  0
 36 56  1  0  0  0
 36104  1  0  0  0
 37 39  1  0  0  0
 37 47  1  0  0  0
 37 66  1  0  0  0
 37105  1  0  0  0
 38 43  2  0  0  0
 38 46  1  0  0  0
 38 47  1  0  0  0
 39 64  1  0  0  0
 39 67  2  0  0  0
 40 52  1  0  0  0
 40 53  2  0  0  0
 40 58  1  0  0  0
 41106  1  0  0  0
 41107  1  0  0  0
 41108  1  0  0  0
 41 48  1  0  0  0
 42 43  1  0  0  0
 42 66  1  0  0  0
 42109  1  0  0  0
 42110  1  0  0  0
 43 44  1  0  0  0
 44111  1  0  0  0
 45 46  2  0  0  0
 45112  1  0  0  0
 46113  1  0  0  0
 47114  1  0  0  0
 47115  1  0  0  0
 48 56  1  0  0  0
 48 65  1  0  0  0
 48116  1  0  0  0
 49 50  1  0  0  0
 49 53  1  0  0  0
 49 64  1  0  0  0
 49117  1  0  0  0
 50 51  1  0  0  0
 50118  1  0  0  0
 50119  1  0  0  0
 51 52  1  0  0  0
 51120  1  0  0  0
 51121  1  0  0  0
 52122  1  0  0  0
 52123  1  0  0  0
 53 54  1  0  0  0
 54 55  2  0  0  0
 54124  1  0  0  0
 55 57  1  0  0  0
 55125  1  0  0  0
 56 69  2  0  0  0
 57 58  2  0  0  0
 57126  1  0  0  0
 58127  1  0  0  0
 59 60  1  0  0  0
 59 61  1  0  0  0
 59 62  1  0  0  0
 60128  1  0  0  0
 60129  1  0  0  0
 60130  1  0  0  0
 61131  1  0  0  0
 61132  1  0  0  0
 61133  1  0  0  0
 62134  1  0  0  0
 62135  1  0  0  0
 62136  1  0  0  0
 63 65  1  0  0  0
 63137  1  0  0  0
 63138  1  0  0  0
 63139  1  0  0  0
 64140  1  0  0  0
 65141  1  0  0  0
 68 77  1  0  0  0
 71 72  1  0  0  0
 71 73  2  0  0  0
 71142  1  0  0  0
 72 74  2  0  0  0
 72143  1  0  0  0
 73 80  1  0  0  0
 73 81  1  0  0  0
 74 81  1  0  0  0
 74 82  1  0  0  0
 75144  1  0  0  0
 75145  1  0  0  0
 75146  1  0  0  0
 75 79  1  0  0  0
 76 79  1  0  0  0
 76147  1  0  0  0
 76148  1  0  0  0
 76149  1  0  0  0
 77 79  1  0  0  0
 77150  1  0  0  0
 77151  1  0  0  0
 78 79  1  0  0  0
 78 82  1  0  0  0
 78152  1  0  0  0
 78153  1  0  0  0
 80154  1  0  0  0
M  ISO  4   1 100  68 101  77 101  80 100
M  END
> <chiral flag>
0

> <version>
0

> <s_m_source_file>
/data/baiqing/PycharmProjects/Reinvent-master-3.2/result/LINK_invent/BTK/process_docking_weight1_custom_product_contain_oxygen_bond_distance_aromatic_linkinvent_7_9_3/rearranged_h_0137.sdf

> <i_m_source_file_index>
27

> <r_mmod_Potential_Energy-OPLS-2005>
95.123291015625

> <r_mmod_Stretch_Energy-OPLS-2005>
98.1001968383789

> <r_mmod_Bend_Energy-OPLS-2005>
194.033309936523

> <r_mmod_Torsional_Energy-OPLS-2005>
209.271759033203

> <r_mmod_Improper_Torsional_Energy-OPLS-2005>
4.02218055725098

> <r_mmod_Van_der_Waal_Energy-OPLS-2005>
119.480735778809

> <r_mmod_Electrostatic_Energy-OPLS-2005>
-372.132385253906

> <r_mmod_Solvation_Energy-OPLS-2005>
-220.268997192383

> <b_mmod_Minimization_Converged-OPLS-2005>
0

> <r_mmod_RMS_Derivative-OPLS-2005>
2.50384473800659

$$$$
27
                    3D
 Structure written by MMmdl.
169177  0  0  1  0            999 V2000
  -30.6106  -14.7634   20.4601 C   0  0  0  0  0  0
  -30.4333  -12.4762   19.4646 C   0  0  0  0  0  0
  -29.5113  -12.5297   18.2282 C   0  0  0  0  0  0
  -28.0379  -12.3395   18.6428 C   0  0  0  0  0  0
  -27.6377  -13.2351   19.8472 C   0  0  2  0  0  0
  -28.6871  -13.1843   20.9792 C   0  0  0  0  0  0
  -25.2489  -13.8194   20.5700 C   0  0  0  0  0  0
  -24.1797  -13.0436   20.9196 C   0  0  0  0  0  0
  -24.6374  -11.6907   20.8693 C   0  0  0  0  0  0
  -23.9042  -10.4274   21.0329 C   0  0  0  0  0  0
  -24.3587   -9.4218   21.9127 C   0  0  0  0  0  0
  -23.6277   -8.2249   22.0720 C   0  0  0  0  0  0
  -22.4269   -8.0247   21.3512 C   0  0  0  0  0  0
  -21.9882   -9.0200   20.4624 C   0  0  0  0  0  0
  -22.7185  -10.2097   20.3009 C   0  0  0  0  0  0
  -21.6880   -6.0706   22.5244 C   0  0  0  0  0  0
  -21.4031   -6.5614   23.8181 C   0  0  0  0  0  0
  -21.3675   -5.6776   24.9148 C   0  0  0  0  0  0
  -21.6062   -4.3032   24.7208 C   0  0  0  0  0  0
  -21.8837   -3.8121   23.4324 C   0  0  0  0  0  0
  -21.9205   -4.6930   22.3388 C   0  0  0  0  0  0
  -22.7810  -13.5191   21.1850 C   0  0  0  0  0  0
  -22.1671   -4.2117   21.0963 F   0  0  0  0  0  0
  -21.5636   -3.4529   25.7724 F   0  0  0  0  0  0
  -29.9787  -13.5425   20.3840 N   0  0  0  0  0  0
  -26.2922  -12.9406   20.3274 N   0  0  0  0  0  0
  -25.9314  -11.6544   20.5742 N   0  0  0  0  0  0
  -22.0483  -12.8172   22.0418 N   0  0  0  0  0  0
  -25.4187  -15.1931   20.4107 N   0  0  0  0  0  0
  -31.8120  -14.8347   20.1763 O   0  0  0  0  0  0
  -21.6677   -6.8813   21.4197 O   0  0  0  0  0  0
  -22.3484  -14.5494   20.6684 O   0  0  0  0  0  0
  -24.6350  -31.8504   23.1972 C   0  0  0  0  0  0
  -25.9161  -32.4710   23.8341 C   0  0  1  0  0  0
  -27.2257  -27.2504   20.1198 C   0  0  0  0  0  0
  -25.5950  -33.8528   24.2250 N   0  0  0  0  0  0
  -23.4305  -30.4724   21.5394 C   0  0  2  0  0  0
  -24.8757  -28.9147   20.1051 C   0  0  0  0  0  0
  -22.7494  -29.4570   22.4879 C   0  0  0  0  0  0
  -18.0280  -28.1379   22.8451 C   0  0  0  0  0  0
  -24.1480  -36.7286   23.2648 C   0  0  0  0  0  0
  -25.9748  -30.7578   21.3770 C   0  0  0  0  0  0
  -26.0451  -29.3809   20.7171 C   0  0  0  0  0  0
  -27.2156  -28.5576   20.7190 C   0  0  0  0  0  0
  -26.0361  -26.8559   19.4692 C   0  0  0  0  0  0
  -24.8768  -27.6594   19.4750 C   0  0  0  0  0  0
  -23.6504  -29.8091   20.1546 C   0  0  0  0  0  0
  -25.4094  -36.3041   24.0324 C   0  0  1  0  0  0
  -20.5885  -28.3708   23.1231 C   0  0  2  0  0  0
  -20.6752  -26.9420   22.5395 C   0  0  0  0  0  0
  -19.5750  -26.6362   21.5177 C   0  0  0  0  0  0
  -18.1921  -26.7910   22.1589 C   0  0  0  0  0  0
  -19.1530  -28.8845   23.2846 C   0  0  0  0  0  0
  -18.9474  -30.1444   23.8892 C   0  0  0  0  0  0
  -17.6484  -30.6588   24.0558 C   0  0  0  0  0  0
  -25.9063  -34.9420   23.5083 C   0  0  0  0  0  0
  -16.5376  -29.9099   23.6337 C   0  0  0  0  0  0
  -16.7266  -28.6507   23.0352 C   0  0  0  0  0  0
  -26.4527  -31.6567   25.0762 C   0  0  0  0  0  0
  -25.3759  -31.3724   26.1494 C   0  0  0  0  0  0
  -27.0377  -30.2967   24.6297 C   0  0  0  0  0  0
  -27.6075  -32.4306   25.7546 C   0  0  0  0  0  0
  -27.5550  -37.1808   24.8460 C   0  0  0  0  0  0
  -21.4191  -29.3064   22.3628 N   0  0  0  0  0  0
  -26.4255  -37.3755   23.9419 N   0  0  0  0  0  0
  -24.6992  -31.0455   22.0951 N   0  0  0  0  0  0
  -23.4160  -28.8104   23.2996 O   0  0  0  0  0  0
  -28.3257  -26.3657   20.2392 O   0  0  0  0  0  0
  -26.5647  -34.8891   22.4670 O   0  0  0  0  0  0
  -23.5496  -32.1344   23.7245 O   0  0  0  0  0  0
  -31.3702  -17.5655   21.6218 C   0  0  0  0  0  0
  -29.4638  -18.5299   20.5020 C   0  0  0  0  0  0
  -31.7227  -18.8493   22.0810 C   0  0  0  0  0  0
  -30.9781  -20.0230   21.7190 C   0  0  0  0  0  0
  -30.2179  -17.3331   20.8575 C   0  0  0  0  0  0
  -29.8147  -19.9042   20.8729 C   0  0  0  0  0  0
  -32.4720  -18.4370   24.4625 C   0  0  0  0  0  0
  -32.5779  -21.9875   21.3809 C   0  0  0  0  0  0
  -25.7465  -22.6890   19.3518 C   0  0  0  0  0  0
  -32.9097  -18.8620   23.0509 C   0  0  0  0  0  0
  -31.4927  -21.3588   22.2720 C   0  0  0  0  0  0
  -26.6664  -23.3785   20.3743 C   0  0  0  0  0  0
  -28.4994  -25.0705   19.4907 C   0  0  0  0  0  0
  -29.1053  -22.4735   20.6379 C   0  0  0  0  0  0
  -28.1201  -23.5174   19.8841 C   0  0  1  0  0  0
  -29.8355  -15.9169   20.5817 N   0  0  0  0  0  0
  -28.9909  -20.9884   20.3831 O   0  0  0  0  0  0
  -31.4749  -12.6106   19.1662 H   0  0  0  0  0  0
  -30.3789  -11.4996   19.9508 H   0  0  0  0  0  0
  -29.7935  -11.7638   17.5056 H   0  0  0  0  0  0
  -29.6367  -13.4924   17.7285 H   0  0  0  0  0  0
  -27.9026  -11.2869   18.8982 H   0  0  0  0  0  0
  -27.3796  -12.5371   17.7944 H   0  0  0  0  0  0
  -27.6234  -14.2556   19.4628 H   0  0  0  0  0  0
  -28.7375  -12.1950   21.4353 H   0  0  0  0  0  0
  -28.4255  -13.8788   21.7800 H   0  0  0  0  0  0
  -25.2707   -9.5781   22.4707 H   0  0  0  0  0  0
  -24.0026   -7.4684   22.7448 H   0  0  0  0  0  0
  -21.0817   -8.8664   19.8940 H   0  0  0  0  0  0
  -22.3550  -10.9616   19.6135 H   0  0  0  0  0  0
  -21.2027   -7.6128   23.9664 H   0  0  0  0  0  0
  -21.1492   -6.0511   25.9048 H   0  0  0  0  0  0
  -22.0608   -2.7575   23.2844 H   0  0  0  0  0  0
  -22.4131  -11.9868   22.4859 H   0  0  0  0  0  0
  -21.1066  -13.1128   22.2582 H   0  0  0  0  0  0
  -24.6475  -15.8430   20.5124 H   0  0  0  0  0  0
  -26.2665  -15.6384   20.0856 H   0  0  0  0  0  0
  -26.7235  -32.5334   23.1089 H   0  0  0  0  0  0
  -25.0076  -33.9701   25.0374 H   0  0  0  0  0  0
  -22.7331  -31.3006   21.3957 H   0  0  0  0  0  0
  -23.3728  -35.9643   23.3272 H   0  0  0  0  0  0
  -24.3591  -36.8945   22.2079 H   0  0  0  0  0  0
  -23.7252  -37.6481   23.6703 H   0  0  0  0  0  0
  -26.1233  -31.5190   20.6090 H   0  0  0  0  0  0
  -26.8489  -30.8037   22.0146 H   0  0  0  0  0  0
  -28.1085  -28.9102   21.2154 H   0  0  0  0  0  0
  -25.9702  -25.8928   18.9853 H   0  0  0  0  0  0
  -23.9806  -27.2891   18.9981 H   0  0  0  0  0  0
  -23.7977  -30.5968   19.4133 H   0  0  0  0  0  0
  -22.7630  -29.2625   19.8282 H   0  0  0  0  0  0
  -25.1270  -36.1878   25.0814 H   0  0  0  0  0  0
  -20.9990  -28.3298   24.1350 H   0  0  0  0  0  0
  -20.5577  -26.2353   23.3620 H   0  0  0  0  0  0
  -21.6626  -26.7393   22.1250 H   0  0  0  0  0  0
  -19.6947  -25.6263   21.1231 H   0  0  0  0  0  0
  -19.6685  -27.3150   20.6686 H   0  0  0  0  0  0
  -17.4189  -26.6639   21.3998 H   0  0  0  0  0  0
  -18.0368  -26.0040   22.8978 H   0  0  0  0  0  0
  -19.7970  -30.7222   24.2267 H   0  0  0  0  0  0
  -17.5066  -31.6262   24.5169 H   0  0  0  0  0  0
  -15.5387  -30.3021   23.7634 H   0  0  0  0  0  0
  -15.8655  -28.0819   22.7103 H   0  0  0  0  0  0
  -24.6013  -30.6941   25.7883 H   0  0  0  0  0  0
  -24.8875  -32.2885   26.4849 H   0  0  0  0  0  0
  -25.8125  -30.9027   27.0327 H   0  0  0  0  0  0
  -26.2984  -29.6691   24.1297 H   0  0  0  0  0  0
  -27.3995  -29.7241   25.4860 H   0  0  0  0  0  0
  -27.8879  -30.4184   23.9565 H   0  0  0  0  0  0
  -27.2701  -33.3645   26.2048 H   0  0  0  0  0  0
  -28.3947  -32.6787   25.0413 H   0  0  0  0  0  0
  -28.0671  -31.8474   26.5541 H   0  0  0  0  0  0
  -28.2548  -38.0120   24.7495 H   0  0  0  0  0  0
  -28.1036  -36.2654   24.6242 H   0  0  0  0  0  0
  -27.2294  -37.1395   25.8868 H   0  0  0  0  0  0
  -20.9382  -29.8842   21.6874 H   0  0  0  0  0  0
  -26.0094  -38.2804   24.1457 H   0  0  0  0  0  0
  -31.9777  -16.7271   21.9306 H   0  0  0  0  0  0
  -28.5692  -18.4018   19.9113 H   0  0  0  0  0  0
  -31.6726  -19.0751   24.8377 H   0  0  0  0  0  0
  -33.2966  -18.4889   25.1734 H   0  0  0  0  0  0
  -32.1014  -17.4091   24.4672 H   0  0  0  0  0  0
  -33.0659  -22.8144   21.8978 H   0  0  0  0  0  0
  -32.1878  -22.3778   20.4422 H   0  0  0  0  0  0
  -33.3410  -21.2564   21.1159 H   0  0  0  0  0  0
  -24.7062  -22.7334   19.6695 H   0  0  0  0  0  0
  -26.0081  -21.6375   19.2269 H   0  0  0  0  0  0
  -25.8064  -23.1675   18.3714 H   0  0  0  0  0  0
  -33.4359  -19.8143   23.0763 H   0  0  0  0  0  0
  -33.6646  -18.1567   22.6994 H   0  0  0  0  0  0
  -31.8927  -21.2231   23.2767 H   0  0  0  0  0  0
  -30.7064  -22.0659   22.4842 H   0  0  0  0  0  0
  -26.6389  -22.8316   21.3176 H   0  0  0  0  0  0
  -26.2666  -24.3633   20.6080 H   0  0  0  0  0  0
  -28.0606  -25.2461   18.5097 H   0  0  0  0  0  0
  -29.5659  -25.0511   19.2646 H   0  0  0  0  0  0
  -28.9243  -22.6444   21.6987 H   0  0  0  0  0  0
  -30.1130  -22.7939   20.4049 H   0  0  0  0  0  0
  -28.1451  -23.0623   18.8941 H   0  0  0  0  0  0
  -28.8420  -15.7484   20.5287 H   0  0  0  0  0  0
  1 25  1  0  0  0
  1 30  2  0  0  0
  1 86  1  0  0  0
  2  3  1  0  0  0
  2 25  1  0  0  0
  2 88  1  0  0  0
  2 89  1  0  0  0
  3  4  1  0  0  0
  3 90  1  0  0  0
  3 91  1  0  0  0
  4  5  1  0  0  0
  4 92  1  0  0  0
  4 93  1  0  0  0
  5  6  1  0  0  0
  5 26  1  0  0  0
  5 94  1  0  0  0
  6 25  1  0  0  0
  6 95  1  0  0  0
  6 96  1  0  0  0
  7  8  2  0  0  0
  7 26  1  0  0  0
  7 29  1  0  0  0
  8  9  1  0  0  0
  8 22  1  0  0  0
  9 10  1  0  0  0
  9 27  2  0  0  0
 10 11  2  0  0  0
 10 15  1  0  0  0
 11 12  1  0  0  0
 11 97  1  0  0  0
 12 13  2  0  0  0
 12 98  1  0  0  0
 13 14  1  0  0  0
 13 31  1  0  0  0
 14 15  2  0  0  0
 14 99  1  0  0  0
 15100  1  0  0  0
 16 17  2  0  0  0
 16 21  1  0  0  0
 16 31  1  0  0  0
 17 18  1  0  0  0
 17101  1  0  0  0
 18 19  2  0  0  0
 18102  1  0  0  0
 19 20  1  0  0  0
 19 24  1  0  0  0
 20 21  2  0  0  0
 20103  1  0  0  0
 21 23  1  0  0  0
 22 28  1  0  0  0
 22 32  2  0  0  0
 26 27  1  0  0  0
 28104  1  0  0  0
 28105  1  0  0  0
 29106  1  0  0  0
 29107  1  0  0  0
 33 34  1  0  0  0
 33 66  1  0  0  0
 33 70  2  0  0  0
 34 36  1  0  0  0
 34 59  1  0  0  0
 34108  1  0  0  0
 35 44  2  0  0  0
 35 45  1  0  0  0
 35 68  1  0  0  0
 36 56  1  0  0  0
 36109  1  0  0  0
 37 39  1  0  0  0
 37 47  1  0  0  0
 37 66  1  0  0  0
 37110  1  0  0  0
 38 43  2  0  0  0
 38 46  1  0  0  0
 38 47  1  0  0  0
 39 64  1  0  0  0
 39 67  2  0  0  0
 40 52  1  0  0  0
 40 53  2  0  0  0
 40 58  1  0  0  0
 41111  1  0  0  0
 41112  1  0  0  0
 41113  1  0  0  0
 41 48  1  0  0  0
 42 43  1  0  0  0
 42 66  1  0  0  0
 42114  1  0  0  0
 42115  1  0  0  0
 43 44  1  0  0  0
 44116  1  0  0  0
 45 46  2  0  0  0
 45117  1  0  0  0
 46118  1  0  0  0
 47119  1  0  0  0
 47120  1  0  0  0
 48 56  1  0  0  0
 48 65  1  0  0  0
 48121  1  0  0  0
 49 50  1  0  0  0
 49 53  1  0  0  0
 49 64  1  0  0  0
 49122  1  0  0  0
 50 51  1  0  0  0
 50123  1  0  0  0
 50124  1  0  0  0
 51 52  1  0  0  0
 51125  1  0  0  0
 51126  1  0  0  0
 52127  1  0  0  0
 52128  1  0  0  0
 53 54  1  0  0  0
 54 55  2  0  0  0
 54129  1  0  0  0
 55 57  1  0  0  0
 55130  1  0  0  0
 56 69  2  0  0  0
 57 58  2  0  0  0
 57131  1  0  0  0
 58132  1  0  0  0
 59 60  1  0  0  0
 59 61  1  0  0  0
 59 62  1  0  0  0
 60133  1  0  0  0
 60134  1  0  0  0
 60135  1  0  0  0
 61136  1  0  0  0
 61137  1  0  0  0
 61138  1  0  0  0
 62139  1  0  0  0
 62140  1  0  0  0
 62141  1  0  0  0
 63 65  1  0  0  0
 63142  1  0  0  0
 63143  1  0  0  0
 63144  1  0  0  0
 64145  1  0  0  0
 65146  1  0  0  0
 68 83  1  0  0  0
 71 73  2  0  0  0
 71 75  1  0  0  0
 71147  1  0  0  0
 72 75  2  0  0  0
 72 76  1  0  0  0
 72148  1  0  0  0
 73 74  1  0  0  0
 73 80  1  0  0  0
 74 76  2  0  0  0
 74 81  1  0  0  0
 75 86  1  0  0  0
 76 87  1  0  0  0
 77 80  1  0  0  0
 77149  1  0  0  0
 77150  1  0  0  0
 77151  1  0  0  0
 78 81  1  0  0  0
 78152  1  0  0  0
 78153  1  0  0  0
 78154  1  0  0  0
 79 82  1  0  0  0
 79155  1  0  0  0
 79156  1  0  0  0
 79157  1  0  0  0
 80158  1  0  0  0
 80159  1  0  0  0
 81160  1  0  0  0
 81161  1  0  0  0
 82162  1  0  0  0
 82163  1  0  0  0
 82 85  1  0  0  0
 83 85  1  0  0  0
 83164  1  0  0  0
 83165  1  0  0  0
 84 85  1  0  0  0
 84 87  1  0  0  0
 84166  1  0  0  0
 84167  1  0  0  0
 85168  1  0  0  0
 86169  1  0  0  0
M  ISO  4   1 100  68 101  83 101  86 100
M  END
> <chiral flag>
0

> <version>
0

> <s_m_source_file>
/data/baiqing/PycharmProjects/Reinvent-master-3.2/result/LINK_invent/BTK/process_docking_weight1_custom_product_contain_oxygen_bond_distance_aromatic_linkinvent_7_9_3/rearranged_h_0137.sdf

> <i_m_source_file_index>
28

> <r_mmod_Potential_Energy-OPLS-2005>
344.248901367188

> <r_mmod_Stretch_Energy-OPLS-2005>
150.459808349609

> <r_mmod_Bend_Energy-OPLS-2005>
258.102691650391

> <r_mmod_Torsional_Energy-OPLS-2005>
242.056549072266

> <r_mmod_Improper_Torsional_Energy-OPLS-2005>
6.9190468788147

> <r_mmod_Van_der_Waal_Energy-OPLS-2005>
149.934677124023

> <r_mmod_Electrostatic_Energy-OPLS-2005>
-354.792053222656

> <r_mmod_Solvation_Energy-OPLS-2005>
-203.687805175781

> <b_mmod_Minimization_Converged-OPLS-2005>
0

> <r_mmod_RMS_Derivative-OPLS-2005>
4.4683952331543

$$$$
28
                    3D
 Structure written by MMmdl.
167175  0  0  1  0            999 V2000
  -30.6838  -14.4554   20.5927 C   0  0  0  0  0  0
  -30.4166  -12.2973   19.4257 C   0  0  0  0  0  0
  -29.5018  -12.5297   18.2050 C   0  0  0  0  0  0
  -28.0213  -12.3673   18.6112 C   0  0  0  0  0  0
  -27.6530  -13.2041   19.8644 C   0  0  2  0  0  0
  -28.6865  -12.9713   20.9924 C   0  0  0  0  0  0
  -25.2504  -13.8153   20.5648 C   0  0  0  0  0  0
  -24.1734  -13.0426   20.9137 C   0  0  0  0  0  0
  -24.6296  -11.6895   20.8660 C   0  0  0  0  0  0
  -23.8989  -10.4279   21.0359 C   0  0  0  0  0  0
  -24.3564   -9.4211   21.9147 C   0  0  0  0  0  0
  -23.6251   -8.2238   22.0723 C   0  0  0  0  0  0
  -22.4226   -8.0245   21.3521 C   0  0  0  0  0  0
  -21.9840   -9.0232   20.4631 C   0  0  0  0  0  0
  -22.7158  -10.2097   20.3010 C   0  0  0  0  0  0
  -21.6826   -6.0709   22.5292 C   0  0  0  0  0  0
  -21.4059   -6.5631   23.8242 C   0  0  0  0  0  0
  -21.3665   -5.6753   24.9191 C   0  0  0  0  0  0
  -21.6008   -4.3012   24.7214 C   0  0  0  0  0  0
  -21.8814   -3.8105   23.4343 C   0  0  0  0  0  0
  -21.9201   -4.6959   22.3409 C   0  0  0  0  0  0
  -22.7770  -13.5202   21.1831 C   0  0  0  0  0  0
  -22.1653   -4.2134   21.0973 F   0  0  0  0  0  0
  -21.5617   -3.4502   25.7730 F   0  0  0  0  0  0
  -30.0244  -13.2743   20.4480 N   0  0  0  0  0  0
  -26.2919  -12.9326   20.3258 N   0  0  0  0  0  0
  -25.9199  -11.6492   20.5622 N   0  0  0  0  0  0
  -22.0396  -12.8229   22.0408 N   0  0  0  0  0  0
  -25.4201  -15.1873   20.4079 N   0  0  0  0  0  0
  -31.8127  -14.6656   20.1406 O   0  0  0  0  0  0
  -21.6604   -6.8845   21.4231 O   0  0  0  0  0  0
  -22.3470  -14.5530   20.6702 O   0  0  0  0  0  0
  -24.6096  -31.8732   23.2113 C   0  0  0  0  0  0
  -25.8986  -32.4858   23.8413 C   0  0  1  0  0  0
  -27.2410  -27.4330   20.1144 C   0  0  0  0  0  0
  -25.5800  -33.8647   24.2327 N   0  0  0  0  0  0
  -23.4027  -30.4869   21.5526 C   0  0  2  0  0  0
  -24.8559  -28.9454   20.1244 C   0  0  0  0  0  0
  -22.7428  -29.4636   22.5044 C   0  0  0  0  0  0
  -18.0278  -28.1379   22.8493 C   0  0  0  0  0  0
  -24.1460  -36.7341   23.2646 C   0  0  0  0  0  0
  -25.9294  -30.8245   21.3762 C   0  0  0  0  0  0
  -26.0081  -29.4518   20.7413 C   0  0  0  0  0  0
  -27.2051  -28.6983   20.7481 C   0  0  0  0  0  0
  -26.0847  -26.9526   19.4786 C   0  0  0  0  0  0
  -24.8868  -27.6934   19.4886 C   0  0  0  0  0  0
  -23.6186  -29.8129   20.1694 C   0  0  0  0  0  0
  -25.4082  -36.3143   24.0349 C   0  0  1  0  0  0
  -20.5860  -28.3654   23.1335 C   0  0  2  0  0  0
  -20.6744  -26.9392   22.5416 C   0  0  0  0  0  0
  -19.5729  -26.6410   21.5188 C   0  0  0  0  0  0
  -18.1912  -26.7940   22.1608 C   0  0  0  0  0  0
  -19.1532  -28.8839   23.2913 C   0  0  0  0  0  0
  -18.9458  -30.1441   23.8935 C   0  0  0  0  0  0
  -17.6457  -30.6580   24.0565 C   0  0  0  0  0  0
  -25.9010  -34.9501   23.5160 C   0  0  0  0  0  0
  -16.5345  -29.9079   23.6310 C   0  0  0  0  0  0
  -16.7267  -28.6495   23.0338 C   0  0  0  0  0  0
  -26.4429  -31.6635   25.0736 C   0  0  0  0  0  0
  -25.3695  -31.3705   26.1474 C   0  0  0  0  0  0
  -27.0232  -30.3073   24.6096 C   0  0  0  0  0  0
  -27.6035  -32.4359   25.7445 C   0  0  0  0  0  0
  -27.5587  -37.1808   24.8457 C   0  0  0  0  0  0
  -21.4176  -29.3005   22.3763 N   0  0  0  0  0  0
  -26.4282  -37.3821   23.9418 N   0  0  0  0  0  0
  -24.6636  -31.0781   22.1040 N   0  0  0  0  0  0
  -23.4212  -28.8209   23.3108 O   0  0  0  0  0  0
  -28.3854  -26.6739   20.0040 O   0  0  0  0  0  0
  -26.5630  -34.8952   22.4761 O   0  0  0  0  0  0
  -23.5280  -32.1473   23.7487 O   0  0  0  0  0  0
  -31.3370  -18.1444   23.2897 C   0  0  0  0  0  0
  -30.9930  -19.2931   22.5469 C   0  0  0  0  0  0
  -30.0367  -17.8713   20.8271 C   0  0  0  0  0  0
  -31.0091  -16.8531   22.8249 C   0  0  0  0  0  0
  -30.3696  -16.7132   21.5722 C   0  0  0  0  0  0
  -30.3269  -19.1731   21.3036 C   0  0  0  0  0  0
  -29.3132  -23.9426   20.2071 C   0  0  0  0  0  0
  -29.7497  -22.6737   19.9834 C   0  0  0  0  0  0
  -31.2865  -15.6414   23.7045 C   0  0  0  0  0  0
  -31.4727  -22.4153   18.1441 C   0  0  0  0  0  0
  -29.9153  -24.4185   22.6838 C   0  0  0  0  0  0
  -29.9930  -22.2531   18.5374 C   0  0  0  0  0  0
  -30.0544  -21.5924   21.0377 C   0  0  0  0  0  0
  -29.0842  -26.2933   21.1928 C   0  0  0  0  0  0
  -29.0076  -24.7558   21.4771 C   0  0  1  0  0  0
  -29.9376  -15.4379   21.1278 N   0  0  0  0  0  0
  -29.9376  -20.2519   20.5248 O   0  0  0  0  0  0
  -31.4720  -12.3692   19.1592 H   0  0  0  0  0  0
  -30.2788  -11.2853   19.8062 H   0  0  0  0  0  0
  -29.7526  -11.8365   17.4044 H   0  0  0  0  0  0
  -29.6696  -13.5326   17.8087 H   0  0  0  0  0  0
  -27.8389  -11.3108   18.8143 H   0  0  0  0  0  0
  -27.3693  -12.6325   17.7764 H   0  0  0  0  0  0
  -27.6982  -14.2521   19.5714 H   0  0  0  0  0  0
  -28.6414  -11.9343   21.3286 H   0  0  0  0  0  0
  -28.4386  -13.5624   21.8754 H   0  0  0  0  0  0
  -25.2718   -9.5720   22.4714 H   0  0  0  0  0  0
  -23.9988   -7.4605   22.7422 H   0  0  0  0  0  0
  -21.0778   -8.8712   19.8918 H   0  0  0  0  0  0
  -22.3611  -10.9620   19.6100 H   0  0  0  0  0  0
  -21.2090   -7.6135   23.9754 H   0  0  0  0  0  0
  -21.1479   -6.0473   25.9089 H   0  0  0  0  0  0
  -22.0588   -2.7598   23.2825 H   0  0  0  0  0  0
  -22.4011  -11.9958   22.4953 H   0  0  0  0  0  0
  -21.1022  -13.1298   22.2569 H   0  0  0  0  0  0
  -24.6415  -15.8315   20.4814 H   0  0  0  0  0  0
  -26.2598  -15.6259   20.0506 H   0  0  0  0  0  0
  -26.7062  -32.5574   23.1178 H   0  0  0  0  0  0
  -24.9737  -33.9803   25.0320 H   0  0  0  0  0  0
  -22.6881  -31.3003   21.4098 H   0  0  0  0  0  0
  -23.3726  -35.9668   23.3318 H   0  0  0  0  0  0
  -24.3543  -36.8970   22.2061 H   0  0  0  0  0  0
  -23.7209  -37.6541   23.6674 H   0  0  0  0  0  0
  -26.0440  -31.5774   20.5953 H   0  0  0  0  0  0
  -26.8190  -30.8913   21.9896 H   0  0  0  0  0  0
  -28.0946  -29.0910   21.2195 H   0  0  0  0  0  0
  -26.1179  -26.0009   18.9643 H   0  0  0  0  0  0
  -24.0081  -27.3060   18.9917 H   0  0  0  0  0  0
  -23.7326  -30.5839   19.4072 H   0  0  0  0  0  0
  -22.7470  -29.2286   19.8705 H   0  0  0  0  0  0
  -25.1248  -36.2016   25.0843 H   0  0  0  0  0  0
  -20.9931  -28.3193   24.1463 H   0  0  0  0  0  0
  -20.5611  -26.2247   23.3591 H   0  0  0  0  0  0
  -21.6622  -26.7413   22.1227 H   0  0  0  0  0  0
  -19.6874  -25.6338   21.1176 H   0  0  0  0  0  0
  -19.6659  -27.3256   20.6752 H   0  0  0  0  0  0
  -17.4171  -26.6708   21.4013 H   0  0  0  0  0  0
  -18.0321  -26.0065   22.8995 H   0  0  0  0  0  0
  -19.7924  -30.7247   24.2329 H   0  0  0  0  0  0
  -17.5001  -31.6247   24.5186 H   0  0  0  0  0  0
  -15.5351  -30.2984   23.7619 H   0  0  0  0  0  0
  -15.8667  -28.0818   22.7042 H   0  0  0  0  0  0
  -24.5841  -30.7111   25.7768 H   0  0  0  0  0  0
  -24.8872  -32.2821   26.5005 H   0  0  0  0  0  0
  -25.8010  -30.8775   27.0188 H   0  0  0  0  0  0
  -26.2739  -29.6871   24.1146 H   0  0  0  0  0  0
  -27.3996  -29.7288   25.4544 H   0  0  0  0  0  0
  -27.8607  -30.4404   23.9242 H   0  0  0  0  0  0
  -27.2689  -33.3646   26.2076 H   0  0  0  0  0  0
  -28.3751  -32.6960   25.0193 H   0  0  0  0  0  0
  -28.0804  -31.8453   26.5270 H   0  0  0  0  0  0
  -28.2594  -38.0122   24.7527 H   0  0  0  0  0  0
  -28.1099  -36.2650   24.6230 H   0  0  0  0  0  0
  -27.2317  -37.1416   25.8867 H   0  0  0  0  0  0
  -20.9383  -29.8679   21.6911 H   0  0  0  0  0  0
  -26.0185  -38.2904   24.1436 H   0  0  0  0  0  0
  -31.8201  -18.2679   24.2500 H   0  0  0  0  0  0
  -31.2383  -20.2525   22.9735 H   0  0  0  0  0  0
  -29.5231  -17.7643   19.8829 H   0  0  0  0  0  0
  -29.1561  -24.5310   19.3153 H   0  0  0  0  0  0
  -31.8310  -15.9218   24.6078 H   0  0  0  0  0  0
  -31.8980  -14.9075   23.1782 H   0  0  0  0  0  0
  -30.3477  -15.1637   23.9983 H   0  0  0  0  0  0
  -31.6490  -22.1182   17.1079 H   0  0  0  0  0  0
  -32.1280  -21.8158   18.7811 H   0  0  0  0  0  0
  -31.7911  -23.4564   18.2388 H   0  0  0  0  0  0
  -29.7877  -23.4052   23.0573 H   0  0  0  0  0  0
  -29.6872  -25.0724   23.5279 H   0  0  0  0  0  0
  -30.9721  -24.5612   22.4500 H   0  0  0  0  0  0
  -29.3802  -22.8677   17.8734 H   0  0  0  0  0  0
  -29.6429  -21.2347   18.3617 H   0  0  0  0  0  0
  -29.3754  -21.6895   21.8824 H   0  0  0  0  0  0
  -31.0737  -21.7682   21.3784 H   0  0  0  0  0  0
  -30.1254  -26.5831   21.0399 H   0  0  0  0  0  0
  -28.7324  -26.8570   22.0599 H   0  0  0  0  0  0
  -27.9754  -24.5292   21.7491 H   0  0  0  0  0  0
  -28.9864  -15.1883   21.3574 H   0  0  0  0  0  0
  1 25  1  0  0  0
  1 30  2  0  0  0
  1 86  1  0  0  0
  2  3  1  0  0  0
  2 25  1  0  0  0
  2 88  1  0  0  0
  2 89  1  0  0  0
  3  4  1  0  0  0
  3 90  1  0  0  0
  3 91  1  0  0  0
  4  5  1  0  0  0
  4 92  1  0  0  0
  4 93  1  0  0  0
  5  6  1  0  0  0
  5 26  1  0  0  0
  5 94  1  0  0  0
  6 25  1  0  0  0
  6 95  1  0  0  0
  6 96  1  0  0  0
  7  8  2  0  0  0
  7 26  1  0  0  0
  7 29  1  0  0  0
  8  9  1  0  0  0
  8 22  1  0  0  0
  9 10  1  0  0  0
  9 27  2  0  0  0
 10 11  2  0  0  0
 10 15  1  0  0  0
 11 12  1  0  0  0
 11 97  1  0  0  0
 12 13  2  0  0  0
 12 98  1  0  0  0
 13 14  1  0  0  0
 13 31  1  0  0  0
 14 15  2  0  0  0
 14 99  1  0  0  0
 15100  1  0  0  0
 16 17  2  0  0  0
 16 21  1  0  0  0
 16 31  1  0  0  0
 17 18  1  0  0  0
 17101  1  0  0  0
 18 19  2  0  0  0
 18102  1  0  0  0
 19 20  1  0  0  0
 19 24  1  0  0  0
 20 21  2  0  0  0
 20103  1  0  0  0
 21 23  1  0  0  0
 22 28  1  0  0  0
 22 32  2  0  0  0
 26 27  1  0  0  0
 28104  1  0  0  0
 28105  1  0  0  0
 29106  1  0  0  0
 29107  1  0  0  0
 33 34  1  0  0  0
 33 66  1  0  0  0
 33 70  2  0  0  0
 34 36  1  0  0  0
 34 59  1  0  0  0
 34108  1  0  0  0
 35 44  2  0  0  0
 35 45  1  0  0  0
 35 68  1  0  0  0
 36 56  1  0  0  0
 36109  1  0  0  0
 37 39  1  0  0  0
 37 47  1  0  0  0
 37 66  1  0  0  0
 37110  1  0  0  0
 38 43  2  0  0  0
 38 46  1  0  0  0
 38 47  1  0  0  0
 39 64  1  0  0  0
 39 67  2  0  0  0
 40 52  1  0  0  0
 40 53  2  0  0  0
 40 58  1  0  0  0
 41111  1  0  0  0
 41112  1  0  0  0
 41113  1  0  0  0
 41 48  1  0  0  0
 42 43  1  0  0  0
 42 66  1  0  0  0
 42114  1  0  0  0
 42115  1  0  0  0
 43 44  1  0  0  0
 44116  1  0  0  0
 45 46  2  0  0  0
 45117  1  0  0  0
 46118  1  0  0  0
 47119  1  0  0  0
 47120  1  0  0  0
 48 56  1  0  0  0
 48 65  1  0  0  0
 48121  1  0  0  0
 49 50  1  0  0  0
 49 53  1  0  0  0
 49 64  1  0  0  0
 49122  1  0  0  0
 50 51  1  0  0  0
 50123  1  0  0  0
 50124  1  0  0  0
 51 52  1  0  0  0
 51125  1  0  0  0
 51126  1  0  0  0
 52127  1  0  0  0
 52128  1  0  0  0
 53 54  1  0  0  0
 54 55  2  0  0  0
 54129  1  0  0  0
 55 57  1  0  0  0
 55130  1  0  0  0
 56 69  2  0  0  0
 57 58  2  0  0  0
 57131  1  0  0  0
 58132  1  0  0  0
 59 60  1  0  0  0
 59 61  1  0  0  0
 59 62  1  0  0  0
 60133  1  0  0  0
 60134  1  0  0  0
 60135  1  0  0  0
 61136  1  0  0  0
 61137  1  0  0  0
 61138  1  0  0  0
 62139  1  0  0  0
 62140  1  0  0  0
 62141  1  0  0  0
 63 65  1  0  0  0
 63142  1  0  0  0
 63143  1  0  0  0
 63144  1  0  0  0
 64145  1  0  0  0
 65146  1  0  0  0
 68 84  1  0  0  0
 71 72  2  0  0  0
 71 74  1  0  0  0
 71147  1  0  0  0
 72 76  1  0  0  0
 72148  1  0  0  0
 73 75  1  0  0  0
 73 76  2  0  0  0
 73149  1  0  0  0
 74 75  2  0  0  0
 74 79  1  0  0  0
 75 86  1  0  0  0
 76 87  1  0  0  0
 77 78  2  0  0  0
 77 85  1  0  0  0
 77150  1  0  0  0
 78 82  1  0  0  0
 78 83  1  0  0  0
 79151  1  0  0  0
 79152  1  0  0  0
 79153  1  0  0  0
 80 82  1  0  0  0
 80154  1  0  0  0
 80155  1  0  0  0
 80156  1  0  0  0
 81157  1  0  0  0
 81158  1  0  0  0
 81159  1  0  0  0
 81 85  1  0  0  0
 82160  1  0  0  0
 82161  1  0  0  0
 83 87  1  0  0  0
 83162  1  0  0  0
 83163  1  0  0  0
 84 85  1  0  0  0
 84164  1  0  0  0
 84165  1  0  0  0
 85166  1  0  0  0
 86167  1  0  0  0
M  ISO  4   1 100  68 101  84 101  86 100
M  END
> <chiral flag>
0

> <version>
0

> <s_m_source_file>
/data/baiqing/PycharmProjects/Reinvent-master-3.2/result/LINK_invent/BTK/process_docking_weight1_custom_product_contain_oxygen_bond_distance_aromatic_linkinvent_7_9_3/rearranged_h_0137.sdf

> <i_m_source_file_index>
29

> <r_mmod_Potential_Energy-OPLS-2005>
25.4573421478271

> <r_mmod_Stretch_Energy-OPLS-2005>
40.9290771484375

> <r_mmod_Bend_Energy-OPLS-2005>
122.894752502441

> <r_mmod_Torsional_Energy-OPLS-2005>
256.054016113281

> <r_mmod_Improper_Torsional_Energy-OPLS-2005>
4.85484409332275

> <r_mmod_Van_der_Waal_Energy-OPLS-2005>
156.058120727539

> <r_mmod_Electrostatic_Energy-OPLS-2005>
-368.546142578125

> <r_mmod_Solvation_Energy-OPLS-2005>
-198.755813598633

> <b_mmod_Minimization_Converged-OPLS-2005>
0

> <r_mmod_RMS_Derivative-OPLS-2005>
6.41209697723389

$$$$
29
                    3D
 Structure written by MMmdl.
162170  0  0  1  0            999 V2000
  -30.6478  -14.6572   20.4639 C   0  0  0  0  0  0
  -30.4195  -12.3868   19.4663 C   0  0  0  0  0  0
  -29.5060  -12.4896   18.2275 C   0  0  0  0  0  0
  -28.0285  -12.3359   18.6388 C   0  0  0  0  0  0
  -27.6478  -13.2242   19.8552 C   0  0  2  0  0  0
  -28.6931  -13.1220   20.9892 C   0  0  0  0  0  0
  -25.2514  -13.8140   20.5648 C   0  0  0  0  0  0
  -24.1822  -13.0423   20.9222 C   0  0  0  0  0  0
  -24.6418  -11.6905   20.8791 C   0  0  0  0  0  0
  -23.9088  -10.4291   21.0440 C   0  0  0  0  0  0
  -24.3629   -9.4203   21.9211 C   0  0  0  0  0  0
  -23.6298   -8.2240   22.0752 C   0  0  0  0  0  0
  -22.4269   -8.0290   21.3559 C   0  0  0  0  0  0
  -21.9943   -9.0269   20.4650 C   0  0  0  0  0  0
  -22.7276  -10.2142   20.3077 C   0  0  0  0  0  0
  -21.6863   -6.0743   22.5286 C   0  0  0  0  0  0
  -21.4020   -6.5640   23.8220 C   0  0  0  0  0  0
  -21.3663   -5.6792   24.9186 C   0  0  0  0  0  0
  -21.6031   -4.3053   24.7233 C   0  0  0  0  0  0
  -21.8827   -3.8152   23.4354 C   0  0  0  0  0  0
  -21.9194   -4.6973   22.3410 C   0  0  0  0  0  0
  -22.7852  -13.5216   21.1871 C   0  0  0  0  0  0
  -22.1660   -4.2160   21.0991 F   0  0  0  0  0  0
  -21.5624   -3.4538   25.7746 F   0  0  0  0  0  0
  -30.0017  -13.4446   20.4119 N   0  0  0  0  0  0
  -26.2974  -12.9371   20.3291 N   0  0  0  0  0  0
  -25.9351  -11.6526   20.5789 N   0  0  0  0  0  0
  -22.0481  -12.8221   22.0392 N   0  0  0  0  0  0
  -25.4107  -15.1840   20.3890 N   0  0  0  0  0  0
  -31.8300  -14.7268   20.1186 O   0  0  0  0  0  0
  -21.6635   -6.8887   21.4244 O   0  0  0  0  0  0
  -22.3579  -14.5551   20.6728 O   0  0  0  0  0  0
  -24.6272  -31.8528   23.2007 C   0  0  0  0  0  0
  -25.9094  -32.4722   23.8331 C   0  0  1  0  0  0
  -27.1887  -27.2673   20.1317 C   0  0  0  0  0  0
  -25.5867  -33.8527   24.2242 N   0  0  0  0  0  0
  -23.4233  -30.4805   21.5430 C   0  0  2  0  0  0
  -24.8601  -28.9254   20.1078 C   0  0  0  0  0  0
  -22.7471  -29.4587   22.4904 C   0  0  0  0  0  0
  -18.0279  -28.1349   22.8435 C   0  0  0  0  0  0
  -24.1489  -36.7283   23.2663 C   0  0  0  0  0  0
  -25.9645  -30.7701   21.3756 C   0  0  0  0  0  0
  -26.0319  -29.3936   20.7188 C   0  0  0  0  0  0
  -27.2083  -28.5793   20.7115 C   0  0  0  0  0  0
  -25.9999  -26.8547   19.5101 C   0  0  0  0  0  0
  -24.8495  -27.6648   19.4884 C   0  0  0  0  0  0
  -23.6352  -29.8165   20.1578 C   0  0  0  0  0  0
  -25.4112  -36.3042   24.0346 C   0  0  1  0  0  0
  -20.5883  -28.3635   23.1252 C   0  0  2  0  0  0
  -20.6759  -26.9356   22.5384 C   0  0  0  0  0  0
  -19.5741  -26.6340   21.5150 C   0  0  0  0  0  0
  -18.1908  -26.7876   22.1573 C   0  0  0  0  0  0
  -19.1550  -28.8806   23.2809 C   0  0  0  0  0  0
  -18.9482  -30.1395   23.8818 C   0  0  0  0  0  0
  -17.6498  -30.6531   24.0552 C   0  0  0  0  0  0
  -25.9046  -34.9411   23.5116 C   0  0  0  0  0  0
  -16.5369  -29.9071   23.6324 C   0  0  0  0  0  0
  -16.7272  -28.6498   23.0307 C   0  0  0  0  0  0
  -26.4437  -31.6608   25.0745 C   0  0  0  0  0  0
  -25.3636  -31.3774   26.1461 C   0  0  0  0  0  0
  -27.0318  -30.3053   24.6206 C   0  0  0  0  0  0
  -27.5987  -32.4387   25.7479 C   0  0  0  0  0  0
  -27.5569  -37.1808   24.8481 C   0  0  0  0  0  0
  -21.4193  -29.3018   22.3663 N   0  0  0  0  0  0
  -26.4282  -37.3738   23.9436 N   0  0  0  0  0  0
  -24.6915  -31.0553   22.0958 N   0  0  0  0  0  0
  -23.4184  -28.8120   23.2981 O   0  0  0  0  0  0
  -28.2992  -26.4185   20.0625 O   0  0  0  0  0  0
  -26.5638  -34.8882   22.4696 O   0  0  0  0  0  0
  -23.5437  -32.1356   23.7323 O   0  0  0  0  0  0
  -31.8183  -19.0461   20.2845 C   0  0  0  0  0  0
  -30.8205  -20.0347   20.3443 C   0  0  0  0  0  0
  -31.5051  -17.6797   20.3917 C   0  0  0  0  0  0
  -29.4573  -19.6939   20.4906 C   0  0  0  0  0  0
  -29.1547  -18.2709   20.6049 C   0  0  0  0  0  0
  -30.1734  -17.2315   20.5680 C   0  0  0  0  0  0
  -27.6977  -17.8561   20.7359 C   0  0  0  0  0  0
  -26.4073  -23.3923   20.6787 C   0  0  0  0  0  0
  -27.8138  -23.6605   18.6096 C   0  0  0  0  0  0
  -28.3675  -20.8559   20.4587 C   0  0  0  0  0  0
  -28.7834  -22.4163   20.6174 C   0  0  0  0  0  0
  -28.3304  -25.0822   20.7292 C   0  0  0  0  0  0
  -27.8369  -23.6478   20.1528 C   0  0  0  0  0  0
  -29.8842  -15.7818   20.7108 N   0  0  0  0  0  0
  -31.4678  -12.4722   19.1733 H   0  0  0  0  0  0
  -30.3229  -11.4046   19.9283 H   0  0  0  0  0  0
  -29.7696  -11.7204   17.5002 H   0  0  0  0  0  0
  -29.6595  -13.4495   17.7291 H   0  0  0  0  0  0
  -27.8672  -11.2855   18.8847 H   0  0  0  0  0  0
  -27.3779  -12.5516   17.7895 H   0  0  0  0  0  0
  -27.6538  -14.2540   19.4961 H   0  0  0  0  0  0
  -28.7066  -12.1195   21.4188 H   0  0  0  0  0  0
  -28.4510  -13.8000   21.8100 H   0  0  0  0  0  0
  -25.2774   -9.5678   22.4804 H   0  0  0  0  0  0
  -24.0016   -7.4625   22.7475 H   0  0  0  0  0  0
  -21.0878   -8.8812   19.8942 H   0  0  0  0  0  0
  -22.3754  -10.9704   19.6190 H   0  0  0  0  0  0
  -21.2008   -7.6151   23.9740 H   0  0  0  0  0  0
  -21.1472   -6.0515   25.9093 H   0  0  0  0  0  0
  -22.0597   -2.7614   23.2860 H   0  0  0  0  0  0
  -22.4097  -11.9882   22.4812 H   0  0  0  0  0  0
  -21.1101  -13.1268   22.2565 H   0  0  0  0  0  0
  -24.6153  -15.8088   20.4512 H   0  0  0  0  0  0
  -26.1968  -15.5926   19.9027 H   0  0  0  0  0  0
  -26.7207  -32.5384   23.1085 H   0  0  0  0  0  0
  -24.9956  -33.9679   25.0348 H   0  0  0  0  0  0
  -22.7183  -31.3029   21.3995 H   0  0  0  0  0  0
  -23.3727  -35.9643   23.3302 H   0  0  0  0  0  0
  -24.3565  -36.8899   22.2079 H   0  0  0  0  0  0
  -23.7276  -37.6492   23.6690 H   0  0  0  0  0  0
  -26.1046  -31.5337   20.6109 H   0  0  0  0  0  0
  -26.8436  -30.8112   22.0093 H   0  0  0  0  0  0
  -28.1153  -28.9322   21.1844 H   0  0  0  0  0  0
  -25.9484  -25.8888   19.0317 H   0  0  0  0  0  0
  -23.9566  -27.3035   18.9934 H   0  0  0  0  0  0
  -23.7665  -30.5976   19.4070 H   0  0  0  0  0  0
  -22.7500  -29.2588   19.8519 H   0  0  0  0  0  0
  -25.1276  -36.1906   25.0838 H   0  0  0  0  0  0
  -20.9940  -28.3214   24.1394 H   0  0  0  0  0  0
  -20.5586  -26.2267   23.3609 H   0  0  0  0  0  0
  -21.6636  -26.7339   22.1195 H   0  0  0  0  0  0
  -19.6931  -25.6252   21.1174 H   0  0  0  0  0  0
  -19.6695  -27.3144   20.6681 H   0  0  0  0  0  0
  -17.4188  -26.6592   21.3963 H   0  0  0  0  0  0
  -18.0319  -25.9999   22.8960 H   0  0  0  0  0  0
  -19.7984  -30.7177   24.2166 H   0  0  0  0  0  0
  -17.5093  -31.6218   24.5153 H   0  0  0  0  0  0
  -15.5381  -30.2976   23.7671 H   0  0  0  0  0  0
  -15.8655  -28.0838   22.7039 H   0  0  0  0  0  0
  -24.5856  -30.7052   25.7812 H   0  0  0  0  0  0
  -24.8682  -32.2927   26.4725 H   0  0  0  0  0  0
  -25.7917  -30.9103   27.0373 H   0  0  0  0  0  0
  -26.2968  -29.6776   24.1138 H   0  0  0  0  0  0
  -27.3959  -29.7343   25.4751 H   0  0  0  0  0  0
  -27.8844  -30.4330   23.9532 H   0  0  0  0  0  0
  -27.2632  -33.3771   26.1946 H   0  0  0  0  0  0
  -28.3837  -32.6797   25.0285 H   0  0  0  0  0  0
  -28.0654  -31.8575   26.5445 H   0  0  0  0  0  0
  -28.2579  -38.0123   24.7503 H   0  0  0  0  0  0
  -28.1056  -36.2636   24.6304 H   0  0  0  0  0  0
  -27.2265  -37.1411   25.8877 H   0  0  0  0  0  0
  -20.9380  -29.8857   21.6947 H   0  0  0  0  0  0
  -26.0145  -38.2795   24.1453 H   0  0  0  0  0  0
  -32.8543  -19.3284   20.1529 H   0  0  0  0  0  0
  -31.1344  -21.0639   20.2550 H   0  0  0  0  0  0
  -32.3364  -16.9951   20.3437 H   0  0  0  0  0  0
  -27.2563  -18.2683   21.6427 H   0  0  0  0  0  0
  -27.5736  -16.7762   20.7761 H   0  0  0  0  0  0
  -27.1342  -18.2186   19.8753 H   0  0  0  0  0  0
  -26.3914  -23.3590   21.7718 H   0  0  0  0  0  0
  -25.7083  -24.1727   20.3772 H   0  0  0  0  0  0
  -25.9942  -22.4539   20.3131 H   0  0  0  0  0  0
  -28.0214  -22.6701   18.1983 H   0  0  0  0  0  0
  -28.5619  -24.3436   18.2024 H   0  0  0  0  0  0
  -26.8355  -23.9468   18.2137 H   0  0  0  0  0  0
  -27.6498  -20.6336   21.2510 H   0  0  0  0  0  0
  -27.8055  -20.7287   19.5354 H   0  0  0  0  0  0
  -29.7130  -22.5767   20.0751 H   0  0  0  0  0  0
  -29.0276  -22.5650   21.6695 H   0  0  0  0  0  0
  -27.9458  -25.2100   21.7438 H   0  0  0  0  0  0
  -29.4013  -24.9416   20.8717 H   0  0  0  0  0  0
  -28.9309  -15.5589   20.9571 H   0  0  0  0  0  0
  1 25  1  0  0  0
  1 30  2  0  0  0
  1 84  1  0  0  0
  2  3  1  0  0  0
  2 25  1  0  0  0
  2 85  1  0  0  0
  2 86  1  0  0  0
  3  4  1  0  0  0
  3 87  1  0  0  0
  3 88  1  0  0  0
  4  5  1  0  0  0
  4 89  1  0  0  0
  4 90  1  0  0  0
  5  6  1  0  0  0
  5 26  1  0  0  0
  5 91  1  0  0  0
  6 25  1  0  0  0
  6 92  1  0  0  0
  6 93  1  0  0  0
  7  8  2  0  0  0
  7 26  1  0  0  0
  7 29  1  0  0  0
  8  9  1  0  0  0
  8 22  1  0  0  0
  9 10  1  0  0  0
  9 27  2  0  0  0
 10 11  2  0  0  0
 10 15  1  0  0  0
 11 12  1  0  0  0
 11 94  1  0  0  0
 12 13  2  0  0  0
 12 95  1  0  0  0
 13 14  1  0  0  0
 13 31  1  0  0  0
 14 15  2  0  0  0
 14 96  1  0  0  0
 15 97  1  0  0  0
 16 17  2  0  0  0
 16 21  1  0  0  0
 16 31  1  0  0  0
 17 18  1  0  0  0
 17 98  1  0  0  0
 18 19  2  0  0  0
 18 99  1  0  0  0
 19 20  1  0  0  0
 19 24  1  0  0  0
 20 21  2  0  0  0
 20100  1  0  0  0
 21 23  1  0  0  0
 22 28  1  0  0  0
 22 32  2  0  0  0
 26 27  1  0  0  0
 28101  1  0  0  0
 28102  1  0  0  0
 29103  1  0  0  0
 29104  1  0  0  0
 33 34  1  0  0  0
 33 66  1  0  0  0
 33 70  2  0  0  0
 34 36  1  0  0  0
 34 59  1  0  0  0
 34105  1  0  0  0
 35 44  2  0  0  0
 35 45  1  0  0  0
 35 68  1  0  0  0
 36 56  1  0  0  0
 36106  1  0  0  0
 37 39  1  0  0  0
 37 47  1  0  0  0
 37 66  1  0  0  0
 37107  1  0  0  0
 38 43  2  0  0  0
 38 46  1  0  0  0
 38 47  1  0  0  0
 39 64  1  0  0  0
 39 67  2  0  0  0
 40 52  1  0  0  0
 40 53  2  0  0  0
 40 58  1  0  0  0
 41108  1  0  0  0
 41109  1  0  0  0
 41110  1  0  0  0
 41 48  1  0  0  0
 42 43  1  0  0  0
 42 66  1  0  0  0
 42111  1  0  0  0
 42112  1  0  0  0
 43 44  1  0  0  0
 44113  1  0  0  0
 45 46  2  0  0  0
 45114  1  0  0  0
 46115  1  0  0  0
 47116  1  0  0  0
 47117  1  0  0  0
 48 56  1  0  0  0
 48 65  1  0  0  0
 48118  1  0  0  0
 49 50  1  0  0  0
 49 53  1  0  0  0
 49 64  1  0  0  0
 49119  1  0  0  0
 50 51  1  0  0  0
 50120  1  0  0  0
 50121  1  0  0  0
 51 52  1  0  0  0
 51122  1  0  0  0
 51123  1  0  0  0
 52124  1  0  0  0
 52125  1  0  0  0
 53 54  1  0  0  0
 54 55  2  0  0  0
 54126  1  0  0  0
 55 57  1  0  0  0
 55127  1  0  0  0
 56 69  2  0  0  0
 57 58  2  0  0  0
 57128  1  0  0  0
 58129  1  0  0  0
 59 60  1  0  0  0
 59 61  1  0  0  0
 59 62  1  0  0  0
 60130  1  0  0  0
 60131  1  0  0  0
 60132  1  0  0  0
 61133  1  0  0  0
 61134  1  0  0  0
 61135  1  0  0  0
 62136  1  0  0  0
 62137  1  0  0  0
 62138  1  0  0  0
 63 65  1  0  0  0
 63139  1  0  0  0
 63140  1  0  0  0
 63141  1  0  0  0
 64142  1  0  0  0
 65143  1  0  0  0
 68 82  1  0  0  0
 71 72  2  0  0  0
 71 73  1  0  0  0
 71144  1  0  0  0
 72 74  1  0  0  0
 72145  1  0  0  0
 73 76  2  0  0  0
 73146  1  0  0  0
 74 75  2  0  0  0
 74 80  1  0  0  0
 75 76  1  0  0  0
 75 77  1  0  0  0
 76 84  1  0  0  0
 77147  1  0  0  0
 77148  1  0  0  0
 77149  1  0  0  0
 78150  1  0  0  0
 78151  1  0  0  0
 78152  1  0  0  0
 78 83  1  0  0  0
 79 83  1  0  0  0
 79153  1  0  0  0
 79154  1  0  0  0
 79155  1  0  0  0
 80 81  1  0  0  0
 80156  1  0  0  0
 80157  1  0  0  0
 81 83  1  0  0  0
 81158  1  0  0  0
 81159  1  0  0  0
 82 83  1  0  0  0
 82160  1  0  0  0
 82161  1  0  0  0
 84162  1  0  0  0
M  ISO  4   1 100  68 101  82 101  84 100
M  END
> <chiral flag>
0

> <version>
0

> <s_m_source_file>
/data/baiqing/PycharmProjects/Reinvent-master-3.2/result/LINK_invent/BTK/process_docking_weight1_custom_product_contain_oxygen_bond_distance_aromatic_linkinvent_7_9_3/rearranged_h_0137.sdf

> <i_m_source_file_index>
30

> <r_mmod_Potential_Energy-OPLS-2005>
171.389404296875

> <r_mmod_Stretch_Energy-OPLS-2005>
114.544067382812

> <r_mmod_Bend_Energy-OPLS-2005>
178.150466918945

> <r_mmod_Torsional_Energy-OPLS-2005>
255.342041015625

> <r_mmod_Improper_Torsional_Energy-OPLS-2005>
5.88909244537354

> <r_mmod_Van_der_Waal_Energy-OPLS-2005>
143.329254150391

> <r_mmod_Electrostatic_Energy-OPLS-2005>
-393.721496582031

> <r_mmod_Solvation_Energy-OPLS-2005>
-192.80029296875

> <b_mmod_Minimization_Converged-OPLS-2005>
0

> <r_mmod_RMS_Derivative-OPLS-2005>
5.94008302688599

$$$$
30
                    3D
 Structure written by MMmdl.
159167  0  0  1  0            999 V2000
  -30.5891  -14.6570   20.5374 C   0  0  0  0  0  0
  -30.4558  -12.4188   19.4499 C   0  0  0  0  0  0
  -29.5138  -12.5216   18.2265 C   0  0  0  0  0  0
  -28.0383  -12.3465   18.6375 C   0  0  0  0  0  0
  -27.6540  -13.2153   19.8645 C   0  0  2  0  0  0
  -28.6910  -13.0472   20.9963 C   0  0  0  0  0  0
  -25.2528  -13.8168   20.5639 C   0  0  0  0  0  0
  -24.1801  -13.0451   20.9184 C   0  0  0  0  0  0
  -24.6343  -11.6904   20.8696 C   0  0  0  0  0  0
  -23.9001  -10.4297   21.0385 C   0  0  0  0  0  0
  -24.3565   -9.4216   21.9141 C   0  0  0  0  0  0
  -23.6270   -8.2224   22.0709 C   0  0  0  0  0  0
  -22.4260   -8.0239   21.3489 C   0  0  0  0  0  0
  -21.9870   -9.0230   20.4636 C   0  0  0  0  0  0
  -22.7184  -10.2130   20.3037 C   0  0  0  0  0  0
  -21.6880   -6.0703   22.5237 C   0  0  0  0  0  0
  -21.4029   -6.5587   23.8183 C   0  0  0  0  0  0
  -21.3673   -5.6737   24.9125 C   0  0  0  0  0  0
  -21.6065   -4.2999   24.7199 C   0  0  0  0  0  0
  -21.8844   -3.8098   23.4318 C   0  0  0  0  0  0
  -21.9193   -4.6916   22.3367 C   0  0  0  0  0  0
  -22.7809  -13.5251   21.1832 C   0  0  0  0  0  0
  -22.1685   -4.2089   21.0950 F   0  0  0  0  0  0
  -21.5640   -3.4495   25.7724 F   0  0  0  0  0  0
  -30.0125  -13.4129   20.4504 N   0  0  0  0  0  0
  -26.2954  -12.9358   20.3236 N   0  0  0  0  0  0
  -25.9266  -11.6499   20.5659 N   0  0  0  0  0  0
  -22.0446  -12.8280   22.0444 N   0  0  0  0  0  0
  -25.4251  -15.1891   20.3972 N   0  0  0  0  0  0
  -31.7101  -14.8796   20.0725 O   0  0  0  0  0  0
  -21.6639   -6.8827   21.4200 O   0  0  0  0  0  0
  -22.3431  -14.5506   20.6635 O   0  0  0  0  0  0
  -24.6246  -31.8664   23.2141 C   0  0  0  0  0  0
  -25.9117  -32.4824   23.8409 C   0  0  1  0  0  0
  -27.1968  -27.3529   20.0979 C   0  0  0  0  0  0
  -25.5925  -33.8625   24.2331 N   0  0  0  0  0  0
  -23.4157  -30.5050   21.5494 C   0  0  2  0  0  0
  -24.8582  -28.9815   20.1117 C   0  0  0  0  0  0
  -22.7433  -29.4688   22.4836 C   0  0  0  0  0  0
  -18.0271  -28.1412   22.8466 C   0  0  0  0  0  0
  -24.1478  -36.7311   23.2651 C   0  0  0  0  0  0
  -25.9632  -30.8055   21.3909 C   0  0  0  0  0  0
  -26.0271  -29.4414   20.7262 C   0  0  0  0  0  0
  -27.2008  -28.6334   20.7246 C   0  0  0  0  0  0
  -26.0080  -26.9642   19.4572 C   0  0  0  0  0  0
  -24.8437  -27.7392   19.4725 C   0  0  0  0  0  0
  -23.6378  -29.8670   20.1542 C   0  0  0  0  0  0
  -25.4104  -36.3118   24.0348 C   0  0  1  0  0  0
  -20.5873  -28.3715   23.1228 C   0  0  2  0  0  0
  -20.6768  -26.9430   22.5386 C   0  0  0  0  0  0
  -19.5762  -26.6400   21.5166 C   0  0  0  0  0  0
  -18.1939  -26.7957   22.1584 C   0  0  0  0  0  0
  -19.1539  -28.8865   23.2854 C   0  0  0  0  0  0
  -18.9475  -30.1441   23.8896 C   0  0  0  0  0  0
  -17.6497  -30.6608   24.0568 C   0  0  0  0  0  0
  -25.9034  -34.9474   23.5128 C   0  0  0  0  0  0
  -16.5371  -29.9143   23.6314 C   0  0  0  0  0  0
  -16.7268  -28.6564   23.0318 C   0  0  0  0  0  0
  -26.4526  -31.6660   25.0780 C   0  0  0  0  0  0
  -25.3781  -31.3818   26.1520 C   0  0  0  0  0  0
  -27.0375  -30.3062   24.6329 C   0  0  0  0  0  0
  -27.6097  -32.4399   25.7520 C   0  0  0  0  0  0
  -27.5582  -37.1814   24.8454 C   0  0  0  0  0  0
  -21.4145  -29.3077   22.3599 N   0  0  0  0  0  0
  -26.4279  -37.3817   23.9431 N   0  0  0  0  0  0
  -24.6859  -31.0733   22.1083 N   0  0  0  0  0  0
  -23.4193  -28.8156   23.2851 O   0  0  0  0  0  0
  -28.2974  -26.4944   20.1588 O   0  0  0  0  0  0
  -26.5595  -34.8932   22.4678 O   0  0  0  0  0  0
  -23.5410  -32.1419   23.7475 O   0  0  0  0  0  0
  -29.7621  -19.3194   19.9123 C   0  0  0  0  0  0
  -30.2341  -17.9714   20.0870 C   0  0  0  0  0  0
  -28.4264  -17.5659   21.6188 C   0  0  0  0  0  0
  -28.5840  -19.8004   20.5644 C   0  0  0  0  0  0
  -29.5390  -17.0398   20.9178 C   0  0  0  0  0  0
  -27.9582  -18.8897   21.4519 C   0  0  0  0  0  0
  -26.7918  -24.1337   21.2156 C   0  0  0  0  0  0
  -26.5602  -23.4391   18.7930 C   0  0  0  0  0  0
  -27.8376  -21.1572   20.2728 C   0  0  0  0  0  0
  -28.5328  -22.5797   20.1112 C   0  0  0  0  0  0
  -28.3387  -25.1932   19.4488 C   0  0  0  0  0  0
  -27.5688  -23.8559   19.9092 C   0  0  0  0  0  0
  -29.8104  -15.6128   21.1330 N   0  0  0  0  0  0
  -26.8556  -19.2724   22.1455 F   0  0  0  0  0  0
  -31.4948  -12.5730   19.1390 H   0  0  0  0  0  0
  -30.4247  -11.4117   19.8681 H   0  0  0  0  0  0
  -29.7830  -11.7691   17.4833 H   0  0  0  0  0  0
  -29.6428  -13.4884   17.7336 H   0  0  0  0  0  0
  -27.8830  -11.2931   18.8749 H   0  0  0  0  0  0
  -27.3802  -12.5630   17.7930 H   0  0  0  0  0  0
  -27.6774  -14.2542   19.5283 H   0  0  0  0  0  0
  -28.6886  -12.0157   21.3558 H   0  0  0  0  0  0
  -28.4028  -13.6475   21.8615 H   0  0  0  0  0  0
  -25.2727   -9.5725   22.4672 H   0  0  0  0  0  0
  -24.0027   -7.4620   22.7402 H   0  0  0  0  0  0
  -21.0803   -8.8773   19.8919 H   0  0  0  0  0  0
  -22.3650  -10.9665   19.6130 H   0  0  0  0  0  0
  -21.2028   -7.6092   23.9692 H   0  0  0  0  0  0
  -21.1488   -6.0428   25.9042 H   0  0  0  0  0  0
  -22.0617   -2.7556   23.2813 H   0  0  0  0  0  0
  -22.4101  -12.0075   22.5024 H   0  0  0  0  0  0
  -21.1017  -13.1277   22.2527 H   0  0  0  0  0  0
  -24.6432  -15.8345   20.4182 H   0  0  0  0  0  0
  -26.2651  -15.5997   20.0095 H   0  0  0  0  0  0
  -26.7193  -32.5528   23.1149 H   0  0  0  0  0  0
  -25.0085  -33.9777   25.0480 H   0  0  0  0  0  0
  -22.7101  -31.3280   21.4135 H   0  0  0  0  0  0
  -23.3757  -35.9617   23.3309 H   0  0  0  0  0  0
  -24.3567  -36.8939   22.2062 H   0  0  0  0  0  0
  -23.7208  -37.6503   23.6675 H   0  0  0  0  0  0
  -26.1034  -31.5796   20.6343 H   0  0  0  0  0  0
  -26.8433  -30.8376   22.0219 H   0  0  0  0  0  0
  -28.0969  -28.9750   21.2222 H   0  0  0  0  0  0
  -25.9441  -26.0406   18.9430 H   0  0  0  0  0  0
  -23.9455  -27.3782   18.9959 H   0  0  0  0  0  0
  -23.7846  -30.6609   19.4187 H   0  0  0  0  0  0
  -22.7595  -29.3149   19.8202 H   0  0  0  0  0  0
  -25.1276  -36.1964   25.0848 H   0  0  0  0  0  0
  -20.9967  -28.3336   24.1337 H   0  0  0  0  0  0
  -20.5588  -26.2348   23.3601 H   0  0  0  0  0  0
  -21.6667  -26.7441   22.1237 H   0  0  0  0  0  0
  -19.6930  -25.6292   21.1239 H   0  0  0  0  0  0
  -19.6724  -27.3162   20.6663 H   0  0  0  0  0  0
  -17.4193  -26.6646   21.4012 H   0  0  0  0  0  0
  -18.0359  -26.0117   22.9006 H   0  0  0  0  0  0
  -19.7965  -30.7206   24.2327 H   0  0  0  0  0  0
  -17.5084  -31.6288   24.5171 H   0  0  0  0  0  0
  -15.5376  -30.3065   23.7651 H   0  0  0  0  0  0
  -15.8655  -28.0897   22.7028 H   0  0  0  0  0  0
  -24.5900  -30.7237   25.7856 H   0  0  0  0  0  0
  -24.9039  -32.3010   26.4981 H   0  0  0  0  0  0
  -25.8097  -30.8959   27.0275 H   0  0  0  0  0  0
  -26.2986  -29.6780   24.1369 H   0  0  0  0  0  0
  -27.4013  -29.7368   25.4890 H   0  0  0  0  0  0
  -27.8874  -30.4277   23.9612 H   0  0  0  0  0  0
  -27.2714  -33.3632   26.2215 H   0  0  0  0  0  0
  -28.3833  -32.7108   25.0329 H   0  0  0  0  0  0
  -28.0894  -31.8508   26.5335 H   0  0  0  0  0  0
  -28.2624  -38.0097   24.7509 H   0  0  0  0  0  0
  -28.1055  -36.2637   24.6243 H   0  0  0  0  0  0
  -27.2325  -37.1446   25.8865 H   0  0  0  0  0  0
  -20.9247  -29.8890   21.6926 H   0  0  0  0  0  0
  -26.0161  -38.2882   24.1474 H   0  0  0  0  0  0
  -30.2921  -19.9792   19.2355 H   0  0  0  0  0  0
  -31.1185  -17.6591   19.5459 H   0  0  0  0  0  0
  -27.8790  -16.9343   22.3065 H   0  0  0  0  0  0
  -26.2610  -23.2540   21.5691 H   0  0  0  0  0  0
  -26.0299  -24.9033   21.1009 H   0  0  0  0  0  0
  -27.4625  -24.4619   22.0101 H   0  0  0  0  0  0
  -25.8444  -22.7038   19.1554 H   0  0  0  0  0  0
  -27.0808  -23.0151   17.9329 H   0  0  0  0  0  0
  -25.9429  -24.2193   18.3694 H   0  0  0  0  0  0
  -27.1045  -21.2819   21.0675 H   0  0  0  0  0  0
  -27.2361  -20.9496   19.3879 H   0  0  0  0  0  0
  -29.2015  -22.5237   19.2549 H   0  0  0  0  0  0
  -29.1740  -22.7607   20.9738 H   0  0  0  0  0  0
  -28.1316  -25.3879   18.3968 H   0  0  0  0  0  0
  -29.3996  -24.9422   19.4521 H   0  0  0  0  0  0
  -29.0838  -15.1615   21.6658 H   0  0  0  0  0  0
  1 25  1  0  0  0
  1 30  2  0  0  0
  1 83  1  0  0  0
  2  3  1  0  0  0
  2 25  1  0  0  0
  2 85  1  0  0  0
  2 86  1  0  0  0
  3  4  1  0  0  0
  3 87  1  0  0  0
  3 88  1  0  0  0
  4  5  1  0  0  0
  4 89  1  0  0  0
  4 90  1  0  0  0
  5  6  1  0  0  0
  5 26  1  0  0  0
  5 91  1  0  0  0
  6 25  1  0  0  0
  6 92  1  0  0  0
  6 93  1  0  0  0
  7  8  2  0  0  0
  7 26  1  0  0  0
  7 29  1  0  0  0
  8  9  1  0  0  0
  8 22  1  0  0  0
  9 10  1  0  0  0
  9 27  2  0  0  0
 10 11  2  0  0  0
 10 15  1  0  0  0
 11 12  1  0  0  0
 11 94  1  0  0  0
 12 13  2  0  0  0
 12 95  1  0  0  0
 13 14  1  0  0  0
 13 31  1  0  0  0
 14 15  2  0  0  0
 14 96  1  0  0  0
 15 97  1  0  0  0
 16 17  2  0  0  0
 16 21  1  0  0  0
 16 31  1  0  0  0
 17 18  1  0  0  0
 17 98  1  0  0  0
 18 19  2  0  0  0
 18 99  1  0  0  0
 19 20  1  0  0  0
 19 24  1  0  0  0
 20 21  2  0  0  0
 20100  1  0  0  0
 21 23  1  0  0  0
 22 28  1  0  0  0
 22 32  2  0  0  0
 26 27  1  0  0  0
 28101  1  0  0  0
 28102  1  0  0  0
 29103  1  0  0  0
 29104  1  0  0  0
 33 34  1  0  0  0
 33 66  1  0  0  0
 33 70  2  0  0  0
 34 36  1  0  0  0
 34 59  1  0  0  0
 34105  1  0  0  0
 35 44  2  0  0  0
 35 45  1  0  0  0
 35 68  1  0  0  0
 36 56  1  0  0  0
 36106  1  0  0  0
 37 39  1  0  0  0
 37 47  1  0  0  0
 37 66  1  0  0  0
 37107  1  0  0  0
 38 43  2  0  0  0
 38 46  1  0  0  0
 38 47  1  0  0  0
 39 64  1  0  0  0
 39 67  2  0  0  0
 40 52  1  0  0  0
 40 53  2  0  0  0
 40 58  1  0  0  0
 41108  1  0  0  0
 41109  1  0  0  0
 41110  1  0  0  0
 41 48  1  0  0  0
 42 43  1  0  0  0
 42 66  1  0  0  0
 42111  1  0  0  0
 42112  1  0  0  0
 43 44  1  0  0  0
 44113  1  0  0  0
 45 46  2  0  0  0
 45114  1  0  0  0
 46115  1  0  0  0
 47116  1  0  0  0
 47117  1  0  0  0
 48 56  1  0  0  0
 48 65  1  0  0  0
 48118  1  0  0  0
 49 50  1  0  0  0
 49 53  1  0  0  0
 49 64  1  0  0  0
 49119  1  0  0  0
 50 51  1  0  0  0
 50120  1  0  0  0
 50121  1  0  0  0
 51 52  1  0  0  0
 51122  1  0  0  0
 51123  1  0  0  0
 52124  1  0  0  0
 52125  1  0  0  0
 53 54  1  0  0  0
 54 55  2  0  0  0
 54126  1  0  0  0
 55 57  1  0  0  0
 55127  1  0  0  0
 56 69  2  0  0  0
 57 58  2  0  0  0
 57128  1  0  0  0
 58129  1  0  0  0
 59 60  1  0  0  0
 59 61  1  0  0  0
 59 62  1  0  0  0
 60130  1  0  0  0
 60131  1  0  0  0
 60132  1  0  0  0
 61133  1  0  0  0
 61134  1  0  0  0
 61135  1  0  0  0
 62136  1  0  0  0
 62137  1  0  0  0
 62138  1  0  0  0
 63 65  1  0  0  0
 63139  1  0  0  0
 63140  1  0  0  0
 63141  1  0  0  0
 64142  1  0  0  0
 65143  1  0  0  0
 68 81  1  0  0  0
 71 72  2  0  0  0
 71 74  1  0  0  0
 71144  1  0  0  0
 72 75  1  0  0  0
 72145  1  0  0  0
 73 75  2  0  0  0
 73 76  1  0  0  0
 73146  1  0  0  0
 74 76  2  0  0  0
 74 79  1  0  0  0
 75 83  1  0  0  0
 76 84  1  0  0  0
 77147  1  0  0  0
 77148  1  0  0  0
 77149  1  0  0  0
 77 82  1  0  0  0
 78 82  1  0  0  0
 78150  1  0  0  0
 78151  1  0  0  0
 78152  1  0  0  0
 79 80  1  0  0  0
 79153  1  0  0  0
 79154  1  0  0  0
 80 82  1  0  0  0
 80155  1  0  0  0
 80156  1  0  0  0
 81 82  1  0  0  0
 81157  1  0  0  0
 81158  1  0  0  0
 83159  1  0  0  0
M  ISO  4   1 100  68 101  81 101  83 100
M  END
> <chiral flag>
0

> <version>
0

> <s_m_source_file>
/data/baiqing/PycharmProjects/Reinvent-master-3.2/result/LINK_invent/BTK/process_docking_weight1_custom_product_contain_oxygen_bond_distance_aromatic_linkinvent_7_9_3/rearranged_h_0137.sdf

> <i_m_source_file_index>
31

> <r_mmod_Potential_Energy-OPLS-2005>
170.777542114258

> <r_mmod_Stretch_Energy-OPLS-2005>
87.1418151855469

> <r_mmod_Bend_Energy-OPLS-2005>
188.834060668945

> <r_mmod_Torsional_Energy-OPLS-2005>
234.749877929688

> <r_mmod_Improper_Torsional_Energy-OPLS-2005>
4.57515716552734

> <r_mmod_Van_der_Waal_Energy-OPLS-2005>
154.520782470703

> <r_mmod_Electrostatic_Energy-OPLS-2005>
-358.153503417969

> <r_mmod_Solvation_Energy-OPLS-2005>
-192.505004882812

> <b_mmod_Minimization_Converged-OPLS-2005>
0

> <r_mmod_RMS_Derivative-OPLS-2005>
6.74643325805664

$$$$
31
                    3D
 Structure written by MMmdl.
159167  0  0  1  0            999 V2000
  -30.6704  -14.6879   20.4766 C   0  0  0  0  0  0
  -30.4185  -12.4190   19.4786 C   0  0  0  0  0  0
  -29.5040  -12.4975   18.2383 C   0  0  0  0  0  0
  -28.0304  -12.3331   18.6511 C   0  0  0  0  0  0
  -27.6427  -13.2340   19.8548 C   0  0  2  0  0  0
  -28.6870  -13.1675   20.9918 C   0  0  0  0  0  0
  -25.2505  -13.8214   20.5702 C   0  0  0  0  0  0
  -24.1796  -13.0454   20.9210 C   0  0  0  0  0  0
  -24.6391  -11.6932   20.8760 C   0  0  0  0  0  0
  -23.9072  -10.4301   21.0411 C   0  0  0  0  0  0
  -24.3620   -9.4216   21.9187 C   0  0  0  0  0  0
  -23.6295   -8.2252   22.0755 C   0  0  0  0  0  0
  -22.4280   -8.0285   21.3544 C   0  0  0  0  0  0
  -21.9918   -9.0261   20.4648 C   0  0  0  0  0  0
  -22.7246  -10.2141   20.3059 C   0  0  0  0  0  0
  -21.6857   -6.0739   22.5278 C   0  0  0  0  0  0
  -21.4015   -6.5642   23.8212 C   0  0  0  0  0  0
  -21.3658   -5.6793   24.9173 C   0  0  0  0  0  0
  -21.6045   -4.3056   24.7225 C   0  0  0  0  0  0
  -21.8819   -3.8149   23.4345 C   0  0  0  0  0  0
  -21.9193   -4.6966   22.3402 C   0  0  0  0  0  0
  -22.7817  -13.5231   21.1867 C   0  0  0  0  0  0
  -22.1662   -4.2153   21.0979 F   0  0  0  0  0  0
  -21.5629   -3.4539   25.7737 F   0  0  0  0  0  0
  -29.9953  -13.4909   20.4105 N   0  0  0  0  0  0
  -26.2939  -12.9428   20.3315 N   0  0  0  0  0  0
  -25.9324  -11.6567   20.5780 N   0  0  0  0  0  0
  -22.0462  -12.8217   22.0419 N   0  0  0  0  0  0
  -25.4196  -15.1937   20.4103 N   0  0  0  0  0  0
  -31.8537  -14.7110   20.1369 O   0  0  0  0  0  0
  -21.6644   -6.8883   21.4240 O   0  0  0  0  0  0
  -22.3505  -14.5539   20.6717 O   0  0  0  0  0  0
  -24.6295  -31.8590   23.2051 C   0  0  0  0  0  0
  -25.9133  -32.4774   23.8374 C   0  0  1  0  0  0
  -27.1943  -27.2653   20.1349 C   0  0  0  0  0  0
  -25.5947  -33.8579   24.2289 N   0  0  0  0  0  0
  -23.4254  -30.4861   21.5480 C   0  0  2  0  0  0
  -24.8716  -28.9501   20.1038 C   0  0  0  0  0  0
  -22.7497  -29.4617   22.4916 C   0  0  0  0  0  0
  -18.0293  -28.1383   22.8472 C   0  0  0  0  0  0
  -24.1498  -36.7296   23.2636 C   0  0  0  0  0  0
  -25.9728  -30.7684   21.3953 C   0  0  0  0  0  0
  -26.0405  -29.3935   20.7385 C   0  0  0  0  0  0
  -27.2041  -28.5580   20.7591 C   0  0  0  0  0  0
  -26.0389  -26.9463   19.3919 C   0  0  0  0  0  0
  -24.8761  -27.7321   19.4167 C   0  0  0  0  0  0
  -23.6430  -29.8343   20.1590 C   0  0  0  0  0  0
  -25.4123  -36.3080   24.0325 C   0  0  1  0  0  0
  -20.5897  -28.3692   23.1262 C   0  0  2  0  0  0
  -20.6788  -26.9409   22.5403 C   0  0  0  0  0  0
  -19.5760  -26.6378   21.5212 C   0  0  0  0  0  0
  -18.1939  -26.7919   22.1618 C   0  0  0  0  0  0
  -19.1548  -28.8853   23.2857 C   0  0  0  0  0  0
  -18.9468  -30.1450   23.8877 C   0  0  0  0  0  0
  -17.6469  -30.6577   24.0555 C   0  0  0  0  0  0
  -25.9064  -34.9448   23.5102 C   0  0  0  0  0  0
  -16.5361  -29.9070   23.6340 C   0  0  0  0  0  0
  -16.7282  -28.6497   23.0350 C   0  0  0  0  0  0
  -26.4501  -31.6592   25.0759 C   0  0  0  0  0  0
  -25.3712  -31.3744   26.1467 C   0  0  0  0  0  0
  -27.0352  -30.3001   24.6261 C   0  0  0  0  0  0
  -27.6053  -32.4339   25.7523 C   0  0  0  0  0  0
  -27.5577  -37.1804   24.8460 C   0  0  0  0  0  0
  -21.4208  -29.3047   22.3656 N   0  0  0  0  0  0
  -26.4296  -37.3776   23.9402 N   0  0  0  0  0  0
  -24.6940  -31.0560   22.1045 N   0  0  0  0  0  0
  -23.4200  -28.8146   23.3002 O   0  0  0  0  0  0
  -28.2495  -26.3220   20.1891 O   0  0  0  0  0  0
  -26.5628  -34.8910   22.4668 O   0  0  0  0  0  0
  -23.5453  -32.1434   23.7347 O   0  0  0  0  0  0
  -32.1279  -18.9784   20.1890 C   0  0  0  0  0  0
  -31.2203  -20.0416   20.3278 C   0  0  0  0  0  0
  -31.7165  -17.6411   20.3272 C   0  0  0  0  0  0
  -29.4617  -18.4157   20.7563 C   0  0  0  0  0  0
  -29.8596  -19.8118   20.6153 C   0  0  0  0  0  0
  -30.3708  -17.2888   20.6052 C   0  0  0  0  0  0
  -28.9603  -21.0561   20.8213 C   0  0  0  0  0  0
  -26.7412  -24.2020   20.2443 C   0  0  0  0  0  0
  -27.8529  -25.1544   22.2482 C   0  0  0  0  0  0
  -29.0928  -22.3718   19.9305 C   0  0  0  0  0  0
  -29.2399  -23.8683   20.5455 C   0  0  0  0  0  0
  -28.0219  -24.9186   20.7337 C   0  0  0  0  0  0
  -28.0425  -21.0279   21.6889 N   0  0  0  0  0  0
  -29.9658  -15.8585   20.7304 N   0  0  0  0  0  0
  -31.4634  -12.5066   19.1762 H   0  0  0  0  0  0
  -30.3340  -11.4432   19.9600 H   0  0  0  0  0  0
  -29.7780  -11.7265   17.5168 H   0  0  0  0  0  0
  -29.6427  -13.4557   17.7341 H   0  0  0  0  0  0
  -27.8789  -11.2847   18.9099 H   0  0  0  0  0  0
  -27.3744  -12.5329   17.8027 H   0  0  0  0  0  0
  -27.6406  -14.2561   19.4759 H   0  0  0  0  0  0
  -28.7072  -12.1748   21.4442 H   0  0  0  0  0  0
  -28.4315  -13.8631   21.7928 H   0  0  0  0  0  0
  -25.2761   -9.5696   22.4764 H   0  0  0  0  0  0
  -24.0008   -7.4643   22.7472 H   0  0  0  0  0  0
  -21.0855   -8.8777   19.8949 H   0  0  0  0  0  0
  -22.3701  -10.9680   19.6172 H   0  0  0  0  0  0
  -21.2006   -7.6149   23.9717 H   0  0  0  0  0  0
  -21.1481   -6.0522   25.9076 H   0  0  0  0  0  0
  -22.0599   -2.7612   23.2844 H   0  0  0  0  0  0
  -22.4085  -11.9878   22.4799 H   0  0  0  0  0  0
  -21.1077  -13.1237   22.2626 H   0  0  0  0  0  0
  -24.6492  -15.8456   20.5127 H   0  0  0  0  0  0
  -26.2633  -15.6319   20.0638 H   0  0  0  0  0  0
  -26.7191  -32.5422   23.1105 H   0  0  0  0  0  0
  -25.0098  -33.9734   25.0431 H   0  0  0  0  0  0
  -22.7210  -31.3090   21.4094 H   0  0  0  0  0  0
  -23.3755  -35.9632   23.3313 H   0  0  0  0  0  0
  -24.3578  -36.8915   22.2047 H   0  0  0  0  0  0
  -23.7265  -37.6504   23.6659 H   0  0  0  0  0  0
  -26.1204  -31.5298   20.6281 H   0  0  0  0  0  0
  -26.8472  -30.8093   22.0328 H   0  0  0  0  0  0
  -28.0871  -28.8789   21.2934 H   0  0  0  0  0  0
  -26.0059  -26.0622   18.7783 H   0  0  0  0  0  0
  -24.0017  -27.4085   18.8698 H   0  0  0  0  0  0
  -23.7653  -30.6189   19.4108 H   0  0  0  0  0  0
  -22.7614  -29.2693   19.8511 H   0  0  0  0  0  0
  -25.1302  -36.1932   25.0819 H   0  0  0  0  0  0
  -20.9982  -28.3270   24.1388 H   0  0  0  0  0  0
  -20.5712  -26.2292   23.3602 H   0  0  0  0  0  0
  -21.6652  -26.7450   22.1177 H   0  0  0  0  0  0
  -19.6930  -25.6289   21.1238 H   0  0  0  0  0  0
  -19.6703  -27.3189   20.6739 H   0  0  0  0  0  0
  -17.4214  -26.6672   21.4014 H   0  0  0  0  0  0
  -18.0323  -26.0065   22.9019 H   0  0  0  0  0  0
  -19.7951  -30.7263   24.2237 H   0  0  0  0  0  0
  -17.5031  -31.6257   24.5151 H   0  0  0  0  0  0
  -15.5357  -30.2963   23.7678 H   0  0  0  0  0  0
  -15.8684  -28.0808   22.7069 H   0  0  0  0  0  0
  -24.5906  -30.7072   25.7790 H   0  0  0  0  0  0
  -24.8871  -32.2906   26.4854 H   0  0  0  0  0  0
  -25.8010  -30.8947   27.0269 H   0  0  0  0  0  0
  -26.2939  -29.6735   24.1284 H   0  0  0  0  0  0
  -27.4020  -29.7276   25.4791 H   0  0  0  0  0  0
  -27.8830  -30.4265   23.9528 H   0  0  0  0  0  0
  -27.2673  -33.3667   26.2053 H   0  0  0  0  0  0
  -28.3874  -32.6865   25.0351 H   0  0  0  0  0  0
  -28.0701  -31.8498   26.5476 H   0  0  0  0  0  0
  -28.2589  -38.0102   24.7505 H   0  0  0  0  0  0
  -28.1079  -36.2630   24.6294 H   0  0  0  0  0  0
  -27.2287  -37.1463   25.8861 H   0  0  0  0  0  0
  -20.9395  -29.8784   21.6873 H   0  0  0  0  0  0
  -26.0178  -38.2853   24.1399 H   0  0  0  0  0  0
  -33.1671  -19.1928   19.9824 H   0  0  0  0  0  0
  -31.5981  -21.0501   20.2404 H   0  0  0  0  0  0
  -32.4956  -16.9066   20.2145 H   0  0  0  0  0  0
  -28.4260  -18.2094   20.9854 H   0  0  0  0  0  0
  -26.6517  -23.2075   20.6797 H   0  0  0  0  0  0
  -26.7352  -24.0746   19.1618 H   0  0  0  0  0  0
  -25.8273  -24.7069   20.5537 H   0  0  0  0  0  0
  -27.6944  -24.2161   22.7810 H   0  0  0  0  0  0
  -26.9987  -25.7963   22.4672 H   0  0  0  0  0  0
  -28.7345  -25.6305   22.6765 H   0  0  0  0  0  0
  -28.2903  -22.3511   19.1955 H   0  0  0  0  0  0
  -29.9737  -22.2280   19.3078 H   0  0  0  0  0  0
  -29.9302  -24.3796   19.8745 H   0  0  0  0  0  0
  -29.8118  -23.7923   21.4718 H   0  0  0  0  0  0
  -28.0287  -20.1441   22.1862 H   0  0  0  0  0  0
  -28.9976  -15.7028   20.9657 H   0  0  0  0  0  0
  1 25  1  0  0  0
  1 30  2  0  0  0
  1 84  1  0  0  0
  2  3  1  0  0  0
  2 25  1  0  0  0
  2 85  1  0  0  0
  2 86  1  0  0  0
  3  4  1  0  0  0
  3 87  1  0  0  0
  3 88  1  0  0  0
  4  5  1  0  0  0
  4 89  1  0  0  0
  4 90  1  0  0  0
  5  6  1  0  0  0
  5 26  1  0  0  0
  5 91  1  0  0  0
  6 25  1  0  0  0
  6 92  1  0  0  0
  6 93  1  0  0  0
  7  8  2  0  0  0
  7 26  1  0  0  0
  7 29  1  0  0  0
  8  9  1  0  0  0
  8 22  1  0  0  0
  9 10  1  0  0  0
  9 27  2  0  0  0
 10 11  2  0  0  0
 10 15  1  0  0  0
 11 12  1  0  0  0
 11 94  1  0  0  0
 12 13  2  0  0  0
 12 95  1  0  0  0
 13 14  1  0  0  0
 13 31  1  0  0  0
 14 15  2  0  0  0
 14 96  1  0  0  0
 15 97  1  0  0  0
 16 17  2  0  0  0
 16 21  1  0  0  0
 16 31  1  0  0  0
 17 18  1  0  0  0
 17 98  1  0  0  0
 18 19  2  0  0  0
 18 99  1  0  0  0
 19 20  1  0  0  0
 19 24  1  0  0  0
 20 21  2  0  0  0
 20100  1  0  0  0
 21 23  1  0  0  0
 22 28  1  0  0  0
 22 32  2  0  0  0
 26 27  1  0  0  0
 28101  1  0  0  0
 28102  1  0  0  0
 29103  1  0  0  0
 29104  1  0  0  0
 33 34  1  0  0  0
 33 66  1  0  0  0
 33 70  2  0  0  0
 34 36  1  0  0  0
 34 59  1  0  0  0
 34105  1  0  0  0
 35 44  2  0  0  0
 35 45  1  0  0  0
 35 68  1  0  0  0
 36 56  1  0  0  0
 36106  1  0  0  0
 37 39  1  0  0  0
 37 47  1  0  0  0
 37 66  1  0  0  0
 37107  1  0  0  0
 38 43  2  0  0  0
 38 46  1  0  0  0
 38 47  1  0  0  0
 39 64  1  0  0  0
 39 67  2  0  0  0
 40 52  1  0  0  0
 40 53  2  0  0  0
 40 58  1  0  0  0
 41108  1  0  0  0
 41109  1  0  0  0
 41110  1  0  0  0
 41 48  1  0  0  0
 42 43  1  0  0  0
 42 66  1  0  0  0
 42111  1  0  0  0
 42112  1  0  0  0
 43 44  1  0  0  0
 44113  1  0  0  0
 45 46  2  0  0  0
 45114  1  0  0  0
 46115  1  0  0  0
 47116  1  0  0  0
 47117  1  0  0  0
 48 56  1  0  0  0
 48 65  1  0  0  0
 48118  1  0  0  0
 49 50  1  0  0  0
 49 53  1  0  0  0
 49 64  1  0  0  0
 49119  1  0  0  0
 50 51  1  0  0  0
 50120  1  0  0  0
 50121  1  0  0  0
 51 52  1  0  0  0
 51122  1  0  0  0
 51123  1  0  0  0
 52124  1  0  0  0
 52125  1  0  0  0
 53 54  1  0  0  0
 54 55  2  0  0  0
 54126  1  0  0  0
 55 57  1  0  0  0
 55127  1  0  0  0
 56 69  2  0  0  0
 57 58  2  0  0  0
 57128  1  0  0  0
 58129  1  0  0  0
 59 60  1  0  0  0
 59 61  1  0  0  0
 59 62  1  0  0  0
 60130  1  0  0  0
 60131  1  0  0  0
 60132  1  0  0  0
 61133  1  0  0  0
 61134  1  0  0  0
 61135  1  0  0  0
 62136  1  0  0  0
 62137  1  0  0  0
 62138  1  0  0  0
 63 65  1  0  0  0
 63139  1  0  0  0
 63140  1  0  0  0
 63141  1  0  0  0
 64142  1  0  0  0
 65143  1  0  0  0
 68 82  1  0  0  0
 71 72  2  0  0  0
 71 73  1  0  0  0
 71144  1  0  0  0
 72 75  1  0  0  0
 72145  1  0  0  0
 73 76  2  0  0  0
 73146  1  0  0  0
 74 75  2  0  0  0
 74 76  1  0  0  0
 74147  1  0  0  0
 75 77  1  0  0  0
 76 84  1  0  0  0
 77 80  1  0  0  0
 77 83  2  0  0  0
 78148  1  0  0  0
 78149  1  0  0  0
 78150  1  0  0  0
 78 82  1  0  0  0
 79 82  1  0  0  0
 79151  1  0  0  0
 79152  1  0  0  0
 79153  1  0  0  0
 80 81  1  0  0  0
 80154  1  0  0  0
 80155  1  0  0  0
 81 82  1  0  0  0
 81156  1  0  0  0
 81157  1  0  0  0
 83158  1  0  0  0
 84159  1  0  0  0
M  ISO  4   1 100  68 101  82 101  84 100
M  END
> <chiral flag>
0

> <version>
0

> <s_m_source_file>
/data/baiqing/PycharmProjects/Reinvent-master-3.2/result/LINK_invent/BTK/process_docking_weight1_custom_product_contain_oxygen_bond_distance_aromatic_linkinvent_7_9_3/rearranged_h_0137.sdf

> <i_m_source_file_index>
32

> <r_mmod_Potential_Energy-OPLS-2005>
168.050369262695

> <r_mmod_Stretch_Energy-OPLS-2005>
127.14379119873

> <r_mmod_Bend_Energy-OPLS-2005>
178.882461547852

> <r_mmod_Torsional_Energy-OPLS-2005>
249.454162597656

> <r_mmod_Improper_Torsional_Energy-OPLS-2005>
4.63813400268555

> <r_mmod_Van_der_Waal_Energy-OPLS-2005>
163.114593505859

> <r_mmod_Electrostatic_Energy-OPLS-2005>
-428.278900146484

> <r_mmod_Solvation_Energy-OPLS-2005>
-207.443893432617

> <b_mmod_Minimization_Converged-OPLS-2005>
0

> <r_mmod_RMS_Derivative-OPLS-2005>
1.18585979938507

$$$$
32
                    3D
 Structure written by MMmdl.
160168  0  0  1  0            999 V2000
  -30.7183  -14.4115   20.5839 C   0  0  0  0  0  0
  -30.4219  -12.2697   19.4214 C   0  0  0  0  0  0
  -29.4968  -12.5018   18.2092 C   0  0  0  0  0  0
  -28.0156  -12.3707   18.6167 C   0  0  0  0  0  0
  -27.6671  -13.1967   19.8832 C   0  0  2  0  0  0
  -28.7057  -12.9519   21.0035 C   0  0  0  0  0  0
  -25.2619  -13.8142   20.5668 C   0  0  0  0  0  0
  -24.1853  -13.0438   20.9166 C   0  0  0  0  0  0
  -24.6392  -11.6901   20.8737 C   0  0  0  0  0  0
  -23.9057  -10.4294   21.0409 C   0  0  0  0  0  0
  -24.3614   -9.4205   21.9183 C   0  0  0  0  0  0
  -23.6294   -8.2235   22.0744 C   0  0  0  0  0  0
  -22.4272   -8.0279   21.3540 C   0  0  0  0  0  0
  -21.9909   -9.0255   20.4639 C   0  0  0  0  0  0
  -22.7234  -10.2136   20.3054 C   0  0  0  0  0  0
  -21.6847   -6.0733   22.5282 C   0  0  0  0  0  0
  -21.4009   -6.5638   23.8214 C   0  0  0  0  0  0
  -21.3661   -5.6786   24.9176 C   0  0  0  0  0  0
  -21.6050   -4.3050   24.7223 C   0  0  0  0  0  0
  -21.8819   -3.8143   23.4344 C   0  0  0  0  0  0
  -21.9190   -4.6962   22.3400 C   0  0  0  0  0  0
  -22.7875  -13.5244   21.1831 C   0  0  0  0  0  0
  -22.1658   -4.2147   21.0976 F   0  0  0  0  0  0
  -21.5638   -3.4533   25.7737 F   0  0  0  0  0  0
  -30.0494  -13.2356   20.4639 N   0  0  0  0  0  0
  -26.3048  -12.9290   20.3387 N   0  0  0  0  0  0
  -25.9317  -11.6462   20.5774 N   0  0  0  0  0  0
  -22.0508  -12.8246   22.0392 N   0  0  0  0  0  0
  -25.4371  -15.1854   20.4068 N   0  0  0  0  0  0
  -31.8191  -14.6310   20.0687 O   0  0  0  0  0  0
  -21.6633   -6.8878   21.4243 O   0  0  0  0  0  0
  -22.3562  -14.5551   20.6675 O   0  0  0  0  0  0
  -24.6094  -31.8703   23.2131 C   0  0  0  0  0  0
  -25.9010  -32.4835   23.8411 C   0  0  1  0  0  0
  -27.2441  -27.4713   20.0807 C   0  0  0  0  0  0
  -25.5886  -33.8637   24.2340 N   0  0  0  0  0  0
  -23.3956  -30.4934   21.5518 C   0  0  2  0  0  0
  -24.8418  -28.9611   20.1162 C   0  0  0  0  0  0
  -22.7377  -29.4668   22.5005 C   0  0  0  0  0  0
  -18.0263  -28.1366   22.8490 C   0  0  0  0  0  0
  -24.1484  -36.7322   23.2640 C   0  0  0  0  0  0
  -25.9196  -30.8442   21.3624 C   0  0  0  0  0  0
  -25.9966  -29.4797   20.7124 C   0  0  0  0  0  0
  -27.1934  -28.7361   20.7023 C   0  0  0  0  0  0
  -26.0676  -26.9543   19.4867 C   0  0  0  0  0  0
  -24.8692  -27.6938   19.5077 C   0  0  0  0  0  0
  -23.6019  -29.8233   20.1664 C   0  0  0  0  0  0
  -25.4105  -36.3122   24.0340 C   0  0  1  0  0  0
  -20.5848  -28.3653   23.1323 C   0  0  2  0  0  0
  -20.6752  -26.9396   22.5417 C   0  0  0  0  0  0
  -19.5739  -26.6380   21.5206 C   0  0  0  0  0  0
  -18.1915  -26.7913   22.1613 C   0  0  0  0  0  0
  -19.1510  -28.8823   23.2903 C   0  0  0  0  0  0
  -18.9447  -30.1428   23.8916 C   0  0  0  0  0  0
  -17.6454  -30.6579   24.0560 C   0  0  0  0  0  0
  -25.9030  -34.9486   23.5134 C   0  0  0  0  0  0
  -16.5343  -29.9086   23.6319 C   0  0  0  0  0  0
  -16.7253  -28.6495   23.0351 C   0  0  0  0  0  0
  -26.4468  -31.6612   25.0726 C   0  0  0  0  0  0
  -25.3755  -31.3715   26.1494 C   0  0  0  0  0  0
  -27.0300  -30.3058   24.6083 C   0  0  0  0  0  0
  -27.6045  -32.4343   25.7479 C   0  0  0  0  0  0
  -27.5580  -37.1814   24.8464 C   0  0  0  0  0  0
  -21.4110  -29.3029   22.3737 N   0  0  0  0  0  0
  -26.4294  -37.3802   23.9408 N   0  0  0  0  0  0
  -24.6594  -31.0833   22.1014 N   0  0  0  0  0  0
  -23.4165  -28.8215   23.3036 O   0  0  0  0  0  0
  -28.4497  -26.8079   20.0982 O   0  0  0  0  0  0
  -26.5587  -34.8927   22.4694 O   0  0  0  0  0  0
  -23.5300  -32.1448   23.7551 O   0  0  0  0  0  0
  -29.7257  -19.0822   20.7385 C   0  0  0  0  0  0
  -30.0250  -17.8341   21.3238 C   0  0  0  0  0  0
  -29.2787  -16.7224   19.2904 C   0  0  0  0  0  0
  -29.1733  -19.1619   19.4366 C   0  0  0  0  0  0
  -29.8073  -16.6472   20.5984 C   0  0  0  0  0  0
  -28.9612  -17.9623   18.7063 C   0  0  0  0  0  0
  -29.7888  -21.5811   19.0229 C   0  0  0  0  0  0
  -29.5380  -22.8198   18.5590 C   0  0  0  0  0  0
  -28.8076  -20.4898   18.8626 C   0  0  0  0  0  0
  -29.3506  -18.2625   16.4042 C   0  0  0  0  0  0
  -30.4980  -23.9891   18.6446 C   0  0  0  0  0  0
  -30.0253  -25.0965   19.5993 C   0  0  0  0  0  0
  -28.6209  -25.6457   19.3014 C   0  0  0  0  0  0
  -30.0422  -15.3869   21.2033 N   0  0  0  0  0  0
  -27.7452  -20.6569   18.2538 O   0  0  0  0  0  0
  -28.4286  -17.9470   17.4411 O   0  0  0  0  0  0
  -31.4685  -12.3590   19.1252 H   0  0  0  0  0  0
  -30.3089  -11.2529   19.8006 H   0  0  0  0  0  0
  -29.7315  -11.7870   17.4193 H   0  0  0  0  0  0
  -29.6775  -13.4925   17.7887 H   0  0  0  0  0  0
  -27.8147  -11.3146   18.7998 H   0  0  0  0  0  0
  -27.3697  -12.6629   17.7882 H   0  0  0  0  0  0
  -27.7156  -14.2470   19.6026 H   0  0  0  0  0  0
  -28.6629  -11.9134   21.3356 H   0  0  0  0  0  0
  -28.4667  -13.5440   21.8875 H   0  0  0  0  0  0
  -25.2764   -9.5676   22.4746 H   0  0  0  0  0  0
  -24.0007   -7.4621   22.7456 H   0  0  0  0  0  0
  -21.0840   -8.8783   19.8940 H   0  0  0  0  0  0
  -22.3708  -10.9678   19.6155 H   0  0  0  0  0  0
  -21.1994   -7.6142   23.9724 H   0  0  0  0  0  0
  -21.1486   -6.0510   25.9082 H   0  0  0  0  0  0
  -22.0598   -2.7606   23.2842 H   0  0  0  0  0  0
  -22.4117  -11.9916   22.4807 H   0  0  0  0  0  0
  -21.1119  -13.1273   22.2572 H   0  0  0  0  0  0
  -24.6752  -15.8458   20.5149 H   0  0  0  0  0  0
  -26.2975  -15.6221   20.1016 H   0  0  0  0  0  0
  -26.7076  -32.5557   23.1176 H   0  0  0  0  0  0
  -25.0056  -33.9816   25.0494 H   0  0  0  0  0  0
  -22.6822  -31.3086   21.4133 H   0  0  0  0  0  0
  -23.3742  -35.9662   23.3321 H   0  0  0  0  0  0
  -24.3577  -36.8915   22.2051 H   0  0  0  0  0  0
  -23.7242  -37.6535   23.6641 H   0  0  0  0  0  0
  -26.0261  -31.6120   20.5947 H   0  0  0  0  0  0
  -26.8096  -30.8991   21.9774 H   0  0  0  0  0  0
  -28.0862  -29.1354   21.1636 H   0  0  0  0  0  0
  -26.0518  -25.9873   19.0061 H   0  0  0  0  0  0
  -23.9782  -27.2852   19.0511 H   0  0  0  0  0  0
  -23.7062  -30.5964   19.4038 H   0  0  0  0  0  0
  -22.7273  -29.2392   19.8740 H   0  0  0  0  0  0
  -25.1282  -36.1999   25.0834 H   0  0  0  0  0  0
  -20.9938  -28.3222   24.1443 H   0  0  0  0  0  0
  -20.5648  -26.2267   23.3603 H   0  0  0  0  0  0
  -21.6626  -26.7446   22.1219 H   0  0  0  0  0  0
  -19.6907  -25.6297   21.1222 H   0  0  0  0  0  0
  -19.6678  -27.3196   20.6742 H   0  0  0  0  0  0
  -17.4191  -26.6667   21.4009 H   0  0  0  0  0  0
  -18.0315  -26.0048   22.8999 H   0  0  0  0  0  0
  -19.7930  -30.7223   24.2305 H   0  0  0  0  0  0
  -17.5021  -31.6265   24.5155 H   0  0  0  0  0  0
  -15.5346  -30.2999   23.7634 H   0  0  0  0  0  0
  -15.8649  -28.0817   22.7071 H   0  0  0  0  0  0
  -24.5896  -30.7098   25.7840 H   0  0  0  0  0  0
  -24.8990  -32.2876   26.4991 H   0  0  0  0  0  0
  -25.8125  -30.8846   27.0219 H   0  0  0  0  0  0
  -26.2833  -29.6810   24.1168 H   0  0  0  0  0  0
  -27.4114  -29.7304   25.4529 H   0  0  0  0  0  0
  -27.8648  -30.4384   23.9195 H   0  0  0  0  0  0
  -27.2650  -33.3615   26.2111 H   0  0  0  0  0  0
  -28.3819  -32.6961   25.0287 H   0  0  0  0  0  0
  -28.0761  -31.8450   26.5351 H   0  0  0  0  0  0
  -28.2613  -38.0096   24.7503 H   0  0  0  0  0  0
  -28.1060  -36.2629   24.6303 H   0  0  0  0  0  0
  -27.2297  -37.1481   25.8867 H   0  0  0  0  0  0
  -20.9267  -29.8753   21.6961 H   0  0  0  0  0  0
  -26.0188  -38.2884   24.1408 H   0  0  0  0  0  0
  -29.8883  -19.9805   21.3183 H   0  0  0  0  0  0
  -30.4148  -17.7955   22.3322 H   0  0  0  0  0  0
  -29.1012  -15.8250   18.7160 H   0  0  0  0  0  0
  -30.7255  -21.3589   19.5121 H   0  0  0  0  0  0
  -28.5936  -23.0300   18.0748 H   0  0  0  0  0  0
  -29.3970  -17.4400   15.6903 H   0  0  0  0  0  0
  -30.3635  -18.4519   16.7645 H   0  0  0  0  0  0
  -29.0112  -19.1491   15.8685 H   0  0  0  0  0  0
  -30.6275  -24.3950   17.6404 H   0  0  0  0  0  0
  -31.4805  -23.6351   18.9616 H   0  0  0  0  0  0
  -30.7454  -25.9145   19.5504 H   0  0  0  0  0  0
  -30.0551  -24.7320   20.6273 H   0  0  0  0  0  0
  -27.8751  -24.8890   19.5477 H   0  0  0  0  0  0
  -28.5207  -25.9023   18.2454 H   0  0  0  0  0  0
  -29.2915  -15.0572   21.7916 H   0  0  0  0  0  0
  1 25  1  0  0  0
  1 30  2  0  0  0
  1 84  1  0  0  0
  2  3  1  0  0  0
  2 25  1  0  0  0
  2 87  1  0  0  0
  2 88  1  0  0  0
  3  4  1  0  0  0
  3 89  1  0  0  0
  3 90  1  0  0  0
  4  5  1  0  0  0
  4 91  1  0  0  0
  4 92  1  0  0  0
  5  6  1  0  0  0
  5 26  1  0  0  0
  5 93  1  0  0  0
  6 25  1  0  0  0
  6 94  1  0  0  0
  6 95  1  0  0  0
  7  8  2  0  0  0
  7 26  1  0  0  0
  7 29  1  0  0  0
  8  9  1  0  0  0
  8 22  1  0  0  0
  9 10  1  0  0  0
  9 27  2  0  0  0
 10 11  2  0  0  0
 10 15  1  0  0  0
 11 12  1  0  0  0
 11 96  1  0  0  0
 12 13  2  0  0  0
 12 97  1  0  0  0
 13 14  1  0  0  0
 13 31  1  0  0  0
 14 15  2  0  0  0
 14 98  1  0  0  0
 15 99  1  0  0  0
 16 17  2  0  0  0
 16 21  1  0  0  0
 16 31  1  0  0  0
 17 18  1  0  0  0
 17100  1  0  0  0
 18 19  2  0  0  0
 18101  1  0  0  0
 19 20  1  0  0  0
 19 24  1  0  0  0
 20 21  2  0  0  0
 20102  1  0  0  0
 21 23  1  0  0  0
 22 28  1  0  0  0
 22 32  2  0  0  0
 26 27  1  0  0  0
 28103  1  0  0  0
 28104  1  0  0  0
 29105  1  0  0  0
 29106  1  0  0  0
 33 34  1  0  0  0
 33 66  1  0  0  0
 33 70  2  0  0  0
 34 36  1  0  0  0
 34 59  1  0  0  0
 34107  1  0  0  0
 35 44  2  0  0  0
 35 45  1  0  0  0
 35 68  1  0  0  0
 36 56  1  0  0  0
 36108  1  0  0  0
 37 39  1  0  0  0
 37 47  1  0  0  0
 37 66  1  0  0  0
 37109  1  0  0  0
 38 43  2  0  0  0
 38 46  1  0  0  0
 38 47  1  0  0  0
 39 64  1  0  0  0
 39 67  2  0  0  0
 40 52  1  0  0  0
 40 53  2  0  0  0
 40 58  1  0  0  0
 41110  1  0  0  0
 41111  1  0  0  0
 41112  1  0  0  0
 41 48  1  0  0  0
 42 43  1  0  0  0
 42 66  1  0  0  0
 42113  1  0  0  0
 42114  1  0  0  0
 43 44  1  0  0  0
 44115  1  0  0  0
 45 46  2  0  0  0
 45116  1  0  0  0
 46117  1  0  0  0
 47118  1  0  0  0
 47119  1  0  0  0
 48 56  1  0  0  0
 48 65  1  0  0  0
 48120  1  0  0  0
 49 50  1  0  0  0
 49 53  1  0  0  0
 49 64  1  0  0  0
 49121  1  0  0  0
 50 51  1  0  0  0
 50122  1  0  0  0
 50123  1  0  0  0
 51 52  1  0  0  0
 51124  1  0  0  0
 51125  1  0  0  0
 52126  1  0  0  0
 52127  1  0  0  0
 53 54  1  0  0  0
 54 55  2  0  0  0
 54128  1  0  0  0
 55 57  1  0  0  0
 55129  1  0  0  0
 56 69  2  0  0  0
 57 58  2  0  0  0
 57130  1  0  0  0
 58131  1  0  0  0
 59 60  1  0  0  0
 59 61  1  0  0  0
 59 62  1  0  0  0
 60132  1  0  0  0
 60133  1  0  0  0
 60134  1  0  0  0
 61135  1  0  0  0
 61136  1  0  0  0
 61137  1  0  0  0
 62138  1  0  0  0
 62139  1  0  0  0
 62140  1  0  0  0
 63 65  1  0  0  0
 63141  1  0  0  0
 63142  1  0  0  0
 63143  1  0  0  0
 64144  1  0  0  0
 65145  1  0  0  0
 68 83  1  0  0  0
 71 72  2  0  0  0
 71 74  1  0  0  0
 71146  1  0  0  0
 72 75  1  0  0  0
 72147  1  0  0  0
 73 75  2  0  0  0
 73 76  1  0  0  0
 73148  1  0  0  0
 74 76  2  0  0  0
 74 79  1  0  0  0
 75 84  1  0  0  0
 76 86  1  0  0  0
 77 78  2  0  0  0
 77 79  1  0  0  0
 77149  1  0  0  0
 78 81  1  0  0  0
 78150  1  0  0  0
 79 85  2  0  0  0
 80 86  1  0  0  0
 80151  1  0  0  0
 80152  1  0  0  0
 80153  1  0  0  0
 81 82  1  0  0  0
 81154  1  0  0  0
 81155  1  0  0  0
 82 83  1  0  0  0
 82156  1  0  0  0
 82157  1  0  0  0
 83158  1  0  0  0
 83159  1  0  0  0
 84160  1  0  0  0
M  ISO  4   1 100  68 101  83 101  84 100
M  END
> <chiral flag>
0

> <version>
0

> <s_m_source_file>
/data/baiqing/PycharmProjects/Reinvent-master-3.2/result/LINK_invent/BTK/process_docking_weight1_custom_product_contain_oxygen_bond_distance_aromatic_linkinvent_7_9_3/rearranged_h_0137.sdf

> <i_m_source_file_index>
33

> <r_mmod_Potential_Energy-OPLS-2005>
51.3580360412598

> <r_mmod_Stretch_Energy-OPLS-2005>
32.9724273681641

> <r_mmod_Bend_Energy-OPLS-2005>
95.2077102661133

> <r_mmod_Torsional_Energy-OPLS-2005>
282.039764404297

> <r_mmod_Improper_Torsional_Energy-OPLS-2005>
6.06022834777832

> <r_mmod_Van_der_Waal_Energy-OPLS-2005>
156.552749633789

> <r_mmod_Electrostatic_Energy-OPLS-2005>
-308.880828857422

> <r_mmod_Solvation_Energy-OPLS-2005>
-221.974075317383

> <b_mmod_Minimization_Converged-OPLS-2005>
0

> <r_mmod_RMS_Derivative-OPLS-2005>
1.05569124221802

$$$$
33
                    3D
 Structure written by MMmdl.
162170  0  0  1  0            999 V2000
  -30.5826  -14.7175   20.4400 C   0  0  0  0  0  0
  -30.4301  -12.4302   19.4750 C   0  0  0  0  0  0
  -29.5133  -12.5138   18.2334 C   0  0  0  0  0  0
  -28.0347  -12.3437   18.6372 C   0  0  0  0  0  0
  -27.6436  -13.2275   19.8516 C   0  0  2  0  0  0
  -28.6822  -13.1259   20.9893 C   0  0  0  0  0  0
  -25.2509  -13.8187   20.5663 C   0  0  0  0  0  0
  -24.1794  -13.0440   20.9183 C   0  0  0  0  0  0
  -24.6373  -11.6911   20.8699 C   0  0  0  0  0  0
  -23.9049  -10.4288   21.0367 C   0  0  0  0  0  0
  -24.3609   -9.4216   21.9152 C   0  0  0  0  0  0
  -23.6303   -8.2246   22.0732 C   0  0  0  0  0  0
  -22.4281   -8.0268   21.3531 C   0  0  0  0  0  0
  -21.9901   -9.0235   20.4631 C   0  0  0  0  0  0
  -22.7211  -10.2125   20.3026 C   0  0  0  0  0  0
  -21.6865   -6.0730   22.5279 C   0  0  0  0  0  0
  -21.4011   -6.5631   23.8210 C   0  0  0  0  0  0
  -21.3656   -5.6774   24.9168 C   0  0  0  0  0  0
  -21.6055   -4.3042   24.7217 C   0  0  0  0  0  0
  -21.8817   -3.8142   23.4333 C   0  0  0  0  0  0
  -21.9188   -4.6959   22.3391 C   0  0  0  0  0  0
  -22.7815  -13.5229   21.1861 C   0  0  0  0  0  0
  -22.1669   -4.2133   21.0978 F   0  0  0  0  0  0
  -21.5632   -3.4527   25.7737 F   0  0  0  0  0  0
  -29.9909  -13.4760   20.4252 N   0  0  0  0  0  0
  -26.2925  -12.9389   20.3234 N   0  0  0  0  0  0
  -25.9304  -11.6527   20.5681 N   0  0  0  0  0  0
  -22.0461  -12.8220   22.0419 N   0  0  0  0  0  0
  -25.4253  -15.1908   20.4136 N   0  0  0  0  0  0
  -31.7558  -14.8462   20.0719 O   0  0  0  0  0  0
  -21.6639   -6.8871   21.4241 O   0  0  0  0  0  0
  -22.3497  -14.5532   20.6709 O   0  0  0  0  0  0
  -24.6294  -31.8550   23.1990 C   0  0  0  0  0  0
  -25.9125  -32.4757   23.8329 C   0  0  1  0  0  0
  -27.2238  -27.2857   20.1143 C   0  0  0  0  0  0
  -25.5933  -33.8558   24.2253 N   0  0  0  0  0  0
  -23.4218  -30.4778   21.5425 C   0  0  2  0  0  0
  -24.8649  -28.9196   20.1078 C   0  0  0  0  0  0
  -22.7474  -29.4609   22.4935 C   0  0  0  0  0  0
  -18.0285  -28.1391   22.8501 C   0  0  0  0  0  0
  -24.1479  -36.7276   23.2649 C   0  0  0  0  0  0
  -25.9645  -30.7742   21.3711 C   0  0  0  0  0  0
  -26.0338  -29.4004   20.7095 C   0  0  0  0  0  0
  -27.2103  -28.5940   20.6974 C   0  0  0  0  0  0
  -26.0212  -26.8425   19.5256 C   0  0  0  0  0  0
  -24.8617  -27.6459   19.5107 C   0  0  0  0  0  0
  -23.6363  -29.8055   20.1588 C   0  0  0  0  0  0
  -25.4112  -36.3067   24.0321 C   0  0  1  0  0  0
  -20.5885  -28.3697   23.1288 C   0  0  2  0  0  0
  -20.6779  -26.9424   22.5412 C   0  0  0  0  0  0
  -19.5753  -26.6394   21.5222 C   0  0  0  0  0  0
  -18.1929  -26.7943   22.1625 C   0  0  0  0  0  0
  -19.1537  -28.8858   23.2893 C   0  0  0  0  0  0
  -18.9461  -30.1461   23.8905 C   0  0  0  0  0  0
  -17.6460  -30.6601   24.0562 C   0  0  0  0  0  0
  -25.9043  -34.9451   23.5088 C   0  0  0  0  0  0
  -16.5355  -29.9091   23.6330 C   0  0  0  0  0  0
  -16.7268  -28.6504   23.0364 C   0  0  0  0  0  0
  -26.4494  -31.6591   25.0725 C   0  0  0  0  0  0
  -25.3727  -31.3751   26.1457 C   0  0  0  0  0  0
  -27.0366  -30.3021   24.6225 C   0  0  0  0  0  0
  -27.6050  -32.4356   25.7481 C   0  0  0  0  0  0
  -27.5577  -37.1796   24.8462 C   0  0  0  0  0  0
  -21.4186  -29.3043   22.3670 N   0  0  0  0  0  0
  -26.4289  -37.3767   23.9402 N   0  0  0  0  0  0
  -24.6917  -31.0548   22.0943 N   0  0  0  0  0  0
  -23.4202  -28.8186   23.3040 O   0  0  0  0  0  0
  -28.3839  -26.4917   20.1929 O   0  0  0  0  0  0
  -26.5627  -34.8928   22.4662 O   0  0  0  0  0  0
  -23.5452  -32.1377   23.7290 O   0  0  0  0  0  0
  -29.2849  -18.3810   20.6580 C   0  0  0  0  0  0
  -29.4354  -19.5817   18.5439 C   0  0  0  0  0  0
  -30.0167  -17.2021   18.6673 C   0  0  0  0  0  0
  -29.1510  -19.6329   19.9274 C   0  0  0  0  0  0
  -29.7339  -17.1399   20.0512 C   0  0  0  0  0  0
  -29.8418  -18.3798   17.9103 C   0  0  0  0  0  0
  -28.6865  -20.9900   20.5391 C   0  0  0  0  0  0
  -28.3918  -25.1324   18.0938 C   0  0  0  0  0  0
  -30.2084  -25.1906   19.7789 C   0  0  0  0  0  0
  -29.4979  -19.2582   15.7004 C   0  0  0  0  0  0
  -28.7024  -22.3492   19.6977 C   0  0  0  0  0  0
  -28.2047  -23.7668   20.3198 C   0  0  0  0  0  0
  -28.6757  -25.1437   19.6107 C   0  0  0  0  0  0
  -29.7969  -15.8214   20.7295 N   0  0  0  0  0  0
  -28.3030  -21.0508   21.7092 O   0  0  0  0  0  0
  -30.0764  -18.2776   16.5561 O   0  0  0  0  0  0
  -31.4757  -12.5445   19.1854 H   0  0  0  0  0  0
  -30.3572  -11.4451   19.9400 H   0  0  0  0  0  0
  -29.7968  -11.7526   17.5051 H   0  0  0  0  0  0
  -29.6458  -13.4766   17.7372 H   0  0  0  0  0  0
  -27.8816  -11.2925   18.8843 H   0  0  0  0  0  0
  -27.3827  -12.5542   17.7878 H   0  0  0  0  0  0
  -27.6527  -14.2557   19.4916 H   0  0  0  0  0  0
  -28.7057  -12.1164   21.4033 H   0  0  0  0  0  0
  -28.4181  -13.7856   21.8157 H   0  0  0  0  0  0
  -25.2756   -9.5730   22.4708 H   0  0  0  0  0  0
  -24.0032   -7.4646   22.7449 H   0  0  0  0  0  0
  -21.0829   -8.8737   19.8945 H   0  0  0  0  0  0
  -22.3647  -10.9656   19.6130 H   0  0  0  0  0  0
  -21.2010   -7.6143   23.9714 H   0  0  0  0  0  0
  -21.1488   -6.0504   25.9072 H   0  0  0  0  0  0
  -22.0605   -2.7608   23.2825 H   0  0  0  0  0  0
  -22.4098  -11.9910   22.4849 H   0  0  0  0  0  0
  -21.1060  -13.1222   22.2573 H   0  0  0  0  0  0
  -24.6633  -15.8499   20.5295 H   0  0  0  0  0  0
  -26.2815  -15.6293   20.0999 H   0  0  0  0  0  0
  -26.7196  -32.5387   23.1066 H   0  0  0  0  0  0
  -25.0082  -33.9688   25.0403 H   0  0  0  0  0  0
  -22.7190  -31.3010   21.3975 H   0  0  0  0  0  0
  -23.3742  -35.9598   23.3292 H   0  0  0  0  0  0
  -24.3581  -36.8935   22.2073 H   0  0  0  0  0  0
  -23.7237  -37.6474   23.6681 H   0  0  0  0  0  0
  -26.1083  -31.5370   20.6051 H   0  0  0  0  0  0
  -26.8430  -30.8169   22.0037 H   0  0  0  0  0  0
  -28.1097  -28.9622   21.1706 H   0  0  0  0  0  0
  -25.9384  -25.8512   19.1139 H   0  0  0  0  0  0
  -23.9561  -27.2583   19.0634 H   0  0  0  0  0  0
  -23.7631  -30.5817   19.4040 H   0  0  0  0  0  0
  -22.7525  -29.2404   19.8548 H   0  0  0  0  0  0
  -25.1297  -36.1909   25.0812 H   0  0  0  0  0  0
  -20.9983  -28.3286   24.1413 H   0  0  0  0  0  0
  -20.5702  -26.2319   23.3622 H   0  0  0  0  0  0
  -21.6649  -26.7479   22.1207 H   0  0  0  0  0  0
  -19.6917  -25.6302   21.1268 H   0  0  0  0  0  0
  -19.6700  -27.3193   20.6748 H   0  0  0  0  0  0
  -17.4219  -26.6714   21.4002 H   0  0  0  0  0  0
  -18.0308  -26.0078   22.9011 H   0  0  0  0  0  0
  -19.7924  -30.7266   24.2306 H   0  0  0  0  0  0
  -17.5011  -31.6278   24.5173 H   0  0  0  0  0  0
  -15.5351  -30.3002   23.7645 H   0  0  0  0  0  0
  -15.8671  -28.0820   22.7087 H   0  0  0  0  0  0
  -24.5869  -30.7137   25.7780 H   0  0  0  0  0  0
  -24.8936  -32.2927   26.4882 H   0  0  0  0  0  0
  -25.8045  -30.8924   27.0233 H   0  0  0  0  0  0
  -26.2958  -29.6754   24.1255 H   0  0  0  0  0  0
  -27.4067  -29.7312   25.4748 H   0  0  0  0  0  0
  -27.8808  -30.4300   23.9450 H   0  0  0  0  0  0
  -27.2642  -33.3659   26.2023 H   0  0  0  0  0  0
  -28.3851  -32.6938   25.0308 H   0  0  0  0  0  0
  -28.0715  -31.8527   26.5429 H   0  0  0  0  0  0
  -28.2597  -38.0092   24.7507 H   0  0  0  0  0  0
  -28.1077  -36.2636   24.6265 H   0  0  0  0  0  0
  -27.2313  -37.1426   25.8873 H   0  0  0  0  0  0
  -20.9377  -29.8727   21.6842 H   0  0  0  0  0  0
  -26.0161  -38.2838   24.1396 H   0  0  0  0  0  0
  -29.0379  -18.3854   21.7111 H   0  0  0  0  0  0
  -29.3315  -20.4801   17.9581 H   0  0  0  0  0  0
  -30.3244  -16.3119   18.1384 H   0  0  0  0  0  0
  -28.9091  -24.3069   17.6033 H   0  0  0  0  0  0
  -28.7420  -26.0511   17.6206 H   0  0  0  0  0  0
  -27.3405  -25.0119   17.8507 H   0  0  0  0  0  0
  -30.7160  -24.3893   19.2426 H   0  0  0  0  0  0
  -30.4934  -25.1107   20.8294 H   0  0  0  0  0  0
  -30.6242  -26.1272   19.4052 H   0  0  0  0  0  0
  -29.5646  -18.9117   14.6700 H   0  0  0  0  0  0
  -30.0269  -20.2112   15.7571 H   0  0  0  0  0  0
  -28.4397  -19.4168   15.9214 H   0  0  0  0  0  0
  -28.1307  -22.1696   18.7872 H   0  0  0  0  0  0
  -29.7351  -22.4618   19.3721 H   0  0  0  0  0  0
  -28.5141  -23.8002   21.3648 H   0  0  0  0  0  0
  -27.1148  -23.7539   20.3537 H   0  0  0  0  0  0
  -28.9907  -15.6060   21.2981 H   0  0  0  0  0  0
  1 25  1  0  0  0
  1 30  2  0  0  0
  1 84  1  0  0  0
  2  3  1  0  0  0
  2 25  1  0  0  0
  2 87  1  0  0  0
  2 88  1  0  0  0
  3  4  1  0  0  0
  3 89  1  0  0  0
  3 90  1  0  0  0
  4  5  1  0  0  0
  4 91  1  0  0  0
  4 92  1  0  0  0
  5  6  1  0  0  0
  5 26  1  0  0  0
  5 93  1  0  0  0
  6 25  1  0  0  0
  6 94  1  0  0  0
  6 95  1  0  0  0
  7  8  2  0  0  0
  7 26  1  0  0  0
  7 29  1  0  0  0
  8  9  1  0  0  0
  8 22  1  0  0  0
  9 10  1  0  0  0
  9 27  2  0  0  0
 10 11  2  0  0  0
 10 15  1  0  0  0
 11 12  1  0  0  0
 11 96  1  0  0  0
 12 13  2  0  0  0
 12 97  1  0  0  0
 13 14  1  0  0  0
 13 31  1  0  0  0
 14 15  2  0  0  0
 14 98  1  0  0  0
 15 99  1  0  0  0
 16 17  2  0  0  0
 16 21  1  0  0  0
 16 31  1  0  0  0
 17 18  1  0  0  0
 17100  1  0  0  0
 18 19  2  0  0  0
 18101  1  0  0  0
 19 20  1  0  0  0
 19 24  1  0  0  0
 20 21  2  0  0  0
 20102  1  0  0  0
 21 23  1  0  0  0
 22 28  1  0  0  0
 22 32  2  0  0  0
 26 27  1  0  0  0
 28103  1  0  0  0
 28104  1  0  0  0
 29105  1  0  0  0
 29106  1  0  0  0
 33 34  1  0  0  0
 33 66  1  0  0  0
 33 70  2  0  0  0
 34 36  1  0  0  0
 34 59  1  0  0  0
 34107  1  0  0  0
 35 44  2  0  0  0
 35 45  1  0  0  0
 35 68  1  0  0  0
 36 56  1  0  0  0
 36108  1  0  0  0
 37 39  1  0  0  0
 37 47  1  0  0  0
 37 66  1  0  0  0
 37109  1  0  0  0
 38 43  2  0  0  0
 38 46  1  0  0  0
 38 47  1  0  0  0
 39 64  1  0  0  0
 39 67  2  0  0  0
 40 52  1  0  0  0
 40 53  2  0  0  0
 40 58  1  0  0  0
 41110  1  0  0  0
 41111  1  0  0  0
 41112  1  0  0  0
 41 48  1  0  0  0
 42 43  1  0  0  0
 42 66  1  0  0  0
 42113  1  0  0  0
 42114  1  0  0  0
 43 44  1  0  0  0
 44115  1  0  0  0
 45 46  2  0  0  0
 45116  1  0  0  0
 46117  1  0  0  0
 47118  1  0  0  0
 47119  1  0  0  0
 48 56  1  0  0  0
 48 65  1  0  0  0
 48120  1  0  0  0
 49 50  1  0  0  0
 49 53  1  0  0  0
 49 64  1  0  0  0
 49121  1  0  0  0
 50 51  1  0  0  0
 50122  1  0  0  0
 50123  1  0  0  0
 51 52  1  0  0  0
 51124  1  0  0  0
 51125  1  0  0  0
 52126  1  0  0  0
 52127  1  0  0  0
 53 54  1  0  0  0
 54 55  2  0  0  0
 54128  1  0  0  0
 55 57  1  0  0  0
 55129  1  0  0  0
 56 69  2  0  0  0
 57 58  2  0  0  0
 57130  1  0  0  0
 58131  1  0  0  0
 59 60  1  0  0  0
 59 61  1  0  0  0
 59 62  1  0  0  0
 60132  1  0  0  0
 60133  1  0  0  0
 60134  1  0  0  0
 61135  1  0  0  0
 61136  1  0  0  0
 61137  1  0  0  0
 62138  1  0  0  0
 62139  1  0  0  0
 62140  1  0  0  0
 63 65  1  0  0  0
 63141  1  0  0  0
 63142  1  0  0  0
 63143  1  0  0  0
 64144  1  0  0  0
 65145  1  0  0  0
 68 83  1  0  0  0
 71 74  2  0  0  0
 71 75  1  0  0  0
 71146  1  0  0  0
 72 74  1  0  0  0
 72 76  2  0  0  0
 72147  1  0  0  0
 73 75  2  0  0  0
 73 76  1  0  0  0
 73148  1  0  0  0
 74 77  1  0  0  0
 75 84  1  0  0  0
 76 86  1  0  0  0
 77 81  1  0  0  0
 77 85  2  0  0  0
 78149  1  0  0  0
 78150  1  0  0  0
 78151  1  0  0  0
 78 83  1  0  0  0
 79 83  1  0  0  0
 79152  1  0  0  0
 79153  1  0  0  0
 79154  1  0  0  0
 80 86  1  0  0  0
 80155  1  0  0  0
 80156  1  0  0  0
 80157  1  0  0  0
 81 82  1  0  0  0
 81158  1  0  0  0
 81159  1  0  0  0
 82 83  1  0  0  0
 82160  1  0  0  0
 82161  1  0  0  0
 84162  1  0  0  0
M  ISO  4   1 100  68 101  83 101  84 100
M  END
> <chiral flag>
0

> <version>
0

> <s_m_source_file>
/data/baiqing/PycharmProjects/Reinvent-master-3.2/result/LINK_invent/BTK/process_docking_weight1_custom_product_contain_oxygen_bond_distance_aromatic_linkinvent_7_9_3/rearranged_h_0137.sdf

> <i_m_source_file_index>
34

> <r_mmod_Potential_Energy-OPLS-2005>
129.46696472168

> <r_mmod_Stretch_Energy-OPLS-2005>
116.84513092041

> <r_mmod_Bend_Energy-OPLS-2005>
198.404251098633

> <r_mmod_Torsional_Energy-OPLS-2005>
254.730621337891

> <r_mmod_Improper_Torsional_Energy-OPLS-2005>
4.89488554000854

> <r_mmod_Van_der_Waal_Energy-OPLS-2005>
141.047027587891

> <r_mmod_Electrostatic_Energy-OPLS-2005>
-431.161773681641

> <r_mmod_Solvation_Energy-OPLS-2005>
-224.472198486328

> <b_mmod_Minimization_Converged-OPLS-2005>
0

> <r_mmod_RMS_Derivative-OPLS-2005>
3.14342617988586

$$$$
34
                    3D
 Structure written by MMmdl.
162170  0  0  1  0            999 V2000
  -30.6213  -14.6468   20.4762 C   0  0  0  0  0  0
  -30.4225  -12.3854   19.4733 C   0  0  0  0  0  0
  -29.5068  -12.4836   18.2356 C   0  0  0  0  0  0
  -28.0281  -12.3307   18.6411 C   0  0  0  0  0  0
  -27.6426  -13.2175   19.8543 C   0  0  2  0  0  0
  -28.6768  -13.0909   20.9919 C   0  0  0  0  0  0
  -25.2518  -13.8194   20.5597 C   0  0  0  0  0  0
  -24.1791  -13.0459   20.9209 C   0  0  0  0  0  0
  -24.6362  -11.6939   20.8764 C   0  0  0  0  0  0
  -23.9035  -10.4319   21.0435 C   0  0  0  0  0  0
  -24.3617   -9.4222   21.9176 C   0  0  0  0  0  0
  -23.6301   -8.2251   22.0730 C   0  0  0  0  0  0
  -22.4275   -8.0285   21.3537 C   0  0  0  0  0  0
  -21.9925   -9.0264   20.4641 C   0  0  0  0  0  0
  -22.7235  -10.2148   20.3066 C   0  0  0  0  0  0
  -21.6844   -6.0736   22.5267 C   0  0  0  0  0  0
  -21.4020   -6.5653   23.8197 C   0  0  0  0  0  0
  -21.3671   -5.6802   24.9162 C   0  0  0  0  0  0
  -21.6045   -4.3063   24.7206 C   0  0  0  0  0  0
  -21.8834   -3.8151   23.4329 C   0  0  0  0  0  0
  -21.9217   -4.6974   22.3385 C   0  0  0  0  0  0
  -22.7854  -13.5251   21.1907 C   0  0  0  0  0  0
  -22.1681   -4.2173   21.0966 F   0  0  0  0  0  0
  -21.5639   -3.4547   25.7717 F   0  0  0  0  0  0
  -29.9880  -13.4312   20.4249 N   0  0  0  0  0  0
  -26.2902  -12.9348   20.3243 N   0  0  0  0  0  0
  -25.9266  -11.6509   20.5735 N   0  0  0  0  0  0
  -22.0531  -12.8183   22.0461 N   0  0  0  0  0  0
  -25.4275  -15.1867   20.3815 N   0  0  0  0  0  0
  -31.8157  -14.7234   20.1711 O   0  0  0  0  0  0
  -21.6647   -6.8871   21.4219 O   0  0  0  0  0  0
  -22.3511  -14.5561   20.6802 O   0  0  0  0  0  0
  -24.6305  -31.8550   23.1948 C   0  0  0  0  0  0
  -25.9141  -32.4727   23.8324 C   0  0  1  0  0  0
  -27.2451  -27.2977   20.0966 C   0  0  0  0  0  0
  -25.5990  -33.8543   24.2252 N   0  0  0  0  0  0
  -23.4238  -30.4717   21.5402 C   0  0  2  0  0  0
  -24.8697  -28.9077   20.1092 C   0  0  0  0  0  0
  -22.7472  -29.4614   22.4940 C   0  0  0  0  0  0
  -18.0308  -28.1441   22.8484 C   0  0  0  0  0  0
  -24.1514  -36.7209   23.2652 C   0  0  0  0  0  0
  -25.9667  -30.7722   21.3683 C   0  0  0  0  0  0
  -26.0390  -29.4000   20.7002 C   0  0  0  0  0  0
  -27.2267  -28.6107   20.6700 C   0  0  0  0  0  0
  -26.0528  -26.8487   19.4957 C   0  0  0  0  0  0
  -24.8772  -27.6355   19.5053 C   0  0  0  0  0  0
  -23.6363  -29.7950   20.1609 C   0  0  0  0  0  0
  -25.4155  -36.3026   24.0331 C   0  0  1  0  0  0
  -20.5907  -28.3752   23.1277 C   0  0  2  0  0  0
  -20.6843  -26.9484   22.5389 C   0  0  0  0  0  0
  -19.5800  -26.6426   21.5230 C   0  0  0  0  0  0
  -18.1971  -26.7975   22.1633 C   0  0  0  0  0  0
  -19.1553  -28.8918   23.2857 C   0  0  0  0  0  0
  -18.9472  -30.1534   23.8848 C   0  0  0  0  0  0
  -17.6463  -30.6631   24.0591 C   0  0  0  0  0  0
  -25.9094  -34.9412   23.5069 C   0  0  0  0  0  0
  -16.5355  -29.9115   23.6403 C   0  0  0  0  0  0
  -16.7288  -28.6557   23.0373 C   0  0  0  0  0  0
  -26.4568  -31.6604   25.0739 C   0  0  0  0  0  0
  -25.3832  -31.3663   26.1494 C   0  0  0  0  0  0
  -27.0604  -30.3103   24.6247 C   0  0  0  0  0  0
  -27.6099  -32.4442   25.7477 C   0  0  0  0  0  0
  -27.5602  -37.1753   24.8492 C   0  0  0  0  0  0
  -21.4193  -29.3052   22.3631 N   0  0  0  0  0  0
  -26.4315  -37.3747   23.9422 N   0  0  0  0  0  0
  -24.6918  -31.0542   22.0881 N   0  0  0  0  0  0
  -23.4154  -28.8215   23.3104 O   0  0  0  0  0  0
  -28.4038  -26.5008   20.1609 O   0  0  0  0  0  0
  -26.5630  -34.8890   22.4608 O   0  0  0  0  0  0
  -23.5469  -32.1372   23.7248 O   0  0  0  0  0  0
  -31.4141  -18.7814   18.9466 C   0  0  0  0  0  0
  -30.7204  -19.8822   19.4800 C   0  0  0  0  0  0
  -31.0990  -17.4627   19.3190 C   0  0  0  0  0  0
  -29.3637  -18.3249   20.7778 C   0  0  0  0  0  0
  -29.6452  -19.6992   20.3784 C   0  0  0  0  0  0
  -30.1088  -17.1776   20.2893 C   0  0  0  0  0  0
  -28.8081  -20.9741   22.4086 C   0  0  0  0  0  0
  -26.7678  -23.3997   20.4037 C   0  0  0  0  0  0
  -28.4473  -24.2357   22.0764 C   0  0  0  0  0  0
  -29.1451  -22.4513   20.2846 C   0  0  0  0  0  0
  -28.5522  -25.0847   19.7027 C   0  0  0  0  0  0
  -28.8195  -20.9659   20.8733 C   0  0  1  0  0  0
  -28.2434  -23.7803   20.6146 C   0  0  0  0  0  0
  -29.8571  -15.7771   20.6985 N   0  0  0  0  0  0
  -31.4661  -12.4966   19.1758 H   0  0  0  0  0  0
  -30.3509  -11.3974   19.9331 H   0  0  0  0  0  0
  -29.7761  -11.7165   17.5097 H   0  0  0  0  0  0
  -29.6534  -13.4410   17.7336 H   0  0  0  0  0  0
  -27.8614  -11.2808   18.8868 H   0  0  0  0  0  0
  -27.3758  -12.5449   17.7948 H   0  0  0  0  0  0
  -27.6611  -14.2470   19.4985 H   0  0  0  0  0  0
  -28.6829  -12.0730   21.3889 H   0  0  0  0  0  0
  -28.4224  -13.7347   21.8322 H   0  0  0  0  0  0
  -25.2763   -9.5709   22.4731 H   0  0  0  0  0  0
  -24.0039   -7.4635   22.7428 H   0  0  0  0  0  0
  -21.0871   -8.8771   19.8935 H   0  0  0  0  0  0
  -22.3679  -10.9690   19.6181 H   0  0  0  0  0  0
  -21.1991   -7.6154   23.9709 H   0  0  0  0  0  0
  -21.1493   -6.0521   25.9060 H   0  0  0  0  0  0
  -22.0613   -2.7620   23.2812 H   0  0  0  0  0  0
  -22.4213  -11.9801   22.4731 H   0  0  0  0  0  0
  -21.1183  -13.1197   22.2803 H   0  0  0  0  0  0
  -24.6536  -15.8403   20.4143 H   0  0  0  0  0  0
  -26.2472  -15.5777   19.9327 H   0  0  0  0  0  0
  -26.7157  -32.5377   23.1026 H   0  0  0  0  0  0
  -25.0388  -33.9719   25.0576 H   0  0  0  0  0  0
  -22.7167  -31.2915   21.3950 H   0  0  0  0  0  0
  -23.3828  -35.9495   23.3343 H   0  0  0  0  0  0
  -24.3581  -36.8834   22.2057 H   0  0  0  0  0  0
  -23.7243  -37.6382   23.6706 H   0  0  0  0  0  0
  -26.1202  -31.5402   20.6090 H   0  0  0  0  0  0
  -26.8325  -30.8016   22.0184 H   0  0  0  0  0  0
  -28.1364  -29.0061   21.0981 H   0  0  0  0  0  0
  -26.0142  -25.8720   19.0372 H   0  0  0  0  0  0
  -23.9831  -27.2334   19.0525 H   0  0  0  0  0  0
  -23.7551  -30.5740   19.4045 H   0  0  0  0  0  0
  -22.7497  -29.2299   19.8660 H   0  0  0  0  0  0
  -25.1350  -36.1821   25.0829 H   0  0  0  0  0  0
  -20.9994  -28.3368   24.1403 H   0  0  0  0  0  0
  -20.5956  -26.2329   23.3568 H   0  0  0  0  0  0
  -21.6685  -26.7671   22.1038 H   0  0  0  0  0  0
  -19.6989  -25.6338   21.1276 H   0  0  0  0  0  0
  -19.6746  -27.3232   20.6745 H   0  0  0  0  0  0
  -17.4250  -26.6752   21.4006 H   0  0  0  0  0  0
  -18.0343  -26.0137   22.9041 H   0  0  0  0  0  0
  -19.7950  -30.7417   24.2113 H   0  0  0  0  0  0
  -17.5033  -31.6323   24.5188 H   0  0  0  0  0  0
  -15.5358  -30.3004   23.7804 H   0  0  0  0  0  0
  -15.8694  -28.0911   22.7063 H   0  0  0  0  0  0
  -24.5834  -30.7266   25.7746 H   0  0  0  0  0  0
  -24.9265  -32.2828   26.5233 H   0  0  0  0  0  0
  -25.8163  -30.8513   27.0085 H   0  0  0  0  0  0
  -26.3298  -29.6649   24.1353 H   0  0  0  0  0  0
  -27.4513  -29.7534   25.4777 H   0  0  0  0  0  0
  -27.9018  -30.4555   23.9463 H   0  0  0  0  0  0
  -27.2635  -33.3635   26.2211 H   0  0  0  0  0  0
  -28.3750  -32.7206   25.0212 H   0  0  0  0  0  0
  -28.1004  -31.8560   26.5240 H   0  0  0  0  0  0
  -28.2600  -38.0059   24.7557 H   0  0  0  0  0  0
  -28.1115  -36.2590   24.6320 H   0  0  0  0  0  0
  -27.2327  -37.1403   25.8897 H   0  0  0  0  0  0
  -20.9376  -29.8580   21.6672 H   0  0  0  0  0  0
  -26.0176  -38.2804   24.1484 H   0  0  0  0  0  0
  -32.1991  -18.9520   18.2238 H   0  0  0  0  0  0
  -31.0234  -20.8674   19.1539 H   0  0  0  0  0  0
  -31.6456  -16.6765   18.8213 H   0  0  0  0  0  0
  -28.5533  -18.1429   21.4721 H   0  0  0  0  0  0
  -28.5649  -19.9981   22.8268 H   0  0  0  0  0  0
  -28.0468  -21.6455   22.7918 H   0  0  0  0  0  0
  -29.7748  -21.2795   22.8124 H   0  0  0  0  0  0
  -26.1076  -24.2278   20.6592 H   0  0  0  0  0  0
  -26.4754  -22.5459   21.0161 H   0  0  0  0  0  0
  -26.5752  -23.1307   19.3644 H   0  0  0  0  0  0
  -27.7909  -23.7228   22.7735 H   0  0  0  0  0  0
  -28.2114  -25.2901   22.2180 H   0  0  0  0  0  0
  -29.4790  -24.0978   22.3942 H   0  0  0  0  0  0
  -29.1396  -22.3421   19.2007 H   0  0  0  0  0  0
  -30.1831  -22.6876   20.5312 H   0  0  0  0  0  0
  -28.1280  -24.9614   18.7058 H   0  0  0  0  0  0
  -29.6268  -25.0271   19.5255 H   0  0  0  0  0  0
  -27.8073  -20.7421   20.5357 H   0  0  0  0  0  0
  -28.9556  -15.5972   21.1166 H   0  0  0  0  0  0
  1 25  1  0  0  0
  1 30  2  0  0  0
  1 84  1  0  0  0
  2  3  1  0  0  0
  2 25  1  0  0  0
  2 85  1  0  0  0
  2 86  1  0  0  0
  3  4  1  0  0  0
  3 87  1  0  0  0
  3 88  1  0  0  0
  4  5  1  0  0  0
  4 89  1  0  0  0
  4 90  1  0  0  0
  5  6  1  0  0  0
  5 26  1  0  0  0
  5 91  1  0  0  0
  6 25  1  0  0  0
  6 92  1  0  0  0
  6 93  1  0  0  0
  7  8  2  0  0  0
  7 26  1  0  0  0
  7 29  1  0  0  0
  8  9  1  0  0  0
  8 22  1  0  0  0
  9 10  1  0  0  0
  9 27  2  0  0  0
 10 11  2  0  0  0
 10 15  1  0  0  0
 11 12  1  0  0  0
 11 94  1  0  0  0
 12 13  2  0  0  0
 12 95  1  0  0  0
 13 14  1  0  0  0
 13 31  1  0  0  0
 14 15  2  0  0  0
 14 96  1  0  0  0
 15 97  1  0  0  0
 16 17  2  0  0  0
 16 21  1  0  0  0
 16 31  1  0  0  0
 17 18  1  0  0  0
 17 98  1  0  0  0
 18 19  2  0  0  0
 18 99  1  0  0  0
 19 20  1  0  0  0
 19 24  1  0  0  0
 20 21  2  0  0  0
 20100  1  0  0  0
 21 23  1  0  0  0
 22 28  1  0  0  0
 22 32  2  0  0  0
 26 27  1  0  0  0
 28101  1  0  0  0
 28102  1  0  0  0
 29103  1  0  0  0
 29104  1  0  0  0
 33 34  1  0  0  0
 33 66  1  0  0  0
 33 70  2  0  0  0
 34 36  1  0  0  0
 34 59  1  0  0  0
 34105  1  0  0  0
 35 44  2  0  0  0
 35 45  1  0  0  0
 35 68  1  0  0  0
 36 56  1  0  0  0
 36106  1  0  0  0
 37 39  1  0  0  0
 37 47  1  0  0  0
 37 66  1  0  0  0
 37107  1  0  0  0
 38 43  2  0  0  0
 38 46  1  0  0  0
 38 47  1  0  0  0
 39 64  1  0  0  0
 39 67  2  0  0  0
 40 52  1  0  0  0
 40 53  2  0  0  0
 40 58  1  0  0  0
 41108  1  0  0  0
 41109  1  0  0  0
 41110  1  0  0  0
 41 48  1  0  0  0
 42 43  1  0  0  0
 42 66  1  0  0  0
 42111  1  0  0  0
 42112  1  0  0  0
 43 44  1  0  0  0
 44113  1  0  0  0
 45 46  2  0  0  0
 45114  1  0  0  0
 46115  1  0  0  0
 47116  1  0  0  0
 47117  1  0  0  0
 48 56  1  0  0  0
 48 65  1  0  0  0
 48118  1  0  0  0
 49 50  1  0  0  0
 49 53  1  0  0  0
 49 64  1  0  0  0
 49119  1  0  0  0
 50 51  1  0  0  0
 50120  1  0  0  0
 50121  1  0  0  0
 51 52  1  0  0  0
 51122  1  0  0  0
 51123  1  0  0  0
 52124  1  0  0  0
 52125  1  0  0  0
 53 54  1  0  0  0
 54 55  2  0  0  0
 54126  1  0  0  0
 55 57  1  0  0  0
 55127  1  0  0  0
 56 69  2  0  0  0
 57 58  2  0  0  0
 57128  1  0  0  0
 58129  1  0  0  0
 59 60  1  0  0  0
 59 61  1  0  0  0
 59 62  1  0  0  0
 60130  1  0  0  0
 60131  1  0  0  0
 60132  1  0  0  0
 61133  1  0  0  0
 61134  1  0  0  0
 61135  1  0  0  0
 62136  1  0  0  0
 62137  1  0  0  0
 62138  1  0  0  0
 63 65  1  0  0  0
 63139  1  0  0  0
 63140  1  0  0  0
 63141  1  0  0  0
 64142  1  0  0  0
 65143  1  0  0  0
 68 81  1  0  0  0
 71 72  2  0  0  0
 71 73  1  0  0  0
 71144  1  0  0  0
 72 75  1  0  0  0
 72145  1  0  0  0
 73 76  2  0  0  0
 73146  1  0  0  0
 74 75  2  0  0  0
 74 76  1  0  0  0
 74147  1  0  0  0
 75 82  1  0  0  0
 76 84  1  0  0  0
 77148  1  0  0  0
 77149  1  0  0  0
 77150  1  0  0  0
 77 82  1  0  0  0
 78151  1  0  0  0
 78152  1  0  0  0
 78153  1  0  0  0
 78 83  1  0  0  0
 79 83  1  0  0  0
 79154  1  0  0  0
 79155  1  0  0  0
 79156  1  0  0  0
 80 82  1  0  0  0
 80 83  1  0  0  0
 80157  1  0  0  0
 80158  1  0  0  0
 81 83  1  0  0  0
 81159  1  0  0  0
 81160  1  0  0  0
 82161  1  0  0  0
 84162  1  0  0  0
M  ISO  4   1 100  68 101  81 101  84 100
M  END
> <chiral flag>
0

> <version>
0

> <s_m_source_file>
/data/baiqing/PycharmProjects/Reinvent-master-3.2/result/LINK_invent/BTK/process_docking_weight1_custom_product_contain_oxygen_bond_distance_aromatic_linkinvent_7_9_3/rearranged_h_0137.sdf

> <i_m_source_file_index>
35

> <r_mmod_Potential_Energy-OPLS-2005>
173.142272949219

> <r_mmod_Stretch_Energy-OPLS-2005>
119.721054077148

> <r_mmod_Bend_Energy-OPLS-2005>
181.698196411133

> <r_mmod_Torsional_Energy-OPLS-2005>
237.320999145508

> <r_mmod_Improper_Torsional_Energy-OPLS-2005>
4.80643749237061

> <r_mmod_Van_der_Waal_Energy-OPLS-2005>
145.366928100586

> <r_mmod_Electrostatic_Energy-OPLS-2005>
-377.20166015625

> <r_mmod_Solvation_Energy-OPLS-2005>
-192.536437988281

> <b_mmod_Minimization_Converged-OPLS-2005>
0

> <r_mmod_RMS_Derivative-OPLS-2005>
5.89697074890137

$$$$
35
                    3D
 Structure written by MMmdl.
160168  0  0  1  0            999 V2000
  -31.2281  -14.3661   19.0757 C   0  0  0  0  0  0
  -30.7351  -12.9450   20.5593 C   0  0  0  0  0  0
  -30.5627  -11.5671   19.7230 C   0  0  0  0  0  0
  -29.1022  -11.1876   19.4091 C   0  0  0  0  0  0
  -27.0439  -13.9751   18.8698 C   0  0  2  0  0  0
  -28.8549  -15.2256   19.4639 C   0  0  0  0  0  0
  -24.6394  -14.2987   20.4022 C   0  0  0  0  0  0
  -23.7599  -13.3487   20.8657 C   0  0  0  0  0  0
  -24.3542  -12.0912   20.9175 C   0  0  0  0  0  0
  -23.8494  -10.6325   21.0905 C   0  0  0  0  0  0
  -24.3609   -9.5889   21.9160 C   0  0  0  0  0  0
  -23.6763   -8.3304   22.0709 C   0  0  0  0  0  0
  -22.4736   -8.0684   21.3572 C   0  0  0  0  0  0
  -22.0260   -9.0534   20.4569 C   0  0  0  0  0  0
  -22.7063  -10.2814   20.3193 C   0  0  0  0  0  0
  -21.7224   -6.0835   22.5295 C   0  0  0  0  0  0
  -21.4371   -6.5710   23.8219 C   0  0  0  0  0  0
  -21.3807   -5.6827   24.9154 C   0  0  0  0  0  0
  -21.6037   -4.3074   24.7251 C   0  0  0  0  0  0
  -21.8724   -3.8183   23.4390 C   0  0  0  0  0  0
  -21.9292   -4.6986   22.3442 C   0  0  0  0  0  0
  -22.3895  -13.6460   21.2287 C   0  0  0  0  0  0
  -22.1671   -4.2135   21.0997 F   0  0  0  0  0  0
  -21.5559   -3.4571   25.7739 F   0  0  0  0  0  0
  -30.3182  -14.4326   20.0675 N   0  0  0  0  0  0
  -25.7000  -13.6844   19.9927 N   0  0  0  0  0  0
  -25.5171  -12.6430   21.0738 N   0  0  0  0  0  0
  -21.8671  -12.8510   22.1634 N   0  0  0  0  0  0
  -24.6067  -15.6228   20.1873 N   0  0  0  0  0  0
  -32.3207  -14.8148   19.3901 O   0  0  0  0  0  0
  -21.7299   -6.9076   21.4256 O   0  0  0  0  0  0
  -21.8528  -14.6210   20.7306 O   0  0  0  0  0  0
  -24.7466  -31.7082   23.0894 C   0  0  0  0  0  0
  -25.9770  -32.3890   23.7604 C   0  0  1  0  0  0
  -26.8390  -25.8312   20.4027 C   0  0  0  0  0  0
  -25.6153  -33.7782   24.1466 N   0  0  0  0  0  0
  -23.5835  -30.2996   21.4645 C   0  0  2  0  0  0
  -24.9628  -28.4797   20.1157 C   0  0  0  0  0  0
  -22.7955  -29.3845   22.4497 C   0  0  0  0  0  0
  -18.0358  -28.1441   22.8425 C   0  0  0  0  0  0
  -24.1535  -36.6894   23.2640 C   0  0  0  0  0  0
  -26.1687  -30.1308   21.4895 C   0  0  0  0  0  0
  -26.1337  -28.6119   20.8686 C   0  0  0  0  0  0
  -27.0408  -27.3380   20.9634 C   0  0  0  0  0  0
  -25.7579  -26.1238   19.4998 C   0  0  0  0  0  0
  -24.8800  -27.2782   19.3771 C   0  0  0  0  0  0
  -23.8457  -29.5609   20.1095 C   0  0  0  0  0  0
  -25.4174  -36.2530   24.0218 C   0  0  1  0  0  0
  -20.5987  -28.3784   23.1086 C   0  0  2  0  0  0
  -20.6772  -26.9393   22.5463 C   0  0  0  0  0  0
  -19.5784  -26.6347   21.5242 C   0  0  0  0  0  0
  -18.1955  -26.7971   22.1594 C   0  0  0  0  0  0
  -19.1624  -28.8960   23.2719 C   0  0  0  0  0  0
  -18.9521  -30.1531   23.8789 C   0  0  0  0  0  0
  -17.6498  -30.6596   24.0548 C   0  0  0  0  0  0
  -25.9255  -34.8969   23.4716 C   0  0  0  0  0  0
  -16.5390  -29.9072   23.6348 C   0  0  0  0  0  0
  -16.7336  -28.6505   23.0355 C   0  0  0  0  0  0
  -26.4715  -31.6219   25.0530 C   0  0  0  0  0  0
  -25.3554  -31.3730   26.0956 C   0  0  0  0  0  0
  -27.0668  -30.2453   24.6942 C   0  0  0  0  0  0
  -27.6090  -32.4161   25.7411 C   0  0  0  0  0  0
  -27.5657  -37.1429   24.8348 C   0  0  0  0  0  0
  -21.4542  -29.2892   22.3289 N   0  0  0  0  0  0
  -26.4163  -37.3455   23.9578 N   0  0  0  0  0  0
  -24.8726  -30.7744   22.0599 N   0  0  0  0  0  0
  -23.4134  -28.7524   23.3104 O   0  0  0  0  0  0
  -27.4188  -24.1797   20.6116 O   0  0  0  0  0  0
  -26.6006  -34.8746   22.4413 O   0  0  0  0  0  0
  -23.6386  -32.0598   23.5470 O   0  0  0  0  0  0
  -29.0284  -13.1741   18.5559 C   0  0  0  0  0  0
  -28.2738  -11.8791   16.9812 C   0  0  0  0  0  0
  -27.0088  -11.7572   19.4736 C   0  0  0  0  0  0
  -29.4234  -12.6891   17.4304 C   0  0  0  0  0  0
  -28.1647  -12.9785   20.3741 C   0  0  0  0  0  0
  -27.1217  -11.4966   17.9177 C   0  0  0  0  0  0
  -30.8778  -13.4625   17.5660 C   0  0  0  0  0  0
  -28.7568  -19.5396   21.3599 C   0  0  0  0  0  0
  -26.1296  -19.4559   21.9193 C   0  0  0  0  0  0
  -27.4782  -15.0454   21.3001 C   0  0  0  0  0  0
  -27.2103  -17.3681   20.6490 C   0  0  0  0  0  0
  -27.1235  -22.0497   20.4322 C   0  0  0  0  0  0
  -27.2992  -19.7006   20.9577 C   0  0  0  0  0  0
  -31.7636  -13.2772   16.6772 N   0  0  0  0  0  0
  -26.2119  -10.6381   17.3746 F   0  0  0  0  0  0
  -31.7642  -12.9341   20.9345 H   0  0  0  0  0  0
  -30.2558  -12.7784   21.5361 H   0  0  0  0  0  0
  -30.9297  -10.7767   20.3844 H   0  0  0  0  0  0
  -31.2761  -11.3732   18.9165 H   0  0  0  0  0  0
  -28.8527  -10.5814   20.3143 H   0  0  0  0  0  0
  -29.1350  -10.3479   18.6970 H   0  0  0  0  0  0
  -26.6571  -14.1090   17.8654 H   0  0  0  0  0  0
  -29.0043  -16.1108   20.0439 H   0  0  0  0  0  0
  -29.0971  -15.7604   18.5330 H   0  0  0  0  0  0
  -25.2823   -9.7451   22.4719 H   0  0  0  0  0  0
  -24.0678   -7.5923   22.7542 H   0  0  0  0  0  0
  -21.1298   -8.8533   19.8930 H   0  0  0  0  0  0
  -22.3149  -10.9845   19.6119 H   0  0  0  0  0  0
  -21.2558   -7.6269   23.9740 H   0  0  0  0  0  0
  -21.1683   -6.0616   25.9071 H   0  0  0  0  0  0
  -22.0318   -2.7613   23.2889 H   0  0  0  0  0  0
  -22.4339  -12.1275   22.5726 H   0  0  0  0  0  0
  -20.9831  -13.0921   22.5827 H   0  0  0  0  0  0
  -23.6752  -15.9533   20.4286 H   0  0  0  0  0  0
  -24.7685  -15.7421   19.2115 H   0  0  0  0  0  0
  -26.7938  -32.4153   23.0349 H   0  0  0  0  0  0
  -25.0052  -33.8661   24.9468 H   0  0  0  0  0  0
  -22.9514  -31.1570   21.2385 H   0  0  0  0  0  0
  -23.3990  -35.9013   23.2694 H   0  0  0  0  0  0
  -24.3734  -36.9237   22.2215 H   0  0  0  0  0  0
  -23.7025  -37.5710   23.7193 H   0  0  0  0  0  0
  -26.4938  -30.7808   20.6729 H   0  0  0  0  0  0
  -26.9985  -30.1710   22.1807 H   0  0  0  0  0  0
  -27.8771  -27.4439   21.6403 H   0  0  0  0  0  0
  -25.4519  -25.2739   18.9004 H   0  0  0  0  0  0
  -24.0409  -27.1646   18.7007 H   0  0  0  0  0  0
  -24.1046  -30.2922   19.3460 H   0  0  0  0  0  0
  -22.9275  -29.0843   19.7632 H   0  0  0  0  0  0
  -25.1379  -36.1044   25.0674 H   0  0  0  0  0  0
  -21.0077  -28.3470   24.1211 H   0  0  0  0  0  0
  -20.5557  -26.2416   23.3757 H   0  0  0  0  0  0
  -21.6634  -26.7223   22.1329 H   0  0  0  0  0  0
  -19.6915  -25.6240   21.1308 H   0  0  0  0  0  0
  -19.6778  -27.3130   20.6757 H   0  0  0  0  0  0
  -17.4248  -26.6763   21.3963 H   0  0  0  0  0  0
  -18.0269  -26.0132   22.8992 H   0  0  0  0  0  0
  -19.7990  -30.7380   24.2119 H   0  0  0  0  0  0
  -17.5033  -31.6262   24.5180 H   0  0  0  0  0  0
  -15.5378  -30.2929   23.7740 H   0  0  0  0  0  0
  -15.8739  -28.0800   22.7103 H   0  0  0  0  0  0
  -24.6249  -30.6455   25.7375 H   0  0  0  0  0  0
  -24.8135  -32.2877   26.3351 H   0  0  0  0  0  0
  -25.7596  -30.9793   27.0284 H   0  0  0  0  0  0
  -26.3400  -29.5899   24.2118 H   0  0  0  0  0  0
  -27.3928  -29.7103   25.5868 H   0  0  0  0  0  0
  -27.9498  -30.3370   24.0610 H   0  0  0  0  0  0
  -27.2609  -33.3637   26.1521 H   0  0  0  0  0  0
  -28.4150  -32.6347   25.0391 H   0  0  0  0  0  0
  -28.0439  -31.8514   26.5675 H   0  0  0  0  0  0
  -28.2077  -38.0248   24.8148 H   0  0  0  0  0  0
  -28.1715  -36.2915   24.5198 H   0  0  0  0  0  0
  -27.2588  -36.9807   25.8695 H   0  0  0  0  0  0
  -20.9974  -29.8471   21.6198 H   0  0  0  0  0  0
  -25.9869  -38.2327   24.2051 H   0  0  0  0  0  0
  -28.7969  -13.9560   17.7710 H   0  0  0  0  0  0
  -28.3313  -11.4073   16.0113 H   0  0  0  0  0  0
  -26.4430  -10.9543   19.9235 H   0  0  0  0  0  0
  -28.8582  -18.9214   22.2514 H   0  0  0  0  0  0
  -29.3579  -20.4459   21.4649 H   0  0  0  0  0  0
  -29.2579  -18.9564   20.5770 H   0  0  0  0  0  0
  -25.6098  -20.3572   22.2288 H   0  0  0  0  0  0
  -26.3865  -18.8541   22.7790 H   0  0  0  0  0  0
  -25.3893  -18.8143   21.4470 H   0  0  0  0  0  0
  -28.2215  -15.0977   22.0973 H   0  0  0  0  0  0
  -26.6521  -14.8340   21.9540 H   0  0  0  0  0  0
  -26.2499  -17.3514   20.1355 H   0  0  0  0  0  0
  -27.7043  -17.4145   19.6799 H   0  0  0  0  0  0
  -26.0744  -22.0619   20.1383 H   0  0  0  0  0  0
  -27.5791  -21.9617   19.4471 H   0  0  0  0  0  0
  -31.4503  -12.6327   15.9650 H   0  0  0  0  0  0
  1 25  1  0  0  0
  1 30  2  0  0  0
  1 77  1  0  0  0
  2  3  1  0  0  0
  2 25  1  0  0  0
  2 86  1  0  0  0
  2 87  1  0  0  0
  3  4  1  0  0  0
  3 88  1  0  0  0
  3 89  1  0  0  0
  4  5  1  0  0  0
  4 90  1  0  0  0
  4 91  1  0  0  0
  5  6  1  0  0  0
  5 26  1  0  0  0
  5 92  1  0  0  0
  6 25  1  0  0  0
  6 93  1  0  0  0
  6 94  1  0  0  0
  7  8  2  0  0  0
  7 26  1  0  0  0
  7 29  1  0  0  0
  8  9  1  0  0  0
  8 22  1  0  0  0
  9 10  1  0  0  0
  9 27  2  0  0  0
 10 11  2  0  0  0
 10 15  1  0  0  0
 11 12  1  0  0  0
 11 95  1  0  0  0
 12 13  2  0  0  0
 12 96  1  0  0  0
 13 14  1  0  0  0
 13 31  1  0  0  0
 14 15  2  0  0  0
 14 97  1  0  0  0
 15 98  1  0  0  0
 16 17  2  0  0  0
 16 21  1  0  0  0
 16 31  1  0  0  0
 17 18  1  0  0  0
 17 99  1  0  0  0
 18 19  2  0  0  0
 18100  1  0  0  0
 19 20  1  0  0  0
 19 24  1  0  0  0
 20 21  2  0  0  0
 20101  1  0  0  0
 21 23  1  0  0  0
 22 28  1  0  0  0
 22 32  2  0  0  0
 26 27  1  0  0  0
 28102  1  0  0  0
 28103  1  0  0  0
 29104  1  0  0  0
 29105  1  0  0  0
 33 34  1  0  0  0
 33 66  1  0  0  0
 33 70  2  0  0  0
 34 36  1  0  0  0
 34 59  1  0  0  0
 34106  1  0  0  0
 35 44  2  0  0  0
 35 45  1  0  0  0
 35 68  1  0  0  0
 36 56  1  0  0  0
 36107  1  0  0  0
 37 39  1  0  0  0
 37 47  1  0  0  0
 37 66  1  0  0  0
 37108  1  0  0  0
 38 43  2  0  0  0
 38 46  1  0  0  0
 38 47  1  0  0  0
 39 64  1  0  0  0
 39 67  2  0  0  0
 40 52  1  0  0  0
 40 53  2  0  0  0
 40 58  1  0  0  0
 41109  1  0  0  0
 41110  1  0  0  0
 41111  1  0  0  0
 41 48  1  0  0  0
 42 43  1  0  0  0
 42 66  1  0  0  0
 42112  1  0  0  0
 42113  1  0  0  0
 43 44  1  0  0  0
 44114  1  0  0  0
 45 46  2  0  0  0
 45115  1  0  0  0
 46116  1  0  0  0
 47117  1  0  0  0
 47118  1  0  0  0
 48 56  1  0  0  0
 48 65  1  0  0  0
 48119  1  0  0  0
 49 50  1  0  0  0
 49 53  1  0  0  0
 49 64  1  0  0  0
 49120  1  0  0  0
 50 51  1  0  0  0
 50121  1  0  0  0
 50122  1  0  0  0
 51 52  1  0  0  0
 51123  1  0  0  0
 51124  1  0  0  0
 52125  1  0  0  0
 52126  1  0  0  0
 53 54  1  0  0  0
 54 55  2  0  0  0
 54127  1  0  0  0
 55 57  1  0  0  0
 55128  1  0  0  0
 56 69  2  0  0  0
 57 58  2  0  0  0
 57129  1  0  0  0
 58130  1  0  0  0
 59 60  1  0  0  0
 59 61  1  0  0  0
 59 62  1  0  0  0
 60131  1  0  0  0
 60132  1  0  0  0
 60133  1  0  0  0
 61134  1  0  0  0
 61135  1  0  0  0
 61136  1  0  0  0
 62137  1  0  0  0
 62138  1  0  0  0
 62139  1  0  0  0
 63 65  1  0  0  0
 63140  1  0  0  0
 63141  1  0  0  0
 63142  1  0  0  0
 64143  1  0  0  0
 65144  1  0  0  0
 68 82  1  0  0  0
 71 74  2  0  0  0
 71 75  1  0  0  0
 71145  1  0  0  0
 72 74  1  0  0  0
 72 76  2  0  0  0
 72146  1  0  0  0
 73 75  2  0  0  0
 73 76  1  0  0  0
 73147  1  0  0  0
 74 77  1  0  0  0
 75 80  1  0  0  0
 76 85  1  0  0  0
 77 84  2  0  0  0
 78148  1  0  0  0
 78149  1  0  0  0
 78150  1  0  0  0
 78 83  1  0  0  0
 79 83  1  0  0  0
 79151  1  0  0  0
 79152  1  0  0  0
 79153  1  0  0  0
 80 81  1  0  0  0
 80154  1  0  0  0
 80155  1  0  0  0
 81 83  1  0  0  0
 81156  1  0  0  0
 81157  1  0  0  0
 82 83  1  0  0  0
 82158  1  0  0  0
 82159  1  0  0  0
 84160  1  0  0  0
M  ISO  4   1 100  68 101  77 100  82 101
M  END
> <chiral flag>
0

> <version>
0

> <s_m_source_file>
/data/baiqing/PycharmProjects/Reinvent-master-3.2/result/LINK_invent/BTK/process_docking_weight1_custom_product_contain_oxygen_bond_distance_aromatic_linkinvent_7_9_3/rearranged_h_0137.sdf

> <i_m_source_file_index>
36

> <r_mmod_Potential_Energy-OPLS-2005>
22575.06640625

> <r_mmod_Stretch_Energy-OPLS-2005>
11812.4482421875

> <r_mmod_Bend_Energy-OPLS-2005>
2138.267578125

> <r_mmod_Torsional_Energy-OPLS-2005>
665.831604003906

> <r_mmod_Improper_Torsional_Energy-OPLS-2005>
55.7666664123535

> <r_mmod_Van_der_Waal_Energy-OPLS-2005>
3721.0517578125

> <r_mmod_Electrostatic_Energy-OPLS-2005>
-220.052261352539

> <r_mmod_Solvation_Energy-OPLS-2005>
-206.326034545898

> <b_mmod_Minimization_Converged-OPLS-2005>
0

> <r_mmod_RMS_Derivative-OPLS-2005>
74.3362731933594

$$$$
36
                    3D
 Structure written by MMmdl.
165173  0  0  1  0            999 V2000
  -30.6846  -14.6767   20.5487 C   0  0  0  0  0  0
  -30.4438  -12.4301   19.4539 C   0  0  0  0  0  0
  -29.4991  -12.5079   18.2321 C   0  0  0  0  0  0
  -28.0268  -12.3462   18.6604 C   0  0  0  0  0  0
  -27.6576  -13.2310   19.8813 C   0  0  2  0  0  0
  -28.7198  -13.1262   21.0014 C   0  0  0  0  0  0
  -25.2565  -13.8239   20.5779 C   0  0  0  0  0  0
  -24.1822  -13.0492   20.9259 C   0  0  0  0  0  0
  -24.6397  -11.6961   20.8802 C   0  0  0  0  0  0
  -23.9065  -10.4330   21.0422 C   0  0  0  0  0  0
  -24.3604   -9.4229   21.9189 C   0  0  0  0  0  0
  -23.6275   -8.2263   22.0752 C   0  0  0  0  0  0
  -22.4265   -8.0301   21.3543 C   0  0  0  0  0  0
  -21.9909   -9.0282   20.4645 C   0  0  0  0  0  0
  -22.7228  -10.2172   20.3073 C   0  0  0  0  0  0
  -21.6858   -6.0732   22.5267 C   0  0  0  0  0  0
  -21.4017   -6.5631   23.8199 C   0  0  0  0  0  0
  -21.3651   -5.6793   24.9162 C   0  0  0  0  0  0
  -21.6053   -4.3056   24.7214 C   0  0  0  0  0  0
  -21.8810   -3.8138   23.4333 C   0  0  0  0  0  0
  -21.9184   -4.6959   22.3388 C   0  0  0  0  0  0
  -22.7831  -13.5278   21.1868 C   0  0  0  0  0  0
  -22.1654   -4.2144   21.0968 F   0  0  0  0  0  0
  -21.5635   -3.4527   25.7720 F   0  0  0  0  0  0
  -30.0199  -13.4763   20.4164 N   0  0  0  0  0  0
  -26.3030  -12.9432   20.3528 N   0  0  0  0  0  0
  -25.9368  -11.6592   20.5939 N   0  0  0  0  0  0
  -22.0460  -12.8299   22.0423 N   0  0  0  0  0  0
  -25.4280  -15.1972   20.4144 N   0  0  0  0  0  0
  -31.8569  -14.7773   20.1795 O   0  0  0  0  0  0
  -21.6642   -6.8879   21.4231 O   0  0  0  0  0  0
  -22.3510  -14.5553   20.6662 O   0  0  0  0  0  0
  -24.6337  -31.8637   23.2033 C   0  0  0  0  0  0
  -25.9181  -32.4796   23.8375 C   0  0  1  0  0  0
  -27.1965  -27.2582   20.1311 C   0  0  0  0  0  0
  -25.6008  -33.8584   24.2322 N   0  0  0  0  0  0
  -23.4264  -30.4964   21.5519 C   0  0  2  0  0  0
  -24.8685  -28.9680   20.1065 C   0  0  0  0  0  0
  -22.7500  -29.4664   22.4912 C   0  0  0  0  0  0
  -18.0336  -28.1371   22.8446 C   0  0  0  0  0  0
  -24.1501  -36.7282   23.2628 C   0  0  0  0  0  0
  -25.9782  -30.7817   21.3840 C   0  0  0  0  0  0
  -26.0478  -29.4089   20.7180 C   0  0  0  0  0  0
  -27.2137  -28.5693   20.7237 C   0  0  0  0  0  0
  -25.9884  -26.9210   19.4650 C   0  0  0  0  0  0
  -24.8460  -27.7299   19.4643 C   0  0  0  0  0  0
  -23.6431  -29.8548   20.1618 C   0  0  0  0  0  0
  -25.4115  -36.3053   24.0325 C   0  0  1  0  0  0
  -20.5920  -28.3714   23.1246 C   0  0  2  0  0  0
  -20.6827  -26.9490   22.5291 C   0  0  0  0  0  0
  -19.5796  -26.6501   21.5092 C   0  0  0  0  0  0
  -18.1984  -26.7962   22.1501 C   0  0  0  0  0  0
  -19.1563  -28.8830   23.2881 C   0  0  0  0  0  0
  -18.9473  -30.1413   23.8918 C   0  0  0  0  0  0
  -17.6471  -30.6534   24.0589 C   0  0  0  0  0  0
  -25.9057  -34.9441   23.5099 C   0  0  0  0  0  0
  -16.5363  -29.9038   23.6307 C   0  0  0  0  0  0
  -16.7307  -28.6477   23.0295 C   0  0  0  0  0  0
  -26.4524  -31.6551   25.0718 C   0  0  0  0  0  0
  -25.3727  -31.3744   26.1421 C   0  0  0  0  0  0
  -27.0378  -30.2956   24.6209 C   0  0  0  0  0  0
  -27.6089  -32.4272   25.7498 C   0  0  0  0  0  0
  -27.5573  -37.1814   24.8475 C   0  0  0  0  0  0
  -21.4196  -29.3099   22.3665 N   0  0  0  0  0  0
  -26.4287  -37.3756   23.9400 N   0  0  0  0  0  0
  -24.6990  -31.0644   22.1022 N   0  0  0  0  0  0
  -23.4181  -28.8199   23.3014 O   0  0  0  0  0  0
  -28.2600  -26.3057   20.2420 O   0  0  0  0  0  0
  -26.5595  -34.8916   22.4643 O   0  0  0  0  0  0
  -23.5509  -32.1444   23.7361 O   0  0  0  0  0  0
  -31.5940  -18.4908   22.9657 C   0  0  0  0  0  0
  -31.1660  -19.6922   22.3740 C   0  0  0  0  0  0
  -31.2286  -17.2386   22.4268 C   0  0  0  0  0  0
  -29.9788  -18.4048   20.6827 C   0  0  0  0  0  0
  -30.3710  -19.7027   21.2064 C   0  0  0  0  0  0
  -30.4048  -17.1488   21.2812 C   0  0  0  0  0  0
  -27.7489  -21.4815   20.1386 C   0  0  0  0  0  0
  -28.6369  -21.9010   22.4372 C   0  0  0  0  0  0
  -26.9023  -24.6256   21.3934 C   0  0  0  0  0  0
  -27.5538  -24.3662   18.8643 C   0  0  0  0  0  0
  -30.1395  -21.1257   20.5329 C   0  0  0  0  0  0
  -29.1700  -23.7285   20.6571 C   0  0  0  0  0  0
  -28.9258  -22.1089   20.9299 C   0  0  0  0  0  0
  -27.9849  -24.7995   20.2902 C   0  0  0  0  0  0
  -29.9558  -15.8062   20.8676 N   0  0  0  0  0  0
  -31.4750  -12.5525   19.1237 H   0  0  0  0  0  0
  -30.3997  -11.4406   19.9171 H   0  0  0  0  0  0
  -29.7622  -11.7480   17.4960 H   0  0  0  0  0  0
  -29.6264  -13.4694   17.7355 H   0  0  0  0  0  0
  -27.8663  -11.2958   18.9112 H   0  0  0  0  0  0
  -27.3610  -12.5565   17.8215 H   0  0  0  0  0  0
  -27.6686  -14.2616   19.5307 H   0  0  0  0  0  0
  -28.7492  -12.1135   21.4073 H   0  0  0  0  0  0
  -28.4783  -13.7768   21.8436 H   0  0  0  0  0  0
  -25.2742   -9.5724   22.4766 H   0  0  0  0  0  0
  -23.9981   -7.4668   22.7499 H   0  0  0  0  0  0
  -21.0826   -8.8807   19.8951 H   0  0  0  0  0  0
  -22.3665  -10.9716   19.6191 H   0  0  0  0  0  0
  -21.2010   -7.6142   23.9697 H   0  0  0  0  0  0
  -21.1491   -6.0524   25.9069 H   0  0  0  0  0  0
  -22.0588   -2.7602   23.2836 H   0  0  0  0  0  0
  -22.4041  -11.9933   22.4800 H   0  0  0  0  0  0
  -21.1098  -13.1372   22.2650 H   0  0  0  0  0  0
  -24.6709  -15.8612   20.5389 H   0  0  0  0  0  0
  -26.2752  -15.6268   20.0681 H   0  0  0  0  0  0
  -26.7241  -32.5486   23.1117 H   0  0  0  0  0  0
  -25.0228  -33.9753   25.0519 H   0  0  0  0  0  0
  -22.7183  -31.3171   21.4175 H   0  0  0  0  0  0
  -23.3744  -35.9642   23.3306 H   0  0  0  0  0  0
  -24.3599  -36.8880   22.2045 H   0  0  0  0  0  0
  -23.7288  -37.6507   23.6630 H   0  0  0  0  0  0
  -26.1187  -31.5485   20.6217 H   0  0  0  0  0  0
  -26.8576  -30.8290   22.0145 H   0  0  0  0  0  0
  -28.1080  -28.9041   21.2350 H   0  0  0  0  0  0
  -25.8256  -25.9807   18.9811 H   0  0  0  0  0  0
  -23.9446  -27.3881   18.9760 H   0  0  0  0  0  0
  -23.7809  -30.6472   19.4249 H   0  0  0  0  0  0
  -22.7556  -29.3054   19.8434 H   0  0  0  0  0  0
  -25.1284  -36.1895   25.0819 H   0  0  0  0  0  0
  -20.9970  -28.3261   24.1386 H   0  0  0  0  0  0
  -20.5811  -26.2331   23.3446 H   0  0  0  0  0  0
  -21.6694  -26.7606   22.1038 H   0  0  0  0  0  0
  -19.6968  -25.6466   21.0998 H   0  0  0  0  0  0
  -19.6686  -27.3389   20.6682 H   0  0  0  0  0  0
  -17.4309  -26.6820   21.3838 H   0  0  0  0  0  0
  -18.0355  -25.9982   22.8758 H   0  0  0  0  0  0
  -19.7951  -30.7225   24.2275 H   0  0  0  0  0  0
  -17.5019  -31.6171   24.5270 H   0  0  0  0  0  0
  -15.5367  -30.2943   23.7617 H   0  0  0  0  0  0
  -15.8714  -28.0824   22.6935 H   0  0  0  0  0  0
  -24.5916  -30.7067   25.7760 H   0  0  0  0  0  0
  -24.8886  -32.2932   26.4739 H   0  0  0  0  0  0
  -25.7994  -30.8991   27.0257 H   0  0  0  0  0  0
  -26.2995  -29.6684   24.1191 H   0  0  0  0  0  0
  -27.4027  -29.7217   25.4741 H   0  0  0  0  0  0
  -27.8869  -30.4209   23.9489 H   0  0  0  0  0  0
  -27.2708  -33.3597   26.2037 H   0  0  0  0  0  0
  -28.3912  -32.6790   25.0319 H   0  0  0  0  0  0
  -28.0727  -31.8396   26.5439 H   0  0  0  0  0  0
  -28.2598  -38.0092   24.7452 H   0  0  0  0  0  0
  -28.1050  -36.2620   24.6351 H   0  0  0  0  0  0
  -27.2309  -37.1538   25.8887 H   0  0  0  0  0  0
  -20.9376  -29.8811   21.6843 H   0  0  0  0  0  0
  -26.0158  -38.2846   24.1312 H   0  0  0  0  0  0
  -32.2288  -18.5311   23.8396 H   0  0  0  0  0  0
  -31.4803  -20.6322   22.8088 H   0  0  0  0  0  0
  -31.5754  -16.3444   22.9223 H   0  0  0  0  0  0
  -29.3723  -18.3769   19.7856 H   0  0  0  0  0  0
  -27.6713  -20.4200   20.3744 H   0  0  0  0  0  0
  -27.9035  -21.5318   19.0600 H   0  0  0  0  0  0
  -26.7695  -21.8999   20.3532 H   0  0  0  0  0  0
  -28.4615  -20.8523   22.6720 H   0  0  0  0  0  0
  -27.7547  -22.4295   22.7897 H   0  0  0  0  0  0
  -29.4795  -22.2277   23.0461 H   0  0  0  0  0  0
  -27.3111  -24.8871   22.3703 H   0  0  0  0  0  0
  -26.5282  -23.6133   21.4647 H   0  0  0  0  0  0
  -26.0044  -25.2207   21.2704 H   0  0  0  0  0  0
  -26.5506  -23.9389   18.8582 H   0  0  0  0  0  0
  -28.2185  -23.6228   18.4282 H   0  0  0  0  0  0
  -27.5872  -25.1852   18.1488 H   0  0  0  0  0  0
  -30.1914  -21.0049   19.4500 H   0  0  0  0  0  0
  -31.0447  -21.6901   20.7598 H   0  0  0  0  0  0
  -29.9178  -23.8120   19.8649 H   0  0  0  0  0  0
  -29.7028  -24.1252   21.5246 H   0  0  0  0  0  0
  -28.9661  -15.6418   20.9684 H   0  0  0  0  0  0
  1 25  1  0  0  0
  1 30  2  0  0  0
  1 85  1  0  0  0
  2  3  1  0  0  0
  2 25  1  0  0  0
  2 86  1  0  0  0
  2 87  1  0  0  0
  3  4  1  0  0  0
  3 88  1  0  0  0
  3 89  1  0  0  0
  4  5  1  0  0  0
  4 90  1  0  0  0
  4 91  1  0  0  0
  5  6  1  0  0  0
  5 26  1  0  0  0
  5 92  1  0  0  0
  6 25  1  0  0  0
  6 93  1  0  0  0
  6 94  1  0  0  0
  7  8  2  0  0  0
  7 26  1  0  0  0
  7 29  1  0  0  0
  8  9  1  0  0  0
  8 22  1  0  0  0
  9 10  1  0  0  0
  9 27  2  0  0  0
 10 11  2  0  0  0
 10 15  1  0  0  0
 11 12  1  0  0  0
 11 95  1  0  0  0
 12 13  2  0  0  0
 12 96  1  0  0  0
 13 14  1  0  0  0
 13 31  1  0  0  0
 14 15  2  0  0  0
 14 97  1  0  0  0
 15 98  1  0  0  0
 16 17  2  0  0  0
 16 21  1  0  0  0
 16 31  1  0  0  0
 17 18  1  0  0  0
 17 99  1  0  0  0
 18 19  2  0  0  0
 18100  1  0  0  0
 19 20  1  0  0  0
 19 24  1  0  0  0
 20 21  2  0  0  0
 20101  1  0  0  0
 21 23  1  0  0  0
 22 28  1  0  0  0
 22 32  2  0  0  0
 26 27  1  0  0  0
 28102  1  0  0  0
 28103  1  0  0  0
 29104  1  0  0  0
 29105  1  0  0  0
 33 34  1  0  0  0
 33 66  1  0  0  0
 33 70  2  0  0  0
 34 36  1  0  0  0
 34 59  1  0  0  0
 34106  1  0  0  0
 35 44  2  0  0  0
 35 45  1  0  0  0
 35 68  1  0  0  0
 36 56  1  0  0  0
 36107  1  0  0  0
 37 39  1  0  0  0
 37 47  1  0  0  0
 37 66  1  0  0  0
 37108  1  0  0  0
 38 43  2  0  0  0
 38 46  1  0  0  0
 38 47  1  0  0  0
 39 64  1  0  0  0
 39 67  2  0  0  0
 40 52  1  0  0  0
 40 53  2  0  0  0
 40 58  1  0  0  0
 41109  1  0  0  0
 41110  1  0  0  0
 41111  1  0  0  0
 41 48  1  0  0  0
 42 43  1  0  0  0
 42 66  1  0  0  0
 42112  1  0  0  0
 42113  1  0  0  0
 43 44  1  0  0  0
 44114  1  0  0  0
 45 46  2  0  0  0
 45115  1  0  0  0
 46116  1  0  0  0
 47117  1  0  0  0
 47118  1  0  0  0
 48 56  1  0  0  0
 48 65  1  0  0  0
 48119  1  0  0  0
 49 50  1  0  0  0
 49 53  1  0  0  0
 49 64  1  0  0  0
 49120  1  0  0  0
 50 51  1  0  0  0
 50121  1  0  0  0
 50122  1  0  0  0
 51 52  1  0  0  0
 51123  1  0  0  0
 51124  1  0  0  0
 52125  1  0  0  0
 52126  1  0  0  0
 53 54  1  0  0  0
 54 55  2  0  0  0
 54127  1  0  0  0
 55 57  1  0  0  0
 55128  1  0  0  0
 56 69  2  0  0  0
 57 58  2  0  0  0
 57129  1  0  0  0
 58130  1  0  0  0
 59 60  1  0  0  0
 59 61  1  0  0  0
 59 62  1  0  0  0
 60131  1  0  0  0
 60132  1  0  0  0
 60133  1  0  0  0
 61134  1  0  0  0
 61135  1  0  0  0
 61136  1  0  0  0
 62137  1  0  0  0
 62138  1  0  0  0
 62139  1  0  0  0
 63 65  1  0  0  0
 63140  1  0  0  0
 63141  1  0  0  0
 63142  1  0  0  0
 64143  1  0  0  0
 65144  1  0  0  0
 68 84  1  0  0  0
 71 72  2  0  0  0
 71 73  1  0  0  0
 71145  1  0  0  0
 72 75  1  0  0  0
 72146  1  0  0  0
 73 76  2  0  0  0
 73147  1  0  0  0
 74 75  2  0  0  0
 74 76  1  0  0  0
 74148  1  0  0  0
 75 81  1  0  0  0
 76 85  1  0  0  0
 77149  1  0  0  0
 77150  1  0  0  0
 77151  1  0  0  0
 77 83  1  0  0  0
 78 83  1  0  0  0
 78152  1  0  0  0
 78153  1  0  0  0
 78154  1  0  0  0
 79155  1  0  0  0
 79156  1  0  0  0
 79157  1  0  0  0
 79 84  1  0  0  0
 80 84  1  0  0  0
 80158  1  0  0  0
 80159  1  0  0  0
 80160  1  0  0  0
 81 83  1  0  0  0
 81161  1  0  0  0
 81162  1  0  0  0
 82 83  1  0  0  0
 82 84  1  0  0  0
 82163  1  0  0  0
 82164  1  0  0  0
 85165  1  0  0  0
M  ISO  4   1 100  68 101  84 101  85 100
M  END
> <chiral flag>
0

> <version>
0

> <s_m_source_file>
/data/baiqing/PycharmProjects/Reinvent-master-3.2/result/LINK_invent/BTK/process_docking_weight1_custom_product_contain_oxygen_bond_distance_aromatic_linkinvent_7_9_3/rearranged_h_0137.sdf

> <i_m_source_file_index>
37

> <r_mmod_Potential_Energy-OPLS-2005>
297.598022460938

> <r_mmod_Stretch_Energy-OPLS-2005>
144.418411254883

> <r_mmod_Bend_Energy-OPLS-2005>
197.75212097168

> <r_mmod_Torsional_Energy-OPLS-2005>
262.007537841797

> <r_mmod_Improper_Torsional_Energy-OPLS-2005>
6.4089994430542

> <r_mmod_Van_der_Waal_Energy-OPLS-2005>
169.787826538086

> <r_mmod_Electrostatic_Energy-OPLS-2005>
-366.954132080078

> <r_mmod_Solvation_Energy-OPLS-2005>
-194.376403808594

> <b_mmod_Minimization_Converged-OPLS-2005>
0

> <r_mmod_RMS_Derivative-OPLS-2005>
5.83951950073242

$$$$
37
                    3D
 Structure written by MMmdl.
159168  0  0  1  0            999 V2000
  -30.5033  -14.9251   20.4489 C   0  0  0  0  0  0
  -30.4467  -12.5709   19.4963 C   0  0  0  0  0  0
  -29.5255  -12.5369   18.2523 C   0  0  0  0  0  0
  -28.0531  -12.3313   18.6586 C   0  0  0  0  0  0
  -27.6329  -13.2402   19.8439 C   0  0  2  0  0  0
  -28.6729  -13.2253   20.9845 C   0  0  0  0  0  0
  -25.2473  -13.8188   20.5690 C   0  0  0  0  0  0
  -24.1782  -13.0428   20.9203 C   0  0  0  0  0  0
  -24.6392  -11.6918   20.8733 C   0  0  0  0  0  0
  -23.9083  -10.4290   21.0409 C   0  0  0  0  0  0
  -24.3631   -9.4194   21.9178 C   0  0  0  0  0  0
  -23.6300   -8.2235   22.0759 C   0  0  0  0  0  0
  -22.4280   -8.0281   21.3560 C   0  0  0  0  0  0
  -21.9919   -9.0253   20.4660 C   0  0  0  0  0  0
  -22.7255  -10.2128   20.3063 C   0  0  0  0  0  0
  -21.6853   -6.0738   22.5277 C   0  0  0  0  0  0
  -21.4012   -6.5639   23.8211 C   0  0  0  0  0  0
  -21.3666   -5.6791   24.9175 C   0  0  0  0  0  0
  -21.6044   -4.3058   24.7214 C   0  0  0  0  0  0
  -21.8815   -3.8151   23.4336 C   0  0  0  0  0  0
  -21.9197   -4.6971   22.3397 C   0  0  0  0  0  0
  -22.7808  -13.5214   21.1880 C   0  0  0  0  0  0
  -22.1667   -4.2156   21.0971 F   0  0  0  0  0  0
  -21.5633   -3.4541   25.7721 F   0  0  0  0  0  0
  -29.9537  -13.6462   20.4008 N   0  0  0  0  0  0
  -26.2891  -12.9402   20.3225 N   0  0  0  0  0  0
  -25.9317  -11.6542   20.5715 N   0  0  0  0  0  0
  -22.0466  -12.8197   22.0439 N   0  0  0  0  0  0
  -25.4126  -15.1919   20.4113 N   0  0  0  0  0  0
  -31.7004  -15.0503   20.1592 O   0  0  0  0  0  0
  -21.6651   -6.8882   21.4245 O   0  0  0  0  0  0
  -22.3488  -14.5525   20.6745 O   0  0  0  0  0  0
  -24.6412  -31.8470   23.1888 C   0  0  0  0  0  0
  -25.9190  -32.4709   23.8272 C   0  0  1  0  0  0
  -27.2247  -27.1643   20.1640 C   0  0  0  0  0  0
  -25.5949  -33.8520   24.2185 N   0  0  0  0  0  0
  -23.4436  -30.4616   21.5356 C   0  0  2  0  0  0
  -24.8942  -28.8861   20.1202 C   0  0  0  0  0  0
  -22.7569  -29.4515   22.4881 C   0  0  0  0  0  0
  -18.0308  -28.1386   22.8441 C   0  0  0  0  0  0
  -24.1491  -36.7270   23.2635 C   0  0  0  0  0  0
  -25.9965  -30.7288   21.3826 C   0  0  0  0  0  0
  -26.0698  -29.3398   20.7322 C   0  0  0  0  0  0
  -27.2404  -28.4972   20.7308 C   0  0  0  0  0  0
  -26.0235  -26.7978   19.5246 C   0  0  0  0  0  0
  -24.8796  -27.6263   19.5019 C   0  0  0  0  0  0
  -23.6712  -29.7897   20.1564 C   0  0  0  0  0  0
  -25.4125  -36.3050   24.0306 C   0  0  1  0  0  0
  -20.5907  -28.3714   23.1236 C   0  0  2  0  0  0
  -20.6819  -26.9401   22.5465 C   0  0  0  0  0  0
  -19.5814  -26.6240   21.5279 C   0  0  0  0  0  0
  -18.1981  -26.7876   22.1659 C   0  0  0  0  0  0
  -19.1556  -28.8882   23.2800 C   0  0  0  0  0  0
  -18.9478  -30.1501   23.8790 C   0  0  0  0  0  0
  -17.6465  -30.6613   24.0487 C   0  0  0  0  0  0
  -25.9080  -34.9422   23.5054 C   0  0  0  0  0  0
  -16.5358  -29.9082   23.6301 C   0  0  0  0  0  0
  -16.7291  -28.6496   23.0334 C   0  0  0  0  0  0
  -26.4516  -31.6565   25.0700 C   0  0  0  0  0  0
  -25.3694  -31.3769   26.1391 C   0  0  0  0  0  0
  -27.0391  -30.2966   24.6273 C   0  0  0  0  0  0
  -27.6053  -32.4325   25.7476 C   0  0  0  0  0  0
  -27.5578  -37.1786   24.8463 C   0  0  0  0  0  0
  -21.4262  -29.3010   22.3615 N   0  0  0  0  0  0
  -26.4293  -37.3759   23.9402 N   0  0  0  0  0  0
  -24.7125  -31.0338   22.0916 N   0  0  0  0  0  0
  -23.4213  -28.8079   23.3050 O   0  0  0  0  0  0
  -28.3135  -26.2322   20.1377 O   0  0  0  0  0  0
  -26.5680  -34.8914   22.4644 O   0  0  0  0  0  0
  -23.5526  -32.1340   23.7101 O   0  0  0  0  0  0
  -29.7029  -19.8439   21.7140 C   0  0  0  0  0  0
  -28.8134  -19.7687   19.5412 C   0  0  0  0  0  0
  -29.9701  -18.4151   21.6762 C   0  0  0  0  0  0
  -29.0651  -18.3314   19.5069 C   0  0  0  0  0  0
  -29.0972  -20.6204   20.6643 C   0  0  0  0  0  0
  -29.6573  -17.5586   20.5693 C   0  0  0  0  0  0
  -26.3600  -22.2499   20.3462 C   0  0  0  0  0  0
  -27.1957  -22.9644   19.2701 C   0  0  0  0  0  0
  -27.3435  -21.9661   21.4929 C   0  0  0  0  0  0
  -28.5013  -23.3006   19.9988 C   0  0  1  0  0  0
  -29.6923  -23.4268   19.0391 C   0  0  0  0  0  0
  -28.2373  -24.8083   20.7314 C   0  0  0  0  0  0
  -28.6730  -22.0351   20.8940 N   0  0  0  0  0  0
  -29.6294  -16.0264   20.6334 N   0  0  0  0  0  0
  -31.4803  -12.7443   19.1932 H   0  0  0  0  0  0
  -30.4423  -11.6062   20.0067 H   0  0  0  0  0  0
  -29.8406  -11.7497   17.5666 H   0  0  0  0  0  0
  -29.6232  -13.4754   17.7038 H   0  0  0  0  0  0
  -27.9290  -11.2822   18.9310 H   0  0  0  0  0  0
  -27.3984  -12.5038   17.8029 H   0  0  0  0  0  0
  -27.6077  -14.2515   19.4396 H   0  0  0  0  0  0
  -28.7490  -12.2306   21.4290 H   0  0  0  0  0  0
  -28.3724  -13.8979   21.7899 H   0  0  0  0  0  0
  -25.2780   -9.5654   22.4752 H   0  0  0  0  0  0
  -24.0008   -7.4613   22.7463 H   0  0  0  0  0  0
  -21.0855   -8.8765   19.8952 H   0  0  0  0  0  0
  -22.3714  -10.9661   19.6170 H   0  0  0  0  0  0
  -21.2000   -7.6145   23.9707 H   0  0  0  0  0  0
  -21.1502   -6.0529   25.9072 H   0  0  0  0  0  0
  -22.0594   -2.7613   23.2830 H   0  0  0  0  0  0
  -22.4132  -11.9882   22.4821 H   0  0  0  0  0  0
  -21.1083  -13.1210   22.2682 H   0  0  0  0  0  0
  -24.6352  -15.8350   20.5169 H   0  0  0  0  0  0
  -26.2433  -15.6356   20.0424 H   0  0  0  0  0  0
  -26.7252  -32.5337   23.1002 H   0  0  0  0  0  0
  -25.0065  -33.9649   25.0308 H   0  0  0  0  0  0
  -22.7413  -31.2844   21.3815 H   0  0  0  0  0  0
  -23.3761  -35.9595   23.3285 H   0  0  0  0  0  0
  -24.3587  -36.8918   22.2056 H   0  0  0  0  0  0
  -23.7235  -37.6450   23.6689 H   0  0  0  0  0  0
  -26.1495  -31.4810   20.6062 H   0  0  0  0  0  0
  -26.8666  -30.7815   22.0243 H   0  0  0  0  0  0
  -28.1451  -28.8506   21.2057 H   0  0  0  0  0  0
  -25.9574  -25.8417   19.0327 H   0  0  0  0  0  0
  -23.9815  -27.2743   19.0127 H   0  0  0  0  0  0
  -23.8159  -30.5627   19.4023 H   0  0  0  0  0  0
  -22.7857  -29.2349   19.8429 H   0  0  0  0  0  0
  -25.1303  -36.1875   25.0796 H   0  0  0  0  0  0
  -20.9942  -28.3334   24.1385 H   0  0  0  0  0  0
  -20.5597  -26.2393   23.3742 H   0  0  0  0  0  0
  -21.6731  -26.7340   22.1398 H   0  0  0  0  0  0
  -19.6984  -25.6079   21.1498 H   0  0  0  0  0  0
  -19.6786  -27.2872   20.6679 H   0  0  0  0  0  0
  -17.4246  -26.6519   21.4082 H   0  0  0  0  0  0
  -18.0397  -26.0093   22.9139 H   0  0  0  0  0  0
  -19.7962  -30.7339   24.2108 H   0  0  0  0  0  0
  -17.5012  -31.6300   24.5070 H   0  0  0  0  0  0
  -15.5360  -30.2957   23.7680 H   0  0  0  0  0  0
  -15.8672  -28.0787   22.7139 H   0  0  0  0  0  0
  -24.5867  -30.7126   25.7695 H   0  0  0  0  0  0
  -24.8895  -32.2966   26.4747 H   0  0  0  0  0  0
  -25.7959  -30.8971   27.0208 H   0  0  0  0  0  0
  -26.3016  -29.6662   24.1284 H   0  0  0  0  0  0
  -27.4021  -29.7282   25.4841 H   0  0  0  0  0  0
  -27.8909  -30.4204   23.9585 H   0  0  0  0  0  0
  -27.2654  -33.3639   26.2023 H   0  0  0  0  0  0
  -28.3879  -32.6861   25.0312 H   0  0  0  0  0  0
  -28.0715  -31.8478   26.5415 H   0  0  0  0  0  0
  -28.2581  -38.0094   24.7520 H   0  0  0  0  0  0
  -28.1089  -36.2625   24.6273 H   0  0  0  0  0  0
  -27.2317  -37.1420   25.8872 H   0  0  0  0  0  0
  -20.9486  -29.8707   21.6773 H   0  0  0  0  0  0
  -26.0159  -38.2824   24.1411 H   0  0  0  0  0  0
  -29.9340  -20.3586   22.6360 H   0  0  0  0  0  0
  -28.3151  -20.2037   18.6879 H   0  0  0  0  0  0
  -30.3673  -17.9633   22.5741 H   0  0  0  0  0  0
  -28.7254  -17.7982   18.6296 H   0  0  0  0  0  0
  -25.9398  -21.3248   19.9483 H   0  0  0  0  0  0
  -25.5289  -22.8636   20.6958 H   0  0  0  0  0  0
  -26.6950  -23.8396   18.8587 H   0  0  0  0  0  0
  -27.3786  -22.2885   18.4357 H   0  0  0  0  0  0
  -27.1176  -21.0190   21.9872 H   0  0  0  0  0  0
  -27.2651  -22.7351   22.2637 H   0  0  0  0  0  0
  -29.5636  -24.2809   18.3718 H   0  0  0  0  0  0
  -29.8078  -22.5388   18.4172 H   0  0  0  0  0  0
  -30.6267  -23.5790   19.5808 H   0  0  0  0  0  0
  -28.9743  -24.8515   21.5348 H   0  0  0  0  0  0
  -27.2864  -24.7704   21.2637 H   0  0  0  0  0  0
  -28.6944  -15.6772   20.7750 H   0  0  0  0  0  0
  1 25  1  0  0  0
  1 30  2  0  0  0
  1 84  1  0  0  0
  2  3  1  0  0  0
  2 25  1  0  0  0
  2 85  1  0  0  0
  2 86  1  0  0  0
  3  4  1  0  0  0
  3 87  1  0  0  0
  3 88  1  0  0  0
  4  5  1  0  0  0
  4 89  1  0  0  0
  4 90  1  0  0  0
  5  6  1  0  0  0
  5 26  1  0  0  0
  5 91  1  0  0  0
  6 25  1  0  0  0
  6 92  1  0  0  0
  6 93  1  0  0  0
  7  8  2  0  0  0
  7 26  1  0  0  0
  7 29  1  0  0  0
  8  9  1  0  0  0
  8 22  1  0  0  0
  9 10  1  0  0  0
  9 27  2  0  0  0
 10 11  2  0  0  0
 10 15  1  0  0  0
 11 12  1  0  0  0
 11 94  1  0  0  0
 12 13  2  0  0  0
 12 95  1  0  0  0
 13 14  1  0  0  0
 13 31  1  0  0  0
 14 15  2  0  0  0
 14 96  1  0  0  0
 15 97  1  0  0  0
 16 17  2  0  0  0
 16 21  1  0  0  0
 16 31  1  0  0  0
 17 18  1  0  0  0
 17 98  1  0  0  0
 18 19  2  0  0  0
 18 99  1  0  0  0
 19 20  1  0  0  0
 19 24  1  0  0  0
 20 21  2  0  0  0
 20100  1  0  0  0
 21 23  1  0  0  0
 22 28  1  0  0  0
 22 32  2  0  0  0
 26 27  1  0  0  0
 28101  1  0  0  0
 28102  1  0  0  0
 29103  1  0  0  0
 29104  1  0  0  0
 33 34  1  0  0  0
 33 66  1  0  0  0
 33 70  2  0  0  0
 34 36  1  0  0  0
 34 59  1  0  0  0
 34105  1  0  0  0
 35 44  2  0  0  0
 35 45  1  0  0  0
 35 68  1  0  0  0
 36 56  1  0  0  0
 36106  1  0  0  0
 37 39  1  0  0  0
 37 47  1  0  0  0
 37 66  1  0  0  0
 37107  1  0  0  0
 38 43  2  0  0  0
 38 46  1  0  0  0
 38 47  1  0  0  0
 39 64  1  0  0  0
 39 67  2  0  0  0
 40 52  1  0  0  0
 40 53  2  0  0  0
 40 58  1  0  0  0
 41108  1  0  0  0
 41109  1  0  0  0
 41110  1  0  0  0
 41 48  1  0  0  0
 42 43  1  0  0  0
 42 66  1  0  0  0
 42111  1  0  0  0
 42112  1  0  0  0
 43 44  1  0  0  0
 44113  1  0  0  0
 45 46  2  0  0  0
 45114  1  0  0  0
 46115  1  0  0  0
 47116  1  0  0  0
 47117  1  0  0  0
 48 56  1  0  0  0
 48 65  1  0  0  0
 48118  1  0  0  0
 49 50  1  0  0  0
 49 53  1  0  0  0
 49 64  1  0  0  0
 49119  1  0  0  0
 50 51  1  0  0  0
 50120  1  0  0  0
 50121  1  0  0  0
 51 52  1  0  0  0
 51122  1  0  0  0
 51123  1  0  0  0
 52124  1  0  0  0
 52125  1  0  0  0
 53 54  1  0  0  0
 54 55  2  0  0  0
 54126  1  0  0  0
 55 57  1  0  0  0
 55127  1  0  0  0
 56 69  2  0  0  0
 57 58  2  0  0  0
 57128  1  0  0  0
 58129  1  0  0  0
 59 60  1  0  0  0
 59 61  1  0  0  0
 59 62  1  0  0  0
 60130  1  0  0  0
 60131  1  0  0  0
 60132  1  0  0  0
 61133  1  0  0  0
 61134  1  0  0  0
 61135  1  0  0  0
 62136  1  0  0  0
 62137  1  0  0  0
 62138  1  0  0  0
 63 65  1  0  0  0
 63139  1  0  0  0
 63140  1  0  0  0
 63141  1  0  0  0
 64142  1  0  0  0
 65143  1  0  0  0
 68 82  1  0  0  0
 71 73  2  0  0  0
 71 75  1  0  0  0
 71144  1  0  0  0
 72 74  1  0  0  0
 72 75  2  0  0  0
 72145  1  0  0  0
 73 76  1  0  0  0
 73146  1  0  0  0
 74 76  2  0  0  0
 74147  1  0  0  0
 75 83  1  0  0  0
 76 84  1  0  0  0
 77 78  1  0  0  0
 77 79  1  0  0  0
 77148  1  0  0  0
 77149  1  0  0  0
 78 80  1  0  0  0
 78150  1  0  0  0
 78151  1  0  0  0
 79 83  1  0  0  0
 79152  1  0  0  0
 79153  1  0  0  0
 80 81  1  0  0  0
 80 82  1  0  0  0
 80 83  1  0  0  0
 81154  1  0  0  0
 81155  1  0  0  0
 81156  1  0  0  0
 82157  1  0  0  0
 82158  1  0  0  0
 84159  1  0  0  0
M  ISO  4   1 100  68 101  82 101  84 100
M  END
> <chiral flag>
0

> <version>
0

> <s_m_source_file>
/data/baiqing/PycharmProjects/Reinvent-master-3.2/result/LINK_invent/BTK/process_docking_weight1_custom_product_contain_oxygen_bond_distance_aromatic_linkinvent_7_9_3/rearranged_h_0137.sdf

> <i_m_source_file_index>
38

> <r_mmod_Potential_Energy-OPLS-2005>
555.696838378906

> <r_mmod_Stretch_Energy-OPLS-2005>
217.030197143555

> <r_mmod_Bend_Energy-OPLS-2005>
312.743713378906

> <r_mmod_Torsional_Energy-OPLS-2005>
344.033538818359

> <r_mmod_Improper_Torsional_Energy-OPLS-2005>
14.0866823196411

> <r_mmod_Van_der_Waal_Energy-OPLS-2005>
125.115921020508

> <r_mmod_Electrostatic_Energy-OPLS-2005>
-403.449035644531

> <r_mmod_Solvation_Energy-OPLS-2005>
-221.414459228516

> <b_mmod_Minimization_Converged-OPLS-2005>
0

> <r_mmod_RMS_Derivative-OPLS-2005>
2.96385812759399

$$$$
38
                    3D
 Structure written by MMmdl.
171179  0  0  1  0            999 V2000
  -30.6218  -14.7002   20.4809 C   0  0  0  0  0  0
  -30.4310  -12.4322   19.4579 C   0  0  0  0  0  0
  -29.5047  -12.5053   18.2251 C   0  0  0  0  0  0
  -28.0299  -12.3358   18.6402 C   0  0  0  0  0  0
  -27.6419  -13.2263   19.8512 C   0  0  2  0  0  0
  -28.6884  -13.1363   20.9826 C   0  0  0  0  0  0
  -25.2512  -13.8185   20.5683 C   0  0  0  0  0  0
  -24.1801  -13.0437   20.9211 C   0  0  0  0  0  0
  -24.6387  -11.6910   20.8757 C   0  0  0  0  0  0
  -23.9067  -10.4287   21.0407 C   0  0  0  0  0  0
  -24.3620   -9.4204   21.9184 C   0  0  0  0  0  0
  -23.6296   -8.2239   22.0753 C   0  0  0  0  0  0
  -22.4277   -8.0277   21.3542 C   0  0  0  0  0  0
  -21.9911   -9.0249   20.4644 C   0  0  0  0  0  0
  -22.7239  -10.2129   20.3054 C   0  0  0  0  0  0
  -21.6856   -6.0734   22.5280 C   0  0  0  0  0  0
  -21.4013   -6.5638   23.8213 C   0  0  0  0  0  0
  -21.3659   -5.6792   24.9176 C   0  0  0  0  0  0
  -21.6046   -4.3056   24.7226 C   0  0  0  0  0  0
  -21.8820   -3.8144   23.4348 C   0  0  0  0  0  0
  -21.9192   -4.6961   22.3402 C   0  0  0  0  0  0
  -22.7822  -13.5219   21.1875 C   0  0  0  0  0  0
  -22.1662   -4.2147   21.0982 F   0  0  0  0  0  0
  -21.5628   -3.4537   25.7740 F   0  0  0  0  0  0
  -29.9902  -13.4833   20.3994 N   0  0  0  0  0  0
  -26.2937  -12.9386   20.3280 N   0  0  0  0  0  0
  -25.9318  -11.6530   20.5749 N   0  0  0  0  0  0
  -22.0471  -12.8198   22.0425 N   0  0  0  0  0  0
  -25.4194  -15.1909   20.4090 N   0  0  0  0  0  0
  -31.8153  -14.7971   20.1791 O   0  0  0  0  0  0
  -21.6640   -6.8873   21.4240 O   0  0  0  0  0  0
  -22.3507  -14.5521   20.6721 O   0  0  0  0  0  0
  -24.6238  -31.8559   23.1967 C   0  0  0  0  0  0
  -25.9072  -32.4768   23.8319 C   0  0  1  0  0  0
  -27.2294  -27.3025   20.1324 C   0  0  0  0  0  0
  -25.5870  -33.8565   24.2238 N   0  0  0  0  0  0
  -23.4212  -30.4770   21.5378 C   0  0  2  0  0  0
  -24.8721  -28.9224   20.1110 C   0  0  0  0  0  0
  -22.7473  -29.4606   22.4913 C   0  0  0  0  0  0
  -18.0290  -28.1397   22.8498 C   0  0  0  0  0  0
  -24.1476  -36.7291   23.2648 C   0  0  0  0  0  0
  -25.9616  -30.7854   21.3662 C   0  0  0  0  0  0
  -26.0397  -29.4080   20.7159 C   0  0  0  0  0  0
  -27.2246  -28.6112   20.7111 C   0  0  0  0  0  0
  -26.0443  -26.8667   19.5052 C   0  0  0  0  0  0
  -24.8780  -27.6594   19.4936 C   0  0  0  0  0  0
  -23.6380  -29.8028   20.1555 C   0  0  0  0  0  0
  -25.4110  -36.3077   24.0326 C   0  0  1  0  0  0
  -20.5894  -28.3678   23.1282 C   0  0  2  0  0  0
  -20.6772  -26.9399   22.5407 C   0  0  0  0  0  0
  -19.5744  -26.6383   21.5212 C   0  0  0  0  0  0
  -18.1927  -26.7941   22.1626 C   0  0  0  0  0  0
  -19.1550  -28.8859   23.2888 C   0  0  0  0  0  0
  -18.9475  -30.1466   23.8893 C   0  0  0  0  0  0
  -17.6476  -30.6599   24.0567 C   0  0  0  0  0  0
  -25.9047  -34.9446   23.5099 C   0  0  0  0  0  0
  -16.5365  -29.9104   23.6331 C   0  0  0  0  0  0
  -16.7278  -28.6522   23.0356 C   0  0  0  0  0  0
  -26.4456  -31.6595   25.0700 C   0  0  0  0  0  0
  -25.3687  -31.3757   26.1434 C   0  0  0  0  0  0
  -27.0300  -30.3022   24.6144 C   0  0  0  0  0  0
  -27.6000  -32.4349   25.7479 C   0  0  0  0  0  0
  -27.5577  -37.1805   24.8470 C   0  0  0  0  0  0
  -21.4190  -29.3031   22.3669 N   0  0  0  0  0  0
  -26.4281  -37.3784   23.9423 N   0  0  0  0  0  0
  -24.6881  -31.0582   22.0901 N   0  0  0  0  0  0
  -23.4193  -28.8161   23.3007 O   0  0  0  0  0  0
  -28.3448  -26.4451   20.1374 O   0  0  0  0  0  0
  -26.5642  -34.8921   22.4682 O   0  0  0  0  0  0
  -23.5400  -32.1330   23.7308 O   0  0  0  0  0  0
  -30.9660  -19.9722   21.3302 C   0  0  0  0  0  0
  -31.3827  -17.5597   21.5368 C   0  0  0  0  0  0
  -29.3897  -18.3715   20.3979 C   0  0  0  0  0  0
  -31.7572  -18.8967   21.7877 C   0  0  0  0  0  0
  -29.7603  -19.7572   20.6293 C   0  0  0  0  0  0
  -30.1995  -17.2439   20.8302 C   0  0  0  0  0  0
  -33.0315  -19.1878   22.5569 C   0  0  0  0  0  0
  -26.4932  -22.1158   22.2434 C   0  0  0  0  0  0
  -28.6750  -22.2622   23.6401 C   0  0  0  0  0  0
  -27.4565  -25.4518   22.1943 C   0  0  0  0  0  0
  -29.8670  -25.3642   21.5473 C   0  0  0  0  0  0
  -28.9619  -21.0328   20.1022 C   0  0  0  0  0  0
  -28.2897  -23.7488   20.3369 C   0  0  0  0  0  0
  -28.0127  -21.8796   22.3035 C   0  0  0  0  0  0
  -28.7978  -22.3473   21.0354 C   0  0  1  0  0  0
  -28.4310  -25.2299   21.0139 C   0  0  0  0  0  0
  -29.8305  -15.8249   20.6458 N   0  0  0  0  0  0
  -31.4706  -12.5604   19.1519 H   0  0  0  0  0  0
  -30.3754  -11.4494   19.9285 H   0  0  0  0  0  0
  -29.7799  -11.7395   17.4993 H   0  0  0  0  0  0
  -29.6367  -13.4644   17.7229 H   0  0  0  0  0  0
  -27.8786  -11.2854   18.8907 H   0  0  0  0  0  0
  -27.3729  -12.5422   17.7940 H   0  0  0  0  0  0
  -27.6414  -14.2512   19.4822 H   0  0  0  0  0  0
  -28.7161  -12.1316   21.4076 H   0  0  0  0  0  0
  -28.4315  -13.8084   21.8039 H   0  0  0  0  0  0
  -25.2764   -9.5678   22.4757 H   0  0  0  0  0  0
  -24.0007   -7.4625   22.7468 H   0  0  0  0  0  0
  -21.0845   -8.8762   19.8947 H   0  0  0  0  0  0
  -22.3697  -10.9665   19.6159 H   0  0  0  0  0  0
  -21.2005   -7.6147   23.9715 H   0  0  0  0  0  0
  -21.1482   -6.0524   25.9080 H   0  0  0  0  0  0
  -22.0599   -2.7608   23.2849 H   0  0  0  0  0  0
  -22.4097  -11.9861   22.4804 H   0  0  0  0  0  0
  -21.1087  -13.1206   22.2627 H   0  0  0  0  0  0
  -24.6486  -15.8411   20.5177 H   0  0  0  0  0  0
  -26.2580  -15.6318   20.0552 H   0  0  0  0  0  0
  -26.7133  -32.5430   23.1064 H   0  0  0  0  0  0
  -24.9964  -33.9707   25.0348 H   0  0  0  0  0  0
  -22.7169  -31.2988   21.3895 H   0  0  0  0  0  0
  -23.3741  -35.9620   23.3307 H   0  0  0  0  0  0
  -24.3565  -36.8914   22.2065 H   0  0  0  0  0  0
  -23.7208  -37.6488   23.6673 H   0  0  0  0  0  0
  -26.0916  -31.5411   20.5911 H   0  0  0  0  0  0
  -26.8445  -30.8410   21.9909 H   0  0  0  0  0  0
  -28.1259  -28.9821   21.1792 H   0  0  0  0  0  0
  -26.0195  -25.8913   19.0404 H   0  0  0  0  0  0
  -23.9827  -27.2861   19.0143 H   0  0  0  0  0  0
  -23.7572  -30.5734   19.3929 H   0  0  0  0  0  0
  -22.7595  -29.2282   19.8559 H   0  0  0  0  0  0
  -25.1293  -36.1921   25.0815 H   0  0  0  0  0  0
  -21.0006  -28.3245   24.1395 H   0  0  0  0  0  0
  -20.5665  -26.2282   23.3605 H   0  0  0  0  0  0
  -21.6644  -26.7418   22.1213 H   0  0  0  0  0  0
  -19.6889  -25.6295   21.1229 H   0  0  0  0  0  0
  -19.6690  -27.3215   20.6762 H   0  0  0  0  0  0
  -17.4198  -26.6695   21.4021 H   0  0  0  0  0  0
  -18.0331  -26.0094   22.9032 H   0  0  0  0  0  0
  -19.7951  -30.7288   24.2250 H   0  0  0  0  0  0
  -17.5035  -31.6285   24.5173 H   0  0  0  0  0  0
  -15.5372  -30.3013   23.7666 H   0  0  0  0  0  0
  -15.8671  -28.0843   22.7070 H   0  0  0  0  0  0
  -24.5847  -30.7117   25.7767 H   0  0  0  0  0  0
  -24.8893  -32.2938   26.4841 H   0  0  0  0  0  0
  -25.7993  -30.8947   27.0213 H   0  0  0  0  0  0
  -26.2866  -29.6780   24.1166 H   0  0  0  0  0  0
  -27.4014  -29.7263   25.4625 H   0  0  0  0  0  0
  -27.8716  -30.4342   23.9344 H   0  0  0  0  0  0
  -27.2594  -33.3650   26.2048 H   0  0  0  0  0  0
  -28.3816  -32.6911   25.0314 H   0  0  0  0  0  0
  -28.0652  -31.8480   26.5407 H   0  0  0  0  0  0
  -28.2603  -38.0097   24.7535 H   0  0  0  0  0  0
  -28.1056  -36.2628   24.6270 H   0  0  0  0  0  0
  -27.2301  -37.1438   25.8874 H   0  0  0  0  0  0
  -20.9366  -29.8723   21.6859 H   0  0  0  0  0  0
  -26.0147  -38.2846   24.1445 H   0  0  0  0  0  0
  -31.3033  -20.9800   21.5210 H   0  0  0  0  0  0
  -32.0144  -16.7664   21.9129 H   0  0  0  0  0  0
  -28.4739  -18.1730   19.8589 H   0  0  0  0  0  0
  -32.9348  -20.1030   23.1415 H   0  0  0  0  0  0
  -33.8709  -19.3090   21.8725 H   0  0  0  0  0  0
  -33.2692  -18.3783   23.2478 H   0  0  0  0  0  0
  -25.9939  -21.6849   23.1118 H   0  0  0  0  0  0
  -26.0659  -21.6440   21.3583 H   0  0  0  0  0  0
  -26.2174  -23.1639   22.2069 H   0  0  0  0  0  0
  -28.0629  -21.9438   24.4841 H   0  0  0  0  0  0
  -28.8745  -23.3221   23.7574 H   0  0  0  0  0  0
  -29.6372  -21.7575   23.7416 H   0  0  0  0  0  0
  -27.5768  -24.7334   22.9925 H   0  0  0  0  0  0
  -26.4163  -25.3971   21.8729 H   0  0  0  0  0  0
  -27.6044  -26.4283   22.6567 H   0  0  0  0  0  0
  -30.0902  -24.6225   22.3113 H   0  0  0  0  0  0
  -30.0360  -26.3426   22.0001 H   0  0  0  0  0  0
  -30.5969  -25.2429   20.7472 H   0  0  0  0  0  0
  -27.9714  -20.6987   19.7896 H   0  0  0  0  0  0
  -29.4586  -21.3385   19.1811 H   0  0  0  0  0  0
  -27.2568  -23.6218   20.0147 H   0  0  0  0  0  0
  -28.8445  -23.8142   19.4007 H   0  0  0  0  0  0
  -28.0751  -20.7912   22.3386 H   0  0  0  0  0  0
  -29.8143  -22.5720   21.3524 H   0  0  0  0  0  0
  -28.8411  -15.6337   20.6481 H   0  0  0  0  0  0
  1 25  1  0  0  0
  1 30  2  0  0  0
  1 87  1  0  0  0
  2  3  1  0  0  0
  2 25  1  0  0  0
  2 88  1  0  0  0
  2 89  1  0  0  0
  3  4  1  0  0  0
  3 90  1  0  0  0
  3 91  1  0  0  0
  4  5  1  0  0  0
  4 92  1  0  0  0
  4 93  1  0  0  0
  5  6  1  0  0  0
  5 26  1  0  0  0
  5 94  1  0  0  0
  6 25  1  0  0  0
  6 95  1  0  0  0
  6 96  1  0  0  0
  7  8  2  0  0  0
  7 26  1  0  0  0
  7 29  1  0  0  0
  8  9  1  0  0  0
  8 22  1  0  0  0
  9 10  1  0  0  0
  9 27  2  0  0  0
 10 11  2  0  0  0
 10 15  1  0  0  0
 11 12  1  0  0  0
 11 97  1  0  0  0
 12 13  2  0  0  0
 12 98  1  0  0  0
 13 14  1  0  0  0
 13 31  1  0  0  0
 14 15  2  0  0  0
 14 99  1  0  0  0
 15100  1  0  0  0
 16 17  2  0  0  0
 16 21  1  0  0  0
 16 31  1  0  0  0
 17 18  1  0  0  0
 17101  1  0  0  0
 18 19  2  0  0  0
 18102  1  0  0  0
 19 20  1  0  0  0
 19 24  1  0  0  0
 20 21  2  0  0  0
 20103  1  0  0  0
 21 23  1  0  0  0
 22 28  1  0  0  0
 22 32  2  0  0  0
 26 27  1  0  0  0
 28104  1  0  0  0
 28105  1  0  0  0
 29106  1  0  0  0
 29107  1  0  0  0
 33 34  1  0  0  0
 33 66  1  0  0  0
 33 70  2  0  0  0
 34 36  1  0  0  0
 34 59  1  0  0  0
 34108  1  0  0  0
 35 44  2  0  0  0
 35 45  1  0  0  0
 35 68  1  0  0  0
 36 56  1  0  0  0
 36109  1  0  0  0
 37 39  1  0  0  0
 37 47  1  0  0  0
 37 66  1  0  0  0
 37110  1  0  0  0
 38 43  2  0  0  0
 38 46  1  0  0  0
 38 47  1  0  0  0
 39 64  1  0  0  0
 39 67  2  0  0  0
 40 52  1  0  0  0
 40 53  2  0  0  0
 40 58  1  0  0  0
 41111  1  0  0  0
 41112  1  0  0  0
 41113  1  0  0  0
 41 48  1  0  0  0
 42 43  1  0  0  0
 42 66  1  0  0  0
 42114  1  0  0  0
 42115  1  0  0  0
 43 44  1  0  0  0
 44116  1  0  0  0
 45 46  2  0  0  0
 45117  1  0  0  0
 46118  1  0  0  0
 47119  1  0  0  0
 47120  1  0  0  0
 48 56  1  0  0  0
 48 65  1  0  0  0
 48121  1  0  0  0
 49 50  1  0  0  0
 49 53  1  0  0  0
 49 64  1  0  0  0
 49122  1  0  0  0
 50 51  1  0  0  0
 50123  1  0  0  0
 50124  1  0  0  0
 51 52  1  0  0  0
 51125  1  0  0  0
 51126  1  0  0  0
 52127  1  0  0  0
 52128  1  0  0  0
 53 54  1  0  0  0
 54 55  2  0  0  0
 54129  1  0  0  0
 55 57  1  0  0  0
 55130  1  0  0  0
 56 69  2  0  0  0
 57 58  2  0  0  0
 57131  1  0  0  0
 58132  1  0  0  0
 59 60  1  0  0  0
 59 61  1  0  0  0
 59 62  1  0  0  0
 60133  1  0  0  0
 60134  1  0  0  0
 60135  1  0  0  0
 61136  1  0  0  0
 61137  1  0  0  0
 61138  1  0  0  0
 62139  1  0  0  0
 62140  1  0  0  0
 62141  1  0  0  0
 63 65  1  0  0  0
 63142  1  0  0  0
 63143  1  0  0  0
 63144  1  0  0  0
 64145  1  0  0  0
 65146  1  0  0  0
 68 86  1  0  0  0
 71 74  2  0  0  0
 71 75  1  0  0  0
 71147  1  0  0  0
 72 74  1  0  0  0
 72 76  2  0  0  0
 72148  1  0  0  0
 73 75  2  0  0  0
 73 76  1  0  0  0
 73149  1  0  0  0
 74 77  1  0  0  0
 75 82  1  0  0  0
 76 87  1  0  0  0
 77150  1  0  0  0
 77151  1  0  0  0
 77152  1  0  0  0
 78153  1  0  0  0
 78154  1  0  0  0
 78155  1  0  0  0
 78 84  1  0  0  0
 79 84  1  0  0  0
 79156  1  0  0  0
 79157  1  0  0  0
 79158  1  0  0  0
 80159  1  0  0  0
 80160  1  0  0  0
 80161  1  0  0  0
 80 86  1  0  0  0
 81 86  1  0  0  0
 81162  1  0  0  0
 81163  1  0  0  0
 81164  1  0  0  0
 82165  1  0  0  0
 82166  1  0  0  0
 82 85  1  0  0  0
 83 85  1  0  0  0
 83 86  1  0  0  0
 83167  1  0  0  0
 83168  1  0  0  0
 84 85  1  0  0  0
 84169  1  0  0  0
 85170  1  0  0  0
 87171  1  0  0  0
M  ISO  4   1 100  68 101  86 101  87 100
M  END
> <chiral flag>
0

> <version>
0

> <s_m_source_file>
/data/baiqing/PycharmProjects/Reinvent-master-3.2/result/LINK_invent/BTK/process_docking_weight1_custom_product_contain_oxygen_bond_distance_aromatic_linkinvent_7_9_3/rearranged_h_0137.sdf

> <i_m_source_file_index>
39

> <r_mmod_Potential_Energy-OPLS-2005>
204.021713256836

> <r_mmod_Stretch_Energy-OPLS-2005>
124.69947052002

> <r_mmod_Bend_Energy-OPLS-2005>
176.328872680664

> <r_mmod_Torsional_Energy-OPLS-2005>
270.289703369141

> <r_mmod_Improper_Torsional_Energy-OPLS-2005>
6.23248910903931

> <r_mmod_Van_der_Waal_Energy-OPLS-2005>
140.421737670898

> <r_mmod_Electrostatic_Energy-OPLS-2005>
-388.201568603516

> <r_mmod_Solvation_Energy-OPLS-2005>
-189.781768798828

> <b_mmod_Minimization_Converged-OPLS-2005>
0

> <r_mmod_RMS_Derivative-OPLS-2005>
1.91347324848175

$$$$
39
                    3D
 Structure written by MMmdl.
167176  0  0  1  0            999 V2000
  -30.7074  -14.4144   20.6665 C   0  0  0  0  0  0
  -30.4361  -12.3069   19.3978 C   0  0  0  0  0  0
  -29.4930  -12.5303   18.1975 C   0  0  0  0  0  0
  -28.0154  -12.3803   18.6123 C   0  0  0  0  0  0
  -27.6701  -13.1961   19.8847 C   0  0  2  0  0  0
  -28.7085  -12.9122   20.9923 C   0  0  0  0  0  0
  -25.2627  -13.8153   20.5671 C   0  0  0  0  0  0
  -24.1868  -13.0451   20.9184 C   0  0  0  0  0  0
  -24.6405  -11.6909   20.8753 C   0  0  0  0  0  0
  -23.9067  -10.4305   21.0426 C   0  0  0  0  0  0
  -24.3621   -9.4214   21.9197 C   0  0  0  0  0  0
  -23.6297   -8.2248   22.0751 C   0  0  0  0  0  0
  -22.4278   -8.0295   21.3540 C   0  0  0  0  0  0
  -21.9923   -9.0275   20.4639 C   0  0  0  0  0  0
  -22.7250  -10.2156   20.3063 C   0  0  0  0  0  0
  -21.6853   -6.0742   22.5278 C   0  0  0  0  0  0
  -21.4014   -6.5637   23.8216 C   0  0  0  0  0  0
  -21.3664   -5.6784   24.9178 C   0  0  0  0  0  0
  -21.6051   -4.3050   24.7219 C   0  0  0  0  0  0
  -21.8820   -3.8149   23.4338 C   0  0  0  0  0  0
  -21.9196   -4.6971   22.3395 C   0  0  0  0  0  0
  -22.7890  -13.5261   21.1840 C   0  0  0  0  0  0
  -22.1666   -4.2157   21.0976 F   0  0  0  0  0  0
  -21.5638   -3.4535   25.7733 F   0  0  0  0  0  0
  -30.0489  -13.2417   20.4628 N   0  0  0  0  0  0
  -26.3061  -12.9302   20.3387 N   0  0  0  0  0  0
  -25.9329  -11.6473   20.5774 N   0  0  0  0  0  0
  -22.0516  -12.8256   22.0390 N   0  0  0  0  0  0
  -25.4370  -15.1866   20.4046 N   0  0  0  0  0  0
  -31.7689  -14.7092   20.1047 O   0  0  0  0  0  0
  -21.6641   -6.8889   21.4239 O   0  0  0  0  0  0
  -22.3597  -14.5575   20.6694 O   0  0  0  0  0  0
  -24.6118  -31.8707   23.2135 C   0  0  0  0  0  0
  -25.9026  -32.4841   23.8422 C   0  0  1  0  0  0
  -27.2443  -27.4612   20.0950 C   0  0  0  0  0  0
  -25.5899  -33.8639   24.2352 N   0  0  0  0  0  0
  -23.3996  -30.4932   21.5525 C   0  0  2  0  0  0
  -24.8506  -28.9604   20.1215 C   0  0  0  0  0  0
  -22.7397  -29.4663   22.4999 C   0  0  0  0  0  0
  -18.0267  -28.1376   22.8493 C   0  0  0  0  0  0
  -24.1488  -36.7321   23.2636 C   0  0  0  0  0  0
  -25.9254  -30.8407   21.3671 C   0  0  0  0  0  0
  -26.0062  -29.4725   20.7260 C   0  0  0  0  0  0
  -27.2060  -28.7263   20.7256 C   0  0  0  0  0  0
  -26.0770  -26.9629   19.4841 C   0  0  0  0  0  0
  -24.8776  -27.6987   19.5027 C   0  0  0  0  0  0
  -23.6107  -29.8250   20.1674 C   0  0  0  0  0  0
  -25.4109  -36.3122   24.0335 C   0  0  1  0  0  0
  -20.5857  -28.3664   23.1322 C   0  0  2  0  0  0
  -20.6764  -26.9402   22.5417 C   0  0  0  0  0  0
  -19.5743  -26.6385   21.5208 C   0  0  0  0  0  0
  -18.1921  -26.7926   22.1616 C   0  0  0  0  0  0
  -19.1518  -28.8835   23.2907 C   0  0  0  0  0  0
  -18.9449  -30.1442   23.8917 C   0  0  0  0  0  0
  -17.6452  -30.6587   24.0565 C   0  0  0  0  0  0
  -25.9037  -34.9488   23.5136 C   0  0  0  0  0  0
  -16.5343  -29.9092   23.6319 C   0  0  0  0  0  0
  -16.7258  -28.6503   23.0353 C   0  0  0  0  0  0
  -26.4472  -31.6606   25.0730 C   0  0  0  0  0  0
  -25.3745  -31.3683   26.1474 C   0  0  0  0  0  0
  -27.0310  -30.3057   24.6076 C   0  0  0  0  0  0
  -27.6042  -32.4322   25.7508 C   0  0  0  0  0  0
  -27.5588  -37.1809   24.8459 C   0  0  0  0  0  0
  -21.4126  -29.3031   22.3729 N   0  0  0  0  0  0
  -26.4294  -37.3806   23.9415 N   0  0  0  0  0  0
  -24.6631  -31.0823   22.1031 N   0  0  0  0  0  0
  -23.4173  -28.8200   23.3033 O   0  0  0  0  0  0
  -28.3739  -26.6851   19.9884 O   0  0  0  0  0  0
  -26.5592  -34.8931   22.4692 O   0  0  0  0  0  0
  -23.5311  -32.1444   23.7537 O   0  0  0  0  0  0
  -31.1959  -18.7000   22.3786 C   0  0  0  0  0  0
  -31.2675  -17.3141   22.1191 C   0  0  0  0  0  0
  -28.9775  -17.3714   21.3030 C   0  0  0  0  0  0
  -30.0212  -19.4407   22.0985 C   0  0  0  0  0  0
  -28.8982  -18.7710   21.5179 C   0  0  0  0  0  0
  -30.1440  -16.6400   21.6024 C   0  0  0  0  0  0
  -29.7297  -23.2891   21.9425 C   0  0  0  0  0  0
  -27.5889  -19.4416   21.2273 C   0  0  0  0  0  0
  -29.9869  -20.8579   22.5245 C   0  0  0  0  0  0
  -30.4243  -23.1761   19.6675 C   0  0  0  0  0  0
  -30.1456  -21.7586   20.1877 C   0  0  0  0  0  0
  -29.7049  -24.1063   20.6516 C   0  0  2  0  0  0
  -26.7486  -18.8609   20.0947 C   0  0  0  0  0  0
  -30.3088  -25.5313   20.7677 C   0  0  0  0  0  0
  -29.2756  -26.6333   21.0854 C   0  0  0  0  0  0
  -29.9539  -21.8967   21.6429 N   0  0  0  0  0  0
  -30.0851  -15.2277   21.5313 N   0  0  0  0  0  0
  -29.9879  -21.0727   23.8425 N   0  3  0  0  0  0
  -29.5711  -23.7502   23.0774 O   0  0  0  0  0  0
  -27.1713  -20.4409   21.8153 O   0  0  0  0  0  0
  -31.4758  -12.4368   19.0918 H   0  0  0  0  0  0
  -30.3599  -11.2801   19.7591 H   0  0  0  0  0  0
  -29.7289  -11.8282   17.3970 H   0  0  0  0  0  0
  -29.6554  -13.5289   17.7875 H   0  0  0  0  0  0
  -27.8264  -11.3211   18.7916 H   0  0  0  0  0  0
  -27.3607  -12.6703   17.7901 H   0  0  0  0  0  0
  -27.7337  -14.2522   19.6233 H   0  0  0  0  0  0
  -28.6824  -11.8550   21.2632 H   0  0  0  0  0  0
  -28.4477  -13.4358   21.9126 H   0  0  0  0  0  0
  -25.2768   -9.5693   22.4774 H   0  0  0  0  0  0
  -24.0009   -7.4634   22.7468 H   0  0  0  0  0  0
  -21.0862   -8.8813   19.8930 H   0  0  0  0  0  0
  -22.3728  -10.9710   19.6180 H   0  0  0  0  0  0
  -21.1996   -7.6143   23.9728 H   0  0  0  0  0  0
  -21.1490   -6.0507   25.9085 H   0  0  0  0  0  0
  -22.0596   -2.7611   23.2836 H   0  0  0  0  0  0
  -22.4105  -11.9896   22.4752 H   0  0  0  0  0  0
  -21.1152  -13.1319   22.2621 H   0  0  0  0  0  0
  -24.6545  -15.8288   20.4603 H   0  0  0  0  0  0
  -26.2657  -15.5999   19.9999 H   0  0  0  0  0  0
  -26.7101  -32.5579   23.1201 H   0  0  0  0  0  0
  -25.0085  -33.9814   25.0520 H   0  0  0  0  0  0
  -22.6866  -31.3082   21.4133 H   0  0  0  0  0  0
  -23.3760  -35.9641   23.3276 H   0  0  0  0  0  0
  -24.3583  -36.8962   22.2053 H   0  0  0  0  0  0
  -23.7221  -37.6508   23.6671 H   0  0  0  0  0  0
  -26.0307  -31.6019   20.5926 H   0  0  0  0  0  0
  -26.8157  -30.9029   21.9802 H   0  0  0  0  0  0
  -28.0937  -29.1365   21.1852 H   0  0  0  0  0  0
  -26.0993  -26.0004   18.9923 H   0  0  0  0  0  0
  -23.9914  -27.2979   19.0295 H   0  0  0  0  0  0
  -23.7191  -30.6002   19.4075 H   0  0  0  0  0  0
  -22.7363  -29.2426   19.8708 H   0  0  0  0  0  0
  -25.1277  -36.1994   25.0826 H   0  0  0  0  0  0
  -20.9943  -28.3230   24.1444 H   0  0  0  0  0  0
  -20.5676  -26.2265   23.3596 H   0  0  0  0  0  0
  -21.6636  -26.7455   22.1211 H   0  0  0  0  0  0
  -19.6913  -25.6298   21.1236 H   0  0  0  0  0  0
  -19.6692  -27.3190   20.6738 H   0  0  0  0  0  0
  -17.4195  -26.6676   21.4014 H   0  0  0  0  0  0
  -18.0316  -26.0059   22.9003 H   0  0  0  0  0  0
  -19.7927  -30.7247   24.2302 H   0  0  0  0  0  0
  -17.5013  -31.6268   24.5169 H   0  0  0  0  0  0
  -15.5348  -30.3010   23.7626 H   0  0  0  0  0  0
  -15.8655  -28.0828   22.7071 H   0  0  0  0  0  0
  -24.5921  -30.7033   25.7799 H   0  0  0  0  0  0
  -24.8940  -32.2831   26.4948 H   0  0  0  0  0  0
  -25.8108  -30.8830   27.0213 H   0  0  0  0  0  0
  -26.2845  -29.6816   24.1146 H   0  0  0  0  0  0
  -27.4114  -29.7288   25.4519 H   0  0  0  0  0  0
  -27.8668  -30.4396   23.9201 H   0  0  0  0  0  0
  -27.2653  -33.3611   26.2113 H   0  0  0  0  0  0
  -28.3849  -32.6896   25.0338 H   0  0  0  0  0  0
  -28.0710  -31.8427   26.5409 H   0  0  0  0  0  0
  -28.2579  -38.0137   24.7567 H   0  0  0  0  0  0
  -28.1115  -36.2670   24.6224 H   0  0  0  0  0  0
  -27.2306  -37.1382   25.8860 H   0  0  0  0  0  0
  -20.9283  -29.8763   21.6961 H   0  0  0  0  0  0
  -26.0183  -38.2874   24.1461 H   0  0  0  0  0  0
  -32.0490  -19.1910   22.8288 H   0  0  0  0  0  0
  -32.1619  -16.7658   22.3796 H   0  0  0  0  0  0
  -28.1136  -16.8294   20.9444 H   0  0  0  0  0  0
  -30.0494  -23.3075   18.6520 H   0  0  0  0  0  0
  -31.4985  -23.3682   19.6477 H   0  0  0  0  0  0
  -30.9688  -21.0854   19.9406 H   0  0  0  0  0  0
  -29.2388  -21.3608   19.7309 H   0  0  0  0  0  0
  -28.6598  -24.1727   20.3460 H   0  0  0  0  0  0
  -27.3782  -18.3778   19.3478 H   0  0  0  0  0  0
  -26.1874  -19.6511   19.5973 H   0  0  0  0  0  0
  -26.0421  -18.1311   20.4879 H   0  0  0  0  0  0
  -30.8088  -25.7914   19.8344 H   0  0  0  0  0  0
  -31.0911  -25.5456   21.5294 H   0  0  0  0  0  0
  -29.7838  -27.5911   21.2009 H   0  0  0  0  0  0
  -28.7463  -26.4176   22.0150 H   0  0  0  0  0  0
  -29.2445  -14.8139   21.9045 H   0  0  0  0  0  0
  -30.0005  -20.2993   24.4893 H   0  0  0  0  0  0
  -29.9045  -22.0204   24.1882 H   0  0  0  0  0  0
  1 25  1  0  0  0
  1 30  2  0  0  0
  1 87  1  0  0  0
  2  3  1  0  0  0
  2 25  1  0  0  0
  2 91  1  0  0  0
  2 92  1  0  0  0
  3  4  1  0  0  0
  3 93  1  0  0  0
  3 94  1  0  0  0
  4  5  1  0  0  0
  4 95  1  0  0  0
  4 96  1  0  0  0
  5  6  1  0  0  0
  5 26  1  0  0  0
  5 97  1  0  0  0
  6 25  1  0  0  0
  6 98  1  0  0  0
  6 99  1  0  0  0
  7  8  2  0  0  0
  7 26  1  0  0  0
  7 29  1  0  0  0
  8  9  1  0  0  0
  8 22  1  0  0  0
  9 10  1  0  0  0
  9 27  2  0  0  0
 10 11  2  0  0  0
 10 15  1  0  0  0
 11 12  1  0  0  0
 11100  1  0  0  0
 12 13  2  0  0  0
 12101  1  0  0  0
 13 14  1  0  0  0
 13 31  1  0  0  0
 14 15  2  0  0  0
 14102  1  0  0  0
 15103  1  0  0  0
 16 17  2  0  0  0
 16 21  1  0  0  0
 16 31  1  0  0  0
 17 18  1  0  0  0
 17104  1  0  0  0
 18 19  2  0  0  0
 18105  1  0  0  0
 19 20  1  0  0  0
 19 24  1  0  0  0
 20 21  2  0  0  0
 20106  1  0  0  0
 21 23  1  0  0  0
 22 28  1  0  0  0
 22 32  2  0  0  0
 26 27  1  0  0  0
 28107  1  0  0  0
 28108  1  0  0  0
 29109  1  0  0  0
 29110  1  0  0  0
 33 34  1  0  0  0
 33 66  1  0  0  0
 33 70  2  0  0  0
 34 36  1  0  0  0
 34 59  1  0  0  0
 34111  1  0  0  0
 35 44  2  0  0  0
 35 45  1  0  0  0
 35 68  1  0  0  0
 36 56  1  0  0  0
 36112  1  0  0  0
 37 39  1  0  0  0
 37 47  1  0  0  0
 37 66  1  0  0  0
 37113  1  0  0  0
 38 43  2  0  0  0
 38 46  1  0  0  0
 38 47  1  0  0  0
 39 64  1  0  0  0
 39 67  2  0  0  0
 40 52  1  0  0  0
 40 53  2  0  0  0
 40 58  1  0  0  0
 41114  1  0  0  0
 41115  1  0  0  0
 41116  1  0  0  0
 41 48  1  0  0  0
 42 43  1  0  0  0
 42 66  1  0  0  0
 42117  1  0  0  0
 42118  1  0  0  0
 43 44  1  0  0  0
 44119  1  0  0  0
 45 46  2  0  0  0
 45120  1  0  0  0
 46121  1  0  0  0
 47122  1  0  0  0
 47123  1  0  0  0
 48 56  1  0  0  0
 48 65  1  0  0  0
 48124  1  0  0  0
 49 50  1  0  0  0
 49 53  1  0  0  0
 49 64  1  0  0  0
 49125  1  0  0  0
 50 51  1  0  0  0
 50126  1  0  0  0
 50127  1  0  0  0
 51 52  1  0  0  0
 51128  1  0  0  0
 51129  1  0  0  0
 52130  1  0  0  0
 52131  1  0  0  0
 53 54  1  0  0  0
 54 55  2  0  0  0
 54132  1  0  0  0
 55 57  1  0  0  0
 55133  1  0  0  0
 56 69  2  0  0  0
 57 58  2  0  0  0
 57134  1  0  0  0
 58135  1  0  0  0
 59 60  1  0  0  0
 59 61  1  0  0  0
 59 62  1  0  0  0
 60136  1  0  0  0
 60137  1  0  0  0
 60138  1  0  0  0
 61139  1  0  0  0
 61140  1  0  0  0
 61141  1  0  0  0
 62142  1  0  0  0
 62143  1  0  0  0
 62144  1  0  0  0
 63 65  1  0  0  0
 63145  1  0  0  0
 63146  1  0  0  0
 63147  1  0  0  0
 64148  1  0  0  0
 65149  1  0  0  0
 68 85  1  0  0  0
 71 72  2  0  0  0
 71 74  1  0  0  0
 71150  1  0  0  0
 72 76  1  0  0  0
 72151  1  0  0  0
 73 75  1  0  0  0
 73 76  2  0  0  0
 73152  1  0  0  0
 74 75  2  0  0  0
 74 79  1  0  0  0
 75 78  1  0  0  0
 76 87  1  0  0  0
 77 82  1  0  0  0
 77 86  1  0  0  0
 77 89  2  0  0  0
 78 83  1  0  0  0
 78 90  2  0  0  0
 79 86  1  0  0  0
 79 88  2  0  0  0
 80 81  1  0  0  0
 80 82  1  0  0  0
 80153  1  0  0  0
 80154  1  0  0  0
 81 86  1  0  0  0
 81155  1  0  0  0
 81156  1  0  0  0
 82 84  1  0  0  0
 82157  1  0  0  0
 83158  1  0  0  0
 83159  1  0  0  0
 83160  1  0  0  0
 84 85  1  0  0  0
 84161  1  0  0  0
 84162  1  0  0  0
 85163  1  0  0  0
 85164  1  0  0  0
 87165  1  0  0  0
 88166  1  0  0  0
 88167  1  0  0  0
M  CHG  1  88   1
M  ISO  4   1 100  68 101  85 101  87 100
M  END
> <chiral flag>
0

> <version>
0

> <s_m_source_file>
/data/baiqing/PycharmProjects/Reinvent-master-3.2/result/LINK_invent/BTK/process_docking_weight1_custom_product_contain_oxygen_bond_distance_aromatic_linkinvent_7_9_3/rearranged_h_0137.sdf

> <i_m_source_file_index>
40

> <r_mmod_Potential_Energy-OPLS-2005>
-271.733612060547

> <r_mmod_Stretch_Energy-OPLS-2005>
38.3057670593262

> <r_mmod_Bend_Energy-OPLS-2005>
138.247039794922

> <r_mmod_Torsional_Energy-OPLS-2005>
309.381286621094

> <r_mmod_Improper_Torsional_Energy-OPLS-2005>
5.46256542205811

> <r_mmod_Van_der_Waal_Energy-OPLS-2005>
160.737106323242

> <r_mmod_Electrostatic_Energy-OPLS-2005>
-522.792114257812

> <r_mmod_Solvation_Energy-OPLS-2005>
-409.059265136719

> <b_mmod_Minimization_Converged-OPLS-2005>
0

> <r_mmod_RMS_Derivative-OPLS-2005>
1.15055990219116

$$$$
40
                    3D
 Structure written by MMmdl.
156164  0  0  1  0            999 V2000
  -30.4949  -15.0751   20.3853 C   0  0  0  0  0  0
  -30.4370  -12.6830   19.4868 C   0  0  0  0  0  0
  -29.5190  -12.5287   18.2521 C   0  0  0  0  0  0
  -28.0575  -12.2941   18.6906 C   0  0  0  0  0  0
  -27.6139  -13.2509   19.8258 C   0  0  2  0  0  0
  -28.6589  -13.3553   20.9511 C   0  0  0  0  0  0
  -25.2426  -13.8204   20.5775 C   0  0  0  0  0  0
  -24.1754  -13.0421   20.9297 C   0  0  0  0  0  0
  -24.6359  -11.6911   20.8772 C   0  0  0  0  0  0
  -23.9039  -10.4280   21.0406 C   0  0  0  0  0  0
  -24.3592   -9.4205   21.9176 C   0  0  0  0  0  0
  -23.6290   -8.2236   22.0747 C   0  0  0  0  0  0
  -22.4271   -8.0248   21.3549 C   0  0  0  0  0  0
  -21.9900   -9.0215   20.4655 C   0  0  0  0  0  0
  -22.7207  -10.2108   20.3062 C   0  0  0  0  0  0
  -21.6852   -6.0717   22.5273 C   0  0  0  0  0  0
  -21.3990   -6.5632   23.8194 C   0  0  0  0  0  0
  -21.3679   -5.6798   24.9171 C   0  0  0  0  0  0
  -21.6056   -4.3062   24.7227 C   0  0  0  0  0  0
  -21.8824   -3.8142   23.4349 C   0  0  0  0  0  0
  -21.9194   -4.6958   22.3401 C   0  0  0  0  0  0
  -22.7765  -13.5181   21.1970 C   0  0  0  0  0  0
  -22.1667   -4.2132   21.0984 F   0  0  0  0  0  0
  -21.5670   -3.4547   25.7752 F   0  0  0  0  0  0
  -29.9008  -13.8085   20.3115 N   0  0  0  0  0  0
  -26.2809  -12.9419   20.3238 N   0  0  0  0  0  0
  -25.9288  -11.6559   20.5753 N   0  0  0  0  0  0
  -22.0426  -12.8126   22.0498 N   0  0  0  0  0  0
  -25.4155  -15.1934   20.4261 N   0  0  0  0  0  0
  -31.7324  -15.0802   20.3226 O   0  0  0  0  0  0
  -21.6650   -6.8849   21.4224 O   0  0  0  0  0  0
  -22.3468  -14.5498   20.6840 O   0  0  0  0  0  0
  -24.6447  -31.8390   23.1832 C   0  0  0  0  0  0
  -25.9205  -32.4671   23.8247 C   0  0  1  0  0  0
  -27.2130  -27.0601   20.1974 C   0  0  0  0  0  0
  -25.5938  -33.8484   24.2173 N   0  0  0  0  0  0
  -23.4522  -30.4527   21.5313 C   0  0  2  0  0  0
  -24.9048  -28.8508   20.1315 C   0  0  0  0  0  0
  -22.7559  -29.4511   22.4867 C   0  0  0  0  0  0
  -18.0311  -28.1377   22.8500 C   0  0  0  0  0  0
  -24.1493  -36.7247   23.2643 C   0  0  0  0  0  0
  -26.0103  -30.6862   21.3934 C   0  0  0  0  0  0
  -26.0816  -29.2829   20.7548 C   0  0  0  0  0  0
  -27.2376  -28.4050   20.7672 C   0  0  0  0  0  0
  -26.0141  -26.7439   19.5274 C   0  0  0  0  0  0
  -24.8856  -27.5952   19.5022 C   0  0  0  0  0  0
  -23.6902  -29.7695   20.1568 C   0  0  0  0  0  0
  -25.4127  -36.3017   24.0310 C   0  0  1  0  0  0
  -20.5907  -28.3719   23.1258 C   0  0  2  0  0  0
  -20.6773  -26.9420   22.5415 C   0  0  0  0  0  0
  -19.5740  -26.6340   21.5234 C   0  0  0  0  0  0
  -18.1948  -26.7900   22.1656 C   0  0  0  0  0  0
  -19.1559  -28.8872   23.2844 C   0  0  0  0  0  0
  -18.9476  -30.1486   23.8836 C   0  0  0  0  0  0
  -17.6470  -30.6611   24.0500 C   0  0  0  0  0  0
  -25.9072  -34.9399   23.5059 C   0  0  0  0  0  0
  -16.5362  -29.9092   23.6302 C   0  0  0  0  0  0
  -16.7296  -28.6489   23.0378 C   0  0  0  0  0  0
  -26.4516  -31.6545   25.0704 C   0  0  0  0  0  0
  -25.3689  -31.3747   26.1395 C   0  0  0  0  0  0
  -27.0402  -30.2946   24.6316 C   0  0  0  0  0  0
  -27.6042  -32.4317   25.7491 C   0  0  0  0  0  0
  -27.5580  -37.1792   24.8473 C   0  0  0  0  0  0
  -21.4240  -29.3055   22.3621 N   0  0  0  0  0  0
  -26.4298  -37.3737   23.9403 N   0  0  0  0  0  0
  -24.7229  -31.0171   22.0910 N   0  0  0  0  0  0
  -23.4172  -28.8090   23.3070 O   0  0  0  0  0  0
  -28.2912  -26.0923   20.1079 O   0  0  0  0  0  0
  -26.5661  -34.8896   22.4641 O   0  0  0  0  0  0
  -23.5558  -32.1285   23.7022 O   0  0  0  0  0  0
  -29.3173  -18.9377   18.7191 C   0  0  0  0  0  0
  -29.4133  -17.8078   17.9940 C   0  0  0  0  0  0
  -29.6229  -17.6286   20.7329 C   0  0  0  0  0  0
  -29.3587  -18.9230   20.1656 C   0  0  0  0  0  0
  -29.5958  -16.3954   18.5640 C   0  0  0  0  0  0
  -27.3859  -22.6008   21.8767 C   0  0  0  0  0  0
  -27.0518  -22.9529   19.4478 C   0  0  0  0  0  0
  -28.4785  -24.6924   20.8247 C   0  0  0  0  0  0
  -29.1777  -21.6832   20.3483 C   0  0  0  0  0  0
  -28.0974  -23.0143   20.5709 C   0  0  0  0  0  0
  -29.7662  -16.2860   20.0363 N   0  0  0  0  0  0
  -29.0681  -20.1920   20.8749 O   0  0  0  0  0  0
  -31.4606  -12.8770   19.1642 H   0  0  0  0  0  0
  -30.4758  -11.7579   20.0647 H   0  0  0  0  0  0
  -29.8605  -11.7037   17.6237 H   0  0  0  0  0  0
  -29.5801  -13.4243   17.6317 H   0  0  0  0  0  0
  -27.9885  -11.2637   19.0408 H   0  0  0  0  0  0
  -27.3838  -12.3701   17.8370 H   0  0  0  0  0  0
  -27.5419  -14.2329   19.3609 H   0  0  0  0  0  0
  -28.7939  -12.4062   21.4723 H   0  0  0  0  0  0
  -28.3371  -14.0833   21.6969 H   0  0  0  0  0  0
  -25.2721   -9.5718   22.4755 H   0  0  0  0  0  0
  -24.0032   -7.4623   22.7438 H   0  0  0  0  0  0
  -21.0849   -8.8702   19.8927 H   0  0  0  0  0  0
  -22.3637  -10.9639   19.6188 H   0  0  0  0  0  0
  -21.1940   -7.6128   23.9688 H   0  0  0  0  0  0
  -21.1515   -6.0535   25.9077 H   0  0  0  0  0  0
  -22.0587   -2.7591   23.2858 H   0  0  0  0  0  0
  -22.4066  -11.9777   22.4850 H   0  0  0  0  0  0
  -21.1041  -13.1122   22.2725 H   0  0  0  0  0  0
  -24.6583  -15.8572   20.5491 H   0  0  0  0  0  0
  -26.2856  -15.6260   20.1348 H   0  0  0  0  0  0
  -26.7271  -32.5273   23.0971 H   0  0  0  0  0  0
  -25.0060  -33.9588   25.0308 H   0  0  0  0  0  0
  -22.7564  -31.2785   21.3664 H   0  0  0  0  0  0
  -23.3760  -35.9576   23.3291 H   0  0  0  0  0  0
  -24.3568  -36.8897   22.2060 H   0  0  0  0  0  0
  -23.7259  -37.6452   23.6683 H   0  0  0  0  0  0
  -26.1673  -31.4232   20.6053 H   0  0  0  0  0  0
  -26.8817  -30.7514   22.0328 H   0  0  0  0  0  0
  -28.1440  -28.7377   21.2508 H   0  0  0  0  0  0
  -25.9425  -25.7971   19.0099 H   0  0  0  0  0  0
  -23.9895  -27.2627   18.9961 H   0  0  0  0  0  0
  -23.8425  -30.5407   19.3977 H   0  0  0  0  0  0
  -22.8005  -29.2208   19.8420 H   0  0  0  0  0  0
  -25.1333  -36.1842   25.0807 H   0  0  0  0  0  0
  -21.0022  -28.3296   24.1370 H   0  0  0  0  0  0
  -20.5618  -26.2337   23.3632 H   0  0  0  0  0  0
  -21.6625  -26.7405   22.1208 H   0  0  0  0  0  0
  -19.6892  -25.6228   21.1305 H   0  0  0  0  0  0
  -19.6637  -27.3110   20.6736 H   0  0  0  0  0  0
  -17.4224  -26.6643   21.4042 H   0  0  0  0  0  0
  -18.0348  -26.0058   22.9083 H   0  0  0  0  0  0
  -19.7952  -30.7299   24.2186 H   0  0  0  0  0  0
  -17.5041  -31.6316   24.5086 H   0  0  0  0  0  0
  -15.5349  -30.2968   23.7644 H   0  0  0  0  0  0
  -15.8717  -28.0773   22.7136 H   0  0  0  0  0  0
  -24.5871  -30.7092   25.7713 H   0  0  0  0  0  0
  -24.8850  -32.2925   26.4749 H   0  0  0  0  0  0
  -25.7943  -30.8972   27.0231 H   0  0  0  0  0  0
  -26.3045  -29.6651   24.1299 H   0  0  0  0  0  0
  -27.4003  -29.7271   25.4905 H   0  0  0  0  0  0
  -27.8949  -30.4209   23.9669 H   0  0  0  0  0  0
  -27.2660  -33.3657   26.2009 H   0  0  0  0  0  0
  -28.3893  -32.6822   25.0333 H   0  0  0  0  0  0
  -28.0674  -31.8479   26.5468 H   0  0  0  0  0  0
  -28.2614  -38.0071   24.7504 H   0  0  0  0  0  0
  -28.1073  -36.2613   24.6336 H   0  0  0  0  0  0
  -27.2297  -37.1488   25.8876 H   0  0  0  0  0  0
  -20.9463  -29.8745   21.6783 H   0  0  0  0  0  0
  -26.0157  -38.2818   24.1375 H   0  0  0  0  0  0
  -29.1736  -19.8677   18.1892 H   0  0  0  0  0  0
  -29.3558  -17.8792   16.9173 H   0  0  0  0  0  0
  -29.6405  -17.5114   21.8064 H   0  0  0  0  0  0
  -30.4590  -15.9685   18.0434 H   0  0  0  0  0  0
  -28.7348  -15.8024   18.2580 H   0  0  0  0  0  0
  -26.5776  -23.2833   22.1444 H   0  0  0  0  0  0
  -28.0906  -22.5741   22.7077 H   0  0  0  0  0  0
  -26.9503  -21.6025   21.7969 H   0  0  0  0  0  0
  -26.2290  -23.6341   19.6550 H   0  0  0  0  0  0
  -26.6231  -21.9557   19.3401 H   0  0  0  0  0  0
  -27.4873  -23.2373   18.4908 H   0  0  0  0  0  0
  -29.5573  -24.6701   20.9724 H   0  0  0  0  0  0
  -28.1204  -24.9307   21.8253 H   0  0  0  0  0  0
  -30.0872  -22.0062   20.8544 H   0  0  0  0  0  0
  -29.4759  -21.6753   19.3031 H   0  0  0  0  0  0
  1 25  1  0  0  0
  1 30  2  0  0  0
  1 81  1  0  0  0
  2  3  1  0  0  0
  2 25  1  0  0  0
  2 83  1  0  0  0
  2 84  1  0  0  0
  3  4  1  0  0  0
  3 85  1  0  0  0
  3 86  1  0  0  0
  4  5  1  0  0  0
  4 87  1  0  0  0
  4 88  1  0  0  0
  5  6  1  0  0  0
  5 26  1  0  0  0
  5 89  1  0  0  0
  6 25  1  0  0  0
  6 90  1  0  0  0
  6 91  1  0  0  0
  7  8  2  0  0  0
  7 26  1  0  0  0
  7 29  1  0  0  0
  8  9  1  0  0  0
  8 22  1  0  0  0
  9 10  1  0  0  0
  9 27  2  0  0  0
 10 11  2  0  0  0
 10 15  1  0  0  0
 11 12  1  0  0  0
 11 92  1  0  0  0
 12 13  2  0  0  0
 12 93  1  0  0  0
 13 14  1  0  0  0
 13 31  1  0  0  0
 14 15  2  0  0  0
 14 94  1  0  0  0
 15 95  1  0  0  0
 16 17  2  0  0  0
 16 21  1  0  0  0
 16 31  1  0  0  0
 17 18  1  0  0  0
 17 96  1  0  0  0
 18 19  2  0  0  0
 18 97  1  0  0  0
 19 20  1  0  0  0
 19 24  1  0  0  0
 20 21  2  0  0  0
 20 98  1  0  0  0
 21 23  1  0  0  0
 22 28  1  0  0  0
 22 32  2  0  0  0
 26 27  1  0  0  0
 28 99  1  0  0  0
 28100  1  0  0  0
 29101  1  0  0  0
 29102  1  0  0  0
 33 34  1  0  0  0
 33 66  1  0  0  0
 33 70  2  0  0  0
 34 36  1  0  0  0
 34 59  1  0  0  0
 34103  1  0  0  0
 35 44  2  0  0  0
 35 45  1  0  0  0
 35 68  1  0  0  0
 36 56  1  0  0  0
 36104  1  0  0  0
 37 39  1  0  0  0
 37 47  1  0  0  0
 37 66  1  0  0  0
 37105  1  0  0  0
 38 43  2  0  0  0
 38 46  1  0  0  0
 38 47  1  0  0  0
 39 64  1  0  0  0
 39 67  2  0  0  0
 40 52  1  0  0  0
 40 53  2  0  0  0
 40 58  1  0  0  0
 41106  1  0  0  0
 41107  1  0  0  0
 41108  1  0  0  0
 41 48  1  0  0  0
 42 43  1  0  0  0
 42 66  1  0  0  0
 42109  1  0  0  0
 42110  1  0  0  0
 43 44  1  0  0  0
 44111  1  0  0  0
 45 46  2  0  0  0
 45112  1  0  0  0
 46113  1  0  0  0
 47114  1  0  0  0
 47115  1  0  0  0
 48 56  1  0  0  0
 48 65  1  0  0  0
 48116  1  0  0  0
 49 50  1  0  0  0
 49 53  1  0  0  0
 49 64  1  0  0  0
 49117  1  0  0  0
 50 51  1  0  0  0
 50118  1  0  0  0
 50119  1  0  0  0
 51 52  1  0  0  0
 51120  1  0  0  0
 51121  1  0  0  0
 52122  1  0  0  0
 52123  1  0  0  0
 53 54  1  0  0  0
 54 55  2  0  0  0
 54124  1  0  0  0
 55 57  1  0  0  0
 55125  1  0  0  0
 56 69  2  0  0  0
 57 58  2  0  0  0
 57126  1  0  0  0
 58127  1  0  0  0
 59 60  1  0  0  0
 59 61  1  0  0  0
 59 62  1  0  0  0
 60128  1  0  0  0
 60129  1  0  0  0
 60130  1  0  0  0
 61131  1  0  0  0
 61132  1  0  0  0
 61133  1  0  0  0
 62134  1  0  0  0
 62135  1  0  0  0
 62136  1  0  0  0
 63 65  1  0  0  0
 63137  1  0  0  0
 63138  1  0  0  0
 63139  1  0  0  0
 64140  1  0  0  0
 65141  1  0  0  0
 68 78  1  0  0  0
 71 72  2  0  0  0
 71 74  1  0  0  0
 71142  1  0  0  0
 72 75  1  0  0  0
 72143  1  0  0  0
 73 74  2  0  0  0
 73 81  1  0  0  0
 73144  1  0  0  0
 74 82  1  0  0  0
 75 81  1  0  0  0
 75145  1  0  0  0
 75146  1  0  0  0
 76147  1  0  0  0
 76148  1  0  0  0
 76149  1  0  0  0
 76 80  1  0  0  0
 77 80  1  0  0  0
 77150  1  0  0  0
 77151  1  0  0  0
 77152  1  0  0  0
 78 80  1  0  0  0
 78153  1  0  0  0
 78154  1  0  0  0
 79 80  1  0  0  0
 79 82  1  0  0  0
 79155  1  0  0  0
 79156  1  0  0  0
M  ISO  4   1 100  68 101  78 101  81 100
M  END
> <chiral flag>
0

> <version>
0

> <s_m_source_file>
/data/baiqing/PycharmProjects/Reinvent-master-3.2/result/LINK_invent/BTK/process_docking_weight1_custom_product_contain_oxygen_bond_distance_aromatic_linkinvent_7_9_3/rearranged_h_0137.sdf

> <i_m_source_file_index>
41

> <r_mmod_Potential_Energy-OPLS-2005>
991.459167480469

> <r_mmod_Stretch_Energy-OPLS-2005>
359.606781005859

> <r_mmod_Bend_Energy-OPLS-2005>
386.028442382812

> <r_mmod_Torsional_Energy-OPLS-2005>
343.119201660156

> <r_mmod_Improper_Torsional_Energy-OPLS-2005>
17.9265995025635

> <r_mmod_Van_der_Waal_Energy-OPLS-2005>
120.545234680176

> <r_mmod_Electrostatic_Energy-OPLS-2005>
-317.276245117188

> <r_mmod_Solvation_Energy-OPLS-2005>
-195.171936035156

> <b_mmod_Minimization_Converged-OPLS-2005>
0

> <r_mmod_RMS_Derivative-OPLS-2005>
4.25940799713135

$$$$
41
                    3D
 Structure written by MMmdl.
164173  0  0  1  0            999 V2000
  -30.7105  -14.4918   20.5591 C   0  0  0  0  0  0
  -30.4177  -12.3163   19.4285 C   0  0  0  0  0  0
  -29.4937  -12.5004   18.2082 C   0  0  0  0  0  0
  -28.0158  -12.3598   18.6217 C   0  0  0  0  0  0
  -27.6577  -13.2115   19.8696 C   0  0  2  0  0  0
  -28.7009  -13.0220   20.9944 C   0  0  0  0  0  0
  -25.2571  -13.8171   20.5683 C   0  0  0  0  0  0
  -24.1828  -13.0443   20.9183 C   0  0  0  0  0  0
  -24.6388  -11.6911   20.8735 C   0  0  0  0  0  0
  -23.9057  -10.4294   21.0401 C   0  0  0  0  0  0
  -24.3611   -9.4210   21.9178 C   0  0  0  0  0  0
  -23.6289   -8.2246   22.0751 C   0  0  0  0  0  0
  -22.4270   -8.0280   21.3543 C   0  0  0  0  0  0
  -21.9903   -9.0254   20.4648 C   0  0  0  0  0  0
  -22.7230  -10.2135   20.3051 C   0  0  0  0  0  0
  -21.6854   -6.0730   22.5277 C   0  0  0  0  0  0
  -21.4015   -6.5633   23.8211 C   0  0  0  0  0  0
  -21.3660   -5.6790   24.9173 C   0  0  0  0  0  0
  -21.6044   -4.3051   24.7226 C   0  0  0  0  0  0
  -21.8820   -3.8143   23.4348 C   0  0  0  0  0  0
  -21.9194   -4.6959   22.3402 C   0  0  0  0  0  0
  -22.7850  -13.5236   21.1845 C   0  0  0  0  0  0
  -22.1662   -4.2142   21.0980 F   0  0  0  0  0  0
  -21.5631   -3.4536   25.7740 F   0  0  0  0  0  0
  -30.0278  -13.3200   20.4330 N   0  0  0  0  0  0
  -26.3006  -12.9349   20.3347 N   0  0  0  0  0  0
  -25.9315  -11.6506   20.5760 N   0  0  0  0  0  0
  -22.0491  -12.8230   22.0405 N   0  0  0  0  0  0
  -25.4290  -15.1889   20.4092 N   0  0  0  0  0  0
  -31.8489  -14.6337   20.1037 O   0  0  0  0  0  0
  -21.6639   -6.8874   21.4238 O   0  0  0  0  0  0
  -22.3535  -14.5541   20.6694 O   0  0  0  0  0  0
  -24.6159  -31.8669   23.2081 C   0  0  0  0  0  0
  -25.9046  -32.4816   23.8387 C   0  0  1  0  0  0
  -27.2330  -27.4223   20.1032 C   0  0  0  0  0  0
  -25.5896  -33.8614   24.2321 N   0  0  0  0  0  0
  -23.4049  -30.4890   21.5492 C   0  0  2  0  0  0
  -24.8525  -28.9512   20.1155 C   0  0  0  0  0  0
  -22.7419  -29.4647   22.4983 C   0  0  0  0  0  0
  -18.0274  -28.1373   22.8489 C   0  0  0  0  0  0
  -24.1488  -36.7313   23.2639 C   0  0  0  0  0  0
  -25.9346  -30.8291   21.3624 C   0  0  0  0  0  0
  -26.0133  -29.4622   20.7103 C   0  0  0  0  0  0
  -27.2099  -28.7064   20.6969 C   0  0  0  0  0  0
  -26.0579  -26.9276   19.5013 C   0  0  0  0  0  0
  -24.8702  -27.6839   19.5063 C   0  0  0  0  0  0
  -23.6144  -29.8191   20.1644 C   0  0  0  0  0  0
  -25.4106  -36.3109   24.0340 C   0  0  1  0  0  0
  -20.5864  -28.3661   23.1315 C   0  0  2  0  0  0
  -20.6762  -26.9395   22.5416 C   0  0  0  0  0  0
  -19.5744  -26.6382   21.5208 C   0  0  0  0  0  0
  -18.1922  -26.7922   22.1619 C   0  0  0  0  0  0
  -19.1523  -28.8834   23.2900 C   0  0  0  0  0  0
  -18.9451  -30.1440   23.8911 C   0  0  0  0  0  0
  -17.6453  -30.6581   24.0560 C   0  0  0  0  0  0
  -25.9033  -34.9474   23.5129 C   0  0  0  0  0  0
  -16.5344  -29.9083   23.6320 C   0  0  0  0  0  0
  -16.7263  -28.6498   23.0347 C   0  0  0  0  0  0
  -26.4471  -31.6596   25.0720 C   0  0  0  0  0  0
  -25.3740  -31.3704   26.1472 C   0  0  0  0  0  0
  -27.0293  -30.3037   24.6092 C   0  0  0  0  0  0
  -27.6054  -32.4308   25.7475 C   0  0  0  0  0  0
  -27.5583  -37.1807   24.8461 C   0  0  0  0  0  0
  -21.4145  -29.3028   22.3723 N   0  0  0  0  0  0
  -26.4291  -37.3794   23.9412 N   0  0  0  0  0  0
  -24.6702  -31.0762   22.0985 N   0  0  0  0  0  0
  -23.4188  -28.8188   23.3027 O   0  0  0  0  0  0
  -28.3808  -26.6588   20.1019 O   0  0  0  0  0  0
  -26.5596  -34.8927   22.4692 O   0  0  0  0  0  0
  -23.5348  -32.1422   23.7470 O   0  0  0  0  0  0
  -32.2113  -18.5092   21.8095 C   0  0  0  0  0  0
  -31.3232  -19.5799   21.6033 C   0  0  0  0  0  0
  -31.7830  -17.1823   21.6276 C   0  0  0  0  0  0
  -29.5663  -17.9942   21.0215 C   0  0  0  0  0  0
  -29.9851  -19.3428   21.2142 C   0  0  0  0  0  0
  -30.4587  -16.8998   21.2163 C   0  0  0  0  0  0
  -28.2803  -24.1539   20.0079 C   0  0  0  0  0  0
  -27.5647  -21.6804   19.5414 C   0  0  0  0  0  0
  -27.9402  -22.4324   21.9223 C   0  0  0  0  0  0
  -28.8490  -20.8245   19.6511 C   0  0  0  0  0  0
  -29.2279  -21.5792   21.9234 C   0  0  0  0  0  0
  -27.4773  -22.9087   20.5117 C   0  0  0  0  0  0
  -25.9853  -23.3194   20.5850 C   0  0  0  0  0  0
  -28.2896  -25.4412   20.8754 C   0  0  0  0  0  0
  -29.0842  -20.4223   21.0359 N   0  0  0  0  0  0
  -30.0090  -15.5425   21.0480 N   0  0  0  0  0  0
  -28.8864  -24.1288   18.9319 O   0  0  0  0  0  0
  -31.4630  -12.4043   19.1267 H   0  0  0  0  0  0
  -30.3128  -11.3121   19.8421 H   0  0  0  0  0  0
  -29.7371  -11.7688   17.4370 H   0  0  0  0  0  0
  -29.6605  -13.4824   17.7624 H   0  0  0  0  0  0
  -27.8308  -11.3049   18.8289 H   0  0  0  0  0  0
  -27.3647  -12.6229   17.7870 H   0  0  0  0  0  0
  -27.6935  -14.2547   19.5552 H   0  0  0  0  0  0
  -28.6812  -11.9956   21.3641 H   0  0  0  0  0  0
  -28.4648  -13.6488   21.8554 H   0  0  0  0  0  0
  -25.2759   -9.5689   22.4748 H   0  0  0  0  0  0
  -24.0002   -7.4638   22.7468 H   0  0  0  0  0  0
  -21.0834   -8.8773   19.8957 H   0  0  0  0  0  0
  -22.3687  -10.9670   19.6157 H   0  0  0  0  0  0
  -21.2006   -7.6142   23.9710 H   0  0  0  0  0  0
  -21.1480   -6.0520   25.9076 H   0  0  0  0  0  0
  -22.0599   -2.7606   23.2852 H   0  0  0  0  0  0
  -22.4100  -11.9891   22.4796 H   0  0  0  0  0  0
  -21.1111  -13.1263   22.2611 H   0  0  0  0  0  0
  -24.6629  -15.8448   20.5171 H   0  0  0  0  0  0
  -26.2794  -15.6272   20.0793 H   0  0  0  0  0  0
  -26.7121  -32.5530   23.1155 H   0  0  0  0  0  0
  -25.0055  -33.9773   25.0473 H   0  0  0  0  0  0
  -22.6936  -31.3055   21.4085 H   0  0  0  0  0  0
  -23.3749  -35.9648   23.3307 H   0  0  0  0  0  0
  -24.3586  -36.8918   22.2052 H   0  0  0  0  0  0
  -23.7241  -37.6522   23.6647 H   0  0  0  0  0  0
  -26.0477  -31.5942   20.5930 H   0  0  0  0  0  0
  -26.8219  -30.8839   21.9812 H   0  0  0  0  0  0
  -28.1079  -29.0964   21.1557 H   0  0  0  0  0  0
  -26.0600  -25.9587   19.0236 H   0  0  0  0  0  0
  -23.9788  -27.2858   19.0411 H   0  0  0  0  0  0
  -23.7232  -30.5930   19.4038 H   0  0  0  0  0  0
  -22.7387  -29.2385   19.8691 H   0  0  0  0  0  0
  -25.1280  -36.1973   25.0832 H   0  0  0  0  0  0
  -20.9956  -28.3228   24.1435 H   0  0  0  0  0  0
  -20.5658  -26.2268   23.3604 H   0  0  0  0  0  0
  -21.6636  -26.7435   22.1214 H   0  0  0  0  0  0
  -19.6906  -25.6295   21.1229 H   0  0  0  0  0  0
  -19.6685  -27.3198   20.6742 H   0  0  0  0  0  0
  -17.4192  -26.6671   21.4021 H   0  0  0  0  0  0
  -18.0324  -26.0059   22.9011 H   0  0  0  0  0  0
  -19.7928  -30.7246   24.2294 H   0  0  0  0  0  0
  -17.5010  -31.6264   24.5159 H   0  0  0  0  0  0
  -15.5345  -30.2989   23.7636 H   0  0  0  0  0  0
  -15.8663  -28.0817   22.7059 H   0  0  0  0  0  0
  -24.5902  -30.7063   25.7811 H   0  0  0  0  0  0
  -24.8945  -32.2861   26.4943 H   0  0  0  0  0  0
  -25.8097  -30.8856   27.0218 H   0  0  0  0  0  0
  -26.2830  -29.6807   24.1150 H   0  0  0  0  0  0
  -27.4063  -29.7265   25.4545 H   0  0  0  0  0  0
  -27.8667  -30.4353   23.9236 H   0  0  0  0  0  0
  -27.2686  -33.3600   26.2082 H   0  0  0  0  0  0
  -28.3846  -32.6878   25.0288 H   0  0  0  0  0  0
  -28.0744  -31.8414   26.5364 H   0  0  0  0  0  0
  -28.2597  -38.0108   24.7519 H   0  0  0  0  0  0
  -28.1079  -36.2640   24.6264 H   0  0  0  0  0  0
  -27.2307  -37.1437   25.8865 H   0  0  0  0  0  0
  -20.9307  -29.8755   21.6950 H   0  0  0  0  0  0
  -26.0181  -38.2872   24.1417 H   0  0  0  0  0  0
  -33.2289  -18.7079   22.1148 H   0  0  0  0  0  0
  -31.6916  -20.5849   21.7497 H   0  0  0  0  0  0
  -32.4903  -16.3863   21.8137 H   0  0  0  0  0  0
  -28.5441  -17.8015   20.7281 H   0  0  0  0  0  0
  -26.7218  -21.0144   19.7318 H   0  0  0  0  0  0
  -27.4357  -22.0025   18.5067 H   0  0  0  0  0  0
  -28.0736  -23.2806   22.5948 H   0  0  0  0  0  0
  -27.1472  -21.8361   22.3761 H   0  0  0  0  0  0
  -29.7091  -21.3884   19.2852 H   0  0  0  0  0  0
  -28.7601  -19.9449   19.0110 H   0  0  0  0  0  0
  -29.4432  -21.2454   22.9404 H   0  0  0  0  0  0
  -30.0753  -22.1897   21.6060 H   0  0  0  0  0  0
  -25.6175  -23.6674   19.6188 H   0  0  0  0  0  0
  -25.7976  -24.1073   21.3139 H   0  0  0  0  0  0
  -25.3542  -22.4795   20.8778 H   0  0  0  0  0  0
  -29.1651  -25.3919   21.5226 H   0  0  0  0  0  0
  -27.4275  -25.4679   21.5406 H   0  0  0  0  0  0
  -29.0357  -15.3589   21.2385 H   0  0  0  0  0  0
  1 25  1  0  0  0
  1 30  2  0  0  0
  1 86  1  0  0  0
  2  3  1  0  0  0
  2 25  1  0  0  0
  2 88  1  0  0  0
  2 89  1  0  0  0
  3  4  1  0  0  0
  3 90  1  0  0  0
  3 91  1  0  0  0
  4  5  1  0  0  0
  4 92  1  0  0  0
  4 93  1  0  0  0
  5  6  1  0  0  0
  5 26  1  0  0  0
  5 94  1  0  0  0
  6 25  1  0  0  0
  6 95  1  0  0  0
  6 96  1  0  0  0
  7  8  2  0  0  0
  7 26  1  0  0  0
  7 29  1  0  0  0
  8  9  1  0  0  0
  8 22  1  0  0  0
  9 10  1  0  0  0
  9 27  2  0  0  0
 10 11  2  0  0  0
 10 15  1  0  0  0
 11 12  1  0  0  0
 11 97  1  0  0  0
 12 13  2  0  0  0
 12 98  1  0  0  0
 13 14  1  0  0  0
 13 31  1  0  0  0
 14 15  2  0  0  0
 14 99  1  0  0  0
 15100  1  0  0  0
 16 17  2  0  0  0
 16 21  1  0  0  0
 16 31  1  0  0  0
 17 18  1  0  0  0
 17101  1  0  0  0
 18 19  2  0  0  0
 18102  1  0  0  0
 19 20  1  0  0  0
 19 24  1  0  0  0
 20 21  2  0  0  0
 20103  1  0  0  0
 21 23  1  0  0  0
 22 28  1  0  0  0
 22 32  2  0  0  0
 26 27  1  0  0  0
 28104  1  0  0  0
 28105  1  0  0  0
 29106  1  0  0  0
 29107  1  0  0  0
 33 34  1  0  0  0
 33 66  1  0  0  0
 33 70  2  0  0  0
 34 36  1  0  0  0
 34 59  1  0  0  0
 34108  1  0  0  0
 35 44  2  0  0  0
 35 45  1  0  0  0
 35 68  1  0  0  0
 36 56  1  0  0  0
 36109  1  0  0  0
 37 39  1  0  0  0
 37 47  1  0  0  0
 37 66  1  0  0  0
 37110  1  0  0  0
 38 43  2  0  0  0
 38 46  1  0  0  0
 38 47  1  0  0  0
 39 64  1  0  0  0
 39 67  2  0  0  0
 40 52  1  0  0  0
 40 53  2  0  0  0
 40 58  1  0  0  0
 41111  1  0  0  0
 41112  1  0  0  0
 41113  1  0  0  0
 41 48  1  0  0  0
 42 43  1  0  0  0
 42 66  1  0  0  0
 42114  1  0  0  0
 42115  1  0  0  0
 43 44  1  0  0  0
 44116  1  0  0  0
 45 46  2  0  0  0
 45117  1  0  0  0
 46118  1  0  0  0
 47119  1  0  0  0
 47120  1  0  0  0
 48 56  1  0  0  0
 48 65  1  0  0  0
 48121  1  0  0  0
 49 50  1  0  0  0
 49 53  1  0  0  0
 49 64  1  0  0  0
 49122  1  0  0  0
 50 51  1  0  0  0
 50123  1  0  0  0
 50124  1  0  0  0
 51 52  1  0  0  0
 51125  1  0  0  0
 51126  1  0  0  0
 52127  1  0  0  0
 52128  1  0  0  0
 53 54  1  0  0  0
 54 55  2  0  0  0
 54129  1  0  0  0
 55 57  1  0  0  0
 55130  1  0  0  0
 56 69  2  0  0  0
 57 58  2  0  0  0
 57131  1  0  0  0
 58132  1  0  0  0
 59 60  1  0  0  0
 59 61  1  0  0  0
 59 62  1  0  0  0
 60133  1  0  0  0
 60134  1  0  0  0
 60135  1  0  0  0
 61136  1  0  0  0
 61137  1  0  0  0
 61138  1  0  0  0
 62139  1  0  0  0
 62140  1  0  0  0
 62141  1  0  0  0
 63 65  1  0  0  0
 63142  1  0  0  0
 63143  1  0  0  0
 63144  1  0  0  0
 64145  1  0  0  0
 65146  1  0  0  0
 68 84  1  0  0  0
 71 72  2  0  0  0
 71 73  1  0  0  0
 71147  1  0  0  0
 72 75  1  0  0  0
 72148  1  0  0  0
 73 76  2  0  0  0
 73149  1  0  0  0
 74 75  2  0  0  0
 74 76  1  0  0  0
 74150  1  0  0  0
 75 85  1  0  0  0
 76 86  1  0  0  0
 77 84  1  0  0  0
 77 87  2  0  0  0
 77 82  1  0  0  0
 78 80  1  0  0  0
 78 82  1  0  0  0
 78151  1  0  0  0
 78152  1  0  0  0
 79 81  1  0  0  0
 79 82  1  0  0  0
 79153  1  0  0  0
 79154  1  0  0  0
 80 85  1  0  0  0
 80155  1  0  0  0
 80156  1  0  0  0
 81 85  1  0  0  0
 81157  1  0  0  0
 81158  1  0  0  0
 82 83  1  0  0  0
 83159  1  0  0  0
 83160  1  0  0  0
 83161  1  0  0  0
 84162  1  0  0  0
 84163  1  0  0  0
 86164  1  0  0  0
M  ISO  4   1 100  68 101  84 101  86 100
M  END
> <chiral flag>
0

> <version>
0

> <s_m_source_file>
/data/baiqing/PycharmProjects/Reinvent-master-3.2/result/LINK_invent/BTK/process_docking_weight1_custom_product_contain_oxygen_bond_distance_aromatic_linkinvent_7_9_3/rearranged_h_0137.sdf

> <i_m_source_file_index>
42

> <r_mmod_Potential_Energy-OPLS-2005>
54.1056327819824

> <r_mmod_Stretch_Energy-OPLS-2005>
47.3391227722168

> <r_mmod_Bend_Energy-OPLS-2005>
105.701751708984

> <r_mmod_Torsional_Energy-OPLS-2005>
280.093658447266

> <r_mmod_Improper_Torsional_Energy-OPLS-2005>
7.9840874671936

> <r_mmod_Van_der_Waal_Energy-OPLS-2005>
158.493408203125

> <r_mmod_Electrostatic_Energy-OPLS-2005>
-329.357940673828

> <r_mmod_Solvation_Energy-OPLS-2005>
-231.771743774414

> <b_mmod_Minimization_Converged-OPLS-2005>
0

> <r_mmod_RMS_Derivative-OPLS-2005>
0.579894542694092

$$$$
42
                    3D
 Structure written by MMmdl.
153161  0  0  1  0            999 V2000
  -30.6233  -14.6069   20.5035 C   0  0  0  0  0  0
  -30.4403  -12.3706   19.4471 C   0  0  0  0  0  0
  -29.5063  -12.5000   18.2225 C   0  0  0  0  0  0
  -28.0283  -12.3468   18.6361 C   0  0  0  0  0  0
  -27.6582  -13.2102   19.8704 C   0  0  2  0  0  0
  -28.7030  -13.0401   20.9975 C   0  0  0  0  0  0
  -25.2583  -13.8160   20.5689 C   0  0  0  0  0  0
  -24.1842  -13.0435   20.9200 C   0  0  0  0  0  0
  -24.6394  -11.6904   20.8748 C   0  0  0  0  0  0
  -23.9060  -10.4284   21.0406 C   0  0  0  0  0  0
  -24.3608   -9.4198   21.9184 C   0  0  0  0  0  0
  -23.6281   -8.2237   22.0756 C   0  0  0  0  0  0
  -22.4268   -8.0275   21.3545 C   0  0  0  0  0  0
  -21.9902   -9.0253   20.4648 C   0  0  0  0  0  0
  -22.7231  -10.2129   20.3056 C   0  0  0  0  0  0
  -21.6852   -6.0726   22.5271 C   0  0  0  0  0  0
  -21.4015   -6.5635   23.8203 C   0  0  0  0  0  0
  -21.3661   -5.6790   24.9167 C   0  0  0  0  0  0
  -21.6045   -4.3053   24.7224 C   0  0  0  0  0  0
  -21.8820   -3.8144   23.4348 C   0  0  0  0  0  0
  -21.9191   -4.6954   22.3401 C   0  0  0  0  0  0
  -22.7861  -13.5234   21.1852 C   0  0  0  0  0  0
  -22.1662   -4.2138   21.0982 F   0  0  0  0  0  0
  -21.5628   -3.4538   25.7742 F   0  0  0  0  0  0
  -30.0222  -13.3788   20.4388 N   0  0  0  0  0  0
  -26.3012  -12.9328   20.3353 N   0  0  0  0  0  0
  -25.9326  -11.6490   20.5790 N   0  0  0  0  0  0
  -22.0502  -12.8227   22.0403 N   0  0  0  0  0  0
  -25.4305  -15.1874   20.4076 N   0  0  0  0  0  0
  -31.7744  -14.7856   20.0945 O   0  0  0  0  0  0
  -21.6643   -6.8867   21.4235 O   0  0  0  0  0  0
  -22.3547  -14.5542   20.6692 O   0  0  0  0  0  0
  -24.6229  -31.8603   23.2049 C   0  0  0  0  0  0
  -25.9091  -32.4777   23.8362 C   0  0  1  0  0  0
  -27.2272  -27.3535   20.1198 C   0  0  0  0  0  0
  -25.5914  -33.8579   24.2293 N   0  0  0  0  0  0
  -23.4141  -30.4822   21.5477 C   0  0  2  0  0  0
  -24.8605  -28.9361   20.1157 C   0  0  0  0  0  0
  -22.7448  -29.4623   22.4976 C   0  0  0  0  0  0
  -18.0271  -28.1361   22.8483 C   0  0  0  0  0  0
  -24.1491  -36.7306   23.2639 C   0  0  0  0  0  0
  -25.9501  -30.8028   21.3669 C   0  0  0  0  0  0
  -26.0271  -29.4320   20.7125 C   0  0  0  0  0  0
  -27.2173  -28.6536   20.7007 C   0  0  0  0  0  0
  -26.0420  -26.8922   19.5094 C   0  0  0  0  0  0
  -24.8667  -27.6689   19.5072 C   0  0  0  0  0  0
  -23.6254  -29.8116   20.1640 C   0  0  0  0  0  0
  -25.4113  -36.3091   24.0332 C   0  0  1  0  0  0
  -20.5869  -28.3657   23.1306 C   0  0  2  0  0  0
  -20.6764  -26.9388   22.5415 C   0  0  0  0  0  0
  -19.5752  -26.6376   21.5203 C   0  0  0  0  0  0
  -18.1928  -26.7901   22.1613 C   0  0  0  0  0  0
  -19.1521  -28.8828   23.2883 C   0  0  0  0  0  0
  -18.9443  -30.1431   23.8895 C   0  0  0  0  0  0
  -17.6444  -30.6568   24.0556 C   0  0  0  0  0  0
  -25.9045  -34.9454   23.5118 C   0  0  0  0  0  0
  -16.5335  -29.9069   23.6326 C   0  0  0  0  0  0
  -16.7257  -28.6485   23.0350 C   0  0  0  0  0  0
  -26.4488  -31.6563   25.0710 C   0  0  0  0  0  0
  -25.3740  -31.3673   26.1446 C   0  0  0  0  0  0
  -27.0332  -30.3000   24.6127 C   0  0  0  0  0  0
  -27.6068  -32.4278   25.7472 C   0  0  0  0  0  0
  -27.5578  -37.1812   24.8468 C   0  0  0  0  0  0
  -21.4166  -29.3020   22.3706 N   0  0  0  0  0  0
  -26.4301  -37.3778   23.9397 N   0  0  0  0  0  0
  -24.6816  -31.0646   22.0978 N   0  0  0  0  0  0
  -23.4184  -28.8170   23.3054 O   0  0  0  0  0  0
  -28.3598  -26.5433   20.1177 O   0  0  0  0  0  0
  -26.5615  -34.8929   22.4681 O   0  0  0  0  0  0
  -23.5404  -32.1386   23.7402 O   0  0  0  0  0  0
  -30.6811  -19.1659   19.6849 C   0  0  0  0  0  0
  -30.8215  -17.7785   19.9764 C   0  0  0  0  0  0
  -28.6498  -17.8095   21.0182 C   0  0  0  0  0  0
  -29.5207  -19.9100   20.0360 C   0  0  0  0  0  0
  -29.7945  -17.0570   20.6398 C   0  0  0  0  0  0
  -28.5068  -19.1964   20.7232 C   0  0  0  0  0  0
  -29.3537  -21.3828   19.5263 C   0  0  0  0  0  0
  -28.8043  -22.5402   20.4500 C   0  0  0  0  0  0
  -28.7572  -23.9831   19.7827 C   0  0  0  0  0  0
  -28.2282  -25.1848   20.6603 C   0  0  0  0  0  0
  -29.8142  -15.6248   20.9208 N   0  0  0  0  0  0
  -27.3602  -19.8250   21.0739 F   0  0  0  0  0  0
  -31.4798  -12.4980   19.1422 H   0  0  0  0  0  0
  -30.3774  -11.3704   19.8791 H   0  0  0  0  0  0
  -29.7623  -11.7478   17.4757 H   0  0  0  0  0  0
  -29.6566  -13.4687   17.7440 H   0  0  0  0  0  0
  -27.8569  -11.2936   18.8618 H   0  0  0  0  0  0
  -27.3749  -12.5865   17.7969 H   0  0  0  0  0  0
  -27.6838  -14.2488   19.5408 H   0  0  0  0  0  0
  -28.7096  -12.0123   21.3629 H   0  0  0  0  0  0
  -28.4527  -13.6567   21.8620 H   0  0  0  0  0  0
  -25.2746   -9.5683   22.4766 H   0  0  0  0  0  0
  -23.9987   -7.4635   22.7483 H   0  0  0  0  0  0
  -21.0829   -8.8771   19.8964 H   0  0  0  0  0  0
  -22.3677  -10.9674   19.6175 H   0  0  0  0  0  0
  -21.2010   -7.6143   23.9702 H   0  0  0  0  0  0
  -21.1484   -6.0524   25.9069 H   0  0  0  0  0  0
  -22.0599   -2.7605   23.2854 H   0  0  0  0  0  0
  -22.4110  -11.9886   22.4794 H   0  0  0  0  0  0
  -21.1128  -13.1269   22.2625 H   0  0  0  0  0  0
  -24.6589  -15.8389   20.5035 H   0  0  0  0  0  0
  -26.2656  -15.6190   20.0328 H   0  0  0  0  0  0
  -26.7149  -32.5458   23.1104 H   0  0  0  0  0  0
  -25.0061  -33.9715   25.0437 H   0  0  0  0  0  0
  -22.7067  -31.3019   21.4062 H   0  0  0  0  0  0
  -23.3744  -35.9648   23.3320 H   0  0  0  0  0  0
  -24.3585  -36.8900   22.2051 H   0  0  0  0  0  0
  -23.7262  -37.6524   23.6643 H   0  0  0  0  0  0
  -26.0733  -31.5668   20.5982 H   0  0  0  0  0  0
  -26.8342  -30.8537   21.9914 H   0  0  0  0  0  0
  -28.1176  -29.0314   21.1653 H   0  0  0  0  0  0
  -26.0236  -25.9197   19.0385 H   0  0  0  0  0  0
  -23.9701  -27.2805   19.0432 H   0  0  0  0  0  0
  -23.7344  -30.5847   19.4028 H   0  0  0  0  0  0
  -22.7478  -29.2329   19.8708 H   0  0  0  0  0  0
  -25.1295  -36.1957   25.0827 H   0  0  0  0  0  0
  -20.9935  -28.3205   24.1440 H   0  0  0  0  0  0
  -20.5655  -26.2255   23.3596 H   0  0  0  0  0  0
  -21.6638  -26.7426   22.1221 H   0  0  0  0  0  0
  -19.6927  -25.6297   21.1217 H   0  0  0  0  0  0
  -19.6699  -27.3202   20.6748 H   0  0  0  0  0  0
  -17.4202  -26.6629   21.4018 H   0  0  0  0  0  0
  -18.0340  -26.0037   22.9006 H   0  0  0  0  0  0
  -19.7918  -30.7243   24.2269 H   0  0  0  0  0  0
  -17.5001  -31.6255   24.5143 H   0  0  0  0  0  0
  -15.5336  -30.2970   23.7659 H   0  0  0  0  0  0
  -15.8650  -28.0805   22.7073 H   0  0  0  0  0  0
  -24.5933  -30.7003   25.7768 H   0  0  0  0  0  0
  -24.8918  -32.2829   26.4881 H   0  0  0  0  0  0
  -25.8085  -30.8847   27.0212 H   0  0  0  0  0  0
  -26.2901  -29.6752   24.1161 H   0  0  0  0  0  0
  -27.4066  -29.7238   25.4601 H   0  0  0  0  0  0
  -27.8749  -30.4311   23.9324 H   0  0  0  0  0  0
  -27.2693  -33.3564   26.2085 H   0  0  0  0  0  0
  -28.3857  -32.6840   25.0279 H   0  0  0  0  0  0
  -28.0761  -31.8376   26.5353 H   0  0  0  0  0  0
  -28.2618  -38.0085   24.7483 H   0  0  0  0  0  0
  -28.1053  -36.2620   24.6337 H   0  0  0  0  0  0
  -27.2291  -37.1506   25.8870 H   0  0  0  0  0  0
  -20.9336  -29.8730   21.6909 H   0  0  0  0  0  0
  -26.0188  -38.2864   24.1363 H   0  0  0  0  0  0
  -31.4758  -19.6559   19.1395 H   0  0  0  0  0  0
  -31.7230  -17.2764   19.6552 H   0  0  0  0  0  0
  -27.8304  -17.3182   21.5240 H   0  0  0  0  0  0
  -28.7164  -21.3289   18.6432 H   0  0  0  0  0  0
  -30.3259  -21.7050   19.1514 H   0  0  0  0  0  0
  -29.4212  -22.5882   21.3476 H   0  0  0  0  0  0
  -27.8002  -22.2815   20.7884 H   0  0  0  0  0  0
  -28.1484  -23.9320   18.8792 H   0  0  0  0  0  0
  -29.7622  -24.2294   19.4397 H   0  0  0  0  0  0
  -28.7966  -25.1859   21.5905 H   0  0  0  0  0  0
  -27.2022  -24.9770   20.9673 H   0  0  0  0  0  0
  -28.9598  -15.2750   21.3271 H   0  0  0  0  0  0
  1 25  1  0  0  0
  1 30  2  0  0  0
  1 81  1  0  0  0
  2  3  1  0  0  0
  2 25  1  0  0  0
  2 83  1  0  0  0
  2 84  1  0  0  0
  3  4  1  0  0  0
  3 85  1  0  0  0
  3 86  1  0  0  0
  4  5  1  0  0  0
  4 87  1  0  0  0
  4 88  1  0  0  0
  5  6  1  0  0  0
  5 26  1  0  0  0
  5 89  1  0  0  0
  6 25  1  0  0  0
  6 90  1  0  0  0
  6 91  1  0  0  0
  7  8  2  0  0  0
  7 26  1  0  0  0
  7 29  1  0  0  0
  8  9  1  0  0  0
  8 22  1  0  0  0
  9 10  1  0  0  0
  9 27  2  0  0  0
 10 11  2  0  0  0
 10 15  1  0  0  0
 11 12  1  0  0  0
 11 92  1  0  0  0
 12 13  2  0  0  0
 12 93  1  0  0  0
 13 14  1  0  0  0
 13 31  1  0  0  0
 14 15  2  0  0  0
 14 94  1  0  0  0
 15 95  1  0  0  0
 16 17  2  0  0  0
 16 21  1  0  0  0
 16 31  1  0  0  0
 17 18  1  0  0  0
 17 96  1  0  0  0
 18 19  2  0  0  0
 18 97  1  0  0  0
 19 20  1  0  0  0
 19 24  1  0  0  0
 20 21  2  0  0  0
 20 98  1  0  0  0
 21 23  1  0  0  0
 22 28  1  0  0  0
 22 32  2  0  0  0
 26 27  1  0  0  0
 28 99  1  0  0  0
 28100  1  0  0  0
 29101  1  0  0  0
 29102  1  0  0  0
 33 34  1  0  0  0
 33 66  1  0  0  0
 33 70  2  0  0  0
 34 36  1  0  0  0
 34 59  1  0  0  0
 34103  1  0  0  0
 35 44  2  0  0  0
 35 45  1  0  0  0
 35 68  1  0  0  0
 36 56  1  0  0  0
 36104  1  0  0  0
 37 39  1  0  0  0
 37 47  1  0  0  0
 37 66  1  0  0  0
 37105  1  0  0  0
 38 43  2  0  0  0
 38 46  1  0  0  0
 38 47  1  0  0  0
 39 64  1  0  0  0
 39 67  2  0  0  0
 40 52  1  0  0  0
 40 53  2  0  0  0
 40 58  1  0  0  0
 41106  1  0  0  0
 41107  1  0  0  0
 41108  1  0  0  0
 41 48  1  0  0  0
 42 43  1  0  0  0
 42 66  1  0  0  0
 42109  1  0  0  0
 42110  1  0  0  0
 43 44  1  0  0  0
 44111  1  0  0  0
 45 46  2  0  0  0
 45112  1  0  0  0
 46113  1  0  0  0
 47114  1  0  0  0
 47115  1  0  0  0
 48 56  1  0  0  0
 48 65  1  0  0  0
 48116  1  0  0  0
 49 50  1  0  0  0
 49 53  1  0  0  0
 49 64  1  0  0  0
 49117  1  0  0  0
 50 51  1  0  0  0
 50118  1  0  0  0
 50119  1  0  0  0
 51 52  1  0  0  0
 51120  1  0  0  0
 51121  1  0  0  0
 52122  1  0  0  0
 52123  1  0  0  0
 53 54  1  0  0  0
 54 55  2  0  0  0
 54124  1  0  0  0
 55 57  1  0  0  0
 55125  1  0  0  0
 56 69  2  0  0  0
 57 58  2  0  0  0
 57126  1  0  0  0
 58127  1  0  0  0
 59 60  1  0  0  0
 59 61  1  0  0  0
 59 62  1  0  0  0
 60128  1  0  0  0
 60129  1  0  0  0
 60130  1  0  0  0
 61131  1  0  0  0
 61132  1  0  0  0
 61133  1  0  0  0
 62134  1  0  0  0
 62135  1  0  0  0
 62136  1  0  0  0
 63 65  1  0  0  0
 63137  1  0  0  0
 63138  1  0  0  0
 63139  1  0  0  0
 64140  1  0  0  0
 65141  1  0  0  0
 68 80  1  0  0  0
 71 72  2  0  0  0
 71 74  1  0  0  0
 71142  1  0  0  0
 72 75  1  0  0  0
 72143  1  0  0  0
 73 75  2  0  0  0
 73 76  1  0  0  0
 73144  1  0  0  0
 74 76  2  0  0  0
 74 77  1  0  0  0
 75 81  1  0  0  0
 76 82  1  0  0  0
 77 78  1  0  0  0
 77145  1  0  0  0
 77146  1  0  0  0
 78 79  1  0  0  0
 78147  1  0  0  0
 78148  1  0  0  0
 79 80  1  0  0  0
 79149  1  0  0  0
 79150  1  0  0  0
 80151  1  0  0  0
 80152  1  0  0  0
 81153  1  0  0  0
M  ISO  4   1 100  68 101  80 101  81 100
M  END
> <chiral flag>
0

> <version>
0

> <s_m_source_file>
/data/baiqing/PycharmProjects/Reinvent-master-3.2/result/LINK_invent/BTK/process_docking_weight1_custom_product_contain_oxygen_bond_distance_aromatic_linkinvent_7_9_3/rearranged_h_0137.sdf

> <i_m_source_file_index>
43

> <r_mmod_Potential_Energy-OPLS-2005>
55.4682464599609

> <r_mmod_Stretch_Energy-OPLS-2005>
65.4122848510742

> <r_mmod_Bend_Energy-OPLS-2005>
126.939765930176

> <r_mmod_Torsional_Energy-OPLS-2005>
228.95915222168

> <r_mmod_Improper_Torsional_Energy-OPLS-2005>
4.69818925857544

> <r_mmod_Van_der_Waal_Energy-OPLS-2005>
139.179122924805

> <r_mmod_Electrostatic_Energy-OPLS-2005>
-348.323272705078

> <r_mmod_Solvation_Energy-OPLS-2005>
-196.692398071289

> <b_mmod_Minimization_Converged-OPLS-2005>
0

> <r_mmod_RMS_Derivative-OPLS-2005>
1.57717990875244

$$$$
43
                    3D
 Structure written by MMmdl.
167175  0  0  1  0            999 V2000
  -30.6074  -14.5334   20.4377 C   0  0  0  0  0  0
  -30.4472  -12.3182   19.4014 C   0  0  0  0  0  0
  -29.4943  -12.4914   18.1963 C   0  0  0  0  0  0
  -28.0224  -12.3117   18.6288 C   0  0  0  0  0  0
  -27.6533  -13.1665   19.8694 C   0  0  2  0  0  0
  -28.7130  -12.9815   20.9843 C   0  0  0  0  0  0
  -25.2623  -13.8025   20.5778 C   0  0  0  0  0  0
  -24.1813  -13.0370   20.9174 C   0  0  0  0  0  0
  -24.6326  -11.6835   20.8724 C   0  0  0  0  0  0
  -23.8989  -10.4261   21.0415 C   0  0  0  0  0  0
  -24.3576   -9.4192   21.9183 C   0  0  0  0  0  0
  -23.6260   -8.2234   22.0757 C   0  0  0  0  0  0
  -22.4247   -8.0265   21.3549 C   0  0  0  0  0  0
  -21.9854   -9.0236   20.4649 C   0  0  0  0  0  0
  -22.7173  -10.2122   20.3043 C   0  0  0  0  0  0
  -21.6858   -6.0718   22.5280 C   0  0  0  0  0  0
  -21.4015   -6.5627   23.8207 C   0  0  0  0  0  0
  -21.3643   -5.6783   24.9170 C   0  0  0  0  0  0
  -21.6042   -4.3047   24.7230 C   0  0  0  0  0  0
  -21.8824   -3.8133   23.4352 C   0  0  0  0  0  0
  -21.9202   -4.6946   22.3407 C   0  0  0  0  0  0
  -22.7871  -13.5251   21.1878 C   0  0  0  0  0  0
  -22.1679   -4.2122   21.0989 F   0  0  0  0  0  0
  -21.5616   -3.4539   25.7751 F   0  0  0  0  0  0
  -30.0390  -13.2997   20.4113 N   0  0  0  0  0  0
  -26.2986  -12.9097   20.3381 N   0  0  0  0  0  0
  -25.9237  -11.6310   20.5747 N   0  0  0  0  0  0
  -22.0515  -12.8244   22.0408 N   0  0  0  0  0  0
  -25.4379  -15.1755   20.4405 N   0  0  0  0  0  0
  -31.7906  -14.7691   20.1753 O   0  0  0  0  0  0
  -21.6629   -6.8859   21.4243 O   0  0  0  0  0  0
  -22.3594  -14.5582   20.6731 O   0  0  0  0  0  0
  -24.6181  -31.8701   23.2082 C   0  0  0  0  0  0
  -25.9068  -32.4812   23.8397 C   0  0  1  0  0  0
  -27.2213  -27.4478   20.0587 C   0  0  0  0  0  0
  -25.5926  -33.8614   24.2344 N   0  0  0  0  0  0
  -23.4016  -30.4998   21.5534 C   0  0  2  0  0  0
  -24.8351  -28.9666   20.1108 C   0  0  0  0  0  0
  -22.7408  -29.4716   22.5012 C   0  0  0  0  0  0
  -18.0281  -28.1365   22.8479 C   0  0  0  0  0  0
  -24.1489  -36.7328   23.2640 C   0  0  0  0  0  0
  -25.9295  -30.8358   21.3584 C   0  0  0  0  0  0
  -25.9992  -29.4738   20.7022 C   0  0  0  0  0  0
  -27.1912  -28.7218   20.6714 C   0  0  0  0  0  0
  -26.0350  -26.9586   19.4582 C   0  0  0  0  0  0
  -24.8472  -27.7082   19.4905 C   0  0  0  0  0  0
  -23.6013  -29.8310   20.1680 C   0  0  0  0  0  0
  -25.4100  -36.3108   24.0338 C   0  0  1  0  0  0
  -20.5887  -28.3590   23.1255 C   0  0  2  0  0  0
  -20.6770  -26.9393   22.5215 C   0  0  0  0  0  0
  -19.5668  -26.6503   21.5061 C   0  0  0  0  0  0
  -18.1914  -26.7949   22.1574 C   0  0  0  0  0  0
  -19.1532  -28.8782   23.2900 C   0  0  0  0  0  0
  -18.9437  -30.1384   23.8874 C   0  0  0  0  0  0
  -17.6430  -30.6535   24.0570 C   0  0  0  0  0  0
  -25.9027  -34.9454   23.5117 C   0  0  0  0  0  0
  -16.5334  -29.9049   23.6284 C   0  0  0  0  0  0
  -16.7260  -28.6464   23.0310 C   0  0  0  0  0  0
  -26.4468  -31.6574   25.0723 C   0  0  0  0  0  0
  -25.3732  -31.3686   26.1473 C   0  0  0  0  0  0
  -27.0309  -30.3028   24.6073 C   0  0  0  0  0  0
  -27.6056  -32.4295   25.7492 C   0  0  0  0  0  0
  -27.5577  -37.1805   24.8462 C   0  0  0  0  0  0
  -21.4164  -29.2987   22.3695 N   0  0  0  0  0  0
  -26.4291  -37.3791   23.9401 N   0  0  0  0  0  0
  -24.6687  -31.0805   22.0997 N   0  0  0  0  0  0
  -23.4169  -28.8305   23.3089 O   0  0  0  0  0  0
  -28.4289  -26.7602   20.0374 O   0  0  0  0  0  0
  -26.5587  -34.8904   22.4678 O   0  0  0  0  0  0
  -23.5381  -32.1471   23.7462 O   0  0  0  0  0  0
  -30.3704  -17.7121   21.1743 C   0  0  0  0  0  0
  -28.6866  -17.5130   19.4404 C   0  0  0  0  0  0
  -28.3424  -18.8693   19.6824 C   0  0  0  0  0  0
  -29.6532  -16.8999   20.2787 C   0  0  0  0  0  0
  -29.0643  -19.5716   20.6760 C   0  0  0  0  0  0
  -27.7588  -22.9414   20.7227 C   0  0  0  0  0  0
  -27.9599  -16.7106   18.3649 C   0  0  0  0  0  0
  -27.3453  -20.1838   17.6783 C   0  0  0  0  0  0
  -26.6985  -24.8400   22.0072 C   0  0  0  0  0  0
  -29.0728  -24.2018   22.4956 C   0  0  0  0  0  0
  -27.1018  -19.4907   19.0309 C   0  0  0  0  0  0
  -28.9216  -21.9583   20.4990 C   0  0  0  0  0  0
  -28.5282  -25.3256   20.2304 C   0  0  0  0  0  0
  -28.0240  -24.3438   21.3535 C   0  0  0  0  0  0
  -30.0899  -19.0235   21.3622 N   0  0  0  0  0  0
  -29.6526  -15.4806   20.4018 N   0  0  0  0  0  0
  -26.6174  -22.6125   20.3858 O   0  0  0  0  0  0
  -28.6151  -20.7571   21.2029 O   0  0  0  0  0  0
  -31.4863  -12.4549   19.0916 H   0  0  0  0  0  0
  -30.3831  -11.3052   19.8039 H   0  0  0  0  0  0
  -29.7476  -11.7704   17.4183 H   0  0  0  0  0  0
  -29.6299  -13.4768   17.7440 H   0  0  0  0  0  0
  -27.8803  -11.2549   18.8585 H   0  0  0  0  0  0
  -27.3504  -12.5371   17.7982 H   0  0  0  0  0  0
  -27.6593  -14.1946   19.5314 H   0  0  0  0  0  0
  -28.7093  -11.9523   21.3465 H   0  0  0  0  0  0
  -28.4851  -13.6032   21.8538 H   0  0  0  0  0  0
  -25.2741   -9.5685   22.4728 H   0  0  0  0  0  0
  -23.9986   -7.4623   22.7468 H   0  0  0  0  0  0
  -21.0775   -8.8738   19.8959 H   0  0  0  0  0  0
  -22.3624  -10.9655   19.6129 H   0  0  0  0  0  0
  -21.2008   -7.6132   23.9700 H   0  0  0  0  0  0
  -21.1453   -6.0517   25.9069 H   0  0  0  0  0  0
  -22.0619   -2.7590   23.2874 H   0  0  0  0  0  0
  -22.4106  -11.9870   22.4736 H   0  0  0  0  0  0
  -21.1154  -13.1276   22.2670 H   0  0  0  0  0  0
  -24.6747  -15.8282   20.5855 H   0  0  0  0  0  0
  -26.3093  -15.6398   20.2301 H   0  0  0  0  0  0
  -26.7144  -32.5527   23.1180 H   0  0  0  0  0  0
  -25.0077  -33.9762   25.0485 H   0  0  0  0  0  0
  -22.6951  -31.3232   21.4182 H   0  0  0  0  0  0
  -23.3717  -35.9704   23.3303 H   0  0  0  0  0  0
  -24.3594  -36.8931   22.2055 H   0  0  0  0  0  0
  -23.7248  -37.6536   23.6656 H   0  0  0  0  0  0
  -26.0341  -31.5972   20.5844 H   0  0  0  0  0  0
  -26.8210  -30.8859   21.9726 H   0  0  0  0  0  0
  -28.0918  -29.1101   21.1239 H   0  0  0  0  0  0
  -25.9961  -26.0119   18.9400 H   0  0  0  0  0  0
  -23.9499  -27.3244   19.0236 H   0  0  0  0  0  0
  -23.7068  -30.6001   19.4043 H   0  0  0  0  0  0
  -22.7262  -29.2476   19.8834 H   0  0  0  0  0  0
  -25.1255  -36.1994   25.0834 H   0  0  0  0  0  0
  -21.0037  -28.3046   24.1353 H   0  0  0  0  0  0
  -20.5673  -26.2160   23.3289 H   0  0  0  0  0  0
  -21.6598  -26.7456   22.0896 H   0  0  0  0  0  0
  -19.6828  -25.6464   21.0949 H   0  0  0  0  0  0
  -19.6475  -27.3461   20.6696 H   0  0  0  0  0  0
  -18.0407  -26.0101   22.8984 H   0  0  0  0  0  0
  -17.4156  -26.6701   21.4017 H   0  0  0  0  0  0
  -19.7917  -30.7159   24.2261 H   0  0  0  0  0  0
  -17.4973  -31.6170   24.5256 H   0  0  0  0  0  0
  -15.5334  -30.2934   23.7601 H   0  0  0  0  0  0
  -15.8678  -28.0815   22.6928 H   0  0  0  0  0  0
  -24.5889  -30.7055   25.7785 H   0  0  0  0  0  0
  -24.8958  -32.2860   26.4936 H   0  0  0  0  0  0
  -25.8068  -30.8827   27.0223 H   0  0  0  0  0  0
  -26.2861  -29.6781   24.1138 H   0  0  0  0  0  0
  -27.4099  -29.7244   25.4497 H   0  0  0  0  0  0
  -27.8674  -30.4336   23.9217 H   0  0  0  0  0  0
  -27.2663  -33.3578   26.2109 H   0  0  0  0  0  0
  -28.3852  -32.6872   25.0308 H   0  0  0  0  0  0
  -28.0764  -31.8411   26.5379 H   0  0  0  0  0  0
  -28.2594  -38.0108   24.7500 H   0  0  0  0  0  0
  -28.1075  -36.2616   24.6302 H   0  0  0  0  0  0
  -27.2312  -37.1485   25.8881 H   0  0  0  0  0  0
  -20.9338  -29.8591   21.6831 H   0  0  0  0  0  0
  -26.0173  -38.2876   24.1398 H   0  0  0  0  0  0
  -31.0830  -17.2699   21.8566 H   0  0  0  0  0  0
  -26.9440  -16.4628   18.6686 H   0  0  0  0  0  0
  -28.4772  -15.7871   18.1128 H   0  0  0  0  0  0
  -27.8964  -17.2857   17.4423 H   0  0  0  0  0  0
  -26.4190  -20.6376   17.3266 H   0  0  0  0  0  0
  -27.6662  -19.4831   16.9096 H   0  0  0  0  0  0
  -28.0850  -20.9800   17.7284 H   0  0  0  0  0  0
  -26.3377  -24.1455   22.7665 H   0  0  0  0  0  0
  -25.8960  -24.9549   21.2779 H   0  0  0  0  0  0
  -26.8235  -25.8014   22.5050 H   0  0  0  0  0  0
  -28.9237  -23.3011   23.0907 H   0  0  0  0  0  0
  -29.0290  -25.0476   23.1819 H   0  0  0  0  0  0
  -30.0906  -24.1836   22.1007 H   0  0  0  0  0  0
  -26.6409  -20.1865   19.7315 H   0  0  0  0  0  0
  -26.3396  -18.7234   18.9037 H   0  0  0  0  0  0
  -29.8659  -22.3694   20.8515 H   0  0  0  0  0  0
  -29.0347  -21.7674   19.4345 H   0  0  0  0  0  0
  -28.6593  -25.9567   21.1072 H   0  0  0  0  0  0
  -27.7196  -25.1506   19.5322 H   0  0  0  0  0  0
  -28.7361  -15.0646   20.3790 H   0  0  0  0  0  0
  1 25  1  0  0  0
  1 30  2  0  0  0
  1 86  1  0  0  0
  2  3  1  0  0  0
  2 25  1  0  0  0
  2 89  1  0  0  0
  2 90  1  0  0  0
  3  4  1  0  0  0
  3 91  1  0  0  0
  3 92  1  0  0  0
  4  5  1  0  0  0
  4 93  1  0  0  0
  4 94  1  0  0  0
  5  6  1  0  0  0
  5 26  1  0  0  0
  5 95  1  0  0  0
  6 25  1  0  0  0
  6 96  1  0  0  0
  6 97  1  0  0  0
  7  8  2  0  0  0
  7 26  1  0  0  0
  7 29  1  0  0  0
  8  9  1  0  0  0
  8 22  1  0  0  0
  9 10  1  0  0  0
  9 27  2  0  0  0
 10 11  2  0  0  0
 10 15  1  0  0  0
 11 12  1  0  0  0
 11 98  1  0  0  0
 12 13  2  0  0  0
 12 99  1  0  0  0
 13 14  1  0  0  0
 13 31  1  0  0  0
 14 15  2  0  0  0
 14100  1  0  0  0
 15101  1  0  0  0
 16 17  2  0  0  0
 16 21  1  0  0  0
 16 31  1  0  0  0
 17 18  1  0  0  0
 17102  1  0  0  0
 18 19  2  0  0  0
 18103  1  0  0  0
 19 20  1  0  0  0
 19 24  1  0  0  0
 20 21  2  0  0  0
 20104  1  0  0  0
 21 23  1  0  0  0
 22 28  1  0  0  0
 22 32  2  0  0  0
 26 27  1  0  0  0
 28105  1  0  0  0
 28106  1  0  0  0
 29107  1  0  0  0
 29108  1  0  0  0
 33 34  1  0  0  0
 33 66  1  0  0  0
 33 70  2  0  0  0
 34 36  1  0  0  0
 34 59  1  0  0  0
 34109  1  0  0  0
 35 44  2  0  0  0
 35 45  1  0  0  0
 35 68  1  0  0  0
 36 56  1  0  0  0
 36110  1  0  0  0
 37 39  1  0  0  0
 37 47  1  0  0  0
 37 66  1  0  0  0
 37111  1  0  0  0
 38 43  2  0  0  0
 38 46  1  0  0  0
 38 47  1  0  0  0
 39 64  1  0  0  0
 39 67  2  0  0  0
 40 52  1  0  0  0
 40 53  2  0  0  0
 40 58  1  0  0  0
 41112  1  0  0  0
 41113  1  0  0  0
 41114  1  0  0  0
 41 48  1  0  0  0
 42 43  1  0  0  0
 42 66  1  0  0  0
 42115  1  0  0  0
 42116  1  0  0  0
 43 44  1  0  0  0
 44117  1  0  0  0
 45 46  2  0  0  0
 45118  1  0  0  0
 46119  1  0  0  0
 47120  1  0  0  0
 47121  1  0  0  0
 48 56  1  0  0  0
 48 65  1  0  0  0
 48122  1  0  0  0
 49 50  1  0  0  0
 49 53  1  0  0  0
 49 64  1  0  0  0
 49123  1  0  0  0
 50 51  1  0  0  0
 50124  1  0  0  0
 50125  1  0  0  0
 51 52  1  0  0  0
 51126  1  0  0  0
 51127  1  0  0  0
 52128  1  0  0  0
 52129  1  0  0  0
 53 54  1  0  0  0
 54 55  2  0  0  0
 54130  1  0  0  0
 55 57  1  0  0  0
 55131  1  0  0  0
 56 69  2  0  0  0
 57 58  2  0  0  0
 57132  1  0  0  0
 58133  1  0  0  0
 59 60  1  0  0  0
 59 61  1  0  0  0
 59 62  1  0  0  0
 60134  1  0  0  0
 60135  1  0  0  0
 60136  1  0  0  0
 61137  1  0  0  0
 61138  1  0  0  0
 61139  1  0  0  0
 62140  1  0  0  0
 62141  1  0  0  0
 62142  1  0  0  0
 63 65  1  0  0  0
 63143  1  0  0  0
 63144  1  0  0  0
 63145  1  0  0  0
 64146  1  0  0  0
 65147  1  0  0  0
 68 83  1  0  0  0
 71 74  2  0  0  0
 71 85  1  0  0  0
 71148  1  0  0  0
 72 73  2  0  0  0
 72 74  1  0  0  0
 72 77  1  0  0  0
 73 75  1  0  0  0
 73 81  1  0  0  0
 74 86  1  0  0  0
 75 85  2  0  0  0
 75 88  1  0  0  0
 76 82  1  0  0  0
 76 84  1  0  0  0
 76 87  2  0  0  0
 77149  1  0  0  0
 77150  1  0  0  0
 77151  1  0  0  0
 78 81  1  0  0  0
 78152  1  0  0  0
 78153  1  0  0  0
 78154  1  0  0  0
 79155  1  0  0  0
 79156  1  0  0  0
 79157  1  0  0  0
 79 84  1  0  0  0
 80 84  1  0  0  0
 80158  1  0  0  0
 80159  1  0  0  0
 80160  1  0  0  0
 81161  1  0  0  0
 81162  1  0  0  0
 82 88  1  0  0  0
 82163  1  0  0  0
 82164  1  0  0  0
 83 84  1  0  0  0
 83165  1  0  0  0
 83166  1  0  0  0
 86167  1  0  0  0
M  ISO  4   1 100  68 101  83 101  86 100
M  END
> <chiral flag>
0

> <version>
0

> <s_m_source_file>
/data/baiqing/PycharmProjects/Reinvent-master-3.2/result/LINK_invent/BTK/process_docking_weight1_custom_product_contain_oxygen_bond_distance_aromatic_linkinvent_7_9_3/rearranged_h_0137.sdf

> <i_m_source_file_index>
44

> <r_mmod_Potential_Energy-OPLS-2005>
130.718383789062

> <r_mmod_Stretch_Energy-OPLS-2005>
44.0352058410645

> <r_mmod_Bend_Energy-OPLS-2005>
360.954498291016

> <r_mmod_Torsional_Energy-OPLS-2005>
317.932983398438

> <r_mmod_Improper_Torsional_Energy-OPLS-2005>
15.0145502090454

> <r_mmod_Van_der_Waal_Energy-OPLS-2005>
178.266830444336

> <r_mmod_Electrostatic_Energy-OPLS-2005>
-587.012573242188

> <r_mmod_Solvation_Energy-OPLS-2005>
-223.247955322266

> <b_mmod_Minimization_Converged-OPLS-2005>
0

> <r_mmod_RMS_Derivative-OPLS-2005>
5.64558982849121

$$$$
44
                    3D
 Structure written by MMmdl.
159167  0  0  1  0            999 V2000
  -30.5846  -14.6239   20.5453 C   0  0  0  0  0  0
  -30.4406  -12.3897   19.4603 C   0  0  0  0  0  0
  -29.5126  -12.5282   18.2316 C   0  0  0  0  0  0
  -28.0318  -12.3630   18.6306 C   0  0  0  0  0  0
  -27.6566  -13.2122   19.8754 C   0  0  2  0  0  0
  -28.6922  -13.0188   21.0053 C   0  0  0  0  0  0
  -25.2569  -13.8162   20.5679 C   0  0  0  0  0  0
  -24.1836  -13.0438   20.9173 C   0  0  0  0  0  0
  -24.6388  -11.6906   20.8721 C   0  0  0  0  0  0
  -23.9069  -10.4294   21.0392 C   0  0  0  0  0  0
  -24.3627   -9.4211   21.9165 C   0  0  0  0  0  0
  -23.6304   -8.2245   22.0739 C   0  0  0  0  0  0
  -22.4280   -8.0277   21.3541 C   0  0  0  0  0  0
  -21.9917   -9.0250   20.4641 C   0  0  0  0  0  0
  -22.7243  -10.2128   20.3044 C   0  0  0  0  0  0
  -21.6851   -6.0743   22.5282 C   0  0  0  0  0  0
  -21.4012   -6.5651   23.8211 C   0  0  0  0  0  0
  -21.3662   -5.6804   24.9177 C   0  0  0  0  0  0
  -21.6040   -4.3065   24.7227 C   0  0  0  0  0  0
  -21.8819   -3.8156   23.4349 C   0  0  0  0  0  0
  -21.9188   -4.6975   22.3402 C   0  0  0  0  0  0
  -22.7858  -13.5222   21.1881 C   0  0  0  0  0  0
  -22.1659   -4.2161   21.0982 F   0  0  0  0  0  0
  -21.5628   -3.4544   25.7739 F   0  0  0  0  0  0
  -30.0133  -13.3811   20.4661 N   0  0  0  0  0  0
  -26.2994  -12.9329   20.3334 N   0  0  0  0  0  0
  -25.9309  -11.6490   20.5735 N   0  0  0  0  0  0
  -22.0534  -12.8177   22.0438 N   0  0  0  0  0  0
  -25.4323  -15.1886   20.4122 N   0  0  0  0  0  0
  -31.6953  -14.8597   20.0565 O   0  0  0  0  0  0
  -21.6643   -6.8882   21.4238 O   0  0  0  0  0  0
  -22.3540  -14.5540   20.6766 O   0  0  0  0  0  0
  -24.6237  -31.8612   23.2001 C   0  0  0  0  0  0
  -25.9078  -32.4783   23.8352 C   0  0  1  0  0  0
  -27.2223  -27.3236   20.1202 C   0  0  0  0  0  0
  -25.5883  -33.8583   24.2261 N   0  0  0  0  0  0
  -23.4180  -30.4846   21.5412 C   0  0  2  0  0  0
  -24.8617  -28.9375   20.1075 C   0  0  0  0  0  0
  -22.7492  -29.4634   22.4925 C   0  0  0  0  0  0
  -18.0312  -28.1413   22.8442 C   0  0  0  0  0  0
  -24.1473  -36.7314   23.2652 C   0  0  0  0  0  0
  -25.9557  -30.7954   21.3668 C   0  0  0  0  0  0
  -26.0268  -29.4201   20.7155 C   0  0  0  0  0  0
  -27.2064  -28.6213   20.7160 C   0  0  0  0  0  0
  -26.0337  -26.8899   19.4902 C   0  0  0  0  0  0
  -24.8674  -27.6775   19.4876 C   0  0  0  0  0  0
  -23.6303  -29.8199   20.1548 C   0  0  0  0  0  0
  -25.4096  -36.3092   24.0340 C   0  0  1  0  0  0
  -20.5888  -28.3722   23.1293 C   0  0  2  0  0  0
  -20.6764  -26.9391   22.5549 C   0  0  0  0  0  0
  -19.5822  -26.6272   21.5290 C   0  0  0  0  0  0
  -18.1948  -26.7951   22.1579 C   0  0  0  0  0  0
  -19.1544  -28.8889   23.2854 C   0  0  0  0  0  0
  -18.9449  -30.1489   23.8864 C   0  0  0  0  0  0
  -17.6446  -30.6621   24.0512 C   0  0  0  0  0  0
  -25.9036  -34.9465   23.5111 C   0  0  0  0  0  0
  -16.5346  -29.9103   23.6292 C   0  0  0  0  0  0
  -16.7298  -28.6514   23.0335 C   0  0  0  0  0  0
  -26.4469  -31.6599   25.0724 C   0  0  0  0  0  0
  -25.3720  -31.3719   26.1461 C   0  0  0  0  0  0
  -27.0300  -30.3031   24.6148 C   0  0  0  0  0  0
  -27.6046  -32.4323   25.7487 C   0  0  0  0  0  0
  -27.5569  -37.1802   24.8470 C   0  0  0  0  0  0
  -21.4212  -29.3029   22.3656 N   0  0  0  0  0  0
  -26.4286  -37.3772   23.9407 N   0  0  0  0  0  0
  -24.6848  -31.0652   22.0932 N   0  0  0  0  0  0
  -23.4214  -28.8213   23.3045 O   0  0  0  0  0  0
  -28.3659  -26.5173   20.1937 O   0  0  0  0  0  0
  -26.5620  -34.8941   22.4683 O   0  0  0  0  0  0
  -23.5393  -32.1404   23.7308 O   0  0  0  0  0  0
  -29.1094  -19.0030   19.5614 C   0  0  0  0  0  0
  -29.5701  -17.6523   19.6955 C   0  0  0  0  0  0
  -29.2743  -17.8130   22.0752 C   0  0  0  0  0  0
  -28.6843  -19.7845   20.6746 C   0  0  0  0  0  0
  -29.6257  -17.0090   20.9615 C   0  0  0  0  0  0
  -28.8262  -19.1579   21.9435 C   0  0  0  0  0  0
  -27.8895  -21.0902   20.5264 C   0  0  0  0  0  0
  -26.7080  -24.0257   21.2042 C   0  0  0  0  0  0
  -29.0977  -24.0070   21.9086 C   0  0  0  0  0  0
  -28.4681  -22.4583   19.9819 C   0  0  0  0  0  0
  -28.4240  -25.1193   19.7100 C   0  0  0  0  0  0
  -28.1588  -23.8843   20.6928 C   0  0  0  0  0  0
  -26.6527  -21.0408   20.7945 N   0  0  0  0  0  0
  -29.8246  -15.5761   21.1675 N   0  0  0  0  0  0
  -28.4661  -19.8220   23.0703 F   0  0  0  0  0  0
  -31.4842  -12.5242   19.1726 H   0  0  0  0  0  0
  -30.3736  -11.3835   19.8767 H   0  0  0  0  0  0
  -29.7822  -11.7918   17.4737 H   0  0  0  0  0  0
  -29.6581  -13.5074   17.7722 H   0  0  0  0  0  0
  -27.8623  -11.3061   18.8395 H   0  0  0  0  0  0
  -27.3826  -12.6138   17.7904 H   0  0  0  0  0  0
  -27.6889  -14.2573   19.5653 H   0  0  0  0  0  0
  -28.7006  -11.9812   21.3428 H   0  0  0  0  0  0
  -28.4215  -13.6029   21.8852 H   0  0  0  0  0  0
  -25.2777   -9.5691   22.4734 H   0  0  0  0  0  0
  -24.0018   -7.4644   22.7457 H   0  0  0  0  0  0
  -21.0843   -8.8774   19.8950 H   0  0  0  0  0  0
  -22.3702  -10.9669   19.6159 H   0  0  0  0  0  0
  -21.2006   -7.6160   23.9716 H   0  0  0  0  0  0
  -21.1484   -6.0538   25.9080 H   0  0  0  0  0  0
  -22.0593   -2.7618   23.2842 H   0  0  0  0  0  0
  -22.4170  -11.9819   22.4782 H   0  0  0  0  0  0
  -21.1158  -13.1168   22.2694 H   0  0  0  0  0  0
  -24.6710  -15.8488   20.5271 H   0  0  0  0  0  0
  -26.2926  -15.6282   20.1117 H   0  0  0  0  0  0
  -26.7174  -32.5433   23.1129 H   0  0  0  0  0  0
  -24.9941  -33.9709   25.0342 H   0  0  0  0  0  0
  -22.7118  -31.3056   21.3975 H   0  0  0  0  0  0
  -23.3712  -35.9671   23.3328 H   0  0  0  0  0  0
  -24.3593  -36.8904   22.2068 H   0  0  0  0  0  0
  -23.7240  -37.6528   23.6665 H   0  0  0  0  0  0
  -26.0790  -31.5564   20.5955 H   0  0  0  0  0  0
  -26.8401  -30.8494   21.9913 H   0  0  0  0  0  0
  -28.0999  -28.9835   21.2053 H   0  0  0  0  0  0
  -25.9652  -25.9266   19.0110 H   0  0  0  0  0  0
  -23.9737  -27.2988   19.0114 H   0  0  0  0  0  0
  -23.7540  -30.5968   19.4003 H   0  0  0  0  0  0
  -22.7467  -29.2577   19.8452 H   0  0  0  0  0  0
  -25.1270  -36.1973   25.0837 H   0  0  0  0  0  0
  -20.9972  -28.3403   24.1422 H   0  0  0  0  0  0
  -20.5502  -26.2397   23.3833 H   0  0  0  0  0  0
  -21.6668  -26.7291   22.1506 H   0  0  0  0  0  0
  -19.6968  -25.6089   21.1535 H   0  0  0  0  0  0
  -19.6897  -27.2876   20.6678 H   0  0  0  0  0  0
  -17.4276  -26.6744   21.3909 H   0  0  0  0  0  0
  -18.0187  -26.0145   22.8978 H   0  0  0  0  0  0
  -19.7916  -30.7318   24.2240 H   0  0  0  0  0  0
  -17.4992  -31.6296   24.5103 H   0  0  0  0  0  0
  -15.5346  -30.3004   23.7613 H   0  0  0  0  0  0
  -15.8713  -28.0807   22.7056 H   0  0  0  0  0  0
  -24.5911  -30.7042   25.7797 H   0  0  0  0  0  0
  -24.8886  -32.2864   26.4908 H   0  0  0  0  0  0
  -25.8075  -30.8900   27.0219 H   0  0  0  0  0  0
  -26.2843  -29.6805   24.1181 H   0  0  0  0  0  0
  -27.4012  -29.7276   25.4634 H   0  0  0  0  0  0
  -27.8723  -30.4324   23.9349 H   0  0  0  0  0  0
  -27.2674  -33.3619   26.2082 H   0  0  0  0  0  0
  -28.3857  -32.6863   25.0315 H   0  0  0  0  0  0
  -28.0728  -31.8432   26.5380 H   0  0  0  0  0  0
  -28.2591  -38.0084   24.7472 H   0  0  0  0  0  0
  -28.1049  -36.2609   24.6339 H   0  0  0  0  0  0
  -27.2311  -37.1517   25.8881 H   0  0  0  0  0  0
  -20.9421  -29.8735   21.6840 H   0  0  0  0  0  0
  -26.0176  -38.2867   24.1342 H   0  0  0  0  0  0
  -28.9985  -19.4128   18.5682 H   0  0  0  0  0  0
  -29.7985  -17.0882   18.8020 H   0  0  0  0  0  0
  -29.2969  -17.3854   23.0664 H   0  0  0  0  0  0
  -26.4779  -23.3268   22.0090 H   0  0  0  0  0  0
  -25.9845  -23.8775   20.4019 H   0  0  0  0  0  0
  -26.5409  -25.0196   21.6210 H   0  0  0  0  0  0
  -28.9413  -24.9396   22.4520 H   0  0  0  0  0  0
  -28.9375  -23.1894   22.6131 H   0  0  0  0  0  0
  -30.1449  -23.9813   21.6082 H   0  0  0  0  0  0
  -28.1273  -22.5289   18.9475 H   0  0  0  0  0  0
  -29.5474  -22.3402   19.8954 H   0  0  0  0  0  0
  -27.8420  -25.0007   18.7976 H   0  0  0  0  0  0
  -29.4495  -25.0023   19.3576 H   0  0  0  0  0  0
  -26.2032  -21.9398   20.6605 H   0  0  0  0  0  0
  -29.1206  -15.1572   21.7568 H   0  0  0  0  0  0
  1 25  1  0  0  0
  1 30  2  0  0  0
  1 84  1  0  0  0
  2  3  1  0  0  0
  2 25  1  0  0  0
  2 86  1  0  0  0
  2 87  1  0  0  0
  3  4  1  0  0  0
  3 88  1  0  0  0
  3 89  1  0  0  0
  4  5  1  0  0  0
  4 90  1  0  0  0
  4 91  1  0  0  0
  5  6  1  0  0  0
  5 26  1  0  0  0
  5 92  1  0  0  0
  6 25  1  0  0  0
  6 93  1  0  0  0
  6 94  1  0  0  0
  7  8  2  0  0  0
  7 26  1  0  0  0
  7 29  1  0  0  0
  8  9  1  0  0  0
  8 22  1  0  0  0
  9 10  1  0  0  0
  9 27  2  0  0  0
 10 11  2  0  0  0
 10 15  1  0  0  0
 11 12  1  0  0  0
 11 95  1  0  0  0
 12 13  2  0  0  0
 12 96  1  0  0  0
 13 14  1  0  0  0
 13 31  1  0  0  0
 14 15  2  0  0  0
 14 97  1  0  0  0
 15 98  1  0  0  0
 16 17  2  0  0  0
 16 21  1  0  0  0
 16 31  1  0  0  0
 17 18  1  0  0  0
 17 99  1  0  0  0
 18 19  2  0  0  0
 18100  1  0  0  0
 19 20  1  0  0  0
 19 24  1  0  0  0
 20 21  2  0  0  0
 20101  1  0  0  0
 21 23  1  0  0  0
 22 28  1  0  0  0
 22 32  2  0  0  0
 26 27  1  0  0  0
 28102  1  0  0  0
 28103  1  0  0  0
 29104  1  0  0  0
 29105  1  0  0  0
 33 34  1  0  0  0
 33 66  1  0  0  0
 33 70  2  0  0  0
 34 36  1  0  0  0
 34 59  1  0  0  0
 34106  1  0  0  0
 35 44  2  0  0  0
 35 45  1  0  0  0
 35 68  1  0  0  0
 36 56  1  0  0  0
 36107  1  0  0  0
 37 39  1  0  0  0
 37 47  1  0  0  0
 37 66  1  0  0  0
 37108  1  0  0  0
 38 43  2  0  0  0
 38 46  1  0  0  0
 38 47  1  0  0  0
 39 64  1  0  0  0
 39 67  2  0  0  0
 40 52  1  0  0  0
 40 53  2  0  0  0
 40 58  1  0  0  0
 41109  1  0  0  0
 41110  1  0  0  0
 41111  1  0  0  0
 41 48  1  0  0  0
 42 43  1  0  0  0
 42 66  1  0  0  0
 42112  1  0  0  0
 42113  1  0  0  0
 43 44  1  0  0  0
 44114  1  0  0  0
 45 46  2  0  0  0
 45115  1  0  0  0
 46116  1  0  0  0
 47117  1  0  0  0
 47118  1  0  0  0
 48 56  1  0  0  0
 48 65  1  0  0  0
 48119  1  0  0  0
 49 50  1  0  0  0
 49 53  1  0  0  0
 49 64  1  0  0  0
 49120  1  0  0  0
 50 51  1  0  0  0
 50121  1  0  0  0
 50122  1  0  0  0
 51 52  1  0  0  0
 51123  1  0  0  0
 51124  1  0  0  0
 52125  1  0  0  0
 52126  1  0  0  0
 53 54  1  0  0  0
 54 55  2  0  0  0
 54127  1  0  0  0
 55 57  1  0  0  0
 55128  1  0  0  0
 56 69  2  0  0  0
 57 58  2  0  0  0
 57129  1  0  0  0
 58130  1  0  0  0
 59 60  1  0  0  0
 59 61  1  0  0  0
 59 62  1  0  0  0
 60131  1  0  0  0
 60132  1  0  0  0
 60133  1  0  0  0
 61134  1  0  0  0
 61135  1  0  0  0
 61136  1  0  0  0
 62137  1  0  0  0
 62138  1  0  0  0
 62139  1  0  0  0
 63 65  1  0  0  0
 63140  1  0  0  0
 63141  1  0  0  0
 63142  1  0  0  0
 64143  1  0  0  0
 65144  1  0  0  0
 68 81  1  0  0  0
 71 72  2  0  0  0
 71 74  1  0  0  0
 71145  1  0  0  0
 72 75  1  0  0  0
 72146  1  0  0  0
 73 75  2  0  0  0
 73 76  1  0  0  0
 73147  1  0  0  0
 74 76  2  0  0  0
 74 77  1  0  0  0
 75 84  1  0  0  0
 76 85  1  0  0  0
 77 80  1  0  0  0
 77 83  2  0  0  0
 78148  1  0  0  0
 78149  1  0  0  0
 78150  1  0  0  0
 78 82  1  0  0  0
 79 82  1  0  0  0
 79151  1  0  0  0
 79152  1  0  0  0
 79153  1  0  0  0
 80 82  1  0  0  0
 80154  1  0  0  0
 80155  1  0  0  0
 81 82  1  0  0  0
 81156  1  0  0  0
 81157  1  0  0  0
 83158  1  0  0  0
 84159  1  0  0  0
M  ISO  4   1 100  68 101  81 101  84 100
M  END
> <chiral flag>
0

> <version>
0

> <s_m_source_file>
/data/baiqing/PycharmProjects/Reinvent-master-3.2/result/LINK_invent/BTK/process_docking_weight1_custom_product_contain_oxygen_bond_distance_aromatic_linkinvent_7_9_3/rearranged_h_0137.sdf

> <i_m_source_file_index>
45

> <r_mmod_Potential_Energy-OPLS-2005>
171.13606262207

> <r_mmod_Stretch_Energy-OPLS-2005>
85.6845550537109

> <r_mmod_Bend_Energy-OPLS-2005>
166.603958129883

> <r_mmod_Torsional_Energy-OPLS-2005>
253.028869628906

> <r_mmod_Improper_Torsional_Energy-OPLS-2005>
5.84152984619141

> <r_mmod_Van_der_Waal_Energy-OPLS-2005>
140.291381835938

> <r_mmod_Electrostatic_Energy-OPLS-2005>
-315.673248291016

> <r_mmod_Solvation_Energy-OPLS-2005>
-210.211196899414

> <b_mmod_Minimization_Converged-OPLS-2005>
0

> <r_mmod_RMS_Derivative-OPLS-2005>
2.54397869110107

$$$$
45
                    3D
 Structure written by MMmdl.
162170  0  0  1  0            999 V2000
  -30.5766  -14.6881   20.4718 C   0  0  0  0  0  0
  -30.4251  -12.4130   19.4803 C   0  0  0  0  0  0
  -29.5098  -12.5172   18.2386 C   0  0  0  0  0  0
  -28.0312  -12.3475   18.6378 C   0  0  0  0  0  0
  -27.6450  -13.2225   19.8607 C   0  0  2  0  0  0
  -28.6802  -13.0954   21.0006 C   0  0  0  0  0  0
  -25.2529  -13.8181   20.5655 C   0  0  0  0  0  0
  -24.1811  -13.0426   20.9191 C   0  0  0  0  0  0
  -24.6389  -11.6915   20.8731 C   0  0  0  0  0  0
  -23.9054  -10.4284   21.0380 C   0  0  0  0  0  0
  -24.3614   -9.4199   21.9151 C   0  0  0  0  0  0
  -23.6292   -8.2240   22.0713 C   0  0  0  0  0  0
  -22.4272   -8.0280   21.3525 C   0  0  0  0  0  0
  -21.9920   -9.0242   20.4622 C   0  0  0  0  0  0
  -22.7233  -10.2115   20.3032 C   0  0  0  0  0  0
  -21.6865   -6.0726   22.5270 C   0  0  0  0  0  0
  -21.4016   -6.5629   23.8198 C   0  0  0  0  0  0
  -21.3675   -5.6775   24.9160 C   0  0  0  0  0  0
  -21.6065   -4.3044   24.7216 C   0  0  0  0  0  0
  -21.8836   -3.8139   23.4341 C   0  0  0  0  0  0
  -21.9202   -4.6957   22.3391 C   0  0  0  0  0  0
  -22.7862  -13.5198   21.1891 C   0  0  0  0  0  0
  -22.1671   -4.2149   21.0970 F   0  0  0  0  0  0
  -21.5639   -3.4538   25.7733 F   0  0  0  0  0  0
  -29.9896  -13.4477   20.4448 N   0  0  0  0  0  0
  -26.2937  -12.9358   20.3284 N   0  0  0  0  0  0
  -25.9317  -11.6508   20.5738 N   0  0  0  0  0  0
  -22.0546  -12.8129   22.0446 N   0  0  0  0  0  0
  -25.4278  -15.1894   20.4073 N   0  0  0  0  0  0
  -31.7443  -14.8276   20.0889 O   0  0  0  0  0  0
  -21.6650   -6.8873   21.4228 O   0  0  0  0  0  0
  -22.3530  -14.5498   20.6756 O   0  0  0  0  0  0
  -24.6217  -31.8555   23.2060 C   0  0  0  0  0  0
  -25.9053  -32.4773   23.8345 C   0  0  1  0  0  0
  -27.2149  -27.2842   20.1258 C   0  0  0  0  0  0
  -25.5876  -33.8580   24.2257 N   0  0  0  0  0  0
  -23.4164  -30.4815   21.5485 C   0  0  2  0  0  0
  -24.8629  -28.9339   20.1117 C   0  0  0  0  0  0
  -22.7460  -29.4611   22.4974 C   0  0  0  0  0  0
  -18.0267  -28.1402   22.8560 C   0  0  0  0  0  0
  -24.1516  -36.7281   23.2666 C   0  0  0  0  0  0
  -25.9606  -30.7815   21.3776 C   0  0  0  0  0  0
  -26.0342  -29.4080   20.7143 C   0  0  0  0  0  0
  -27.2084  -28.5964   20.7034 C   0  0  0  0  0  0
  -26.0092  -26.8526   19.5320 C   0  0  0  0  0  0
  -24.8549  -27.6654   19.5117 C   0  0  0  0  0  0
  -23.6319  -29.8170   20.1639 C   0  0  0  0  0  0
  -25.4152  -36.3067   24.0346 C   0  0  1  0  0  0
  -20.5876  -28.3685   23.1365 C   0  0  2  0  0  0
  -20.6822  -26.9425   22.5448 C   0  0  0  0  0  0
  -19.5777  -26.6405   21.5275 C   0  0  0  0  0  0
  -18.1923  -26.7972   22.1646 C   0  0  0  0  0  0
  -19.1522  -28.8858   23.2970 C   0  0  0  0  0  0
  -18.9432  -30.1476   23.8968 C   0  0  0  0  0  0
  -17.6423  -30.6627   24.0555 C   0  0  0  0  0  0
  -25.9056  -34.9443   23.5108 C   0  0  0  0  0  0
  -16.5335  -29.9104   23.6331 C   0  0  0  0  0  0
  -16.7256  -28.6509   23.0410 C   0  0  0  0  0  0
  -26.4463  -31.6608   25.0701 C   0  0  0  0  0  0
  -25.3713  -31.3666   26.1428 C   0  0  0  0  0  0
  -27.0318  -30.3061   24.6082 C   0  0  0  0  0  0
  -27.6010  -32.4403   25.7427 C   0  0  0  0  0  0
  -27.5608  -37.1783   24.8470 C   0  0  0  0  0  0
  -21.4183  -29.3016   22.3727 N   0  0  0  0  0  0
  -26.4335  -37.3762   23.9414 N   0  0  0  0  0  0
  -24.6869  -31.0556   22.1022 N   0  0  0  0  0  0
  -23.4200  -28.8186   23.3068 O   0  0  0  0  0  0
  -28.3711  -26.4821   20.2011 O   0  0  0  0  0  0
  -26.5607  -34.8901   22.4668 O   0  0  0  0  0  0
  -23.5382  -32.1385   23.7396 O   0  0  0  0  0  0
  -30.0510  -18.4925   18.1547 C   0  0  0  0  0  0
  -29.5533  -19.6443   18.7927 C   0  0  0  0  0  0
  -30.1513  -17.2602   18.8284 C   0  0  0  0  0  0
  -29.1957  -18.3161   20.7995 C   0  0  0  0  0  0
  -29.1167  -19.6117   20.1355 C   0  0  0  0  0  0
  -29.7351  -17.1206   20.1732 C   0  0  0  0  0  0
  -29.2946  -21.1584   22.1645 C   0  0  0  0  0  0
  -30.1736  -25.1784   19.7296 C   0  0  0  0  0  0
  -28.2348  -24.9799   18.1889 C   0  0  0  0  0  0
  -28.6823  -22.3266   19.9376 C   0  0  0  0  0  0
  -28.2183  -23.7801   20.4940 C   0  0  0  0  0  0
  -28.5951  -20.9624   20.8076 C   0  0  1  0  0  0
  -28.6352  -25.1058   19.6704 C   0  0  0  0  0  0
  -29.7864  -15.7785   20.7995 N   0  0  0  0  0  0
  -31.4690  -12.5405   19.1857 H   0  0  0  0  0  0
  -30.3574  -11.4201   19.9260 H   0  0  0  0  0  0
  -29.7877  -11.7653   17.4990 H   0  0  0  0  0  0
  -29.6542  -13.4867   17.7583 H   0  0  0  0  0  0
  -27.8702  -11.2955   18.8689 H   0  0  0  0  0  0
  -27.3852  -12.5727   17.7899 H   0  0  0  0  0  0
  -27.6525  -14.2541   19.5118 H   0  0  0  0  0  0
  -28.7007  -12.0764   21.3921 H   0  0  0  0  0  0
  -28.4181  -13.7338   21.8451 H   0  0  0  0  0  0
  -25.2762   -9.5689   22.4723 H   0  0  0  0  0  0
  -24.0030   -7.4629   22.7403 H   0  0  0  0  0  0
  -21.0874   -8.8745   19.8916 H   0  0  0  0  0  0
  -22.3683  -10.9650   19.6155 H   0  0  0  0  0  0
  -21.1983   -7.6137   23.9693 H   0  0  0  0  0  0
  -21.1499   -6.0511   25.9054 H   0  0  0  0  0  0
  -22.0609   -2.7612   23.2832 H   0  0  0  0  0  0
  -22.4192  -11.9790   22.4795 H   0  0  0  0  0  0
  -21.1167  -13.1120   22.2673 H   0  0  0  0  0  0
  -24.6694  -15.8554   20.5045 H   0  0  0  0  0  0
  -26.2856  -15.6209   20.0833 H   0  0  0  0  0  0
  -26.7081  -32.5447   23.1051 H   0  0  0  0  0  0
  -25.0035  -33.9774   25.0385 H   0  0  0  0  0  0
  -22.7085  -31.3020   21.4091 H   0  0  0  0  0  0
  -23.3800  -35.9583   23.3319 H   0  0  0  0  0  0
  -24.3608  -36.8902   22.2076 H   0  0  0  0  0  0
  -23.7225  -37.6470   23.6693 H   0  0  0  0  0  0
  -26.0943  -31.5494   20.6153 H   0  0  0  0  0  0
  -26.8419  -30.8299   22.0042 H   0  0  0  0  0  0
  -28.1121  -28.9576   21.1750 H   0  0  0  0  0  0
  -25.9151  -25.8674   19.1135 H   0  0  0  0  0  0
  -23.9472  -27.2934   19.0517 H   0  0  0  0  0  0
  -23.7427  -30.5953   19.4076 H   0  0  0  0  0  0
  -22.7498  -29.2453   19.8680 H   0  0  0  0  0  0
  -25.1331  -36.1930   25.0840 H   0  0  0  0  0  0
  -20.9963  -28.3262   24.1492 H   0  0  0  0  0  0
  -20.5862  -26.2253   23.3610 H   0  0  0  0  0  0
  -21.6684  -26.7566   22.1146 H   0  0  0  0  0  0
  -19.6978  -25.6312   21.1293 H   0  0  0  0  0  0
  -19.6775  -27.3249   20.6833 H   0  0  0  0  0  0
  -17.4239  -26.6776   21.3991 H   0  0  0  0  0  0
  -18.0295  -26.0068   22.8982 H   0  0  0  0  0  0
  -19.7897  -30.7294   24.2401 H   0  0  0  0  0  0
  -17.4954  -31.6321   24.5114 H   0  0  0  0  0  0
  -15.5335  -30.2999   23.7661 H   0  0  0  0  0  0
  -15.8647  -28.0800   22.7171 H   0  0  0  0  0  0
  -24.5880  -30.7047   25.7696 H   0  0  0  0  0  0
  -24.8925  -32.2808   26.4958 H   0  0  0  0  0  0
  -25.8063  -30.8726   27.0120 H   0  0  0  0  0  0
  -26.2845  -29.6771   24.1215 H   0  0  0  0  0  0
  -27.4196  -29.7315   25.4492 H   0  0  0  0  0  0
  -27.8631  -30.4398   23.9153 H   0  0  0  0  0  0
  -27.2600  -33.3706   26.1967 H   0  0  0  0  0  0
  -28.3772  -32.6980   25.0220 H   0  0  0  0  0  0
  -28.0704  -31.8565   26.5339 H   0  0  0  0  0  0
  -28.2591  -38.0099   24.7536 H   0  0  0  0  0  0
  -28.1123  -36.2631   24.6290 H   0  0  0  0  0  0
  -27.2309  -37.1406   25.8856 H   0  0  0  0  0  0
  -20.9363  -29.8557   21.6790 H   0  0  0  0  0  0
  -26.0213  -38.2838   24.1394 H   0  0  0  0  0  0
  -30.3623  -18.5526   17.1197 H   0  0  0  0  0  0
  -29.5203  -20.5547   18.2125 H   0  0  0  0  0  0
  -30.5282  -16.4140   18.2712 H   0  0  0  0  0  0
  -28.8408  -18.2428   21.8183 H   0  0  0  0  0  0
  -29.1108  -20.3166   22.8321 H   0  0  0  0  0  0
  -28.9339  -22.0439   22.6855 H   0  0  0  0  0  0
  -30.3732  -21.2491   22.0363 H   0  0  0  0  0  0
  -30.5587  -26.0654   19.2275 H   0  0  0  0  0  0
  -30.6555  -24.3174   19.2661 H   0  0  0  0  0  0
  -30.5180  -25.2304   20.7641 H   0  0  0  0  0  0
  -28.3872  -25.9147   17.6516 H   0  0  0  0  0  0
  -27.1984  -24.6709   18.0659 H   0  0  0  0  0  0
  -28.8306  -24.2164   17.6864 H   0  0  0  0  0  0
  -29.7184  -22.3994   19.6160 H   0  0  0  0  0  0
  -28.1117  -22.1656   19.0209 H   0  0  0  0  0  0
  -28.5959  -23.9051   21.5067 H   0  0  0  0  0  0
  -27.1348  -23.7736   20.6029 H   0  0  0  0  0  0
  -27.5347  -20.8025   21.0182 H   0  0  0  0  0  0
  -28.9982  -15.5536   21.3888 H   0  0  0  0  0  0
  1 25  1  0  0  0
  1 30  2  0  0  0
  1 84  1  0  0  0
  2  3  1  0  0  0
  2 25  1  0  0  0
  2 85  1  0  0  0
  2 86  1  0  0  0
  3  4  1  0  0  0
  3 87  1  0  0  0
  3 88  1  0  0  0
  4  5  1  0  0  0
  4 89  1  0  0  0
  4 90  1  0  0  0
  5  6  1  0  0  0
  5 26  1  0  0  0
  5 91  1  0  0  0
  6 25  1  0  0  0
  6 92  1  0  0  0
  6 93  1  0  0  0
  7  8  2  0  0  0
  7 26  1  0  0  0
  7 29  1  0  0  0
  8  9  1  0  0  0
  8 22  1  0  0  0
  9 10  1  0  0  0
  9 27  2  0  0  0
 10 11  2  0  0  0
 10 15  1  0  0  0
 11 12  1  0  0  0
 11 94  1  0  0  0
 12 13  2  0  0  0
 12 95  1  0  0  0
 13 14  1  0  0  0
 13 31  1  0  0  0
 14 15  2  0  0  0
 14 96  1  0  0  0
 15 97  1  0  0  0
 16 17  2  0  0  0
 16 21  1  0  0  0
 16 31  1  0  0  0
 17 18  1  0  0  0
 17 98  1  0  0  0
 18 19  2  0  0  0
 18 99  1  0  0  0
 19 20  1  0  0  0
 19 24  1  0  0  0
 20 21  2  0  0  0
 20100  1  0  0  0
 21 23  1  0  0  0
 22 28  1  0  0  0
 22 32  2  0  0  0
 26 27  1  0  0  0
 28101  1  0  0  0
 28102  1  0  0  0
 29103  1  0  0  0
 29104  1  0  0  0
 33 34  1  0  0  0
 33 66  1  0  0  0
 33 70  2  0  0  0
 34 36  1  0  0  0
 34 59  1  0  0  0
 34105  1  0  0  0
 35 44  2  0  0  0
 35 45  1  0  0  0
 35 68  1  0  0  0
 36 56  1  0  0  0
 36106  1  0  0  0
 37 39  1  0  0  0
 37 47  1  0  0  0
 37 66  1  0  0  0
 37107  1  0  0  0
 38 43  2  0  0  0
 38 46  1  0  0  0
 38 47  1  0  0  0
 39 64  1  0  0  0
 39 67  2  0  0  0
 40 52  1  0  0  0
 40 53  2  0  0  0
 40 58  1  0  0  0
 41108  1  0  0  0
 41109  1  0  0  0
 41110  1  0  0  0
 41 48  1  0  0  0
 42 43  1  0  0  0
 42 66  1  0  0  0
 42111  1  0  0  0
 42112  1  0  0  0
 43 44  1  0  0  0
 44113  1  0  0  0
 45 46  2  0  0  0
 45114  1  0  0  0
 46115  1  0  0  0
 47116  1  0  0  0
 47117  1  0  0  0
 48 56  1  0  0  0
 48 65  1  0  0  0
 48118  1  0  0  0
 49 50  1  0  0  0
 49 53  1  0  0  0
 49 64  1  0  0  0
 49119  1  0  0  0
 50 51  1  0  0  0
 50120  1  0  0  0
 50121  1  0  0  0
 51 52  1  0  0  0
 51122  1  0  0  0
 51123  1  0  0  0
 52124  1  0  0  0
 52125  1  0  0  0
 53 54  1  0  0  0
 54 55  2  0  0  0
 54126  1  0  0  0
 55 57  1  0  0  0
 55127  1  0  0  0
 56 69  2  0  0  0
 57 58  2  0  0  0
 57128  1  0  0  0
 58129  1  0  0  0
 59 60  1  0  0  0
 59 61  1  0  0  0
 59 62  1  0  0  0
 60130  1  0  0  0
 60131  1  0  0  0
 60132  1  0  0  0
 61133  1  0  0  0
 61134  1  0  0  0
 61135  1  0  0  0
 62136  1  0  0  0
 62137  1  0  0  0
 62138  1  0  0  0
 63 65  1  0  0  0
 63139  1  0  0  0
 63140  1  0  0  0
 63141  1  0  0  0
 64142  1  0  0  0
 65143  1  0  0  0
 68 83  1  0  0  0
 71 72  2  0  0  0
 71 73  1  0  0  0
 71144  1  0  0  0
 72 75  1  0  0  0
 72145  1  0  0  0
 73 76  2  0  0  0
 73146  1  0  0  0
 74 75  2  0  0  0
 74 76  1  0  0  0
 74147  1  0  0  0
 75 82  1  0  0  0
 76 84  1  0  0  0
 77148  1  0  0  0
 77149  1  0  0  0
 77150  1  0  0  0
 77 82  1  0  0  0
 78151  1  0  0  0
 78152  1  0  0  0
 78153  1  0  0  0
 78 83  1  0  0  0
 79 83  1  0  0  0
 79154  1  0  0  0
 79155  1  0  0  0
 79156  1  0  0  0
 80 81  1  0  0  0
 80 82  1  0  0  0
 80157  1  0  0  0
 80158  1  0  0  0
 81 83  1  0  0  0
 81159  1  0  0  0
 81160  1  0  0  0
 82161  1  0  0  0
 84162  1  0  0  0
M  ISO  4   1 100  68 101  83 101  84 100
M  END
> <chiral flag>
0

> <version>
0

> <s_m_source_file>
/data/baiqing/PycharmProjects/Reinvent-master-3.2/result/LINK_invent/BTK/process_docking_weight1_custom_product_contain_oxygen_bond_distance_aromatic_linkinvent_7_9_3/rearranged_h_0137.sdf

> <i_m_source_file_index>
46

> <r_mmod_Potential_Energy-OPLS-2005>
142.49772644043

> <r_mmod_Stretch_Energy-OPLS-2005>
115.43132019043

> <r_mmod_Bend_Energy-OPLS-2005>
188.439086914062

> <r_mmod_Torsional_Energy-OPLS-2005>
230.880676269531

> <r_mmod_Improper_Torsional_Energy-OPLS-2005>
4.35880756378174

> <r_mmod_Van_der_Waal_Energy-OPLS-2005>
143.969192504883

> <r_mmod_Electrostatic_Energy-OPLS-2005>
-408.265991210938

> <r_mmod_Solvation_Energy-OPLS-2005>
-194.488677978516

> <b_mmod_Minimization_Converged-OPLS-2005>
0

> <r_mmod_RMS_Derivative-OPLS-2005>
4.52902936935425

$$$$
46
                    3D
 Structure written by MMmdl.
162170  0  0  1  0            999 V2000
  -30.6878  -14.4737   20.5842 C   0  0  0  0  0  0
  -30.4314  -12.3133   19.4140 C   0  0  0  0  0  0
  -29.4941  -12.5066   18.2035 C   0  0  0  0  0  0
  -28.0142  -12.3724   18.6162 C   0  0  0  0  0  0
  -27.6638  -13.2040   19.8791 C   0  0  2  0  0  0
  -28.7071  -12.9648   20.9933 C   0  0  0  0  0  0
  -25.2600  -13.8152   20.5701 C   0  0  0  0  0  0
  -24.1838  -13.0431   20.9153 C   0  0  0  0  0  0
  -24.6393  -11.6900   20.8718 C   0  0  0  0  0  0
  -23.9055  -10.4292   21.0401 C   0  0  0  0  0  0
  -24.3611   -9.4211   21.9182 C   0  0  0  0  0  0
  -23.6291   -8.2245   22.0755 C   0  0  0  0  0  0
  -22.4272   -8.0283   21.3545 C   0  0  0  0  0  0
  -21.9905   -9.0253   20.4643 C   0  0  0  0  0  0
  -22.7229  -10.2133   20.3052 C   0  0  0  0  0  0
  -21.6849   -6.0741   22.5280 C   0  0  0  0  0  0
  -21.4013   -6.5644   23.8215 C   0  0  0  0  0  0
  -21.3658   -5.6796   24.9175 C   0  0  0  0  0  0
  -21.6044   -4.3060   24.7224 C   0  0  0  0  0  0
  -21.8821   -3.8152   23.4346 C   0  0  0  0  0  0
  -21.9195   -4.6969   22.3402 C   0  0  0  0  0  0
  -22.7863  -13.5236   21.1832 C   0  0  0  0  0  0
  -22.1662   -4.2160   21.0978 F   0  0  0  0  0  0
  -21.5628   -3.4540   25.7734 F   0  0  0  0  0  0
  -30.0376  -13.2850   20.4450 N   0  0  0  0  0  0
  -26.3042  -12.9318   20.3402 N   0  0  0  0  0  0
  -25.9321  -11.6478   20.5769 N   0  0  0  0  0  0
  -22.0507  -12.8234   22.0396 N   0  0  0  0  0  0
  -25.4322  -15.1875   20.4204 N   0  0  0  0  0  0
  -31.8084  -14.6807   20.1087 O   0  0  0  0  0  0
  -21.6636   -6.8883   21.4242 O   0  0  0  0  0  0
  -22.3546  -14.5549   20.6697 O   0  0  0  0  0  0
  -24.6143  -31.8677   23.2090 C   0  0  0  0  0  0
  -25.9026  -32.4823   23.8396 C   0  0  1  0  0  0
  -27.2240  -27.4090   20.1007 C   0  0  0  0  0  0
  -25.5874  -33.8628   24.2307 N   0  0  0  0  0  0
  -23.4036  -30.4930   21.5491 C   0  0  2  0  0  0
  -24.8468  -28.9605   20.1108 C   0  0  0  0  0  0
  -22.7415  -29.4661   22.4963 C   0  0  0  0  0  0
  -18.0275  -28.1375   22.8466 C   0  0  0  0  0  0
  -24.1489  -36.7328   23.2643 C   0  0  0  0  0  0
  -25.9340  -30.8251   21.3674 C   0  0  0  0  0  0
  -26.0064  -29.4574   20.7166 C   0  0  0  0  0  0
  -27.1957  -28.6879   20.7099 C   0  0  0  0  0  0
  -26.0484  -26.9477   19.4633 C   0  0  0  0  0  0
  -24.8642  -27.7067   19.4792 C   0  0  0  0  0  0
  -23.6107  -29.8299   20.1623 C   0  0  0  0  0  0
  -25.4105  -36.3115   24.0336 C   0  0  1  0  0  0
  -20.5868  -28.3649   23.1287 C   0  0  2  0  0  0
  -20.6759  -26.9379   22.5404 C   0  0  0  0  0  0
  -19.5748  -26.6360   21.5199 C   0  0  0  0  0  0
  -18.1923  -26.7915   22.1612 C   0  0  0  0  0  0
  -19.1534  -28.8829   23.2873 C   0  0  0  0  0  0
  -18.9471  -30.1438   23.8877 C   0  0  0  0  0  0
  -17.6478  -30.6574   24.0558 C   0  0  0  0  0  0
  -25.9028  -34.9480   23.5123 C   0  0  0  0  0  0
  -16.5360  -29.9075   23.6337 C   0  0  0  0  0  0
  -16.7269  -28.6506   23.0325 C   0  0  0  0  0  0
  -26.4441  -31.6618   25.0730 C   0  0  0  0  0  0
  -25.3680  -31.3747   26.1471 C   0  0  0  0  0  0
  -27.0283  -30.3074   24.6094 C   0  0  0  0  0  0
  -27.6009  -32.4354   25.7480 C   0  0  0  0  0  0
  -27.5581  -37.1819   24.8459 C   0  0  0  0  0  0
  -21.4149  -29.3024   22.3697 N   0  0  0  0  0  0
  -26.4292  -37.3798   23.9404 N   0  0  0  0  0  0
  -24.6690  -31.0772   22.0999 N   0  0  0  0  0  0
  -23.4181  -28.8186   23.2996 O   0  0  0  0  0  0
  -28.3992  -26.6739   20.1239 O   0  0  0  0  0  0
  -26.5617  -34.8941   22.4701 O   0  0  0  0  0  0
  -23.5330  -32.1441   23.7467 O   0  0  0  0  0  0
  -31.4478  -18.9190   21.2046 C   0  0  0  0  0  0
  -31.3795  -17.5078   21.1674 C   0  0  0  0  0  0
  -29.0303  -19.0603   21.1574 C   0  0  0  0  0  0
  -30.2790  -19.7225   21.2084 C   0  0  0  0  0  0
  -30.1255  -16.8576   21.1357 C   0  0  0  0  0  0
  -28.9569  -17.6494   21.1275 C   0  0  0  0  0  0
  -30.3924  -21.2125   21.3401 C   0  0  0  0  0  0
  -27.7640  -25.1559   22.5670 C   0  0  0  0  0  0
  -30.1626  -24.9522   21.8757 C   0  0  0  0  0  0
  -29.4238  -22.1415   20.5876 C   0  0  0  0  0  0
  -28.5248  -23.0288   21.5035 C   0  0  0  0  0  0
  -28.3505  -25.2241   20.1189 C   0  0  0  0  0  0
  -28.7160  -24.5864   21.4940 C   0  0  0  0  0  0
  -31.3120  -21.7332   22.0354 N   0  0  0  0  0  0
  -29.9574  -15.4396   21.1731 N   0  0  0  0  0  0
  -27.7474  -17.0379   21.0925 F   0  0  0  0  0  0
  -31.4731  -12.4291   19.1084 H   0  0  0  0  0  0
  -30.3490  -11.2985   19.8070 H   0  0  0  0  0  0
  -29.7305  -11.7765   17.4282 H   0  0  0  0  0  0
  -29.6628  -13.4887   17.7590 H   0  0  0  0  0  0
  -27.8184  -11.3158   18.8029 H   0  0  0  0  0  0
  -27.3654  -12.6571   17.7871 H   0  0  0  0  0  0
  -27.7114  -14.2550   19.5927 H   0  0  0  0  0  0
  -28.6874  -11.9200   21.3081 H   0  0  0  0  0  0
  -28.4648  -13.5364   21.8905 H   0  0  0  0  0  0
  -25.2757   -9.5693   22.4755 H   0  0  0  0  0  0
  -24.0005   -7.4638   22.7474 H   0  0  0  0  0  0
  -21.0840   -8.8767   19.8947 H   0  0  0  0  0  0
  -22.3688  -10.9672   19.6163 H   0  0  0  0  0  0
  -21.2003   -7.6151   23.9723 H   0  0  0  0  0  0
  -21.1476   -6.0522   25.9079 H   0  0  0  0  0  0
  -22.0603   -2.7615   23.2837 H   0  0  0  0  0  0
  -22.4113  -11.9886   22.4775 H   0  0  0  0  0  0
  -21.1129  -13.1272   22.2607 H   0  0  0  0  0  0
  -24.6771  -15.8443   20.5811 H   0  0  0  0  0  0
  -26.3197  -15.6473   20.2506 H   0  0  0  0  0  0
  -26.7087  -32.5523   23.1150 H   0  0  0  0  0  0
  -24.9961  -33.9789   25.0406 H   0  0  0  0  0  0
  -22.6923  -31.3102   21.4110 H   0  0  0  0  0  0
  -23.3747  -35.9671   23.3307 H   0  0  0  0  0  0
  -24.3584  -36.8945   22.2057 H   0  0  0  0  0  0
  -23.7261  -37.6537   23.6660 H   0  0  0  0  0  0
  -26.0487  -31.5869   20.5951 H   0  0  0  0  0  0
  -26.8223  -30.8763   21.9849 H   0  0  0  0  0  0
  -28.0901  -29.0630   21.1867 H   0  0  0  0  0  0
  -26.0178  -26.0146   18.9237 H   0  0  0  0  0  0
  -23.9782  -27.3286   18.9886 H   0  0  0  0  0  0
  -23.7218  -30.6079   19.4058 H   0  0  0  0  0  0
  -22.7319  -29.2546   19.8644 H   0  0  0  0  0  0
  -25.1289  -36.1982   25.0833 H   0  0  0  0  0  0
  -20.9970  -28.3222   24.1406 H   0  0  0  0  0  0
  -20.5676  -26.2249   23.3593 H   0  0  0  0  0  0
  -21.6623  -26.7420   22.1197 H   0  0  0  0  0  0
  -19.6911  -25.6275   21.1222 H   0  0  0  0  0  0
  -19.6701  -27.3166   20.6720 H   0  0  0  0  0  0
  -17.4192  -26.6652   21.4006 H   0  0  0  0  0  0
  -18.0338  -26.0068   22.9025 H   0  0  0  0  0  0
  -19.7960  -30.7253   24.2221 H   0  0  0  0  0  0
  -17.5045  -31.6262   24.5151 H   0  0  0  0  0  0
  -15.5364  -30.2970   23.7691 H   0  0  0  0  0  0
  -15.8665  -28.0842   22.7013 H   0  0  0  0  0  0
  -24.5832  -30.7118   25.7803 H   0  0  0  0  0  0
  -24.8887  -32.2916   26.4910 H   0  0  0  0  0  0
  -25.8004  -30.8910   27.0242 H   0  0  0  0  0  0
  -26.2827  -29.6832   24.1145 H   0  0  0  0  0  0
  -27.4070  -29.7315   25.4548 H   0  0  0  0  0  0
  -27.8649  -30.4420   23.9233 H   0  0  0  0  0  0
  -27.2609  -33.3650   26.2065 H   0  0  0  0  0  0
  -28.3790  -32.6930   25.0278 H   0  0  0  0  0  0
  -28.0697  -31.8482   26.5388 H   0  0  0  0  0  0
  -28.2588  -38.0124   24.7514 H   0  0  0  0  0  0
  -28.1092  -36.2660   24.6269 H   0  0  0  0  0  0
  -27.2309  -37.1442   25.8866 H   0  0  0  0  0  0
  -20.9297  -29.8765   21.6943 H   0  0  0  0  0  0
  -26.0188  -38.2876   24.1424 H   0  0  0  0  0  0
  -32.4221  -19.3860   21.2423 H   0  0  0  0  0  0
  -32.2987  -16.9399   21.1890 H   0  0  0  0  0  0
  -28.1132  -19.6301   21.1714 H   0  0  0  0  0  0
  -27.9698  -24.7407   23.5544 H   0  0  0  0  0  0
  -26.7228  -24.9331   22.3305 H   0  0  0  0  0  0
  -27.8512  -26.2391   22.6533 H   0  0  0  0  0  0
  -30.4499  -24.4904   22.8208 H   0  0  0  0  0  0
  -30.2853  -26.0304   21.9885 H   0  0  0  0  0  0
  -30.8742  -24.6210   21.1196 H   0  0  0  0  0  0
  -28.7912  -21.5394   19.9361 H   0  0  0  0  0  0
  -30.0037  -22.7630   19.9071 H   0  0  0  0  0  0
  -28.6144  -22.6714   22.5311 H   0  0  0  0  0  0
  -27.4863  -22.8167   21.2444 H   0  0  0  0  0  0
  -27.3968  -24.8089   19.8081 H   0  0  0  0  0  0
  -29.0583  -24.8840   19.3629 H   0  0  0  0  0  0
  -31.8914  -21.0239   22.4712 H   0  0  0  0  0  0
  -29.0404  -15.1390   21.4652 H   0  0  0  0  0  0
  1 25  1  0  0  0
  1 30  2  0  0  0
  1 85  1  0  0  0
  2  3  1  0  0  0
  2 25  1  0  0  0
  2 87  1  0  0  0
  2 88  1  0  0  0
  3  4  1  0  0  0
  3 89  1  0  0  0
  3 90  1  0  0  0
  4  5  1  0  0  0
  4 91  1  0  0  0
  4 92  1  0  0  0
  5  6  1  0  0  0
  5 26  1  0  0  0
  5 93  1  0  0  0
  6 25  1  0  0  0
  6 94  1  0  0  0
  6 95  1  0  0  0
  7  8  2  0  0  0
  7 26  1  0  0  0
  7 29  1  0  0  0
  8  9  1  0  0  0
  8 22  1  0  0  0
  9 10  1  0  0  0
  9 27  2  0  0  0
 10 11  2  0  0  0
 10 15  1  0  0  0
 11 12  1  0  0  0
 11 96  1  0  0  0
 12 13  2  0  0  0
 12 97  1  0  0  0
 13 14  1  0  0  0
 13 31  1  0  0  0
 14 15  2  0  0  0
 14 98  1  0  0  0
 15 99  1  0  0  0
 16 17  2  0  0  0
 16 21  1  0  0  0
 16 31  1  0  0  0
 17 18  1  0  0  0
 17100  1  0  0  0
 18 19  2  0  0  0
 18101  1  0  0  0
 19 20  1  0  0  0
 19 24  1  0  0  0
 20 21  2  0  0  0
 20102  1  0  0  0
 21 23  1  0  0  0
 22 28  1  0  0  0
 22 32  2  0  0  0
 26 27  1  0  0  0
 28103  1  0  0  0
 28104  1  0  0  0
 29105  1  0  0  0
 29106  1  0  0  0
 33 34  1  0  0  0
 33 66  1  0  0  0
 33 70  2  0  0  0
 34 36  1  0  0  0
 34 59  1  0  0  0
 34107  1  0  0  0
 35 44  2  0  0  0
 35 45  1  0  0  0
 35 68  1  0  0  0
 36 56  1  0  0  0
 36108  1  0  0  0
 37 39  1  0  0  0
 37 47  1  0  0  0
 37 66  1  0  0  0
 37109  1  0  0  0
 38 43  2  0  0  0
 38 46  1  0  0  0
 38 47  1  0  0  0
 39 64  1  0  0  0
 39 67  2  0  0  0
 40 52  1  0  0  0
 40 53  2  0  0  0
 40 58  1  0  0  0
 41110  1  0  0  0
 41111  1  0  0  0
 41112  1  0  0  0
 41 48  1  0  0  0
 42 43  1  0  0  0
 42 66  1  0  0  0
 42113  1  0  0  0
 42114  1  0  0  0
 43 44  1  0  0  0
 44115  1  0  0  0
 45 46  2  0  0  0
 45116  1  0  0  0
 46117  1  0  0  0
 47118  1  0  0  0
 47119  1  0  0  0
 48 56  1  0  0  0
 48 65  1  0  0  0
 48120  1  0  0  0
 49 50  1  0  0  0
 49 53  1  0  0  0
 49 64  1  0  0  0
 49121  1  0  0  0
 50 51  1  0  0  0
 50122  1  0  0  0
 50123  1  0  0  0
 51 52  1  0  0  0
 51124  1  0  0  0
 51125  1  0  0  0
 52126  1  0  0  0
 52127  1  0  0  0
 53 54  1  0  0  0
 54 55  2  0  0  0
 54128  1  0  0  0
 55 57  1  0  0  0
 55129  1  0  0  0
 56 69  2  0  0  0
 57 58  2  0  0  0
 57130  1  0  0  0
 58131  1  0  0  0
 59 60  1  0  0  0
 59 61  1  0  0  0
 59 62  1  0  0  0
 60132  1  0  0  0
 60133  1  0  0  0
 60134  1  0  0  0
 61135  1  0  0  0
 61136  1  0  0  0
 61137  1  0  0  0
 62138  1  0  0  0
 62139  1  0  0  0
 62140  1  0  0  0
 63 65  1  0  0  0
 63141  1  0  0  0
 63142  1  0  0  0
 63143  1  0  0  0
 64144  1  0  0  0
 65145  1  0  0  0
 68 82  1  0  0  0
 71 72  2  0  0  0
 71 74  1  0  0  0
 71146  1  0  0  0
 72 75  1  0  0  0
 72147  1  0  0  0
 73 74  2  0  0  0
 73 76  1  0  0  0
 73148  1  0  0  0
 74 77  1  0  0  0
 75 76  2  0  0  0
 75 85  1  0  0  0
 76 86  1  0  0  0
 77 80  1  0  0  0
 77 84  2  0  0  0
 78149  1  0  0  0
 78150  1  0  0  0
 78151  1  0  0  0
 78 83  1  0  0  0
 79 83  1  0  0  0
 79152  1  0  0  0
 79153  1  0  0  0
 79154  1  0  0  0
 80 81  1  0  0  0
 80155  1  0  0  0
 80156  1  0  0  0
 81 83  1  0  0  0
 81157  1  0  0  0
 81158  1  0  0  0
 82 83  1  0  0  0
 82159  1  0  0  0
 82160  1  0  0  0
 84161  1  0  0  0
 85162  1  0  0  0
M  ISO  4   1 100  68 101  82 101  85 100
M  END
> <chiral flag>
0

> <version>
0

> <s_m_source_file>
/data/baiqing/PycharmProjects/Reinvent-master-3.2/result/LINK_invent/BTK/process_docking_weight1_custom_product_contain_oxygen_bond_distance_aromatic_linkinvent_7_9_3/rearranged_h_0137.sdf

> <i_m_source_file_index>
47

> <r_mmod_Potential_Energy-OPLS-2005>
-81.4544906616211

> <r_mmod_Stretch_Energy-OPLS-2005>
43.1815147399902

> <r_mmod_Bend_Energy-OPLS-2005>
115.35774230957

> <r_mmod_Torsional_Energy-OPLS-2005>
236.147598266602

> <r_mmod_Improper_Torsional_Energy-OPLS-2005>
4.08592700958252

> <r_mmod_Van_der_Waal_Energy-OPLS-2005>
155.864059448242

> <r_mmod_Electrostatic_Energy-OPLS-2005>
-452.653289794922

> <r_mmod_Solvation_Energy-OPLS-2005>
-197.760025024414

> <b_mmod_Minimization_Converged-OPLS-2005>
0

> <r_mmod_RMS_Derivative-OPLS-2005>
1.68922185897827

$$$$
47
                    3D
 Structure written by MMmdl.
164173  0  0  1  0            999 V2000
  -30.5884  -14.8323   20.4212 C   0  0  0  0  0  0
  -30.4370  -12.4949   19.5134 C   0  0  0  0  0  0
  -29.5273  -12.4562   18.2636 C   0  0  0  0  0  0
  -28.0450  -12.3203   18.6648 C   0  0  0  0  0  0
  -27.6386  -13.2422   19.8461 C   0  0  2  0  0  0
  -28.6753  -13.2275   20.9893 C   0  0  0  0  0  0
  -25.2498  -13.8226   20.5715 C   0  0  0  0  0  0
  -24.1796  -13.0456   20.9211 C   0  0  0  0  0  0
  -24.6397  -11.6936   20.8752 C   0  0  0  0  0  0
  -23.9082  -10.4305   21.0413 C   0  0  0  0  0  0
  -24.3634   -9.4216   21.9189 C   0  0  0  0  0  0
  -23.6304   -8.2258   22.0761 C   0  0  0  0  0  0
  -22.4285   -8.0294   21.3551 C   0  0  0  0  0  0
  -21.9920   -9.0273   20.4662 C   0  0  0  0  0  0
  -22.7252  -10.2146   20.3064 C   0  0  0  0  0  0
  -21.6851   -6.0747   22.5288 C   0  0  0  0  0  0
  -21.4019   -6.5650   23.8224 C   0  0  0  0  0  0
  -21.3657   -5.6799   24.9181 C   0  0  0  0  0  0
  -21.6031   -4.3062   24.7225 C   0  0  0  0  0  0
  -21.8817   -3.8158   23.4347 C   0  0  0  0  0  0
  -21.9193   -4.6973   22.3404 C   0  0  0  0  0  0
  -22.7815  -13.5237   21.1864 C   0  0  0  0  0  0
  -22.1663   -4.2163   21.0983 F   0  0  0  0  0  0
  -21.5616   -3.4544   25.7736 F   0  0  0  0  0  0
  -29.9711  -13.5924   20.4057 N   0  0  0  0  0  0
  -26.2924  -12.9450   20.3265 N   0  0  0  0  0  0
  -25.9327  -11.6579   20.5751 N   0  0  0  0  0  0
  -22.0460  -12.8239   22.0430 N   0  0  0  0  0  0
  -25.4176  -15.1954   20.4174 N   0  0  0  0  0  0
  -31.7797  -14.8934   20.0990 O   0  0  0  0  0  0
  -21.6644   -6.8894   21.4252 O   0  0  0  0  0  0
  -22.3497  -14.5535   20.6698 O   0  0  0  0  0  0
  -24.6367  -31.8511   23.1954 C   0  0  0  0  0  0
  -25.9176  -32.4729   23.8310 C   0  0  1  0  0  0
  -27.2112  -27.2073   20.1452 C   0  0  0  0  0  0
  -25.5954  -33.8527   24.2234 N   0  0  0  0  0  0
  -23.4355  -30.4748   21.5390 C   0  0  2  0  0  0
  -24.8830  -28.9156   20.1082 C   0  0  0  0  0  0
  -22.7528  -29.4589   22.4881 C   0  0  0  0  0  0
  -18.0296  -28.1399   22.8476 C   0  0  0  0  0  0
  -24.1490  -36.7271   23.2639 C   0  0  0  0  0  0
  -25.9867  -30.7485   21.3835 C   0  0  0  0  0  0
  -26.0573  -29.3668   20.7249 C   0  0  0  0  0  0
  -27.2248  -28.5274   20.7280 C   0  0  0  0  0  0
  -26.0162  -26.8460   19.4830 C   0  0  0  0  0  0
  -24.8725  -27.6670   19.4723 C   0  0  0  0  0  0
  -23.6574  -29.8103   20.1548 C   0  0  0  0  0  0
  -25.4116  -36.3046   24.0318 C   0  0  1  0  0  0
  -20.5904  -28.3718   23.1254 C   0  0  2  0  0  0
  -20.6783  -26.9430   22.5404 C   0  0  0  0  0  0
  -19.5757  -26.6391   21.5208 C   0  0  0  0  0  0
  -18.1938  -26.7938   22.1620 C   0  0  0  0  0  0
  -19.1551  -28.8874   23.2859 C   0  0  0  0  0  0
  -18.9471  -30.1472   23.8886 C   0  0  0  0  0  0
  -17.6469  -30.6593   24.0565 C   0  0  0  0  0  0
  -25.9066  -34.9421   23.5074 C   0  0  0  0  0  0
  -16.5359  -29.9092   23.6335 C   0  0  0  0  0  0
  -16.7283  -28.6511   23.0352 C   0  0  0  0  0  0
  -26.4527  -31.6571   25.0722 C   0  0  0  0  0  0
  -25.3740  -31.3745   26.1442 C   0  0  0  0  0  0
  -27.0382  -30.2974   24.6258 C   0  0  0  0  0  0
  -27.6066  -32.4328   25.7506 C   0  0  0  0  0  0
  -27.5572  -37.1790   24.8463 C   0  0  0  0  0  0
  -21.4231  -29.3050   22.3629 N   0  0  0  0  0  0
  -26.4283  -37.3754   23.9407 N   0  0  0  0  0  0
  -24.7053  -31.0442   22.0948 N   0  0  0  0  0  0
  -23.4208  -28.8128   23.2999 O   0  0  0  0  0  0
  -28.2800  -26.2632   20.2196 O   0  0  0  0  0  0
  -26.5634  -34.8905   22.4648 O   0  0  0  0  0  0
  -23.5507  -32.1352   23.7224 O   0  0  0  0  0  0
  -29.0833  -17.0848   17.0689 C   0  0  0  0  0  0
  -29.3898  -16.4204   18.2594 C   0  0  0  0  0  0
  -29.1062  -19.1689   18.2739 C   0  0  0  0  0  0
  -29.3745  -18.5509   19.5255 C   0  0  0  0  0  0
  -28.9490  -18.4701   17.0705 C   0  0  0  0  0  0
  -29.5763  -17.0587   19.5178 C   0  0  0  0  0  0
  -29.4243  -22.3406   20.3065 C   0  0  0  0  0  0
  -29.2162  -23.7322   20.2292 C   0  0  0  0  0  0
  -30.8120  -21.7471   20.1222 C   0  0  0  0  0  0
  -28.5437  -21.0551   20.5524 C   0  0  0  0  0  0
  -30.8481  -20.3273   20.7547 C   0  0  0  0  0  0
  -29.4471  -19.6837   20.6600 C   0  0  2  0  0  0
  -28.6300  -19.1976   15.7801 C   0  0  0  0  0  0
  -27.2457  -24.5141   21.6564 C   0  0  0  0  0  0
  -27.9957  -24.7605   20.3380 C   0  0  1  0  0  0
  -29.8431  -16.0220   20.5717 N   0  0  0  0  0  0
  -31.4775  -12.6208   19.2079 H   0  0  0  0  0  0
  -30.4009  -11.5408   20.0426 H   0  0  0  0  0  0
  -29.8122  -11.6167   17.6288 H   0  0  0  0  0  0
  -29.6816  -13.3387   17.6490 H   0  0  0  0  0  0
  -27.8874  -11.2783   18.9442 H   0  0  0  0  0  0
  -27.4016  -12.5011   17.8030 H   0  0  0  0  0  0
  -27.6193  -14.2541   19.4424 H   0  0  0  0  0  0
  -28.7235  -12.2450   21.4611 H   0  0  0  0  0  0
  -28.3953  -13.9327   21.7726 H   0  0  0  0  0  0
  -25.2775   -9.5683   22.4768 H   0  0  0  0  0  0
  -24.0003   -7.4640   22.7475 H   0  0  0  0  0  0
  -21.0846   -8.8798   19.8975 H   0  0  0  0  0  0
  -22.3711  -10.9690   19.6180 H   0  0  0  0  0  0
  -21.2028   -7.6159   23.9729 H   0  0  0  0  0  0
  -21.1475   -6.0532   25.9083 H   0  0  0  0  0  0
  -22.0596   -2.7615   23.2847 H   0  0  0  0  0  0
  -22.4073  -11.9909   22.4837 H   0  0  0  0  0  0
  -21.1075  -13.1267   22.2633 H   0  0  0  0  0  0
  -24.6464  -15.8443   20.5280 H   0  0  0  0  0  0
  -26.2646  -15.6417   20.0884 H   0  0  0  0  0  0
  -26.7243  -32.5362   23.1046 H   0  0  0  0  0  0
  -25.0102  -33.9656   25.0380 H   0  0  0  0  0  0
  -22.7334  -31.2983   21.3911 H   0  0  0  0  0  0
  -23.3749  -35.9607   23.3295 H   0  0  0  0  0  0
  -24.3573  -36.8906   22.2054 H   0  0  0  0  0  0
  -23.7254  -37.6469   23.6680 H   0  0  0  0  0  0
  -26.1323  -31.5073   20.6134 H   0  0  0  0  0  0
  -26.8601  -30.7968   22.0214 H   0  0  0  0  0  0
  -28.1200  -28.8637   21.2317 H   0  0  0  0  0  0
  -25.9306  -25.8978   18.9766 H   0  0  0  0  0  0
  -23.9774  -27.3202   18.9728 H   0  0  0  0  0  0
  -23.7885  -30.5876   19.4011 H   0  0  0  0  0  0
  -22.7736  -29.2500   19.8452 H   0  0  0  0  0  0
  -25.1302  -36.1875   25.0809 H   0  0  0  0  0  0
  -20.9993  -28.3305   24.1378 H   0  0  0  0  0  0
  -20.5681  -26.2330   23.3612 H   0  0  0  0  0  0
  -21.6652  -26.7445   22.1203 H   0  0  0  0  0  0
  -19.6919  -25.6300   21.1243 H   0  0  0  0  0  0
  -19.6696  -27.3195   20.6733 H   0  0  0  0  0  0
  -17.4205  -26.6680   21.4026 H   0  0  0  0  0  0
  -18.0344  -26.0087   22.9026 H   0  0  0  0  0  0
  -19.7947  -30.7289   24.2252 H   0  0  0  0  0  0
  -17.5024  -31.6270   24.5175 H   0  0  0  0  0  0
  -15.5362  -30.2989   23.7672 H   0  0  0  0  0  0
  -15.8680  -28.0826   22.7077 H   0  0  0  0  0  0
  -24.5916  -30.7089   25.7783 H   0  0  0  0  0  0
  -24.8937  -32.2925   26.4842 H   0  0  0  0  0  0
  -25.8054  -30.8946   27.0237 H   0  0  0  0  0  0
  -26.2983  -29.6708   24.1270 H   0  0  0  0  0  0
  -27.4019  -29.7260   25.4809 H   0  0  0  0  0  0
  -27.8882  -30.4220   23.9546 H   0  0  0  0  0  0
  -27.2659  -33.3637   26.2055 H   0  0  0  0  0  0
  -28.3901  -32.6876   25.0355 H   0  0  0  0  0  0
  -28.0715  -31.8475   26.5453 H   0  0  0  0  0  0
  -28.2586  -38.0091   24.7500 H   0  0  0  0  0  0
  -28.1070  -36.2617   24.6296 H   0  0  0  0  0  0
  -27.2288  -37.1449   25.8867 H   0  0  0  0  0  0
  -20.9423  -29.8775   21.6827 H   0  0  0  0  0  0
  -26.0150  -38.2820   24.1417 H   0  0  0  0  0  0
  -28.9547  -16.5209   16.1552 H   0  0  0  0  0  0
  -29.4566  -15.3530   18.1647 H   0  0  0  0  0  0
  -29.0133  -20.2424   18.2124 H   0  0  0  0  0  0
  -30.1232  -24.2865   20.0333 H   0  0  0  0  0  0
  -31.5845  -22.3937   20.5404 H   0  0  0  0  0  0
  -31.0021  -21.6704   19.0504 H   0  0  0  0  0  0
  -27.7358  -20.9802   19.8251 H   0  0  0  0  0  0
  -28.0495  -21.2112   21.5114 H   0  0  0  0  0  0
  -31.0955  -20.4418   21.8114 H   0  0  0  0  0  0
  -31.6284  -19.6996   20.3224 H   0  0  0  0  0  0
  -29.2177  -19.1796   21.5997 H   0  0  0  0  0  0
  -27.6933  -18.8294   15.3598 H   0  0  0  0  0  0
  -29.4202  -19.0323   15.0472 H   0  0  0  0  0  0
  -28.5295  -20.2723   15.9348 H   0  0  0  0  0  0
  -26.9764  -23.4637   21.7660 H   0  0  0  0  0  0
  -26.3222  -25.0900   21.7152 H   0  0  0  0  0  0
  -27.8626  -24.7871   22.5123 H   0  0  0  0  0  0
  -27.3490  -24.4634   19.5150 H   0  0  0  0  0  0
  -29.0756  -15.9230   21.2206 H   0  0  0  0  0  0
  1 25  1  0  0  0
  1 30  2  0  0  0
  1 86  1  0  0  0
  2  3  1  0  0  0
  2 25  1  0  0  0
  2 87  1  0  0  0
  2 88  1  0  0  0
  3  4  1  0  0  0
  3 89  1  0  0  0
  3 90  1  0  0  0
  4  5  1  0  0  0
  4 91  1  0  0  0
  4 92  1  0  0  0
  5  6  1  0  0  0
  5 26  1  0  0  0
  5 93  1  0  0  0
  6 25  1  0  0  0
  6 94  1  0  0  0
  6 95  1  0  0  0
  7  8  2  0  0  0
  7 26  1  0  0  0
  7 29  1  0  0  0
  8  9  1  0  0  0
  8 22  1  0  0  0
  9 10  1  0  0  0
  9 27  2  0  0  0
 10 11  2  0  0  0
 10 15  1  0  0  0
 11 12  1  0  0  0
 11 96  1  0  0  0
 12 13  2  0  0  0
 12 97  1  0  0  0
 13 14  1  0  0  0
 13 31  1  0  0  0
 14 15  2  0  0  0
 14 98  1  0  0  0
 15 99  1  0  0  0
 16 17  2  0  0  0
 16 21  1  0  0  0
 16 31  1  0  0  0
 17 18  1  0  0  0
 17100  1  0  0  0
 18 19  2  0  0  0
 18101  1  0  0  0
 19 20  1  0  0  0
 19 24  1  0  0  0
 20 21  2  0  0  0
 20102  1  0  0  0
 21 23  1  0  0  0
 22 28  1  0  0  0
 22 32  2  0  0  0
 26 27  1  0  0  0
 28103  1  0  0  0
 28104  1  0  0  0
 29105  1  0  0  0
 29106  1  0  0  0
 33 34  1  0  0  0
 33 66  1  0  0  0
 33 70  2  0  0  0
 34 36  1  0  0  0
 34 59  1  0  0  0
 34107  1  0  0  0
 35 44  2  0  0  0
 35 45  1  0  0  0
 35 68  1  0  0  0
 36 56  1  0  0  0
 36108  1  0  0  0
 37 39  1  0  0  0
 37 47  1  0  0  0
 37 66  1  0  0  0
 37109  1  0  0  0
 38 43  2  0  0  0
 38 46  1  0  0  0
 38 47  1  0  0  0
 39 64  1  0  0  0
 39 67  2  0  0  0
 40 52  1  0  0  0
 40 53  2  0  0  0
 40 58  1  0  0  0
 41110  1  0  0  0
 41111  1  0  0  0
 41112  1  0  0  0
 41 48  1  0  0  0
 42 43  1  0  0  0
 42 66  1  0  0  0
 42113  1  0  0  0
 42114  1  0  0  0
 43 44  1  0  0  0
 44115  1  0  0  0
 45 46  2  0  0  0
 45116  1  0  0  0
 46117  1  0  0  0
 47118  1  0  0  0
 47119  1  0  0  0
 48 56  1  0  0  0
 48 65  1  0  0  0
 48120  1  0  0  0
 49 50  1  0  0  0
 49 53  1  0  0  0
 49 64  1  0  0  0
 49121  1  0  0  0
 50 51  1  0  0  0
 50122  1  0  0  0
 50123  1  0  0  0
 51 52  1  0  0  0
 51124  1  0  0  0
 51125  1  0  0  0
 52126  1  0  0  0
 52127  1  0  0  0
 53 54  1  0  0  0
 54 55  2  0  0  0
 54128  1  0  0  0
 55 57  1  0  0  0
 55129  1  0  0  0
 56 69  2  0  0  0
 57 58  2  0  0  0
 57130  1  0  0  0
 58131  1  0  0  0
 59 60  1  0  0  0
 59 61  1  0  0  0
 59 62  1  0  0  0
 60132  1  0  0  0
 60133  1  0  0  0
 60134  1  0  0  0
 61135  1  0  0  0
 61136  1  0  0  0
 61137  1  0  0  0
 62138  1  0  0  0
 62139  1  0  0  0
 62140  1  0  0  0
 63 65  1  0  0  0
 63141  1  0  0  0
 63142  1  0  0  0
 63143  1  0  0  0
 64144  1  0  0  0
 65145  1  0  0  0
 68 85  1  0  0  0
 71 72  2  0  0  0
 71 75  1  0  0  0
 71146  1  0  0  0
 72 76  1  0  0  0
 72147  1  0  0  0
 73 74  1  0  0  0
 73 75  2  0  0  0
 73148  1  0  0  0
 74 76  2  0  0  0
 74 82  1  0  0  0
 75 83  1  0  0  0
 76 86  1  0  0  0
 77 78  2  0  0  0
 77 79  1  0  0  0
 77 80  1  0  0  0
 78 85  1  0  0  0
 78149  1  0  0  0
 79 81  1  0  0  0
 79150  1  0  0  0
 79151  1  0  0  0
 80 82  1  0  0  0
 80152  1  0  0  0
 80153  1  0  0  0
 81 82  1  0  0  0
 81154  1  0  0  0
 81155  1  0  0  0
 82156  1  0  0  0
 83157  1  0  0  0
 83158  1  0  0  0
 83159  1  0  0  0
 84160  1  0  0  0
 84161  1  0  0  0
 84162  1  0  0  0
 84 85  1  0  0  0
 85163  1  0  0  0
 86164  1  0  0  0
M  ISO  4   1 100  68 101  85 101  86 100
M  END
> <chiral flag>
0

> <version>
0

> <s_m_source_file>
/data/baiqing/PycharmProjects/Reinvent-master-3.2/result/LINK_invent/BTK/process_docking_weight1_custom_product_contain_oxygen_bond_distance_aromatic_linkinvent_7_9_3/rearranged_h_0137.sdf

> <i_m_source_file_index>
48

> <r_mmod_Potential_Energy-OPLS-2005>
459.425231933594

> <r_mmod_Stretch_Energy-OPLS-2005>
178.136032104492

> <r_mmod_Bend_Energy-OPLS-2005>
276.662567138672

> <r_mmod_Torsional_Energy-OPLS-2005>
308.185791015625

> <r_mmod_Improper_Torsional_Energy-OPLS-2005>
7.77006673812866

> <r_mmod_Van_der_Waal_Energy-OPLS-2005>
138.66178894043

> <r_mmod_Electrostatic_Energy-OPLS-2005>
-380.783111572266

> <r_mmod_Solvation_Energy-OPLS-2005>
-197.231689453125

> <b_mmod_Minimization_Converged-OPLS-2005>
0

> <r_mmod_RMS_Derivative-OPLS-2005>
1.6711163520813

$$$$
48
                    3D
 Structure written by MMmdl.
157165  0  0  1  0            999 V2000
  -30.5946  -14.7429   20.4492 C   0  0  0  0  0  0
  -30.4421  -12.4479   19.4732 C   0  0  0  0  0  0
  -29.5160  -12.4886   18.2379 C   0  0  0  0  0  0
  -28.0416  -12.3090   18.6508 C   0  0  0  0  0  0
  -27.6415  -13.2219   19.8415 C   0  0  2  0  0  0
  -28.6854  -13.1564   20.9768 C   0  0  0  0  0  0
  -25.2555  -13.8168   20.5696 C   0  0  0  0  0  0
  -24.1834  -13.0437   20.9237 C   0  0  0  0  0  0
  -24.6401  -11.6905   20.8772 C   0  0  0  0  0  0
  -23.9071  -10.4292   21.0415 C   0  0  0  0  0  0
  -24.3620   -9.4201   21.9173 C   0  0  0  0  0  0
  -23.6284   -8.2241   22.0741 C   0  0  0  0  0  0
  -22.4266   -8.0287   21.3530 C   0  0  0  0  0  0
  -21.9920   -9.0271   20.4640 C   0  0  0  0  0  0
  -22.7255  -10.2148   20.3053 C   0  0  0  0  0  0
  -21.6859   -6.0757   22.5294 C   0  0  0  0  0  0
  -21.4022   -6.5655   23.8234 C   0  0  0  0  0  0
  -21.3651   -5.6794   24.9184 C   0  0  0  0  0  0
  -21.6033   -4.3065   24.7231 C   0  0  0  0  0  0
  -21.8816   -3.8166   23.4355 C   0  0  0  0  0  0
  -21.9194   -4.6984   22.3413 C   0  0  0  0  0  0
  -22.7865  -13.5253   21.1886 C   0  0  0  0  0  0
  -22.1660   -4.2165   21.0994 F   0  0  0  0  0  0
  -21.5606   -3.4542   25.7746 F   0  0  0  0  0  0
  -29.9874  -13.5092   20.3974 N   0  0  0  0  0  0
  -26.2943  -12.9346   20.3232 N   0  0  0  0  0  0
  -25.9316  -11.6499   20.5730 N   0  0  0  0  0  0
  -22.0475  -12.8268   22.0422 N   0  0  0  0  0  0
  -25.4260  -15.1895   20.4101 N   0  0  0  0  0  0
  -31.7965  -14.8484   20.1810 O   0  0  0  0  0  0
  -21.6625   -6.8886   21.4251 O   0  0  0  0  0  0
  -22.3577  -14.5553   20.6709 O   0  0  0  0  0  0
  -24.6310  -31.8552   23.2000 C   0  0  0  0  0  0
  -25.9140  -32.4748   23.8341 C   0  0  1  0  0  0
  -27.2051  -27.2673   20.1128 C   0  0  0  0  0  0
  -25.5936  -33.8554   24.2272 N   0  0  0  0  0  0
  -23.4247  -30.4798   21.5446 C   0  0  2  0  0  0
  -24.8637  -28.9180   20.1210 C   0  0  0  0  0  0
  -22.7493  -29.4615   22.4932 C   0  0  0  0  0  0
  -18.0297  -28.1387   22.8486 C   0  0  0  0  0  0
  -24.1492  -36.7298   23.2641 C   0  0  0  0  0  0
  -25.9694  -30.7686   21.3747 C   0  0  0  0  0  0
  -26.0402  -29.3899   20.7185 C   0  0  0  0  0  0
  -27.2183  -28.5770   20.6988 C   0  0  0  0  0  0
  -26.0052  -26.8551   19.5039 C   0  0  0  0  0  0
  -24.8473  -27.6551   19.5097 C   0  0  0  0  0  0
  -23.6403  -29.8129   20.1616 C   0  0  0  0  0  0
  -25.4119  -36.3079   24.0333 C   0  0  1  0  0  0
  -20.5890  -28.3701   23.1270 C   0  0  2  0  0  0
  -20.6779  -26.9425   22.5403 C   0  0  0  0  0  0
  -19.5760  -26.6387   21.5209 C   0  0  0  0  0  0
  -18.1941  -26.7931   22.1631 C   0  0  0  0  0  0
  -19.1547  -28.8864   23.2867 C   0  0  0  0  0  0
  -18.9468  -30.1462   23.8890 C   0  0  0  0  0  0
  -17.6466  -30.6583   24.0565 C   0  0  0  0  0  0
  -25.9046  -34.9439   23.5099 C   0  0  0  0  0  0
  -16.5363  -29.9086   23.6323 C   0  0  0  0  0  0
  -16.7285  -28.6505   23.0354 C   0  0  0  0  0  0
  -26.4513  -31.6578   25.0728 C   0  0  0  0  0  0
  -25.3757  -31.3745   26.1469 C   0  0  0  0  0  0
  -27.0354  -30.2998   24.6201 C   0  0  0  0  0  0
  -27.6062  -32.4329   25.7498 C   0  0  0  0  0  0
  -27.5577  -37.1809   24.8476 C   0  0  0  0  0  0
  -21.4199  -29.3059   22.3669 N   0  0  0  0  0  0
  -26.4304  -37.3767   23.9397 N   0  0  0  0  0  0
  -24.6953  -31.0521   22.0970 N   0  0  0  0  0  0
  -23.4199  -28.8153   23.3024 O   0  0  0  0  0  0
  -28.3038  -26.3897   20.0729 O   0  0  0  0  0  0
  -26.5601  -34.8914   22.4663 O   0  0  0  0  0  0
  -23.5464  -32.1369   23.7299 O   0  0  0  0  0  0
  -30.9502  -19.2857   20.6878 C   0  0  0  0  0  0
  -31.1822  -17.8727   20.8216 C   0  0  0  0  0  0
  -29.6452  -19.5106   20.3117 C   0  0  0  0  0  0
  -30.0078  -17.2331   20.5173 C   0  0  0  0  0  0
  -27.0312  -23.2352   19.1134 C   0  0  0  0  0  0
  -30.3571  -22.5453   21.0866 C   0  0  0  0  0  0
  -28.8277  -20.8001   19.8772 C   0  0  0  0  0  0
  -28.1695  -25.0042   20.6336 C   0  0  0  0  0  0
  -28.3609  -23.6047   19.8061 C   0  0  1  0  0  0
  -28.9248  -22.2765   20.5864 C   0  0  2  0  0  0
  -29.7647  -15.8529   20.5578 N   0  0  0  0  0  0
  -29.0576  -18.2277   20.2082 O   0  0  0  0  0  0
  -28.1160  -22.1743   21.7446 O   0  0  0  0  0  0
  -31.4795  -12.5892   19.1683 H   0  0  0  0  0  0
  -30.4053  -11.4738   19.9649 H   0  0  0  0  0  0
  -29.8053  -11.7150   17.5280 H   0  0  0  0  0  0
  -29.6398  -13.4425   17.7221 H   0  0  0  0  0  0
  -27.9100  -11.2624   18.9307 H   0  0  0  0  0  0
  -27.3855  -12.4753   17.7959 H   0  0  0  0  0  0
  -27.6298  -14.2388   19.4498 H   0  0  0  0  0  0
  -28.7206  -12.1577   21.4095 H   0  0  0  0  0  0
  -28.4184  -13.8303   21.7911 H   0  0  0  0  0  0
  -25.2741   -9.5691   22.4788 H   0  0  0  0  0  0
  -23.9991   -7.4637   22.7462 H   0  0  0  0  0  0
  -21.0853   -8.8803   19.8951 H   0  0  0  0  0  0
  -22.3686  -10.9708   19.6199 H   0  0  0  0  0  0
  -21.2018   -7.6151   23.9755 H   0  0  0  0  0  0
  -21.1468   -6.0505   25.9085 H   0  0  0  0  0  0
  -22.0599   -2.7630   23.2843 H   0  0  0  0  0  0
  -22.4053  -11.9926   22.4841 H   0  0  0  0  0  0
  -21.1095  -13.1341   22.2553 H   0  0  0  0  0  0
  -24.6571  -15.8418   20.5187 H   0  0  0  0  0  0
  -26.2581  -15.6281   20.0392 H   0  0  0  0  0  0
  -26.7192  -32.5378   23.1068 H   0  0  0  0  0  0
  -25.0130  -33.9696   25.0448 H   0  0  0  0  0  0
  -22.7218  -31.3025   21.3998 H   0  0  0  0  0  0
  -23.3731  -35.9653   23.3342 H   0  0  0  0  0  0
  -24.3575  -36.8872   22.2044 H   0  0  0  0  0  0
  -23.7270  -37.6532   23.6625 H   0  0  0  0  0  0
  -26.1023  -31.5268   20.6014 H   0  0  0  0  0  0
  -26.8491  -30.8190   22.0044 H   0  0  0  0  0  0
  -28.1249  -28.9373   21.1625 H   0  0  0  0  0  0
  -25.9515  -25.8953   19.0191 H   0  0  0  0  0  0
  -23.9442  -27.2806   19.0466 H   0  0  0  0  0  0
  -23.7796  -30.5898   19.4084 H   0  0  0  0  0  0
  -22.7537  -29.2575   19.8474 H   0  0  0  0  0  0
  -25.1300  -36.1944   25.0825 H   0  0  0  0  0  0
  -20.9995  -28.3280   24.1386 H   0  0  0  0  0  0
  -20.5694  -26.2325   23.3609 H   0  0  0  0  0  0
  -21.6639  -26.7463   22.1177 H   0  0  0  0  0  0
  -19.6918  -25.6296   21.1237 H   0  0  0  0  0  0
  -19.6682  -27.3192   20.6732 H   0  0  0  0  0  0
  -17.4208  -26.6679   21.4029 H   0  0  0  0  0  0
  -18.0352  -26.0069   22.9031 H   0  0  0  0  0  0
  -19.7948  -30.7276   24.2253 H   0  0  0  0  0  0
  -17.5029  -31.6267   24.5181 H   0  0  0  0  0  0
  -15.5362  -30.2998   23.7649 H   0  0  0  0  0  0
  -15.8688  -28.0825   22.7076 H   0  0  0  0  0  0
  -24.5911  -30.7107   25.7828 H   0  0  0  0  0  0
  -24.8977  -32.2921   26.4900 H   0  0  0  0  0  0
  -25.8087  -30.8932   27.0244 H   0  0  0  0  0  0
  -26.2929  -29.6742   24.1232 H   0  0  0  0  0  0
  -27.4056  -29.7261   25.4706 H   0  0  0  0  0  0
  -27.8796  -30.4284   23.9427 H   0  0  0  0  0  0
  -27.2656  -33.3623   26.2075 H   0  0  0  0  0  0
  -28.3868  -32.6901   25.0329 H   0  0  0  0  0  0
  -28.0735  -31.8463   26.5416 H   0  0  0  0  0  0
  -28.2632  -38.0067   24.7453 H   0  0  0  0  0  0
  -28.1033  -36.2589   24.6390 H   0  0  0  0  0  0
  -27.2281  -37.1571   25.8879 H   0  0  0  0  0  0
  -20.9397  -29.8818   21.6888 H   0  0  0  0  0  0
  -26.0193  -38.2851   24.1362 H   0  0  0  0  0  0
  -31.6922  -20.0560   20.8357 H   0  0  0  0  0  0
  -32.1076  -17.3935   21.1065 H   0  0  0  0  0  0
  -26.6960  -24.0067   18.4237 H   0  0  0  0  0  0
  -26.2371  -23.0689   19.8440 H   0  0  0  0  0  0
  -27.1139  -22.3263   18.5164 H   0  0  0  0  0  0
  -31.0758  -22.5205   20.2652 H   0  0  0  0  0  0
  -30.6695  -21.8095   21.8266 H   0  0  0  0  0  0
  -30.4614  -23.5150   21.5701 H   0  0  0  0  0  0
  -27.7779  -20.5174   19.8096 H   0  0  0  0  0  0
  -29.1044  -20.9653   18.8348 H   0  0  0  0  0  0
  -28.9179  -25.0092   21.4214 H   0  0  0  0  0  0
  -27.2330  -24.9414   21.1906 H   0  0  0  0  0  0
  -29.0715  -23.8151   19.0063 H   0  0  0  0  0  0
  -28.7897  -15.6058   20.6189 H   0  0  0  0  0  0
  -27.2287  -21.9748   21.4641 H   0  0  0  0  0  0
  1 25  1  0  0  0
  1 30  2  0  0  0
  1 81  1  0  0  0
  2  3  1  0  0  0
  2 25  1  0  0  0
  2 84  1  0  0  0
  2 85  1  0  0  0
  3  4  1  0  0  0
  3 86  1  0  0  0
  3 87  1  0  0  0
  4  5  1  0  0  0
  4 88  1  0  0  0
  4 89  1  0  0  0
  5  6  1  0  0  0
  5 26  1  0  0  0
  5 90  1  0  0  0
  6 25  1  0  0  0
  6 91  1  0  0  0
  6 92  1  0  0  0
  7  8  2  0  0  0
  7 26  1  0  0  0
  7 29  1  0  0  0
  8  9  1  0  0  0
  8 22  1  0  0  0
  9 10  1  0  0  0
  9 27  2  0  0  0
 10 11  2  0  0  0
 10 15  1  0  0  0
 11 12  1  0  0  0
 11 93  1  0  0  0
 12 13  2  0  0  0
 12 94  1  0  0  0
 13 14  1  0  0  0
 13 31  1  0  0  0
 14 15  2  0  0  0
 14 95  1  0  0  0
 15 96  1  0  0  0
 16 17  2  0  0  0
 16 21  1  0  0  0
 16 31  1  0  0  0
 17 18  1  0  0  0
 17 97  1  0  0  0
 18 19  2  0  0  0
 18 98  1  0  0  0
 19 20  1  0  0  0
 19 24  1  0  0  0
 20 21  2  0  0  0
 20 99  1  0  0  0
 21 23  1  0  0  0
 22 28  1  0  0  0
 22 32  2  0  0  0
 26 27  1  0  0  0
 28100  1  0  0  0
 28101  1  0  0  0
 29102  1  0  0  0
 29103  1  0  0  0
 33 34  1  0  0  0
 33 66  1  0  0  0
 33 70  2  0  0  0
 34 36  1  0  0  0
 34 59  1  0  0  0
 34104  1  0  0  0
 35 44  2  0  0  0
 35 45  1  0  0  0
 35 68  1  0  0  0
 36 56  1  0  0  0
 36105  1  0  0  0
 37 39  1  0  0  0
 37 47  1  0  0  0
 37 66  1  0  0  0
 37106  1  0  0  0
 38 43  2  0  0  0
 38 46  1  0  0  0
 38 47  1  0  0  0
 39 64  1  0  0  0
 39 67  2  0  0  0
 40 52  1  0  0  0
 40 53  2  0  0  0
 40 58  1  0  0  0
 41107  1  0  0  0
 41108  1  0  0  0
 41109  1  0  0  0
 41 48  1  0  0  0
 42 43  1  0  0  0
 42 66  1  0  0  0
 42110  1  0  0  0
 42111  1  0  0  0
 43 44  1  0  0  0
 44112  1  0  0  0
 45 46  2  0  0  0
 45113  1  0  0  0
 46114  1  0  0  0
 47115  1  0  0  0
 47116  1  0  0  0
 48 56  1  0  0  0
 48 65  1  0  0  0
 48117  1  0  0  0
 49 50  1  0  0  0
 49 53  1  0  0  0
 49 64  1  0  0  0
 49118  1  0  0  0
 50 51  1  0  0  0
 50119  1  0  0  0
 50120  1  0  0  0
 51 52  1  0  0  0
 51121  1  0  0  0
 51122  1  0  0  0
 52123  1  0  0  0
 52124  1  0  0  0
 53 54  1  0  0  0
 54 55  2  0  0  0
 54125  1  0  0  0
 55 57  1  0  0  0
 55126  1  0  0  0
 56 69  2  0  0  0
 57 58  2  0  0  0
 57127  1  0  0  0
 58128  1  0  0  0
 59 60  1  0  0  0
 59 61  1  0  0  0
 59 62  1  0  0  0
 60129  1  0  0  0
 60130  1  0  0  0
 60131  1  0  0  0
 61132  1  0  0  0
 61133  1  0  0  0
 61134  1  0  0  0
 62135  1  0  0  0
 62136  1  0  0  0
 62137  1  0  0  0
 63 65  1  0  0  0
 63138  1  0  0  0
 63139  1  0  0  0
 63140  1  0  0  0
 64141  1  0  0  0
 65142  1  0  0  0
 68 78  1  0  0  0
 71 72  1  0  0  0
 71 73  2  0  0  0
 71143  1  0  0  0
 72 74  2  0  0  0
 72144  1  0  0  0
 73 77  1  0  0  0
 73 82  1  0  0  0
 74 81  1  0  0  0
 74 82  1  0  0  0
 75145  1  0  0  0
 75146  1  0  0  0
 75147  1  0  0  0
 75 79  1  0  0  0
 76148  1  0  0  0
 76149  1  0  0  0
 76150  1  0  0  0
 76 80  1  0  0  0
 77 80  1  0  0  0
 77151  1  0  0  0
 77152  1  0  0  0
 78 79  1  0  0  0
 78153  1  0  0  0
 78154  1  0  0  0
 79 80  1  0  0  0
 79155  1  0  0  0
 80 83  1  0  0  0
 81156  1  0  0  0
 83157  1  0  0  0
M  ISO  4   1 100  68 101  78 101  81 100
M  END
> <chiral flag>
0

> <version>
0

> <s_m_source_file>
/data/baiqing/PycharmProjects/Reinvent-master-3.2/result/LINK_invent/BTK/process_docking_weight1_custom_product_contain_oxygen_bond_distance_aromatic_linkinvent_7_9_3/rearranged_h_0137.sdf

> <i_m_source_file_index>
49

> <r_mmod_Potential_Energy-OPLS-2005>
173.350555419922

> <r_mmod_Stretch_Energy-OPLS-2005>
125.814933776855

> <r_mmod_Bend_Energy-OPLS-2005>
182.560043334961

> <r_mmod_Torsional_Energy-OPLS-2005>
252.059921264648

> <r_mmod_Improper_Torsional_Energy-OPLS-2005>
6.25416231155396

> <r_mmod_Van_der_Waal_Energy-OPLS-2005>
120.108070373535

> <r_mmod_Electrostatic_Energy-OPLS-2005>
-381.055541992188

> <r_mmod_Solvation_Energy-OPLS-2005>
-215.121612548828

> <b_mmod_Minimization_Converged-OPLS-2005>
0

> <r_mmod_RMS_Derivative-OPLS-2005>
4.13924598693848

$$$$
49
                    3D
 Structure written by MMmdl.
160168  0  0  1  0            999 V2000
  -30.6040  -14.7359   20.4661 C   0  0  0  0  0  0
  -30.4338  -12.4506   19.4621 C   0  0  0  0  0  0
  -29.5069  -12.5023   18.2279 C   0  0  0  0  0  0
  -28.0335  -12.3245   18.6452 C   0  0  0  0  0  0
  -27.6394  -13.2256   19.8465 C   0  0  2  0  0  0
  -28.6867  -13.1559   20.9783 C   0  0  0  0  0  0
  -25.2506  -13.8175   20.5689 C   0  0  0  0  0  0
  -24.1799  -13.0431   20.9222 C   0  0  0  0  0  0
  -24.6381  -11.6905   20.8759 C   0  0  0  0  0  0
  -23.9054  -10.4286   21.0406 C   0  0  0  0  0  0
  -24.3611   -9.4204   21.9186 C   0  0  0  0  0  0
  -23.6293   -8.2236   22.0754 C   0  0  0  0  0  0
  -22.4279   -8.0269   21.3541 C   0  0  0  0  0  0
  -21.9905   -9.0239   20.4642 C   0  0  0  0  0  0
  -22.7228  -10.2123   20.3049 C   0  0  0  0  0  0
  -21.6843   -6.0733   22.5281 C   0  0  0  0  0  0
  -21.4012   -6.5638   23.8215 C   0  0  0  0  0  0
  -21.3666   -5.6795   24.9179 C   0  0  0  0  0  0
  -21.6039   -4.3055   24.7228 C   0  0  0  0  0  0
  -21.8820   -3.8146   23.4349 C   0  0  0  0  0  0
  -21.9195   -4.6963   22.3406 C   0  0  0  0  0  0
  -22.7821  -13.5218   21.1876 C   0  0  0  0  0  0
  -22.1661   -4.2149   21.0982 F   0  0  0  0  0  0
  -21.5631   -3.4538   25.7739 F   0  0  0  0  0  0
  -29.9833  -13.5106   20.3895 N   0  0  0  0  0  0
  -26.2921  -12.9370   20.3268 N   0  0  0  0  0  0
  -25.9306  -11.6519   20.5752 N   0  0  0  0  0  0
  -22.0463  -12.8211   22.0428 N   0  0  0  0  0  0
  -25.4188  -15.1900   20.4083 N   0  0  0  0  0  0
  -31.8049  -14.8348   20.1982 O   0  0  0  0  0  0
  -21.6638   -6.8871   21.4239 O   0  0  0  0  0  0
  -22.3514  -14.5531   20.6726 O   0  0  0  0  0  0
  -24.6322  -31.8539   23.1964 C   0  0  0  0  0  0
  -25.9153  -32.4746   23.8309 C   0  0  1  0  0  0
  -27.2204  -27.2608   20.1395 C   0  0  0  0  0  0
  -25.5951  -33.8551   24.2243 N   0  0  0  0  0  0
  -23.4291  -30.4757   21.5387 C   0  0  2  0  0  0
  -24.8761  -28.9177   20.1129 C   0  0  0  0  0  0
  -22.7500  -29.4605   22.4894 C   0  0  0  0  0  0
  -18.0294  -28.1388   22.8484 C   0  0  0  0  0  0
  -24.1486  -36.7273   23.2641 C   0  0  0  0  0  0
  -25.9741  -30.7702   21.3729 C   0  0  0  0  0  0
  -26.0484  -29.3913   20.7167 C   0  0  0  0  0  0
  -27.2269  -28.5782   20.7104 C   0  0  0  0  0  0
  -26.0258  -26.8474   19.5164 C   0  0  0  0  0  0
  -24.8699  -27.6550   19.4985 C   0  0  0  0  0  0
  -23.6471  -29.8059   20.1563 C   0  0  0  0  0  0
  -25.4112  -36.3058   24.0324 C   0  0  1  0  0  0
  -20.5896  -28.3705   23.1255 C   0  0  2  0  0  0
  -20.6774  -26.9418   22.5409 C   0  0  0  0  0  0
  -19.5748  -26.6385   21.5206 C   0  0  0  0  0  0
  -18.1931  -26.7934   22.1622 C   0  0  0  0  0  0
  -19.1545  -28.8861   23.2870 C   0  0  0  0  0  0
  -18.9476  -30.1466   23.8886 C   0  0  0  0  0  0
  -17.6474  -30.6591   24.0565 C   0  0  0  0  0  0
  -25.9060  -34.9436   23.5080 C   0  0  0  0  0  0
  -16.5361  -29.9091   23.6337 C   0  0  0  0  0  0
  -16.7281  -28.6509   23.0348 C   0  0  0  0  0  0
  -26.4514  -31.6577   25.0708 C   0  0  0  0  0  0
  -25.3746  -31.3727   26.1436 C   0  0  0  0  0  0
  -27.0365  -30.2989   24.6202 C   0  0  0  0  0  0
  -27.6053  -32.4328   25.7495 C   0  0  0  0  0  0
  -27.5570  -37.1792   24.8468 C   0  0  0  0  0  0
  -21.4206  -29.3047   22.3639 N   0  0  0  0  0  0
  -26.4280  -37.3766   23.9414 N   0  0  0  0  0  0
  -24.6973  -31.0512   22.0927 N   0  0  0  0  0  0
  -23.4195  -28.8144   23.2994 O   0  0  0  0  0  0
  -28.3222  -26.3793   20.1437 O   0  0  0  0  0  0
  -26.5632  -34.8922   22.4648 O   0  0  0  0  0  0
  -23.5475  -32.1348   23.7271 O   0  0  0  0  0  0
  -29.3211  -18.4220   20.3087 C   0  0  0  0  0  0
  -31.2364  -17.6387   21.5796 C   0  0  0  0  0  0
  -30.7441  -20.0476   21.4174 C   0  0  0  0  0  0
  -30.1201  -17.2982   20.7838 C   0  0  0  0  0  0
  -29.6099  -19.8202   20.6058 C   0  0  0  0  0  0
  -31.5370  -18.9812   21.8917 C   0  0  0  0  0  0
  -28.1283  -22.5530   17.5024 C   0  0  0  0  0  0
  -30.1168  -23.9244   19.4047 C   0  0  0  0  0  0
  -27.7246  -23.5264   18.6244 C   0  0  0  0  0  0
  -28.1561  -24.9721   20.6569 C   0  0  0  0  0  0
  -28.6879  -22.2541   20.7081 C   0  0  0  0  0  0
  -28.6692  -23.6491   19.8513 C   0  0  2  0  0  0
  -29.7958  -15.8622   20.5669 N   0  0  0  0  0  0
  -28.8672  -20.9122   20.0604 O   0  0  0  0  0  0
  -32.6150  -19.2533   22.6657 F   0  0  0  0  0  0
  -31.4737  -12.5824   19.1597 H   0  0  0  0  0  0
  -30.3807  -11.4738   19.9455 H   0  0  0  0  0  0
  -29.7867  -11.7291   17.5112 H   0  0  0  0  0  0
  -29.6316  -13.4567   17.7143 H   0  0  0  0  0  0
  -27.8930  -11.2761   18.9114 H   0  0  0  0  0  0
  -27.3732  -12.5119   17.7978 H   0  0  0  0  0  0
  -27.6313  -14.2463   19.4651 H   0  0  0  0  0  0
  -28.7243  -12.1553   21.4105 H   0  0  0  0  0  0
  -28.4271  -13.8333   21.7936 H   0  0  0  0  0  0
  -25.2747   -9.5693   22.4775 H   0  0  0  0  0  0
  -24.0005   -7.4621   22.7469 H   0  0  0  0  0  0
  -21.0838   -8.8746   19.8941 H   0  0  0  0  0  0
  -22.3672  -10.9664   19.6166 H   0  0  0  0  0  0
  -21.1997   -7.6146   23.9719 H   0  0  0  0  0  0
  -21.1491   -6.0524   25.9084 H   0  0  0  0  0  0
  -22.0594   -2.7608   23.2846 H   0  0  0  0  0  0
  -22.4078  -11.9875   22.4819 H   0  0  0  0  0  0
  -21.1074  -13.1229   22.2616 H   0  0  0  0  0  0
  -24.6449  -15.8380   20.5082 H   0  0  0  0  0  0
  -26.2534  -15.6292   20.0435 H   0  0  0  0  0  0
  -26.7224  -32.5395   23.1057 H   0  0  0  0  0  0
  -25.0114  -33.9682   25.0396 H   0  0  0  0  0  0
  -22.7269  -31.2982   21.3888 H   0  0  0  0  0  0
  -23.3753  -35.9604   23.3304 H   0  0  0  0  0  0
  -24.3568  -36.8897   22.2056 H   0  0  0  0  0  0
  -23.7245  -37.6472   23.6669 H   0  0  0  0  0  0
  -26.1131  -31.5323   20.6044 H   0  0  0  0  0  0
  -26.8513  -30.8184   22.0072 H   0  0  0  0  0  0
  -28.1292  -28.9409   21.1820 H   0  0  0  0  0  0
  -25.9754  -25.8757   19.0476 H   0  0  0  0  0  0
  -23.9740  -27.2858   19.0191 H   0  0  0  0  0  0
  -23.7740  -30.5801   19.3988 H   0  0  0  0  0  0
  -22.7661  -29.2387   19.8504 H   0  0  0  0  0  0
  -25.1298  -36.1886   25.0817 H   0  0  0  0  0  0
  -20.9996  -28.3287   24.1374 H   0  0  0  0  0  0
  -20.5647  -26.2319   23.3617 H   0  0  0  0  0  0
  -21.6643  -26.7420   22.1211 H   0  0  0  0  0  0
  -19.6913  -25.6295   21.1241 H   0  0  0  0  0  0
  -19.6686  -27.3192   20.6733 H   0  0  0  0  0  0
  -17.4194  -26.6681   21.4026 H   0  0  0  0  0  0
  -18.0333  -26.0074   22.9016 H   0  0  0  0  0  0
  -19.7954  -30.7282   24.2237 H   0  0  0  0  0  0
  -17.5035  -31.6265   24.5178 H   0  0  0  0  0  0
  -15.5365  -30.2990   23.7672 H   0  0  0  0  0  0
  -15.8678  -28.0834   22.7058 H   0  0  0  0  0  0
  -24.5929  -30.7058   25.7778 H   0  0  0  0  0  0
  -24.8937  -32.2897   26.4847 H   0  0  0  0  0  0
  -25.8082  -30.8925   27.0220 H   0  0  0  0  0  0
  -26.2951  -29.6725   24.1225 H   0  0  0  0  0  0
  -27.4040  -29.7257   25.4727 H   0  0  0  0  0  0
  -27.8830  -30.4245   23.9446 H   0  0  0  0  0  0
  -27.2638  -33.3635   26.2038 H   0  0  0  0  0  0
  -28.3888  -32.6881   25.0348 H   0  0  0  0  0  0
  -28.0695  -31.8484   26.5446 H   0  0  0  0  0  0
  -28.2589  -38.0087   24.7507 H   0  0  0  0  0  0
  -28.1061  -36.2618   24.6294 H   0  0  0  0  0  0
  -27.2292  -37.1440   25.8874 H   0  0  0  0  0  0
  -20.9390  -29.8781   21.6854 H   0  0  0  0  0  0
  -26.0148  -38.2836   24.1422 H   0  0  0  0  0  0
  -28.4585  -18.2131   19.6915 H   0  0  0  0  0  0
  -31.8751  -16.8678   21.9866 H   0  0  0  0  0  0
  -31.0575  -21.0489   21.6679 H   0  0  0  0  0  0
  -28.1861  -21.5211   17.8398 H   0  0  0  0  0  0
  -29.0864  -22.8193   17.0568 H   0  0  0  0  0  0
  -27.3864  -22.5767   16.7043 H   0  0  0  0  0  0
  -30.1695  -24.7663   18.7138 H   0  0  0  0  0  0
  -30.5576  -23.0560   18.9144 H   0  0  0  0  0  0
  -30.7491  -24.1624   20.2604 H   0  0  0  0  0  0
  -26.7223  -23.2684   18.9712 H   0  0  0  0  0  0
  -27.6304  -24.5086   18.1604 H   0  0  0  0  0  0
  -27.1120  -24.8138   20.9302 H   0  0  0  0  0  0
  -28.6725  -24.9703   21.6172 H   0  0  0  0  0  0
  -27.7179  -22.1807   21.2022 H   0  0  0  0  0  0
  -29.3877  -22.3755   21.5324 H   0  0  0  0  0  0
  -28.8119  -15.6499   20.5173 H   0  0  0  0  0  0
  1 25  1  0  0  0
  1 30  2  0  0  0
  1 83  1  0  0  0
  2  3  1  0  0  0
  2 25  1  0  0  0
  2 86  1  0  0  0
  2 87  1  0  0  0
  3  4  1  0  0  0
  3 88  1  0  0  0
  3 89  1  0  0  0
  4  5  1  0  0  0
  4 90  1  0  0  0
  4 91  1  0  0  0
  5  6  1  0  0  0
  5 26  1  0  0  0
  5 92  1  0  0  0
  6 25  1  0  0  0
  6 93  1  0  0  0
  6 94  1  0  0  0
  7  8  2  0  0  0
  7 26  1  0  0  0
  7 29  1  0  0  0
  8  9  1  0  0  0
  8 22  1  0  0  0
  9 10  1  0  0  0
  9 27  2  0  0  0
 10 11  2  0  0  0
 10 15  1  0  0  0
 11 12  1  0  0  0
 11 95  1  0  0  0
 12 13  2  0  0  0
 12 96  1  0  0  0
 13 14  1  0  0  0
 13 31  1  0  0  0
 14 15  2  0  0  0
 14 97  1  0  0  0
 15 98  1  0  0  0
 16 17  2  0  0  0
 16 21  1  0  0  0
 16 31  1  0  0  0
 17 18  1  0  0  0
 17 99  1  0  0  0
 18 19  2  0  0  0
 18100  1  0  0  0
 19 20  1  0  0  0
 19 24  1  0  0  0
 20 21  2  0  0  0
 20101  1  0  0  0
 21 23  1  0  0  0
 22 28  1  0  0  0
 22 32  2  0  0  0
 26 27  1  0  0  0
 28102  1  0  0  0
 28103  1  0  0  0
 29104  1  0  0  0
 29105  1  0  0  0
 33 34  1  0  0  0
 33 66  1  0  0  0
 33 70  2  0  0  0
 34 36  1  0  0  0
 34 59  1  0  0  0
 34106  1  0  0  0
 35 44  2  0  0  0
 35 45  1  0  0  0
 35 68  1  0  0  0
 36 56  1  0  0  0
 36107  1  0  0  0
 37 39  1  0  0  0
 37 47  1  0  0  0
 37 66  1  0  0  0
 37108  1  0  0  0
 38 43  2  0  0  0
 38 46  1  0  0  0
 38 47  1  0  0  0
 39 64  1  0  0  0
 39 67  2  0  0  0
 40 52  1  0  0  0
 40 53  2  0  0  0
 40 58  1  0  0  0
 41109  1  0  0  0
 41110  1  0  0  0
 41111  1  0  0  0
 41 48  1  0  0  0
 42 43  1  0  0  0
 42 66  1  0  0  0
 42112  1  0  0  0
 42113  1  0  0  0
 43 44  1  0  0  0
 44114  1  0  0  0
 45 46  2  0  0  0
 45115  1  0  0  0
 46116  1  0  0  0
 47117  1  0  0  0
 47118  1  0  0  0
 48 56  1  0  0  0
 48 65  1  0  0  0
 48119  1  0  0  0
 49 50  1  0  0  0
 49 53  1  0  0  0
 49 64  1  0  0  0
 49120  1  0  0  0
 50 51  1  0  0  0
 50121  1  0  0  0
 50122  1  0  0  0
 51 52  1  0  0  0
 51123  1  0  0  0
 51124  1  0  0  0
 52125  1  0  0  0
 52126  1  0  0  0
 53 54  1  0  0  0
 54 55  2  0  0  0
 54127  1  0  0  0
 55 57  1  0  0  0
 55128  1  0  0  0
 56 69  2  0  0  0
 57 58  2  0  0  0
 57129  1  0  0  0
 58130  1  0  0  0
 59 60  1  0  0  0
 59 61  1  0  0  0
 59 62  1  0  0  0
 60131  1  0  0  0
 60132  1  0  0  0
 60133  1  0  0  0
 61134  1  0  0  0
 61135  1  0  0  0
 61136  1  0  0  0
 62137  1  0  0  0
 62138  1  0  0  0
 62139  1  0  0  0
 63 65  1  0  0  0
 63140  1  0  0  0
 63141  1  0  0  0
 63142  1  0  0  0
 64143  1  0  0  0
 65144  1  0  0  0
 68 80  1  0  0  0
 71 74  2  0  0  0
 71 75  1  0  0  0
 71145  1  0  0  0
 72 74  1  0  0  0
 72 76  2  0  0  0
 72146  1  0  0  0
 73 75  2  0  0  0
 73 76  1  0  0  0
 73147  1  0  0  0
 74 83  1  0  0  0
 75 84  1  0  0  0
 76 85  1  0  0  0
 77 79  1  0  0  0
 77148  1  0  0  0
 77149  1  0  0  0
 77150  1  0  0  0
 78151  1  0  0  0
 78152  1  0  0  0
 78153  1  0  0  0
 78 82  1  0  0  0
 79 82  1  0  0  0
 79154  1  0  0  0
 79155  1  0  0  0
 80 82  1  0  0  0
 80156  1  0  0  0
 80157  1  0  0  0
 81 82  1  0  0  0
 81 84  1  0  0  0
 81158  1  0  0  0
 81159  1  0  0  0
 83160  1  0  0  0
M  ISO  4   1 100  68 101  80 101  83 100
M  END
> <chiral flag>
0

> <version>
0

> <s_m_source_file>
/data/baiqing/PycharmProjects/Reinvent-master-3.2/result/LINK_invent/BTK/process_docking_weight1_custom_product_contain_oxygen_bond_distance_aromatic_linkinvent_7_9_3/rearranged_h_0137.sdf

> <i_m_source_file_index>
50

> <r_mmod_Potential_Energy-OPLS-2005>
257.422271728516

> <r_mmod_Stretch_Energy-OPLS-2005>
130.214141845703

> <r_mmod_Bend_Energy-OPLS-2005>
178.171676635742

> <r_mmod_Torsional_Energy-OPLS-2005>
261.971130371094

> <r_mmod_Improper_Torsional_Energy-OPLS-2005>
7.03430652618408

> <r_mmod_Van_der_Waal_Energy-OPLS-2005>
133.840728759766

> <r_mmod_Electrostatic_Energy-OPLS-2005>
-334.797058105469

> <r_mmod_Solvation_Energy-OPLS-2005>
-201.808654785156

> <b_mmod_Minimization_Converged-OPLS-2005>
0

> <r_mmod_RMS_Derivative-OPLS-2005>
1.32101345062256

$$$$
50
                    3D
 Structure written by MMmdl.
168176  0  0  1  0            999 V2000
  -30.6131  -14.6165   20.5154 C   0  0  0  0  0  0
  -30.4505  -12.3842   19.4315 C   0  0  0  0  0  0
  -29.5067  -12.5057   18.2123 C   0  0  0  0  0  0
  -28.0288  -12.3510   18.6279 C   0  0  0  0  0  0
  -27.6624  -13.2044   19.8715 C   0  0  2  0  0  0
  -28.7117  -13.0209   20.9930 C   0  0  0  0  0  0
  -25.2620  -13.8123   20.5724 C   0  0  0  0  0  0
  -24.1858  -13.0413   20.9202 C   0  0  0  0  0  0
  -24.6395  -11.6885   20.8724 C   0  0  0  0  0  0
  -23.9038  -10.4284   21.0402 C   0  0  0  0  0  0
  -24.3580   -9.4199   21.9176 C   0  0  0  0  0  0
  -23.6263   -8.2235   22.0752 C   0  0  0  0  0  0
  -22.4252   -8.0267   21.3534 C   0  0  0  0  0  0
  -21.9879   -9.0246   20.4638 C   0  0  0  0  0  0
  -22.7207  -10.2130   20.3059 C   0  0  0  0  0  0
  -21.6854   -6.0718   22.5270 C   0  0  0  0  0  0
  -21.4015   -6.5623   23.8202 C   0  0  0  0  0  0
  -21.3658   -5.6769   24.9162 C   0  0  0  0  0  0
  -21.6055   -4.3040   24.7218 C   0  0  0  0  0  0
  -21.8813   -3.8129   23.4342 C   0  0  0  0  0  0
  -21.9192   -4.6946   22.3393 C   0  0  0  0  0  0
  -22.7889  -13.5251   21.1835 C   0  0  0  0  0  0
  -22.1667   -4.2129   21.0971 F   0  0  0  0  0  0
  -21.5635   -3.4525   25.7730 F   0  0  0  0  0  0
  -30.0287  -13.3800   20.4344 N   0  0  0  0  0  0
  -26.3038  -12.9283   20.3352 N   0  0  0  0  0  0
  -25.9321  -11.6456   20.5742 N   0  0  0  0  0  0
  -22.0487  -12.8288   22.0393 N   0  0  0  0  0  0
  -25.4340  -15.1835   20.4147 N   0  0  0  0  0  0
  -31.7553  -14.8318   20.0955 O   0  0  0  0  0  0
  -21.6637   -6.8858   21.4225 O   0  0  0  0  0  0
  -22.3608  -14.5554   20.6654 O   0  0  0  0  0  0
  -24.6265  -31.8619   23.2070 C   0  0  0  0  0  0
  -25.9128  -32.4800   23.8372 C   0  0  1  0  0  0
  -27.2227  -27.3448   20.1303 C   0  0  0  0  0  0
  -25.5932  -33.8588   24.2311 N   0  0  0  0  0  0
  -23.4181  -30.4855   21.5503 C   0  0  2  0  0  0
  -24.8633  -28.9390   20.1181 C   0  0  0  0  0  0
  -22.7491  -29.4642   22.4999 C   0  0  0  0  0  0
  -18.0319  -28.1374   22.8478 C   0  0  0  0  0  0
  -24.1477  -36.7288   23.2639 C   0  0  0  0  0  0
  -25.9553  -30.8010   21.3729 C   0  0  0  0  0  0
  -26.0306  -29.4281   20.7209 C   0  0  0  0  0  0
  -27.2174  -28.6433   20.7138 C   0  0  0  0  0  0
  -26.0412  -26.8991   19.4999 C   0  0  0  0  0  0
  -24.8696  -27.6789   19.4987 C   0  0  0  0  0  0
  -23.6305  -29.8156   20.1667 C   0  0  0  0  0  0
  -25.4097  -36.3097   24.0355 C   0  0  1  0  0  0
  -20.5914  -28.3657   23.1307 C   0  0  2  0  0  0
  -20.6856  -26.9435   22.5280 C   0  0  0  0  0  0
  -19.5794  -26.6529   21.5070 C   0  0  0  0  0  0
  -18.1982  -26.7960   22.1539 C   0  0  0  0  0  0
  -19.1561  -28.8818   23.2915 C   0  0  0  0  0  0
  -18.9458  -30.1416   23.8946 C   0  0  0  0  0  0
  -17.6454  -30.6548   24.0613 C   0  0  0  0  0  0
  -25.9041  -34.9460   23.5140 C   0  0  0  0  0  0
  -16.5348  -29.9045   23.6341 C   0  0  0  0  0  0
  -16.7298  -28.6486   23.0329 C   0  0  0  0  0  0
  -26.4489  -31.6605   25.0739 C   0  0  0  0  0  0
  -25.3725  -31.3713   26.1471 C   0  0  0  0  0  0
  -27.0338  -30.3056   24.6152 C   0  0  0  0  0  0
  -27.6071  -32.4314   25.7481 C   0  0  0  0  0  0
  -27.5583  -37.1798   24.8476 C   0  0  0  0  0  0
  -21.4199  -29.3087   22.3783 N   0  0  0  0  0  0
  -26.4285  -37.3792   23.9429 N   0  0  0  0  0  0
  -24.6853  -31.0664   22.1006 N   0  0  0  0  0  0
  -23.4233  -28.8155   23.3031 O   0  0  0  0  0  0
  -28.3379  -26.5110   20.1601 O   0  0  0  0  0  0
  -26.5594  -34.8920   22.4686 O   0  0  0  0  0  0
  -23.5431  -32.1363   23.7448 O   0  0  0  0  0  0
  -30.6040  -19.3612   20.6965 C   0  0  0  0  0  0
  -30.8165  -17.9453   20.7238 C   0  0  0  0  0  0
  -28.4373  -17.6332   20.7337 C   0  0  0  0  0  0
  -29.3043  -19.9555   20.6876 C   0  0  0  0  0  0
  -29.7228  -17.0443   20.7756 C   0  0  0  0  0  0
  -28.2144  -19.0397   20.6454 C   0  0  0  0  0  0
  -28.9940  -24.0296   19.9485 C   0  0  0  0  0  0
  -23.9115  -18.6938   18.3969 C   0  0  0  0  0  0
  -28.9890  -22.0062   18.4058 C   0  0  0  0  0  0
  -26.9769  -22.4884   19.7901 C   0  0  0  0  0  0
  -29.1200  -21.5155   20.9017 C   0  0  0  0  0  0
  -28.1047  -25.1335   20.6372 C   0  0  0  0  0  0
  -24.6960  -19.2414   19.5972 C   0  0  0  0  0  0
  -26.1985  -18.9856   19.4439 C   0  0  0  0  0  0
  -28.5256  -22.5096   19.7947 C   0  0  0  0  0  0
  -29.7824  -15.5992   20.9605 N   0  0  0  0  0  0
  -30.0981  -24.3638   19.5085 O   0  0  0  0  0  0
  -26.9226  -19.4984   20.5655 O   0  0  0  0  0  0
  -31.4858  -12.5286   19.1195 H   0  0  0  0  0  0
  -30.4045  -11.3803   19.8548 H   0  0  0  0  0  0
  -29.7594  -11.7511   17.4660 H   0  0  0  0  0  0
  -29.6518  -13.4719   17.7257 H   0  0  0  0  0  0
  -27.8529  -11.2939   18.8375 H   0  0  0  0  0  0
  -27.3756  -12.6062   17.7920 H   0  0  0  0  0  0
  -27.6927  -14.2459   19.5517 H   0  0  0  0  0  0
  -28.7282  -11.9864   21.3385 H   0  0  0  0  0  0
  -28.4583  -13.6147   21.8720 H   0  0  0  0  0  0
  -25.2710   -9.5711   22.4762 H   0  0  0  0  0  0
  -23.9960   -7.4645   22.7497 H   0  0  0  0  0  0
  -21.0797   -8.8772   19.8965 H   0  0  0  0  0  0
  -22.3635  -10.9674   19.6194 H   0  0  0  0  0  0
  -21.2009   -7.6127   23.9707 H   0  0  0  0  0  0
  -21.1495   -6.0492   25.9062 H   0  0  0  0  0  0
  -22.0597   -2.7592   23.2836 H   0  0  0  0  0  0
  -22.4013  -11.9941   22.4826 H   0  0  0  0  0  0
  -21.1123  -13.1408   22.2547 H   0  0  0  0  0  0
  -24.6633  -15.8318   20.5293 H   0  0  0  0  0  0
  -26.2627  -15.6133   20.0278 H   0  0  0  0  0  0
  -26.7195  -32.5470   23.1116 H   0  0  0  0  0  0
  -25.0117  -33.9695   25.0491 H   0  0  0  0  0  0
  -22.7084  -31.3040   21.4090 H   0  0  0  0  0  0
  -23.3768  -35.9601   23.3304 H   0  0  0  0  0  0
  -24.3552  -36.8892   22.2049 H   0  0  0  0  0  0
  -23.7181  -37.6484   23.6628 H   0  0  0  0  0  0
  -26.0744  -31.5608   20.5999 H   0  0  0  0  0  0
  -26.8432  -30.8564   21.9912 H   0  0  0  0  0  0
  -28.1167  -29.0137   21.1864 H   0  0  0  0  0  0
  -26.0112  -25.9346   19.0114 H   0  0  0  0  0  0
  -23.9797  -27.2983   19.0154 H   0  0  0  0  0  0
  -23.7467  -30.5869   19.4045 H   0  0  0  0  0  0
  -22.7525  -29.2391   19.8694 H   0  0  0  0  0  0
  -25.1265  -36.1965   25.0853 H   0  0  0  0  0  0
  -20.9958  -28.3146   24.1443 H   0  0  0  0  0  0
  -20.5853  -26.2201   23.3386 H   0  0  0  0  0  0
  -21.6716  -26.7537   22.0977 H   0  0  0  0  0  0
  -19.6962  -25.6525   21.0943 H   0  0  0  0  0  0
  -19.6728  -27.3479   20.6708 H   0  0  0  0  0  0
  -17.4258  -26.6760   21.3922 H   0  0  0  0  0  0
  -18.0381  -26.0019   22.8854 H   0  0  0  0  0  0
  -19.7942  -30.7222   24.2342 H   0  0  0  0  0  0
  -17.4968  -31.6205   24.5266 H   0  0  0  0  0  0
  -15.5339  -30.2922   23.7662 H   0  0  0  0  0  0
  -15.8699  -28.0825   22.7017 H   0  0  0  0  0  0
  -24.5911  -30.7058   25.7777 H   0  0  0  0  0  0
  -24.8905  -32.2875   26.4901 H   0  0  0  0  0  0
  -25.8049  -30.8872   27.0240 H   0  0  0  0  0  0
  -26.2914  -29.6804   24.1189 H   0  0  0  0  0  0
  -27.4096  -29.7292   25.4610 H   0  0  0  0  0  0
  -27.8737  -30.4393   23.9333 H   0  0  0  0  0  0
  -27.2739  -33.3625   26.2062 H   0  0  0  0  0  0
  -28.3866  -32.6849   25.0289 H   0  0  0  0  0  0
  -28.0764  -31.8434   26.5377 H   0  0  0  0  0  0
  -28.2621  -38.0078   24.7537 H   0  0  0  0  0  0
  -28.1058  -36.2618   24.6292 H   0  0  0  0  0  0
  -27.2306  -37.1448   25.8879 H   0  0  0  0  0  0
  -20.9372  -29.8854   21.7040 H   0  0  0  0  0  0
  -26.0195  -38.2886   24.1418 H   0  0  0  0  0  0
  -31.4735  -20.0000   20.7294 H   0  0  0  0  0  0
  -31.8297  -17.5656   20.7710 H   0  0  0  0  0  0
  -27.5813  -16.9787   20.8033 H   0  0  0  0  0  0
  -22.8481  -18.9141   18.4845 H   0  0  0  0  0  0
  -24.0139  -17.6111   18.3098 H   0  0  0  0  0  0
  -24.2670  -19.1363   17.4649 H   0  0  0  0  0  0
  -28.6622  -22.6749   17.6084 H   0  0  0  0  0  0
  -28.5831  -21.0222   18.1721 H   0  0  0  0  0  0
  -30.0752  -21.9253   18.3456 H   0  0  0  0  0  0
  -26.5566  -23.2951   19.1866 H   0  0  0  0  0  0
  -26.5564  -22.5609   20.7942 H   0  0  0  0  0  0
  -26.5849  -21.5851   19.3386 H   0  0  0  0  0  0
  -30.1125  -21.8881   21.1621 H   0  0  0  0  0  0
  -28.5452  -21.6364   21.8226 H   0  0  0  0  0  0
  -27.0538  -24.8650   20.5845 H   0  0  0  0  0  0
  -28.3486  -25.1237   21.7006 H   0  0  0  0  0  0
  -24.3382  -18.7680   20.5130 H   0  0  0  0  0  0
  -24.5047  -20.3109   19.6985 H   0  0  0  0  0  0
  -26.5674  -19.4683   18.5385 H   0  0  0  0  0  0
  -26.3443  -17.9176   19.2891 H   0  0  0  0  0  0
  -28.9174  -15.1995   21.2916 H   0  0  0  0  0  0
  1 25  1  0  0  0
  1 30  2  0  0  0
  1 86  1  0  0  0
  2  3  1  0  0  0
  2 25  1  0  0  0
  2 89  1  0  0  0
  2 90  1  0  0  0
  3  4  1  0  0  0
  3 91  1  0  0  0
  3 92  1  0  0  0
  4  5  1  0  0  0
  4 93  1  0  0  0
  4 94  1  0  0  0
  5  6  1  0  0  0
  5 26  1  0  0  0
  5 95  1  0  0  0
  6 25  1  0  0  0
  6 96  1  0  0  0
  6 97  1  0  0  0
  7  8  2  0  0  0
  7 26  1  0  0  0
  7 29  1  0  0  0
  8  9  1  0  0  0
  8 22  1  0  0  0
  9 10  1  0  0  0
  9 27  2  0  0  0
 10 11  2  0  0  0
 10 15  1  0  0  0
 11 12  1  0  0  0
 11 98  1  0  0  0
 12 13  2  0  0  0
 12 99  1  0  0  0
 13 14  1  0  0  0
 13 31  1  0  0  0
 14 15  2  0  0  0
 14100  1  0  0  0
 15101  1  0  0  0
 16 17  2  0  0  0
 16 21  1  0  0  0
 16 31  1  0  0  0
 17 18  1  0  0  0
 17102  1  0  0  0
 18 19  2  0  0  0
 18103  1  0  0  0
 19 20  1  0  0  0
 19 24  1  0  0  0
 20 21  2  0  0  0
 20104  1  0  0  0
 21 23  1  0  0  0
 22 28  1  0  0  0
 22 32  2  0  0  0
 26 27  1  0  0  0
 28105  1  0  0  0
 28106  1  0  0  0
 29107  1  0  0  0
 29108  1  0  0  0
 33 34  1  0  0  0
 33 66  1  0  0  0
 33 70  2  0  0  0
 34 36  1  0  0  0
 34 59  1  0  0  0
 34109  1  0  0  0
 35 44  2  0  0  0
 35 45  1  0  0  0
 35 68  1  0  0  0
 36 56  1  0  0  0
 36110  1  0  0  0
 37 39  1  0  0  0
 37 47  1  0  0  0
 37 66  1  0  0  0
 37111  1  0  0  0
 38 43  2  0  0  0
 38 46  1  0  0  0
 38 47  1  0  0  0
 39 64  1  0  0  0
 39 67  2  0  0  0
 40 52  1  0  0  0
 40 53  2  0  0  0
 40 58  1  0  0  0
 41112  1  0  0  0
 41113  1  0  0  0
 41114  1  0  0  0
 41 48  1  0  0  0
 42 43  1  0  0  0
 42 66  1  0  0  0
 42115  1  0  0  0
 42116  1  0  0  0
 43 44  1  0  0  0
 44117  1  0  0  0
 45 46  2  0  0  0
 45118  1  0  0  0
 46119  1  0  0  0
 47120  1  0  0  0
 47121  1  0  0  0
 48 56  1  0  0  0
 48 65  1  0  0  0
 48122  1  0  0  0
 49 50  1  0  0  0
 49 53  1  0  0  0
 49 64  1  0  0  0
 49123  1  0  0  0
 50 51  1  0  0  0
 50124  1  0  0  0
 50125  1  0  0  0
 51 52  1  0  0  0
 51126  1  0  0  0
 51127  1  0  0  0
 52128  1  0  0  0
 52129  1  0  0  0
 53 54  1  0  0  0
 54 55  2  0  0  0
 54130  1  0  0  0
 55 57  1  0  0  0
 55131  1  0  0  0
 56 69  2  0  0  0
 57 58  2  0  0  0
 57132  1  0  0  0
 58133  1  0  0  0
 59 60  1  0  0  0
 59 61  1  0  0  0
 59 62  1  0  0  0
 60134  1  0  0  0
 60135  1  0  0  0
 60136  1  0  0  0
 61137  1  0  0  0
 61138  1  0  0  0
 61139  1  0  0  0
 62140  1  0  0  0
 62141  1  0  0  0
 62142  1  0  0  0
 63 65  1  0  0  0
 63143  1  0  0  0
 63144  1  0  0  0
 63145  1  0  0  0
 64146  1  0  0  0
 65147  1  0  0  0
 68 82  1  0  0  0
 71 72  2  0  0  0
 71 74  1  0  0  0
 71148  1  0  0  0
 72 75  1  0  0  0
 72149  1  0  0  0
 73 75  2  0  0  0
 73 76  1  0  0  0
 73150  1  0  0  0
 74 76  2  0  0  0
 74 81  1  0  0  0
 75 86  1  0  0  0
 76 88  1  0  0  0
 77 82  1  0  0  0
 77 85  1  0  0  0
 77 87  2  0  0  0
 78 83  1  0  0  0
 78151  1  0  0  0
 78152  1  0  0  0
 78153  1  0  0  0
 79154  1  0  0  0
 79155  1  0  0  0
 79156  1  0  0  0
 79 85  1  0  0  0
 80 85  1  0  0  0
 80157  1  0  0  0
 80158  1  0  0  0
 80159  1  0  0  0
 81 85  1  0  0  0
 81160  1  0  0  0
 81161  1  0  0  0
 82162  1  0  0  0
 82163  1  0  0  0
 83 84  1  0  0  0
 83164  1  0  0  0
 83165  1  0  0  0
 84 88  1  0  0  0
 84166  1  0  0  0
 84167  1  0  0  0
 86168  1  0  0  0
M  ISO  4   1 100  68 101  82 101  86 100
M  END
> <chiral flag>
0

> <version>
0

> <s_m_source_file>
/data/baiqing/PycharmProjects/Reinvent-master-3.2/result/LINK_invent/BTK/process_docking_weight1_custom_product_contain_oxygen_bond_distance_aromatic_linkinvent_7_9_3/rearranged_h_0137.sdf

> <i_m_source_file_index>
51

> <r_mmod_Potential_Energy-OPLS-2005>
150.62548828125

> <r_mmod_Stretch_Energy-OPLS-2005>
80.5403747558594

> <r_mmod_Bend_Energy-OPLS-2005>
146.739990234375

> <r_mmod_Torsional_Energy-OPLS-2005>
280.181304931641

> <r_mmod_Improper_Torsional_Energy-OPLS-2005>
5.31131839752197

> <r_mmod_Van_der_Waal_Energy-OPLS-2005>
143.176635742188

> <r_mmod_Electrostatic_Energy-OPLS-2005>
-326.343139648438

> <r_mmod_Solvation_Energy-OPLS-2005>
-219.532318115234

> <b_mmod_Minimization_Converged-OPLS-2005>
0

> <r_mmod_RMS_Derivative-OPLS-2005>
3.28137636184692

$$$$
51
                    3D
 Structure written by MMmdl.
162170  0  0  1  0            999 V2000
  -30.6312  -14.6092   20.5255 C   0  0  0  0  0  0
  -30.4411  -12.3782   19.4498 C   0  0  0  0  0  0
  -29.5093  -12.5098   18.2244 C   0  0  0  0  0  0
  -28.0310  -12.3523   18.6339 C   0  0  0  0  0  0
  -27.6576  -13.2142   19.8689 C   0  0  2  0  0  0
  -28.6995  -13.0462   20.9982 C   0  0  0  0  0  0
  -25.2574  -13.8164   20.5659 C   0  0  0  0  0  0
  -24.1841  -13.0438   20.9189 C   0  0  0  0  0  0
  -24.6400  -11.6912   20.8738 C   0  0  0  0  0  0
  -23.9069  -10.4293   21.0407 C   0  0  0  0  0  0
  -24.3622   -9.4208   21.9185 C   0  0  0  0  0  0
  -23.6293   -8.2245   22.0757 C   0  0  0  0  0  0
  -22.4279   -8.0284   21.3542 C   0  0  0  0  0  0
  -21.9914   -9.0259   20.4648 C   0  0  0  0  0  0
  -22.7242  -10.2135   20.3054 C   0  0  0  0  0  0
  -21.6855   -6.0738   22.5281 C   0  0  0  0  0  0
  -21.4013   -6.5642   23.8212 C   0  0  0  0  0  0
  -21.3661   -5.6793   24.9177 C   0  0  0  0  0  0
  -21.6044   -4.3056   24.7225 C   0  0  0  0  0  0
  -21.8819   -3.8148   23.4347 C   0  0  0  0  0  0
  -21.9192   -4.6968   22.3401 C   0  0  0  0  0  0
  -22.7857  -13.5233   21.1845 C   0  0  0  0  0  0
  -22.1661   -4.2150   21.0979 F   0  0  0  0  0  0
  -21.5630   -3.4539   25.7738 F   0  0  0  0  0  0
  -30.0220  -13.3855   20.4432 N   0  0  0  0  0  0
  -26.3013  -12.9343   20.3335 N   0  0  0  0  0  0
  -25.9334  -11.6501   20.5768 N   0  0  0  0  0  0
  -22.0500  -12.8224   22.0405 N   0  0  0  0  0  0
  -25.4269  -15.1877   20.4032 N   0  0  0  0  0  0
  -31.7764  -14.7928   20.0995 O   0  0  0  0  0  0
  -21.6642   -6.8886   21.4243 O   0  0  0  0  0  0
  -22.3545  -14.5538   20.6703 O   0  0  0  0  0  0
  -24.6226  -31.8612   23.2045 C   0  0  0  0  0  0
  -25.9102  -32.4779   23.8343 C   0  0  1  0  0  0
  -27.2239  -27.3484   20.1056 C   0  0  0  0  0  0
  -25.5926  -33.8584   24.2265 N   0  0  0  0  0  0
  -23.4133  -30.4862   21.5457 C   0  0  2  0  0  0
  -24.8594  -28.9473   20.1088 C   0  0  0  0  0  0
  -22.7441  -29.4637   22.4943 C   0  0  0  0  0  0
  -18.0290  -28.1389   22.8498 C   0  0  0  0  0  0
  -24.1495  -36.7303   23.2635 C   0  0  0  0  0  0
  -25.9502  -30.8017   21.3701 C   0  0  0  0  0  0
  -26.0248  -29.4309   20.7159 C   0  0  0  0  0  0
  -27.2072  -28.6391   20.7111 C   0  0  0  0  0  0
  -26.0385  -26.9192   19.4621 C   0  0  0  0  0  0
  -24.8652  -27.6941   19.4785 C   0  0  0  0  0  0
  -23.6250  -29.8212   20.1595 C   0  0  0  0  0  0
  -25.4115  -36.3074   24.0313 C   0  0  1  0  0  0
  -20.5878  -28.3678   23.1307 C   0  0  2  0  0  0
  -20.6771  -26.9410   22.5404 C   0  0  0  0  0  0
  -19.5748  -26.6396   21.5209 C   0  0  0  0  0  0
  -18.1936  -26.7935   22.1623 C   0  0  0  0  0  0
  -19.1540  -28.8851   23.2902 C   0  0  0  0  0  0
  -18.9464  -30.1458   23.8909 C   0  0  0  0  0  0
  -17.6460  -30.6592   24.0579 C   0  0  0  0  0  0
  -25.9046  -34.9453   23.5086 C   0  0  0  0  0  0
  -16.5351  -29.9096   23.6333 C   0  0  0  0  0  0
  -16.7274  -28.6513   23.0347 C   0  0  0  0  0  0
  -26.4495  -31.6583   25.0702 C   0  0  0  0  0  0
  -25.3741  -31.3725   26.1434 C   0  0  0  0  0  0
  -27.0316  -30.3006   24.6127 C   0  0  0  0  0  0
  -27.6047  -32.4306   25.7491 C   0  0  0  0  0  0
  -27.5573  -37.1798   24.8458 C   0  0  0  0  0  0
  -21.4154  -29.3042   22.3699 N   0  0  0  0  0  0
  -26.4287  -37.3767   23.9403 N   0  0  0  0  0  0
  -24.6815  -31.0634   22.0990 N   0  0  0  0  0  0
  -23.4193  -28.8187   23.3011 O   0  0  0  0  0  0
  -28.3594  -26.5327   20.1635 O   0  0  0  0  0  0
  -26.5607  -34.8914   22.4649 O   0  0  0  0  0  0
  -23.5396  -32.1416   23.7390 O   0  0  0  0  0  0
  -30.7826  -19.2163   19.9912 C   0  0  0  0  0  0
  -30.7841  -17.7919   20.0369 C   0  0  0  0  0  0
  -29.0084  -19.2832   21.6170 C   0  0  0  0  0  0
  -29.9066  -19.9984   20.7904 C   0  0  0  0  0  0
  -29.0093  -17.8580   21.6765 C   0  0  0  0  0  0
  -29.9081  -17.0752   20.8946 C   0  0  0  0  0  0
  -28.0425  -17.1773   22.6319 C   0  0  0  0  0  0
  -30.6595  -24.5629   20.3789 C   0  0  0  0  0  0
  -28.9338  -24.3182   22.1836 C   0  0  0  0  0  0
  -30.0797  -21.5481   20.9212 C   0  0  0  0  0  0
  -29.0350  -22.5701   20.3064 C   0  0  0  0  0  0
  -28.2307  -25.0873   19.9005 C   0  0  0  0  0  0
  -29.2155  -24.1193   20.6801 C   0  0  0  0  0  0
  -29.8431  -15.6209   20.9923 N   0  0  0  0  0  0
  -31.4817  -12.5072   19.1466 H   0  0  0  0  0  0
  -30.3776  -11.3775   19.8794 H   0  0  0  0  0  0
  -29.7696  -11.7644   17.4724 H   0  0  0  0  0  0
  -29.6569  -13.4828   17.7534 H   0  0  0  0  0  0
  -27.8607  -11.2983   18.8555 H   0  0  0  0  0  0
  -27.3790  -12.5946   17.7939 H   0  0  0  0  0  0
  -27.6841  -14.2541   19.5415 H   0  0  0  0  0  0
  -28.7035  -12.0197   21.3671 H   0  0  0  0  0  0
  -28.4426  -13.6644   21.8599 H   0  0  0  0  0  0
  -25.2769   -9.5685   22.4759 H   0  0  0  0  0  0
  -24.0005   -7.4637   22.7473 H   0  0  0  0  0  0
  -21.0849   -8.8779   19.8950 H   0  0  0  0  0  0
  -22.3707  -10.9677   19.6164 H   0  0  0  0  0  0
  -21.2007   -7.6149   23.9718 H   0  0  0  0  0  0
  -21.1482   -6.0522   25.9076 H   0  0  0  0  0  0
  -22.0598   -2.7611   23.2844 H   0  0  0  0  0  0
  -22.4115  -11.9887   22.4788 H   0  0  0  0  0  0
  -21.1118  -13.1253   22.2603 H   0  0  0  0  0  0
  -24.6551  -15.8387   20.4978 H   0  0  0  0  0  0
  -26.2678  -15.6226   20.0453 H   0  0  0  0  0  0
  -26.7162  -32.5432   23.1080 H   0  0  0  0  0  0
  -25.0080  -33.9742   25.0412 H   0  0  0  0  0  0
  -22.7066  -31.3063   21.4042 H   0  0  0  0  0  0
  -23.3738  -35.9653   23.3296 H   0  0  0  0  0  0
  -24.3596  -36.8928   22.2051 H   0  0  0  0  0  0
  -23.7274  -37.6514   23.6663 H   0  0  0  0  0  0
  -26.0661  -31.5661   20.6000 H   0  0  0  0  0  0
  -26.8375  -30.8557   21.9894 H   0  0  0  0  0  0
  -28.0989  -29.0038   21.2017 H   0  0  0  0  0  0
  -25.9865  -25.9736   18.9435 H   0  0  0  0  0  0
  -23.9718  -27.3193   18.9985 H   0  0  0  0  0  0
  -23.7346  -30.5972   19.3998 H   0  0  0  0  0  0
  -22.7475  -29.2420   19.8619 H   0  0  0  0  0  0
  -25.1301  -36.1908   25.0798 H   0  0  0  0  0  0
  -20.9973  -28.3237   24.1429 H   0  0  0  0  0  0
  -20.5686  -26.2278   23.3593 H   0  0  0  0  0  0
  -21.6644  -26.7459   22.1196 H   0  0  0  0  0  0
  -19.6915  -25.6318   21.1230 H   0  0  0  0  0  0
  -19.6693  -27.3216   20.6756 H   0  0  0  0  0  0
  -17.4200  -26.6691   21.4033 H   0  0  0  0  0  0
  -18.0344  -26.0081   22.9020 H   0  0  0  0  0  0
  -19.7934  -30.7277   24.2276 H   0  0  0  0  0  0
  -17.5015  -31.6274   24.5167 H   0  0  0  0  0  0
  -15.5351  -30.2996   23.7658 H   0  0  0  0  0  0
  -15.8670  -28.0840   22.7038 H   0  0  0  0  0  0
  -24.5931  -30.7051   25.7776 H   0  0  0  0  0  0
  -24.8927  -32.2901   26.4825 H   0  0  0  0  0  0
  -25.8092  -30.8938   27.0222 H   0  0  0  0  0  0
  -26.2874  -29.6773   24.1155 H   0  0  0  0  0  0
  -27.4032  -29.7231   25.4602 H   0  0  0  0  0  0
  -27.8739  -30.4288   23.9327 H   0  0  0  0  0  0
  -27.2648  -33.3602   26.2076 H   0  0  0  0  0  0
  -28.3884  -32.6871   25.0349 H   0  0  0  0  0  0
  -28.0690  -31.8421   26.5415 H   0  0  0  0  0  0
  -28.2567  -38.0112   24.7496 H   0  0  0  0  0  0
  -28.1086  -36.2635   24.6286 H   0  0  0  0  0  0
  -27.2293  -37.1456   25.8861 H   0  0  0  0  0  0
  -20.9311  -29.8763   21.6920 H   0  0  0  0  0  0
  -26.0155  -38.2833   24.1416 H   0  0  0  0  0  0
  -31.5066  -19.7120   19.3592 H   0  0  0  0  0  0
  -31.4825  -17.2596   19.4083 H   0  0  0  0  0  0
  -28.3407  -19.8402   22.2596 H   0  0  0  0  0  0
  -27.5232  -17.8994   23.2632 H   0  0  0  0  0  0
  -28.5757  -16.4931   23.2932 H   0  0  0  0  0  0
  -27.2903  -16.6123   22.0812 H   0  0  0  0  0  0
  -31.3815  -24.0480   21.0130 H   0  0  0  0  0  0
  -30.7944  -25.6291   20.5643 H   0  0  0  0  0  0
  -30.9309  -24.3694   19.3422 H   0  0  0  0  0  0
  -29.6271  -23.7648   22.8161 H   0  0  0  0  0  0
  -27.9226  -24.0056   22.4479 H   0  0  0  0  0  0
  -29.0272  -25.3692   22.4633 H   0  0  0  0  0  0
  -31.0636  -21.7891   20.5178 H   0  0  0  0  0  0
  -30.1586  -21.7423   21.9900 H   0  0  0  0  0  0
  -28.0330  -22.2557   20.6003 H   0  0  0  0  0  0
  -29.0584  -22.4637   19.2211 H   0  0  0  0  0  0
  -28.3505  -24.9376   18.8266 H   0  0  0  0  0  0
  -27.2281  -24.7387   20.1436 H   0  0  0  0  0  0
  -28.9944  -15.2771   21.4134 H   0  0  0  0  0  0
  1 25  1  0  0  0
  1 30  2  0  0  0
  1 84  1  0  0  0
  2  3  1  0  0  0
  2 25  1  0  0  0
  2 85  1  0  0  0
  2 86  1  0  0  0
  3  4  1  0  0  0
  3 87  1  0  0  0
  3 88  1  0  0  0
  4  5  1  0  0  0
  4 89  1  0  0  0
  4 90  1  0  0  0
  5  6  1  0  0  0
  5 26  1  0  0  0
  5 91  1  0  0  0
  6 25  1  0  0  0
  6 92  1  0  0  0
  6 93  1  0  0  0
  7  8  2  0  0  0
  7 26  1  0  0  0
  7 29  1  0  0  0
  8  9  1  0  0  0
  8 22  1  0  0  0
  9 10  1  0  0  0
  9 27  2  0  0  0
 10 11  2  0  0  0
 10 15  1  0  0  0
 11 12  1  0  0  0
 11 94  1  0  0  0
 12 13  2  0  0  0
 12 95  1  0  0  0
 13 14  1  0  0  0
 13 31  1  0  0  0
 14 15  2  0  0  0
 14 96  1  0  0  0
 15 97  1  0  0  0
 16 17  2  0  0  0
 16 21  1  0  0  0
 16 31  1  0  0  0
 17 18  1  0  0  0
 17 98  1  0  0  0
 18 19  2  0  0  0
 18 99  1  0  0  0
 19 20  1  0  0  0
 19 24  1  0  0  0
 20 21  2  0  0  0
 20100  1  0  0  0
 21 23  1  0  0  0
 22 28  1  0  0  0
 22 32  2  0  0  0
 26 27  1  0  0  0
 28101  1  0  0  0
 28102  1  0  0  0
 29103  1  0  0  0
 29104  1  0  0  0
 33 34  1  0  0  0
 33 66  1  0  0  0
 33 70  2  0  0  0
 34 36  1  0  0  0
 34 59  1  0  0  0
 34105  1  0  0  0
 35 44  2  0  0  0
 35 45  1  0  0  0
 35 68  1  0  0  0
 36 56  1  0  0  0
 36106  1  0  0  0
 37 39  1  0  0  0
 37 47  1  0  0  0
 37 66  1  0  0  0
 37107  1  0  0  0
 38 43  2  0  0  0
 38 46  1  0  0  0
 38 47  1  0  0  0
 39 64  1  0  0  0
 39 67  2  0  0  0
 40 52  1  0  0  0
 40 53  2  0  0  0
 40 58  1  0  0  0
 41108  1  0  0  0
 41109  1  0  0  0
 41110  1  0  0  0
 41 48  1  0  0  0
 42 43  1  0  0  0
 42 66  1  0  0  0
 42111  1  0  0  0
 42112  1  0  0  0
 43 44  1  0  0  0
 44113  1  0  0  0
 45 46  2  0  0  0
 45114  1  0  0  0
 46115  1  0  0  0
 47116  1  0  0  0
 47117  1  0  0  0
 48 56  1  0  0  0
 48 65  1  0  0  0
 48118  1  0  0  0
 49 50  1  0  0  0
 49 53  1  0  0  0
 49 64  1  0  0  0
 49119  1  0  0  0
 50 51  1  0  0  0
 50120  1  0  0  0
 50121  1  0  0  0
 51 52  1  0  0  0
 51122  1  0  0  0
 51123  1  0  0  0
 52124  1  0  0  0
 52125  1  0  0  0
 53 54  1  0  0  0
 54 55  2  0  0  0
 54126  1  0  0  0
 55 57  1  0  0  0
 55127  1  0  0  0
 56 69  2  0  0  0
 57 58  2  0  0  0
 57128  1  0  0  0
 58129  1  0  0  0
 59 60  1  0  0  0
 59 61  1  0  0  0
 59 62  1  0  0  0
 60130  1  0  0  0
 60131  1  0  0  0
 60132  1  0  0  0
 61133  1  0  0  0
 61134  1  0  0  0
 61135  1  0  0  0
 62136  1  0  0  0
 62137  1  0  0  0
 62138  1  0  0  0
 63 65  1  0  0  0
 63139  1  0  0  0
 63140  1  0  0  0
 63141  1  0  0  0
 64142  1  0  0  0
 65143  1  0  0  0
 68 82  1  0  0  0
 71 72  2  0  0  0
 71 74  1  0  0  0
 71144  1  0  0  0
 72 76  1  0  0  0
 72145  1  0  0  0
 73 74  2  0  0  0
 73 75  1  0  0  0
 73146  1  0  0  0
 74 80  1  0  0  0
 75 76  2  0  0  0
 75 77  1  0  0  0
 76 84  1  0  0  0
 77147  1  0  0  0
 77148  1  0  0  0
 77149  1  0  0  0
 78150  1  0  0  0
 78151  1  0  0  0
 78152  1  0  0  0
 78 83  1  0  0  0
 79 83  1  0  0  0
 79153  1  0  0  0
 79154  1  0  0  0
 79155  1  0  0  0
 80 81  1  0  0  0
 80156  1  0  0  0
 80157  1  0  0  0
 81 83  1  0  0  0
 81158  1  0  0  0
 81159  1  0  0  0
 82 83  1  0  0  0
 82160  1  0  0  0
 82161  1  0  0  0
 84162  1  0  0  0
M  ISO  4   1 100  68 101  82 101  84 100
M  END
> <chiral flag>
0

> <version>
0

> <s_m_source_file>
/data/baiqing/PycharmProjects/Reinvent-master-3.2/result/LINK_invent/BTK/process_docking_weight1_custom_product_contain_oxygen_bond_distance_aromatic_linkinvent_7_9_3/rearranged_h_0137.sdf

> <i_m_source_file_index>
52

> <r_mmod_Potential_Energy-OPLS-2005>
25.7066287994385

> <r_mmod_Stretch_Energy-OPLS-2005>
71.2707366943359

> <r_mmod_Bend_Energy-OPLS-2005>
133.864517211914

> <r_mmod_Torsional_Energy-OPLS-2005>
221.897705078125

> <r_mmod_Improper_Torsional_Energy-OPLS-2005>
4.36692476272583

> <r_mmod_Van_der_Waal_Energy-OPLS-2005>
146.378509521484

> <r_mmod_Electrostatic_Energy-OPLS-2005>
-397.1767578125

> <r_mmod_Solvation_Energy-OPLS-2005>
-192.410583496094

> <b_mmod_Minimization_Converged-OPLS-2005>
0

> <r_mmod_RMS_Derivative-OPLS-2005>
2.17398476600647

$$$$
52
                    3D
 Structure written by MMmdl.
156164  0  0  1  0            999 V2000
  -30.7258  -14.4135   20.6312 C   0  0  0  0  0  0
  -30.4232  -12.2926   19.4076 C   0  0  0  0  0  0
  -29.4904  -12.4970   18.1974 C   0  0  0  0  0  0
  -28.0122  -12.3620   18.6142 C   0  0  0  0  0  0
  -27.6622  -13.2005   19.8731 C   0  0  2  0  0  0
  -28.6999  -12.9561   20.9902 C   0  0  0  0  0  0
  -25.2583  -13.8149   20.5669 C   0  0  0  0  0  0
  -24.1831  -13.0435   20.9179 C   0  0  0  0  0  0
  -24.6383  -11.6897   20.8733 C   0  0  0  0  0  0
  -23.9056  -10.4283   21.0401 C   0  0  0  0  0  0
  -24.3607   -9.4201   21.9178 C   0  0  0  0  0  0
  -23.6282   -8.2237   22.0749 C   0  0  0  0  0  0
  -22.4252   -8.0286   21.3549 C   0  0  0  0  0  0
  -21.9890   -9.0261   20.4654 C   0  0  0  0  0  0
  -22.7222  -10.2135   20.3061 C   0  0  0  0  0  0
  -21.6845   -6.0733   22.5276 C   0  0  0  0  0  0
  -21.4016   -6.5636   23.8215 C   0  0  0  0  0  0
  -21.3660   -5.6786   24.9174 C   0  0  0  0  0  0
  -21.6037   -4.3050   24.7221 C   0  0  0  0  0  0
  -21.8818   -3.8149   23.4339 C   0  0  0  0  0  0
  -21.9191   -4.6966   22.3394 C   0  0  0  0  0  0
  -22.7858  -13.5249   21.1846 C   0  0  0  0  0  0
  -22.1656   -4.2163   21.0971 F   0  0  0  0  0  0
  -21.5631   -3.4527   25.7732 F   0  0  0  0  0  0
  -30.0346  -13.2592   20.4432 N   0  0  0  0  0  0
  -26.3012  -12.9312   20.3334 N   0  0  0  0  0  0
  -25.9302  -11.6479   20.5743 N   0  0  0  0  0  0
  -22.0484  -12.8270   22.0409 N   0  0  0  0  0  0
  -25.4325  -15.1860   20.4062 N   0  0  0  0  0  0
  -31.8309  -14.6291   20.1205 O   0  0  0  0  0  0
  -21.6630   -6.8871   21.4233 O   0  0  0  0  0  0
  -22.3542  -14.5553   20.6697 O   0  0  0  0  0  0
  -24.6123  -31.8685   23.2119 C   0  0  0  0  0  0
  -25.9019  -32.4829   23.8408 C   0  0  1  0  0  0
  -27.2370  -27.4419   20.0830 C   0  0  0  0  0  0
  -25.5865  -33.8628   24.2334 N   0  0  0  0  0  0
  -23.3997  -30.4962   21.5509 C   0  0  2  0  0  0
  -24.8448  -28.9626   20.1172 C   0  0  0  0  0  0
  -22.7388  -29.4681   22.4961 C   0  0  0  0  0  0
  -18.0270  -28.1400   22.8490 C   0  0  0  0  0  0
  -24.1478  -36.7333   23.2635 C   0  0  0  0  0  0
  -25.9287  -30.8348   21.3660 C   0  0  0  0  0  0
  -26.0032  -29.4688   20.7155 C   0  0  0  0  0  0
  -27.1975  -28.7118   20.7026 C   0  0  0  0  0  0
  -26.0516  -26.9472   19.4856 C   0  0  0  0  0  0
  -24.8610  -27.6984   19.5059 C   0  0  0  0  0  0
  -23.6093  -29.8337   20.1633 C   0  0  0  0  0  0
  -25.4100  -36.3119   24.0333 C   0  0  1  0  0  0
  -20.5860  -28.3688   23.1307 C   0  0  2  0  0  0
  -20.6761  -26.9414   22.5419 C   0  0  0  0  0  0
  -19.5743  -26.6403   21.5205 C   0  0  0  0  0  0
  -18.1925  -26.7949   22.1622 C   0  0  0  0  0  0
  -19.1522  -28.8856   23.2913 C   0  0  0  0  0  0
  -18.9451  -30.1452   23.8938 C   0  0  0  0  0  0
  -17.6460  -30.6596   24.0583 C   0  0  0  0  0  0
  -25.9028  -34.9479   23.5139 C   0  0  0  0  0  0
  -16.5351  -29.9115   23.6317 C   0  0  0  0  0  0
  -16.7270  -28.6533   23.0339 C   0  0  0  0  0  0
  -26.4463  -31.6605   25.0727 C   0  0  0  0  0  0
  -25.3743  -31.3713   26.1488 C   0  0  0  0  0  0
  -27.0277  -30.3039   24.6102 C   0  0  0  0  0  0
  -27.6057  -32.4316   25.7476 C   0  0  0  0  0  0
  -27.5582  -37.1815   24.8463 C   0  0  0  0  0  0
  -21.4122  -29.3059   22.3704 N   0  0  0  0  0  0
  -26.4287  -37.3799   23.9411 N   0  0  0  0  0  0
  -24.6656  -31.0807   22.1020 N   0  0  0  0  0  0
  -23.4172  -28.8209   23.2987 O   0  0  0  0  0  0
  -28.4286  -26.7391   20.0908 O   0  0  0  0  0  0
  -26.5608  -34.8929   22.4712 O   0  0  0  0  0  0
  -23.5317  -32.1436   23.7521 O   0  0  0  0  0  0
  -32.2004  -17.9863   22.9231 C   0  0  0  0  0  0
  -31.7070  -16.7238   22.5507 C   0  0  0  0  0  0
  -31.5957  -19.1613   22.4348 C   0  0  0  0  0  0
  -29.9743  -17.8115   21.2174 C   0  0  0  0  0  0
  -30.5950  -16.6301   21.6867 C   0  0  0  0  0  0
  -30.4766  -19.0868   21.5657 C   0  0  0  0  0  0
  -29.7168  -22.5631   20.4543 C   0  0  0  0  0  0
  -30.2295  -24.0037   20.6077 C   0  0  0  0  0  0
  -30.3883  -21.4848   21.3204 C   0  0  0  0  0  0
  -29.9325  -24.9341   19.4045 C   0  0  0  0  0  0
  -28.5067  -25.5211   19.3465 C   0  0  0  0  0  0
  -30.0758  -15.3605   21.3281 N   0  0  0  0  0  0
  -28.8114  -22.2849   19.6599 O   0  0  0  0  0  0
  -29.8457  -20.1918   21.0281 O   0  0  0  0  0  0
  -31.4677  -12.3978   19.1052 H   0  0  0  0  0  0
  -30.3313  -11.2780   19.7972 H   0  0  0  0  0  0
  -29.7236  -11.7683   17.4203 H   0  0  0  0  0  0
  -29.6643  -13.4783   17.7542 H   0  0  0  0  0  0
  -27.8173  -11.3068   18.8092 H   0  0  0  0  0  0
  -27.3613  -12.6413   17.7850 H   0  0  0  0  0  0
  -27.7157  -14.2507   19.5829 H   0  0  0  0  0  0
  -28.6704  -11.9144   21.3141 H   0  0  0  0  0  0
  -28.4557  -13.5345   21.8810 H   0  0  0  0  0  0
  -25.2751   -9.5687   22.4743 H   0  0  0  0  0  0
  -24.0006   -7.4622   22.7459 H   0  0  0  0  0  0
  -21.0827   -8.8789   19.8957 H   0  0  0  0  0  0
  -22.3686  -10.9682   19.6180 H   0  0  0  0  0  0
  -21.2014   -7.6145   23.9730 H   0  0  0  0  0  0
  -21.1477   -6.0505   25.9080 H   0  0  0  0  0  0
  -22.0598   -2.7613   23.2827 H   0  0  0  0  0  0
  -22.4091  -11.9959   22.4846 H   0  0  0  0  0  0
  -21.1115  -13.1340   22.2608 H   0  0  0  0  0  0
  -24.6651  -15.8423   20.5076 H   0  0  0  0  0  0
  -26.2816  -15.6211   20.0697 H   0  0  0  0  0  0
  -26.7089  -32.5544   23.1169 H   0  0  0  0  0  0
  -24.9933  -33.9793   25.0425 H   0  0  0  0  0  0
  -22.6884  -31.3133   21.4143 H   0  0  0  0  0  0
  -23.3720  -35.9686   23.3318 H   0  0  0  0  0  0
  -24.3569  -36.8942   22.2048 H   0  0  0  0  0  0
  -23.7258  -37.6547   23.6657 H   0  0  0  0  0  0
  -26.0380  -31.5983   20.5950 H   0  0  0  0  0  0
  -26.8186  -30.8906   21.9803 H   0  0  0  0  0  0
  -28.0929  -29.1031   21.1639 H   0  0  0  0  0  0
  -26.0197  -25.9822   19.0030 H   0  0  0  0  0  0
  -23.9661  -27.3014   19.0466 H   0  0  0  0  0  0
  -23.7288  -30.6135   19.4100 H   0  0  0  0  0  0
  -22.7320  -29.2600   19.8588 H   0  0  0  0  0  0
  -25.1270  -36.1977   25.0822 H   0  0  0  0  0  0
  -20.9977  -28.3265   24.1416 H   0  0  0  0  0  0
  -20.5645  -26.2289   23.3608 H   0  0  0  0  0  0
  -21.6639  -26.7449   22.1220 H   0  0  0  0  0  0
  -19.6904  -25.6314   21.1228 H   0  0  0  0  0  0
  -19.6689  -27.3218   20.6737 H   0  0  0  0  0  0
  -17.4183  -26.6683   21.4037 H   0  0  0  0  0  0
  -18.0354  -26.0094   22.9026 H   0  0  0  0  0  0
  -19.7928  -30.7249   24.2338 H   0  0  0  0  0  0
  -17.5022  -31.6275   24.5179 H   0  0  0  0  0  0
  -15.5361  -30.3044   23.7606 H   0  0  0  0  0  0
  -15.8669  -28.0870   22.7038 H   0  0  0  0  0  0
  -24.5892  -30.7089   25.7831 H   0  0  0  0  0  0
  -24.8955  -32.2868   26.4972 H   0  0  0  0  0  0
  -25.8093  -30.8846   27.0226 H   0  0  0  0  0  0
  -26.2814  -29.6812   24.1152 H   0  0  0  0  0  0
  -27.4031  -29.7261   25.4560 H   0  0  0  0  0  0
  -27.8666  -30.4348   23.9261 H   0  0  0  0  0  0
  -27.2684  -33.3584   26.2132 H   0  0  0  0  0  0
  -28.3812  -32.6936   25.0266 H   0  0  0  0  0  0
  -28.0794  -31.8393   26.5315 H   0  0  0  0  0  0
  -28.2601  -38.0107   24.7483 H   0  0  0  0  0  0
  -28.1064  -36.2634   24.6299 H   0  0  0  0  0  0
  -27.2299  -37.1488   25.8865 H   0  0  0  0  0  0
  -20.9256  -29.8791   21.6949 H   0  0  0  0  0  0
  -26.0171  -38.2866   24.1428 H   0  0  0  0  0  0
  -33.0522  -18.0514   23.5872 H   0  0  0  0  0  0
  -32.1810  -15.8305   22.9365 H   0  0  0  0  0  0
  -32.0159  -20.1080   22.7443 H   0  0  0  0  0  0
  -29.1171  -17.7434   20.5625 H   0  0  0  0  0  0
  -31.3102  -23.9423   20.7411 H   0  0  0  0  0  0
  -29.8306  -24.4299   21.5281 H   0  0  0  0  0  0
  -30.2439  -21.7219   22.3751 H   0  0  0  0  0  0
  -31.4586  -21.5040   21.1135 H   0  0  0  0  0  0
  -30.1162  -24.3776   18.4828 H   0  0  0  0  0  0
  -30.6562  -25.7495   19.3882 H   0  0  0  0  0  0
  -27.7811  -24.7901   19.7068 H   0  0  0  0  0  0
  -28.2656  -25.7360   18.3039 H   0  0  0  0  0  0
  -29.1158  -15.1648   21.5674 H   0  0  0  0  0  0
  1 25  1  0  0  0
  1 30  2  0  0  0
  1 82  1  0  0  0
  2  3  1  0  0  0
  2 25  1  0  0  0
  2 85  1  0  0  0
  2 86  1  0  0  0
  3  4  1  0  0  0
  3 87  1  0  0  0
  3 88  1  0  0  0
  4  5  1  0  0  0
  4 89  1  0  0  0
  4 90  1  0  0  0
  5  6  1  0  0  0
  5 26  1  0  0  0
  5 91  1  0  0  0
  6 25  1  0  0  0
  6 92  1  0  0  0
  6 93  1  0  0  0
  7  8  2  0  0  0
  7 26  1  0  0  0
  7 29  1  0  0  0
  8  9  1  0  0  0
  8 22  1  0  0  0
  9 10  1  0  0  0
  9 27  2  0  0  0
 10 11  2  0  0  0
 10 15  1  0  0  0
 11 12  1  0  0  0
 11 94  1  0  0  0
 12 13  2  0  0  0
 12 95  1  0  0  0
 13 14  1  0  0  0
 13 31  1  0  0  0
 14 15  2  0  0  0
 14 96  1  0  0  0
 15 97  1  0  0  0
 16 17  2  0  0  0
 16 21  1  0  0  0
 16 31  1  0  0  0
 17 18  1  0  0  0
 17 98  1  0  0  0
 18 19  2  0  0  0
 18 99  1  0  0  0
 19 20  1  0  0  0
 19 24  1  0  0  0
 20 21  2  0  0  0
 20100  1  0  0  0
 21 23  1  0  0  0
 22 28  1  0  0  0
 22 32  2  0  0  0
 26 27  1  0  0  0
 28101  1  0  0  0
 28102  1  0  0  0
 29103  1  0  0  0
 29104  1  0  0  0
 33 34  1  0  0  0
 33 66  1  0  0  0
 33 70  2  0  0  0
 34 36  1  0  0  0
 34 59  1  0  0  0
 34105  1  0  0  0
 35 44  2  0  0  0
 35 45  1  0  0  0
 35 68  1  0  0  0
 36 56  1  0  0  0
 36106  1  0  0  0
 37 39  1  0  0  0
 37 47  1  0  0  0
 37 66  1  0  0  0
 37107  1  0  0  0
 38 43  2  0  0  0
 38 46  1  0  0  0
 38 47  1  0  0  0
 39 64  1  0  0  0
 39 67  2  0  0  0
 40 52  1  0  0  0
 40 53  2  0  0  0
 40 58  1  0  0  0
 41108  1  0  0  0
 41109  1  0  0  0
 41110  1  0  0  0
 41 48  1  0  0  0
 42 43  1  0  0  0
 42 66  1  0  0  0
 42111  1  0  0  0
 42112  1  0  0  0
 43 44  1  0  0  0
 44113  1  0  0  0
 45 46  2  0  0  0
 45114  1  0  0  0
 46115  1  0  0  0
 47116  1  0  0  0
 47117  1  0  0  0
 48 56  1  0  0  0
 48 65  1  0  0  0
 48118  1  0  0  0
 49 50  1  0  0  0
 49 53  1  0  0  0
 49 64  1  0  0  0
 49119  1  0  0  0
 50 51  1  0  0  0
 50120  1  0  0  0
 50121  1  0  0  0
 51 52  1  0  0  0
 51122  1  0  0  0
 51123  1  0  0  0
 52124  1  0  0  0
 52125  1  0  0  0
 53 54  1  0  0  0
 54 55  2  0  0  0
 54126  1  0  0  0
 55 57  1  0  0  0
 55127  1  0  0  0
 56 69  2  0  0  0
 57 58  2  0  0  0
 57128  1  0  0  0
 58129  1  0  0  0
 59 60  1  0  0  0
 59 61  1  0  0  0
 59 62  1  0  0  0
 60130  1  0  0  0
 60131  1  0  0  0
 60132  1  0  0  0
 61133  1  0  0  0
 61134  1  0  0  0
 61135  1  0  0  0
 62136  1  0  0  0
 62137  1  0  0  0
 62138  1  0  0  0
 63 65  1  0  0  0
 63139  1  0  0  0
 63140  1  0  0  0
 63141  1  0  0  0
 64142  1  0  0  0
 65143  1  0  0  0
 68 81  1  0  0  0
 71 72  2  0  0  0
 71 73  1  0  0  0
 71144  1  0  0  0
 72 75  1  0  0  0
 72145  1  0  0  0
 73 76  2  0  0  0
 73146  1  0  0  0
 74 75  2  0  0  0
 74 76  1  0  0  0
 74147  1  0  0  0
 75 82  1  0  0  0
 76 84  1  0  0  0
 77 78  1  0  0  0
 77 79  1  0  0  0
 77 83  2  0  0  0
 78 80  1  0  0  0
 78148  1  0  0  0
 78149  1  0  0  0
 79 84  1  0  0  0
 79150  1  0  0  0
 79151  1  0  0  0
 80 81  1  0  0  0
 80152  1  0  0  0
 80153  1  0  0  0
 81154  1  0  0  0
 81155  1  0  0  0
 82156  1  0  0  0
M  ISO  4   1 100  68 101  81 101  82 100
M  END
> <chiral flag>
0

> <version>
0

> <s_m_source_file>
/data/baiqing/PycharmProjects/Reinvent-master-3.2/result/LINK_invent/BTK/process_docking_weight1_custom_product_contain_oxygen_bond_distance_aromatic_linkinvent_7_9_3/rearranged_h_0137.sdf

> <i_m_source_file_index>
53

> <r_mmod_Potential_Energy-OPLS-2005>
-62.0959167480469

> <r_mmod_Stretch_Energy-OPLS-2005>
35.1600456237793

> <r_mmod_Bend_Energy-OPLS-2005>
96.6185684204102

> <r_mmod_Torsional_Energy-OPLS-2005>
217.634567260742

> <r_mmod_Improper_Torsional_Energy-OPLS-2005>
2.57949995994568

> <r_mmod_Van_der_Waal_Energy-OPLS-2005>
162.162307739258

> <r_mmod_Electrostatic_Energy-OPLS-2005>
-352.904449462891

> <r_mmod_Solvation_Energy-OPLS-2005>
-233.249725341797

> <b_mmod_Minimization_Converged-OPLS-2005>
0

> <r_mmod_RMS_Derivative-OPLS-2005>
2.45600700378418

$$$$
53
                    3D
 Structure written by MMmdl.
172180  0  0  1  0            999 V2000
  -30.5177  -14.8662   20.4299 C   0  0  0  0  0  0
  -30.4501  -12.5280   19.4824 C   0  0  0  0  0  0
  -29.5222  -12.5301   18.2441 C   0  0  0  0  0  0
  -28.0504  -12.3263   18.6577 C   0  0  0  0  0  0
  -27.6394  -13.2313   19.8476 C   0  0  2  0  0  0
  -28.6845  -13.1883   20.9831 C   0  0  0  0  0  0
  -25.2546  -13.8139   20.5820 C   0  0  0  0  0  0
  -24.1812  -13.0397   20.9231 C   0  0  0  0  0  0
  -24.6395  -11.6882   20.8724 C   0  0  0  0  0  0
  -23.9070  -10.4271   21.0394 C   0  0  0  0  0  0
  -24.3619   -9.4192   21.9177 C   0  0  0  0  0  0
  -23.6284   -8.2239   22.0758 C   0  0  0  0  0  0
  -22.4262   -8.0284   21.3554 C   0  0  0  0  0  0
  -21.9900   -9.0257   20.4657 C   0  0  0  0  0  0
  -22.7238  -10.2125   20.3053 C   0  0  0  0  0  0
  -21.6857   -6.0739   22.5284 C   0  0  0  0  0  0
  -21.4022   -6.5644   23.8217 C   0  0  0  0  0  0
  -21.3653   -5.6794   24.9176 C   0  0  0  0  0  0
  -21.6043   -4.3060   24.7226 C   0  0  0  0  0  0
  -21.8817   -3.8147   23.4350 C   0  0  0  0  0  0
  -21.9192   -4.6967   22.3404 C   0  0  0  0  0  0
  -22.7837  -13.5213   21.1883 C   0  0  0  0  0  0
  -22.1661   -4.2157   21.0982 F   0  0  0  0  0  0
  -21.5617   -3.4540   25.7737 F   0  0  0  0  0  0
  -29.9729  -13.5916   20.4018 N   0  0  0  0  0  0
  -26.2936  -12.9357   20.3259 N   0  0  0  0  0  0
  -25.9319  -11.6494   20.5681 N   0  0  0  0  0  0
  -22.0464  -12.8210   22.0431 N   0  0  0  0  0  0
  -25.4245  -15.1861   20.4511 N   0  0  0  0  0  0
  -31.7093  -15.0116   20.1313 O   0  0  0  0  0  0
  -21.6629   -6.8881   21.4249 O   0  0  0  0  0  0
  -22.3541  -14.5522   20.6725 O   0  0  0  0  0  0
  -24.6383  -31.8489   23.1933 C   0  0  0  0  0  0
  -25.9175  -32.4720   23.8301 C   0  0  1  0  0  0
  -27.2173  -27.1904   20.1336 C   0  0  0  0  0  0
  -25.5942  -33.8526   24.2214 N   0  0  0  0  0  0
  -23.4390  -30.4709   21.5380 C   0  0  2  0  0  0
  -24.8870  -28.9098   20.1082 C   0  0  0  0  0  0
  -22.7537  -29.4568   22.4872 C   0  0  0  0  0  0
  -18.0300  -28.1400   22.8476 C   0  0  0  0  0  0
  -24.1491  -36.7272   23.2640 C   0  0  0  0  0  0
  -25.9918  -30.7379   21.3868 C   0  0  0  0  0  0
  -26.0625  -29.3555   20.7255 C   0  0  0  0  0  0
  -27.2284  -28.5097   20.7260 C   0  0  0  0  0  0
  -26.0166  -26.8375   19.4752 C   0  0  0  0  0  0
  -24.8734  -27.6619   19.4703 C   0  0  0  0  0  0
  -23.6624  -29.8064   20.1545 C   0  0  0  0  0  0
  -25.4119  -36.3048   24.0316 C   0  0  1  0  0  0
  -20.5907  -28.3718   23.1246 C   0  0  2  0  0  0
  -20.6788  -26.9425   22.5409 C   0  0  0  0  0  0
  -19.5765  -26.6385   21.5212 C   0  0  0  0  0  0
  -18.1943  -26.7937   22.1623 C   0  0  0  0  0  0
  -19.1555  -28.8875   23.2858 C   0  0  0  0  0  0
  -18.9477  -30.1472   23.8886 C   0  0  0  0  0  0
  -17.6475  -30.6592   24.0565 C   0  0  0  0  0  0
  -25.9069  -34.9421   23.5071 C   0  0  0  0  0  0
  -16.5366  -29.9090   23.6335 C   0  0  0  0  0  0
  -16.7284  -28.6512   23.0347 C   0  0  0  0  0  0
  -26.4513  -31.6578   25.0728 C   0  0  0  0  0  0
  -25.3707  -31.3769   26.1431 C   0  0  0  0  0  0
  -27.0371  -30.2974   24.6289 C   0  0  0  0  0  0
  -27.6044  -32.4345   25.7514 C   0  0  0  0  0  0
  -27.5576  -37.1792   24.8456 C   0  0  0  0  0  0
  -21.4235  -29.3049   22.3619 N   0  0  0  0  0  0
  -26.4284  -37.3757   23.9407 N   0  0  0  0  0  0
  -24.7089  -31.0391   22.0945 N   0  0  0  0  0  0
  -23.4203  -28.8111   23.2999 O   0  0  0  0  0  0
  -28.2829  -26.2353   20.2085 O   0  0  0  0  0  0
  -26.5650  -34.8907   22.4648 O   0  0  0  0  0  0
  -23.5514  -32.1344   23.7182 O   0  0  0  0  0  0
  -30.1398  -19.8987   20.7383 C   0  0  0  0  0  0
  -30.4143  -18.4725   20.8847 C   0  0  0  0  0  0
  -28.1701  -19.3645   19.5463 C   0  0  0  0  0  0
  -28.9803  -20.4187   20.0695 C   0  0  0  0  0  0
  -29.5618  -17.4291   20.3754 C   0  0  0  0  0  0
  -28.4200  -17.9468   19.6880 C   0  0  0  0  0  0
  -23.2291  -18.4462   17.0263 C   0  0  0  0  0  0
  -30.6171  -23.8597   18.3722 C   0  0  0  0  0  0
  -28.9694  -23.3488   21.8905 C   0  0  0  0  0  0
  -28.4860  -21.9566   19.7812 C   0  0  0  0  0  0
  -24.6697  -17.9599   16.8230 C   0  0  0  0  0  0
  -30.4198  -23.7209   19.8909 C   0  0  0  0  0  0
  -25.4279  -17.7999   18.1504 C   0  0  0  0  0  0
  -26.8712  -17.2928   17.9555 C   0  0  0  0  0  0
  -28.0196  -24.7456   19.9420 C   0  0  0  0  0  0
  -28.9703  -23.4379   20.3545 C   0  0  2  0  0  0
  -29.6315  -15.9362   20.6306 N   0  0  0  0  0  0
  -27.5395  -17.0075   19.1873 O   0  0  0  0  0  0
  -31.4853  -12.6926   19.1775 H   0  0  0  0  0  0
  -30.4324  -11.5558   19.9784 H   0  0  0  0  0  0
  -29.8237  -11.7526   17.5414 H   0  0  0  0  0  0
  -29.6262  -13.4776   17.7120 H   0  0  0  0  0  0
  -27.9283  -11.2792   18.9356 H   0  0  0  0  0  0
  -27.3906  -12.4961   17.8063 H   0  0  0  0  0  0
  -27.6191  -14.2459   19.4509 H   0  0  0  0  0  0
  -28.7492  -12.1884   21.4152 H   0  0  0  0  0  0
  -28.3985  -13.8539   21.7992 H   0  0  0  0  0  0
  -25.2769   -9.5670   22.4739 H   0  0  0  0  0  0
  -23.9998   -7.4633   22.7478 H   0  0  0  0  0  0
  -21.0826   -8.8778   19.8971 H   0  0  0  0  0  0
  -22.3701  -10.9663   19.6159 H   0  0  0  0  0  0
  -21.2028   -7.6153   23.9724 H   0  0  0  0  0  0
  -21.1472   -6.0524   25.9079 H   0  0  0  0  0  0
  -22.0599   -2.7611   23.2846 H   0  0  0  0  0  0
  -22.4053  -11.9861   22.4818 H   0  0  0  0  0  0
  -21.1090  -13.1266   22.2631 H   0  0  0  0  0  0
  -24.6485  -15.8231   20.5875 H   0  0  0  0  0  0
  -26.2543  -15.6501   20.0981 H   0  0  0  0  0  0
  -26.7238  -32.5338   23.1034 H   0  0  0  0  0  0
  -25.0060  -33.9654   25.0339 H   0  0  0  0  0  0
  -22.7394  -31.2958   21.3886 H   0  0  0  0  0  0
  -23.3753  -35.9603   23.3286 H   0  0  0  0  0  0
  -24.3580  -36.8920   22.2058 H   0  0  0  0  0  0
  -23.7245  -37.6463   23.6689 H   0  0  0  0  0  0
  -26.1443  -31.4963   20.6179 H   0  0  0  0  0  0
  -26.8635  -30.7833   22.0280 H   0  0  0  0  0  0
  -28.1228  -28.8438   21.2333 H   0  0  0  0  0  0
  -25.9224  -25.8878   18.9709 H   0  0  0  0  0  0
  -23.9754  -27.3179   18.9757 H   0  0  0  0  0  0
  -23.7985  -30.5842   19.4025 H   0  0  0  0  0  0
  -22.7779  -29.2489   19.8414 H   0  0  0  0  0  0
  -25.1306  -36.1881   25.0807 H   0  0  0  0  0  0
  -21.0003  -28.3314   24.1365 H   0  0  0  0  0  0
  -20.5683  -26.2330   23.3625 H   0  0  0  0  0  0
  -21.6658  -26.7437   22.1210 H   0  0  0  0  0  0
  -19.6930  -25.6290   21.1255 H   0  0  0  0  0  0
  -19.6706  -27.3185   20.6733 H   0  0  0  0  0  0
  -17.4211  -26.6673   21.4029 H   0  0  0  0  0  0
  -18.0350  -26.0087   22.9030 H   0  0  0  0  0  0
  -19.7953  -30.7289   24.2252 H   0  0  0  0  0  0
  -17.5029  -31.6268   24.5177 H   0  0  0  0  0  0
  -15.5367  -30.2991   23.7669 H   0  0  0  0  0  0
  -15.8683  -28.0831   22.7065 H   0  0  0  0  0  0
  -24.5866  -30.7140   25.7756 H   0  0  0  0  0  0
  -24.8922  -32.2958   26.4828 H   0  0  0  0  0  0
  -25.7991  -30.8953   27.0229 H   0  0  0  0  0  0
  -26.2983  -29.6712   24.1272 H   0  0  0  0  0  0
  -27.3961  -29.7261   25.4861 H   0  0  0  0  0  0
  -27.8904  -30.4213   23.9616 H   0  0  0  0  0  0
  -27.2619  -33.3646   26.2065 H   0  0  0  0  0  0
  -28.3869  -32.6906   25.0359 H   0  0  0  0  0  0
  -28.0695  -31.8493   26.5459 H   0  0  0  0  0  0
  -28.2577  -38.0104   24.7511 H   0  0  0  0  0  0
  -28.1090  -36.2633   24.6268 H   0  0  0  0  0  0
  -27.2298  -37.1422   25.8860 H   0  0  0  0  0  0
  -20.9434  -29.8767   21.6810 H   0  0  0  0  0  0
  -26.0151  -38.2824   24.1422 H   0  0  0  0  0  0
  -30.8449  -20.5983   21.1661 H   0  0  0  0  0  0
  -31.2939  -18.1854   21.4428 H   0  0  0  0  0  0
  -27.2877  -19.6835   19.0175 H   0  0  0  0  0  0
  -22.7001  -18.5122   16.0749 H   0  0  0  0  0  0
  -23.2054  -19.4339   17.4882 H   0  0  0  0  0  0
  -22.6676  -17.7659   17.6671 H   0  0  0  0  0  0
  -31.6597  -24.0791   18.1425 H   0  0  0  0  0  0
  -30.0224  -24.6732   17.9574 H   0  0  0  0  0  0
  -30.3595  -22.9440   17.8408 H   0  0  0  0  0  0
  -29.6185  -22.5489   22.2477 H   0  0  0  0  0  0
  -27.9673  -23.1496   22.2718 H   0  0  0  0  0  0
  -29.3097  -24.2806   22.3440 H   0  0  0  0  0  0
  -27.4253  -21.9174   20.0340 H   0  0  0  0  0  0
  -28.4711  -22.0376   18.6944 H   0  0  0  0  0  0
  -25.2007  -18.6549   16.1710 H   0  0  0  0  0  0
  -24.6510  -17.0025   16.2995 H   0  0  0  0  0  0
  -30.7689  -24.6409   20.3632 H   0  0  0  0  0  0
  -31.0800  -22.9341   20.2568 H   0  0  0  0  0  0
  -24.8776  -17.0987   18.7729 H   0  0  0  0  0  0
  -25.4137  -18.7454   18.6893 H   0  0  0  0  0  0
  -27.4478  -17.9780   17.3320 H   0  0  0  0  0  0
  -26.8357  -16.3557   17.3994 H   0  0  0  0  0  0
  -27.0467  -24.5296   20.3848 H   0  0  0  0  0  0
  -27.8542  -24.6737   18.8667 H   0  0  0  0  0  0
  -28.7078  -15.5596   20.7788 H   0  0  0  0  0  0
  1 25  1  0  0  0
  1 30  2  0  0  0
  1 87  1  0  0  0
  2  3  1  0  0  0
  2 25  1  0  0  0
  2 89  1  0  0  0
  2 90  1  0  0  0
  3  4  1  0  0  0
  3 91  1  0  0  0
  3 92  1  0  0  0
  4  5  1  0  0  0
  4 93  1  0  0  0
  4 94  1  0  0  0
  5  6  1  0  0  0
  5 26  1  0  0  0
  5 95  1  0  0  0
  6 25  1  0  0  0
  6 96  1  0  0  0
  6 97  1  0  0  0
  7  8  2  0  0  0
  7 26  1  0  0  0
  7 29  1  0  0  0
  8  9  1  0  0  0
  8 22  1  0  0  0
  9 10  1  0  0  0
  9 27  2  0  0  0
 10 11  2  0  0  0
 10 15  1  0  0  0
 11 12  1  0  0  0
 11 98  1  0  0  0
 12 13  2  0  0  0
 12 99  1  0  0  0
 13 14  1  0  0  0
 13 31  1  0  0  0
 14 15  2  0  0  0
 14100  1  0  0  0
 15101  1  0  0  0
 16 17  2  0  0  0
 16 21  1  0  0  0
 16 31  1  0  0  0
 17 18  1  0  0  0
 17102  1  0  0  0
 18 19  2  0  0  0
 18103  1  0  0  0
 19 20  1  0  0  0
 19 24  1  0  0  0
 20 21  2  0  0  0
 20104  1  0  0  0
 21 23  1  0  0  0
 22 28  1  0  0  0
 22 32  2  0  0  0
 26 27  1  0  0  0
 28105  1  0  0  0
 28106  1  0  0  0
 29107  1  0  0  0
 29108  1  0  0  0
 33 34  1  0  0  0
 33 66  1  0  0  0
 33 70  2  0  0  0
 34 36  1  0  0  0
 34 59  1  0  0  0
 34109  1  0  0  0
 35 44  2  0  0  0
 35 45  1  0  0  0
 35 68  1  0  0  0
 36 56  1  0  0  0
 36110  1  0  0  0
 37 39  1  0  0  0
 37 47  1  0  0  0
 37 66  1  0  0  0
 37111  1  0  0  0
 38 43  2  0  0  0
 38 46  1  0  0  0
 38 47  1  0  0  0
 39 64  1  0  0  0
 39 67  2  0  0  0
 40 52  1  0  0  0
 40 53  2  0  0  0
 40 58  1  0  0  0
 41112  1  0  0  0
 41113  1  0  0  0
 41114  1  0  0  0
 41 48  1  0  0  0
 42 43  1  0  0  0
 42 66  1  0  0  0
 42115  1  0  0  0
 42116  1  0  0  0
 43 44  1  0  0  0
 44117  1  0  0  0
 45 46  2  0  0  0
 45118  1  0  0  0
 46119  1  0  0  0
 47120  1  0  0  0
 47121  1  0  0  0
 48 56  1  0  0  0
 48 65  1  0  0  0
 48122  1  0  0  0
 49 50  1  0  0  0
 49 53  1  0  0  0
 49 64  1  0  0  0
 49123  1  0  0  0
 50 51  1  0  0  0
 50124  1  0  0  0
 50125  1  0  0  0
 51 52  1  0  0  0
 51126  1  0  0  0
 51127  1  0  0  0
 52128  1  0  0  0
 52129  1  0  0  0
 53 54  1  0  0  0
 54 55  2  0  0  0
 54130  1  0  0  0
 55 57  1  0  0  0
 55131  1  0  0  0
 56 69  2  0  0  0
 57 58  2  0  0  0
 57132  1  0  0  0
 58133  1  0  0  0
 59 60  1  0  0  0
 59 61  1  0  0  0
 59 62  1  0  0  0
 60134  1  0  0  0
 60135  1  0  0  0
 60136  1  0  0  0
 61137  1  0  0  0
 61138  1  0  0  0
 61139  1  0  0  0
 62140  1  0  0  0
 62141  1  0  0  0
 62142  1  0  0  0
 63 65  1  0  0  0
 63143  1  0  0  0
 63144  1  0  0  0
 63145  1  0  0  0
 64146  1  0  0  0
 65147  1  0  0  0
 68 85  1  0  0  0
 71 72  2  0  0  0
 71 74  1  0  0  0
 71148  1  0  0  0
 72 75  1  0  0  0
 72149  1  0  0  0
 73 74  2  0  0  0
 73 76  1  0  0  0
 73150  1  0  0  0
 74 80  1  0  0  0
 75 76  2  0  0  0
 75 87  1  0  0  0
 76 88  1  0  0  0
 77 81  1  0  0  0
 77151  1  0  0  0
 77152  1  0  0  0
 77153  1  0  0  0
 78 82  1  0  0  0
 78154  1  0  0  0
 78155  1  0  0  0
 78156  1  0  0  0
 79157  1  0  0  0
 79158  1  0  0  0
 79159  1  0  0  0
 79 86  1  0  0  0
 80 86  1  0  0  0
 80160  1  0  0  0
 80161  1  0  0  0
 81 83  1  0  0  0
 81162  1  0  0  0
 81163  1  0  0  0
 82 86  1  0  0  0
 82164  1  0  0  0
 82165  1  0  0  0
 83 84  1  0  0  0
 83166  1  0  0  0
 83167  1  0  0  0
 84 88  1  0  0  0
 84168  1  0  0  0
 84169  1  0  0  0
 85 86  1  0  0  0
 85170  1  0  0  0
 85171  1  0  0  0
 87172  1  0  0  0
M  ISO  4   1 100  68 101  85 101  87 100
M  END
> <chiral flag>
0

> <version>
0

> <s_m_source_file>
/data/baiqing/PycharmProjects/Reinvent-master-3.2/result/LINK_invent/BTK/process_docking_weight1_custom_product_contain_oxygen_bond_distance_aromatic_linkinvent_7_9_3/rearranged_h_0137.sdf

> <i_m_source_file_index>
54

> <r_mmod_Potential_Energy-OPLS-2005>
399.007232666016

> <r_mmod_Stretch_Energy-OPLS-2005>
189.048248291016

> <r_mmod_Bend_Energy-OPLS-2005>
268.281616210938

> <r_mmod_Torsional_Energy-OPLS-2005>
251.093063354492

> <r_mmod_Improper_Torsional_Energy-OPLS-2005>
5.69842195510864

> <r_mmod_Van_der_Waal_Energy-OPLS-2005>
126.852294921875

> <r_mmod_Electrostatic_Energy-OPLS-2005>
-399.218536376953

> <r_mmod_Solvation_Energy-OPLS-2005>
-188.066024780273

> <b_mmod_Minimization_Converged-OPLS-2005>
0

> <r_mmod_RMS_Derivative-OPLS-2005>
1.28717517852783

$$$$
54
                    3D
 Structure written by MMmdl.
160168  0  0  1  0            999 V2000
  -30.6055  -14.7390   20.4668 C   0  0  0  0  0  0
  -30.4428  -12.4557   19.4561 C   0  0  0  0  0  0
  -29.5087  -12.4929   18.2267 C   0  0  0  0  0  0
  -28.0355  -12.3219   18.6475 C   0  0  0  0  0  0
  -27.6425  -13.2244   19.8473 C   0  0  2  0  0  0
  -28.6925  -13.1510   20.9754 C   0  0  0  0  0  0
  -25.2528  -13.8174   20.5716 C   0  0  0  0  0  0
  -24.1808  -13.0430   20.9223 C   0  0  0  0  0  0
  -24.6386  -11.6903   20.8742 C   0  0  0  0  0  0
  -23.9063  -10.4282   21.0405 C   0  0  0  0  0  0
  -24.3619   -9.4199   21.9185 C   0  0  0  0  0  0
  -23.6294   -8.2232   22.0756 C   0  0  0  0  0  0
  -22.4272   -8.0282   21.3551 C   0  0  0  0  0  0
  -21.9914   -9.0251   20.4647 C   0  0  0  0  0  0
  -22.7236  -10.2130   20.3055 C   0  0  0  0  0  0
  -21.6850   -6.0732   22.5267 C   0  0  0  0  0  0
  -21.4009   -6.5640   23.8200 C   0  0  0  0  0  0
  -21.3657   -5.6797   24.9162 C   0  0  0  0  0  0
  -21.6043   -4.3058   24.7205 C   0  0  0  0  0  0
  -21.8826   -3.8150   23.4327 C   0  0  0  0  0  0
  -21.9195   -4.6965   22.3384 C   0  0  0  0  0  0
  -22.7832  -13.5220   21.1872 C   0  0  0  0  0  0
  -22.1671   -4.2159   21.0955 F   0  0  0  0  0  0
  -21.5629   -3.4540   25.7714 F   0  0  0  0  0  0
  -29.9886  -13.5122   20.3847 N   0  0  0  0  0  0
  -26.2945  -12.9365   20.3290 N   0  0  0  0  0  0
  -25.9316  -11.6510   20.5744 N   0  0  0  0  0  0
  -22.0485  -12.8193   22.0419 N   0  0  0  0  0  0
  -25.4243  -15.1893   20.4131 N   0  0  0  0  0  0
  -31.8052  -14.8489   20.1996 O   0  0  0  0  0  0
  -21.6642   -6.8878   21.4233 O   0  0  0  0  0  0
  -22.3511  -14.5529   20.6728 O   0  0  0  0  0  0
  -24.6311  -31.8545   23.1986 C   0  0  0  0  0  0
  -25.9131  -32.4752   23.8335 C   0  0  1  0  0  0
  -27.2170  -27.2476   20.1209 C   0  0  0  0  0  0
  -25.5935  -33.8552   24.2261 N   0  0  0  0  0  0
  -23.4302  -30.4784   21.5436 C   0  0  2  0  0  0
  -24.8752  -28.9278   20.1118 C   0  0  0  0  0  0
  -22.7521  -29.4576   22.4902 C   0  0  0  0  0  0
  -18.0289  -28.1381   22.8468 C   0  0  0  0  0  0
  -24.1478  -36.7268   23.2649 C   0  0  0  0  0  0
  -25.9788  -30.7632   21.3828 C   0  0  0  0  0  0
  -26.0516  -29.3859   20.7206 C   0  0  0  0  0  0
  -27.2255  -28.5603   20.7092 C   0  0  0  0  0  0
  -26.0100  -26.8652   19.4870 C   0  0  0  0  0  0
  -24.8620  -27.6772   19.4837 C   0  0  0  0  0  0
  -23.6495  -29.8186   20.1590 C   0  0  0  0  0  0
  -25.4105  -36.3060   24.0345 C   0  0  1  0  0  0
  -20.5898  -28.3687   23.1244 C   0  0  2  0  0  0
  -20.6769  -26.9401   22.5390 C   0  0  0  0  0  0
  -19.5754  -26.6370   21.5188 C   0  0  0  0  0  0
  -18.1935  -26.7912   22.1611 C   0  0  0  0  0  0
  -19.1549  -28.8854   23.2846 C   0  0  0  0  0  0
  -18.9485  -30.1448   23.8882 C   0  0  0  0  0  0
  -17.6492  -30.6591   24.0552 C   0  0  0  0  0  0
  -25.9053  -34.9433   23.5097 C   0  0  0  0  0  0
  -16.5373  -29.9091   23.6335 C   0  0  0  0  0  0
  -16.7278  -28.6509   23.0351 C   0  0  0  0  0  0
  -26.4489  -31.6588   25.0733 C   0  0  0  0  0  0
  -25.3705  -31.3763   26.1458 C   0  0  0  0  0  0
  -27.0363  -30.3013   24.6238 C   0  0  0  0  0  0
  -27.6038  -32.4356   25.7503 C   0  0  0  0  0  0
  -27.5561  -37.1781   24.8478 C   0  0  0  0  0  0
  -21.4220  -29.3050   22.3647 N   0  0  0  0  0  0
  -26.4269  -37.3767   23.9427 N   0  0  0  0  0  0
  -24.6993  -31.0493   22.0981 N   0  0  0  0  0  0
  -23.4206  -28.8085   23.2988 O   0  0  0  0  0  0
  -28.3101  -26.3416   20.1578 O   0  0  0  0  0  0
  -26.5630  -34.8912   22.4672 O   0  0  0  0  0  0
  -23.5451  -32.1377   23.7288 O   0  0  0  0  0  0
  -30.6959  -18.9149   22.6478 C   0  0  0  0  0  0
  -30.2137  -20.0004   21.8888 C   0  0  0  0  0  0
  -29.5401  -18.4169   20.1751 C   0  0  0  0  0  0
  -30.5973  -17.5747   22.2046 C   0  0  0  0  0  0
  -30.0200  -17.2710   20.9405 C   0  0  0  0  0  0
  -29.6231  -19.8017   20.6266 C   0  0  0  0  0  0
  -31.0855  -16.4856   23.1484 C   0  0  0  0  0  0
  -29.8655  -23.7220   18.8007 C   0  0  0  0  0  0
  -30.1777  -23.9808   21.2702 C   0  0  0  0  0  0
  -28.0240  -24.8560   20.1672 C   0  0  0  0  0  0
  -28.5909  -22.1652   20.4093 C   0  0  0  0  0  0
  -29.1516  -23.6797   20.1642 C   0  0  0  0  0  0
  -29.7815  -15.8525   20.5648 N   0  0  0  0  0  0
  -29.2371  -20.9324   19.8506 O   0  0  0  0  0  0
  -31.4794  -12.5984   19.1453 H   0  0  0  0  0  0
  -30.4094  -11.4821   19.9465 H   0  0  0  0  0  0
  -29.7882  -11.7069   17.5233 H   0  0  0  0  0  0
  -29.6308  -13.4386   17.6981 H   0  0  0  0  0  0
  -27.8933  -11.2757   18.9175 H   0  0  0  0  0  0
  -27.3743  -12.5107   17.8010 H   0  0  0  0  0  0
  -27.6381  -14.2452   19.4661 H   0  0  0  0  0  0
  -28.7322  -12.1477   21.4016 H   0  0  0  0  0  0
  -28.4307  -13.8232   21.7949 H   0  0  0  0  0  0
  -25.2758   -9.5669   22.4768 H   0  0  0  0  0  0
  -24.0004   -7.4610   22.7468 H   0  0  0  0  0  0
  -21.0857   -8.8754   19.8941 H   0  0  0  0  0  0
  -22.3695  -10.9670   19.6169 H   0  0  0  0  0  0
  -21.2009   -7.6148   23.9703 H   0  0  0  0  0  0
  -21.1479   -6.0523   25.9066 H   0  0  0  0  0  0
  -22.0615   -2.7616   23.2808 H   0  0  0  0  0  0
  -22.4123  -11.9841   22.4757 H   0  0  0  0  0  0
  -21.1110  -13.1205   22.2661 H   0  0  0  0  0  0
  -24.6619  -15.8457   20.5360 H   0  0  0  0  0  0
  -26.2641  -15.6266   20.0570 H   0  0  0  0  0  0
  -26.7186  -32.5401   23.1067 H   0  0  0  0  0  0
  -25.0067  -33.9701   25.0391 H   0  0  0  0  0  0
  -22.7261  -31.2995   21.3988 H   0  0  0  0  0  0
  -23.3746  -35.9589   23.3332 H   0  0  0  0  0  0
  -24.3565  -36.8873   22.2052 H   0  0  0  0  0  0
  -23.7210  -37.6470   23.6668 H   0  0  0  0  0  0
  -26.1198  -31.5249   20.6145 H   0  0  0  0  0  0
  -26.8547  -30.8114   22.0175 H   0  0  0  0  0  0
  -28.1241  -28.9051   21.2021 H   0  0  0  0  0  0
  -25.9051  -25.9189   18.9840 H   0  0  0  0  0  0
  -23.9643  -27.3196   18.9962 H   0  0  0  0  0  0
  -23.7842  -30.6004   19.4104 H   0  0  0  0  0  0
  -22.7665  -29.2592   19.8448 H   0  0  0  0  0  0
  -25.1270  -36.1909   25.0836 H   0  0  0  0  0  0
  -20.9991  -28.3275   24.1363 H   0  0  0  0  0  0
  -20.5644  -26.2319   23.3611 H   0  0  0  0  0  0
  -21.6636  -26.7401   22.1201 H   0  0  0  0  0  0
  -19.6924  -25.6277   21.1237 H   0  0  0  0  0  0
  -19.6684  -27.3160   20.6699 H   0  0  0  0  0  0
  -17.4189  -26.6645   21.4027 H   0  0  0  0  0  0
  -18.0350  -26.0039   22.9006 H   0  0  0  0  0  0
  -19.7979  -30.7255   24.2236 H   0  0  0  0  0  0
  -17.5069  -31.6270   24.5163 H   0  0  0  0  0  0
  -15.5385  -30.3017   23.7667 H   0  0  0  0  0  0
  -15.8666  -28.0846   22.7076 H   0  0  0  0  0  0
  -24.5902  -30.7081   25.7797 H   0  0  0  0  0  0
  -24.8857  -32.2939   26.4812 H   0  0  0  0  0  0
  -25.7997  -30.9003   27.0283 H   0  0  0  0  0  0
  -26.2964  -29.6749   24.1245 H   0  0  0  0  0  0
  -27.4043  -29.7284   25.4760 H   0  0  0  0  0  0
  -27.8834  -30.4323   23.9499 H   0  0  0  0  0  0
  -27.2651  -33.3699   26.2002 H   0  0  0  0  0  0
  -28.3867  -32.6860   25.0330 H   0  0  0  0  0  0
  -28.0687  -31.8544   26.5479 H   0  0  0  0  0  0
  -28.2570  -38.0079   24.7501 H   0  0  0  0  0  0
  -28.1058  -36.2606   24.6325 H   0  0  0  0  0  0
  -27.2294  -37.1440   25.8885 H   0  0  0  0  0  0
  -20.9413  -29.8834   21.6895 H   0  0  0  0  0  0
  -26.0160  -38.2839   24.1459 H   0  0  0  0  0  0
  -31.1469  -19.1265   23.6079 H   0  0  0  0  0  0
  -30.3379  -20.9991   22.2820 H   0  0  0  0  0  0
  -29.0817  -18.2296   19.2140 H   0  0  0  0  0  0
  -31.1818  -16.8565   24.1690 H   0  0  0  0  0  0
  -32.0660  -16.1261   22.8343 H   0  0  0  0  0  0
  -30.3942  -15.6433   23.1869 H   0  0  0  0  0  0
  -30.2735  -24.7115   18.5936 H   0  0  0  0  0  0
  -29.1868  -23.4740   17.9845 H   0  0  0  0  0  0
  -30.6931  -23.0137   18.7618 H   0  0  0  0  0  0
  -30.6353  -24.9608   21.1312 H   0  0  0  0  0  0
  -30.9792  -23.2415   21.2846 H   0  0  0  0  0  0
  -29.7120  -23.9757   22.2560 H   0  0  0  0  0  0
  -27.4283  -24.6246   19.2874 H   0  0  0  0  0  0
  -27.3652  -24.6774   21.0184 H   0  0  0  0  0  0
  -27.5988  -22.1509   19.9567 H   0  0  0  0  0  0
  -28.3854  -22.0257   21.4714 H   0  0  0  0  0  0
  -28.8063  -15.6126   20.4847 H   0  0  0  0  0  0
  1 25  1  0  0  0
  1 30  2  0  0  0
  1 83  1  0  0  0
  2  3  1  0  0  0
  2 25  1  0  0  0
  2 85  1  0  0  0
  2 86  1  0  0  0
  3  4  1  0  0  0
  3 87  1  0  0  0
  3 88  1  0  0  0
  4  5  1  0  0  0
  4 89  1  0  0  0
  4 90  1  0  0  0
  5  6  1  0  0  0
  5 26  1  0  0  0
  5 91  1  0  0  0
  6 25  1  0  0  0
  6 92  1  0  0  0
  6 93  1  0  0  0
  7  8  2  0  0  0
  7 26  1  0  0  0
  7 29  1  0  0  0
  8  9  1  0  0  0
  8 22  1  0  0  0
  9 10  1  0  0  0
  9 27  2  0  0  0
 10 11  2  0  0  0
 10 15  1  0  0  0
 11 12  1  0  0  0
 11 94  1  0  0  0
 12 13  2  0  0  0
 12 95  1  0  0  0
 13 14  1  0  0  0
 13 31  1  0  0  0
 14 15  2  0  0  0
 14 96  1  0  0  0
 15 97  1  0  0  0
 16 17  2  0  0  0
 16 21  1  0  0  0
 16 31  1  0  0  0
 17 18  1  0  0  0
 17 98  1  0  0  0
 18 19  2  0  0  0
 18 99  1  0  0  0
 19 20  1  0  0  0
 19 24  1  0  0  0
 20 21  2  0  0  0
 20100  1  0  0  0
 21 23  1  0  0  0
 22 28  1  0  0  0
 22 32  2  0  0  0
 26 27  1  0  0  0
 28101  1  0  0  0
 28102  1  0  0  0
 29103  1  0  0  0
 29104  1  0  0  0
 33 34  1  0  0  0
 33 66  1  0  0  0
 33 70  2  0  0  0
 34 36  1  0  0  0
 34 59  1  0  0  0
 34105  1  0  0  0
 35 44  2  0  0  0
 35 45  1  0  0  0
 35 68  1  0  0  0
 36 56  1  0  0  0
 36106  1  0  0  0
 37 39  1  0  0  0
 37 47  1  0  0  0
 37 66  1  0  0  0
 37107  1  0  0  0
 38 43  2  0  0  0
 38 46  1  0  0  0
 38 47  1  0  0  0
 39 64  1  0  0  0
 39 67  2  0  0  0
 40 52  1  0  0  0
 40 53  2  0  0  0
 40 58  1  0  0  0
 41108  1  0  0  0
 41109  1  0  0  0
 41110  1  0  0  0
 41 48  1  0  0  0
 42 43  1  0  0  0
 42 66  1  0  0  0
 42111  1  0  0  0
 42112  1  0  0  0
 43 44  1  0  0  0
 44113  1  0  0  0
 45 46  2  0  0  0
 45114  1  0  0  0
 46115  1  0  0  0
 47116  1  0  0  0
 47117  1  0  0  0
 48 56  1  0  0  0
 48 65  1  0  0  0
 48118  1  0  0  0
 49 50  1  0  0  0
 49 53  1  0  0  0
 49 64  1  0  0  0
 49119  1  0  0  0
 50 51  1  0  0  0
 50120  1  0  0  0
 50121  1  0  0  0
 51 52  1  0  0  0
 51122  1  0  0  0
 51123  1  0  0  0
 52124  1  0  0  0
 52125  1  0  0  0
 53 54  1  0  0  0
 54 55  2  0  0  0
 54126  1  0  0  0
 55 57  1  0  0  0
 55127  1  0  0  0
 56 69  2  0  0  0
 57 58  2  0  0  0
 57128  1  0  0  0
 58129  1  0  0  0
 59 60  1  0  0  0
 59 61  1  0  0  0
 59 62  1  0  0  0
 60130  1  0  0  0
 60131  1  0  0  0
 60132  1  0  0  0
 61133  1  0  0  0
 61134  1  0  0  0
 61135  1  0  0  0
 62136  1  0  0  0
 62137  1  0  0  0
 62138  1  0  0  0
 63 65  1  0  0  0
 63139  1  0  0  0
 63140  1  0  0  0
 63141  1  0  0  0
 64142  1  0  0  0
 65143  1  0  0  0
 68 80  1  0  0  0
 71 72  2  0  0  0
 71 74  1  0  0  0
 71144  1  0  0  0
 72 76  1  0  0  0
 72145  1  0  0  0
 73 75  1  0  0  0
 73 76  2  0  0  0
 73146  1  0  0  0
 74 75  2  0  0  0
 74 77  1  0  0  0
 75 83  1  0  0  0
 76 84  1  0  0  0
 77147  1  0  0  0
 77148  1  0  0  0
 77149  1  0  0  0
 78150  1  0  0  0
 78151  1  0  0  0
 78152  1  0  0  0
 78 82  1  0  0  0
 79 82  1  0  0  0
 79153  1  0  0  0
 79154  1  0  0  0
 79155  1  0  0  0
 80 82  1  0  0  0
 80156  1  0  0  0
 80157  1  0  0  0
 81 82  1  0  0  0
 81 84  1  0  0  0
 81158  1  0  0  0
 81159  1  0  0  0
 83160  1  0  0  0
M  ISO  4   1 100  68 101  80 101  83 100
M  END
> <chiral flag>
0

> <version>
0

> <s_m_source_file>
/data/baiqing/PycharmProjects/Reinvent-master-3.2/result/LINK_invent/BTK/process_docking_weight1_custom_product_contain_oxygen_bond_distance_aromatic_linkinvent_7_9_3/rearranged_h_0137.sdf

> <i_m_source_file_index>
55

> <r_mmod_Potential_Energy-OPLS-2005>
231.87126159668

> <r_mmod_Stretch_Energy-OPLS-2005>
131.78825378418

> <r_mmod_Bend_Energy-OPLS-2005>
180.94921875

> <r_mmod_Torsional_Energy-OPLS-2005>
265.907104492188

> <r_mmod_Improper_Torsional_Energy-OPLS-2005>
8.04833793640137

> <r_mmod_Van_der_Waal_Energy-OPLS-2005>
139.30549621582

> <r_mmod_Electrostatic_Energy-OPLS-2005>
-377.330963134766

> <r_mmod_Solvation_Energy-OPLS-2005>
-205.630020141602

> <b_mmod_Minimization_Converged-OPLS-2005>
0

> <r_mmod_RMS_Derivative-OPLS-2005>
2.53156638145447

$$$$
55
                    3D
 Structure written by MMmdl.
165173  0  0  1  0            999 V2000
  -30.6375  -14.5854   20.5455 C   0  0  0  0  0  0
  -30.4461  -12.3747   19.4333 C   0  0  0  0  0  0
  -29.5085  -12.5248   18.2134 C   0  0  0  0  0  0
  -28.0268  -12.3780   18.6195 C   0  0  0  0  0  0
  -27.6643  -13.2157   19.8754 C   0  0  2  0  0  0
  -28.7104  -13.0090   20.9946 C   0  0  0  0  0  0
  -25.2614  -13.8190   20.5694 C   0  0  0  0  0  0
  -24.1862  -13.0461   20.9174 C   0  0  0  0  0  0
  -24.6417  -11.6930   20.8744 C   0  0  0  0  0  0
  -23.9075  -10.4301   21.0402 C   0  0  0  0  0  0
  -24.3631   -9.4215   21.9177 C   0  0  0  0  0  0
  -23.6298   -8.2251   22.0740 C   0  0  0  0  0  0
  -22.4278   -8.0290   21.3534 C   0  0  0  0  0  0
  -21.9913   -9.0270   20.4639 C   0  0  0  0  0  0
  -22.7252  -10.2142   20.3053 C   0  0  0  0  0  0
  -21.6843   -6.0743   22.5279 C   0  0  0  0  0  0
  -21.3982   -6.5644   23.8212 C   0  0  0  0  0  0
  -21.3637   -5.6792   24.9177 C   0  0  0  0  0  0
  -21.6037   -4.3060   24.7225 C   0  0  0  0  0  0
  -21.8834   -3.8151   23.4354 C   0  0  0  0  0  0
  -21.9204   -4.6971   22.3409 C   0  0  0  0  0  0
  -22.7875  -13.5256   21.1837 C   0  0  0  0  0  0
  -22.1675   -4.2166   21.0975 F   0  0  0  0  0  0
  -21.5636   -3.4529   25.7736 F   0  0  0  0  0  0
  -30.0314  -13.3629   20.4477 N   0  0  0  0  0  0
  -26.3055  -12.9365   20.3374 N   0  0  0  0  0  0
  -25.9350  -11.6520   20.5785 N   0  0  0  0  0  0
  -22.0506  -12.8268   22.0408 N   0  0  0  0  0  0
  -25.4395  -15.1899   20.4078 N   0  0  0  0  0  0
  -31.7678  -14.7862   20.0876 O   0  0  0  0  0  0
  -21.6638   -6.8887   21.4240 O   0  0  0  0  0  0
  -22.3553  -14.5567   20.6695 O   0  0  0  0  0  0
  -24.6209  -31.8600   23.2029 C   0  0  0  0  0  0
  -25.9042  -32.4835   23.8356 C   0  0  1  0  0  0
  -27.2179  -27.3552   20.1119 C   0  0  0  0  0  0
  -25.5802  -33.8627   24.2221 N   0  0  0  0  0  0
  -23.4142  -30.4852   21.5450 C   0  0  2  0  0  0
  -24.8588  -28.9479   20.1078 C   0  0  0  0  0  0
  -22.7438  -29.4636   22.4935 C   0  0  0  0  0  0
  -18.0253  -28.1433   22.8546 C   0  0  0  0  0  0
  -24.1369  -36.7207   23.2684 C   0  0  0  0  0  0
  -25.9509  -30.8072   21.3653 C   0  0  0  0  0  0
  -26.0262  -29.4379   20.7081 C   0  0  0  0  0  0
  -27.2154  -28.6542   20.6947 C   0  0  0  0  0  0
  -26.0356  -26.9096   19.4845 C   0  0  0  0  0  0
  -24.8650  -27.6903   19.4843 C   0  0  0  0  0  0
  -23.6222  -29.8201   20.1601 C   0  0  0  0  0  0
  -25.4032  -36.3095   24.0354 C   0  0  1  0  0  0
  -20.5864  -28.3696   23.1303 C   0  0  2  0  0  0
  -20.6722  -26.9412   22.5441 C   0  0  0  0  0  0
  -19.5675  -26.6372   21.5275 C   0  0  0  0  0  0
  -18.1855  -26.7965   22.1696 C   0  0  0  0  0  0
  -19.1527  -28.8877   23.2933 C   0  0  0  0  0  0
  -18.9502  -30.1489   23.8955 C   0  0  0  0  0  0
  -17.6521  -30.6669   24.0599 C   0  0  0  0  0  0
  -25.9010  -34.9500   23.5095 C   0  0  0  0  0  0
  -16.5379  -29.9209   23.6363 C   0  0  0  0  0  0
  -16.7254  -28.6598   23.0407 C   0  0  0  0  0  0
  -26.4420  -31.6733   25.0782 C   0  0  0  0  0  0
  -25.3635  -31.3954   26.1515 C   0  0  0  0  0  0
  -27.0302  -30.3176   24.6277 C   0  0  0  0  0  0
  -27.5919  -32.4565   25.7558 C   0  0  0  0  0  0
  -27.5503  -37.1718   24.8506 C   0  0  0  0  0  0
  -21.4151  -29.3061   22.3710 N   0  0  0  0  0  0
  -26.4181  -37.3825   23.9527 N   0  0  0  0  0  0
  -24.6803  -31.0655   22.0946 N   0  0  0  0  0  0
  -23.4187  -28.8167   23.2988 O   0  0  0  0  0  0
  -28.3415  -26.5293   20.1322 O   0  0  0  0  0  0
  -26.5666  -34.8987   22.4725 O   0  0  0  0  0  0
  -23.5358  -32.1372   23.7354 O   0  0  0  0  0  0
  -30.6612  -19.1700   20.0138 C   0  0  0  0  0  0
  -30.8489  -17.7884   20.2828 C   0  0  0  0  0  0
  -28.6344  -17.7069   21.2131 C   0  0  0  0  0  0
  -29.4527  -19.8620   20.3023 C   0  0  0  0  0  0
  -28.4400  -19.0979   20.9594 C   0  0  0  0  0  0
  -29.8162  -17.0081   20.8537 C   0  0  0  0  0  0
  -26.0508  -19.6331   20.2794 C   0  0  0  0  0  0
  -28.4955  -23.9884   18.3698 C   0  0  0  0  0  0
  -30.4513  -24.3099   19.9242 C   0  0  0  0  0  0
  -29.2960  -21.3061   19.7076 C   0  0  0  0  0  0
  -27.1078  -19.6928   21.3893 C   0  0  0  0  0  0
  -28.6992  -22.5477   20.4861 C   0  0  0  0  0  0
  -28.1478  -25.1432   20.5924 C   0  0  0  0  0  0
  -28.9441  -23.9913   19.8480 C   0  0  0  0  0  0
  -29.8731  -15.5740   21.0920 N   0  0  0  0  0  0
  -31.4838  -12.5136   19.1248 H   0  0  0  0  0  0
  -30.3947  -11.3660   19.8429 H   0  0  0  0  0  0
  -29.7621  -11.7838   17.4547 H   0  0  0  0  0  0
  -29.6611  -13.4997   17.7479 H   0  0  0  0  0  0
  -27.8368  -11.3222   18.8127 H   0  0  0  0  0  0
  -27.3807  -12.6538   17.7853 H   0  0  0  0  0  0
  -27.7012  -14.2622   19.5746 H   0  0  0  0  0  0
  -28.7141  -11.9673   21.3175 H   0  0  0  0  0  0
  -28.4599  -13.5875   21.8835 H   0  0  0  0  0  0
  -25.2778   -9.5691   22.4745 H   0  0  0  0  0  0
  -24.0016   -7.4640   22.7446 H   0  0  0  0  0  0
  -21.0845   -8.8788   19.8940 H   0  0  0  0  0  0
  -22.3715  -10.9685   19.6156 H   0  0  0  0  0  0
  -21.1925   -7.6146   23.9733 H   0  0  0  0  0  0
  -21.1430   -6.0502   25.9081 H   0  0  0  0  0  0
  -22.0631   -2.7618   23.2852 H   0  0  0  0  0  0
  -22.4111  -11.9949   22.4854 H   0  0  0  0  0  0
  -21.1141  -13.1320   22.2608 H   0  0  0  0  0  0
  -24.6781  -15.8542   20.4951 H   0  0  0  0  0  0
  -26.2967  -15.6118   20.0725 H   0  0  0  0  0  0
  -26.7143  -32.5513   23.1133 H   0  0  0  0  0  0
  -24.9809  -33.9777   25.0269 H   0  0  0  0  0  0
  -22.7106  -31.3076   21.4048 H   0  0  0  0  0  0
  -23.3725  -35.9443   23.3343 H   0  0  0  0  0  0
  -24.3420  -36.8819   22.2091 H   0  0  0  0  0  0
  -23.6979  -37.6333   23.6723 H   0  0  0  0  0  0
  -26.0727  -31.5732   20.5968 H   0  0  0  0  0  0
  -26.8317  -30.8570   21.9938 H   0  0  0  0  0  0
  -28.1174  -29.0286   21.1585 H   0  0  0  0  0  0
  -26.0050  -25.9484   18.9896 H   0  0  0  0  0  0
  -23.9738  -27.3149   19.0004 H   0  0  0  0  0  0
  -23.7308  -30.5978   19.4027 H   0  0  0  0  0  0
  -22.7423  -29.2445   19.8656 H   0  0  0  0  0  0
  -25.1193  -36.1892   25.0837 H   0  0  0  0  0  0
  -20.9991  -28.3270   24.1410 H   0  0  0  0  0  0
  -20.5568  -26.2346   23.3673 H   0  0  0  0  0  0
  -21.6583  -26.7376   22.1253 H   0  0  0  0  0  0
  -19.6801  -25.6262   21.1351 H   0  0  0  0  0  0
  -19.6606  -27.3167   20.6790 H   0  0  0  0  0  0
  -17.4101  -26.6740   21.4117 H   0  0  0  0  0  0
  -18.0231  -26.0113   22.9100 H   0  0  0  0  0  0
  -19.8007  -30.7260   24.2320 H   0  0  0  0  0  0
  -17.5130  -31.6373   24.5161 H   0  0  0  0  0  0
  -15.5407  -30.3187   23.7642 H   0  0  0  0  0  0
  -15.8627  -28.0945   22.7151 H   0  0  0  0  0  0
  -24.5717  -30.7407   25.7869 H   0  0  0  0  0  0
  -24.8965  -32.3194   26.4955 H   0  0  0  0  0  0
  -25.7900  -30.9114   27.0311 H   0  0  0  0  0  0
  -26.2938  -29.6955   24.1186 H   0  0  0  0  0  0
  -27.3885  -29.7423   25.4824 H   0  0  0  0  0  0
  -27.8815  -30.4503   23.9597 H   0  0  0  0  0  0
  -27.2430  -33.3876   26.2056 H   0  0  0  0  0  0
  -28.3737  -32.7150   25.0406 H   0  0  0  0  0  0
  -28.0582  -31.8809   26.5554 H   0  0  0  0  0  0
  -28.2535  -38.0011   24.7649 H   0  0  0  0  0  0
  -28.0945  -36.2563   24.6169 H   0  0  0  0  0  0
  -27.2259  -37.1159   25.8914 H   0  0  0  0  0  0
  -20.9300  -29.8860   21.7004 H   0  0  0  0  0  0
  -26.0020  -38.2827   24.1790 H   0  0  0  0  0  0
  -31.4638  -19.6973   19.5172 H   0  0  0  0  0  0
  -31.7919  -17.3370   20.0111 H   0  0  0  0  0  0
  -27.8278  -17.1536   21.6731 H   0  0  0  0  0  0
  -25.1127  -20.0712   20.6185 H   0  0  0  0  0  0
  -25.8411  -18.6003   19.9950 H   0  0  0  0  0  0
  -26.3649  -20.1698   19.3837 H   0  0  0  0  0  0
  -29.0658  -23.2776   17.7713 H   0  0  0  0  0  0
  -28.6372  -24.9666   17.9087 H   0  0  0  0  0  0
  -27.4404  -23.7268   18.2720 H   0  0  0  0  0  0
  -31.0260  -23.7392   19.1925 H   0  0  0  0  0  0
  -30.8504  -24.0699   20.9093 H   0  0  0  0  0  0
  -30.6578  -25.3638   19.7348 H   0  0  0  0  0  0
  -28.7245  -21.1832   18.7875 H   0  0  0  0  0  0
  -30.2920  -21.5968   19.3701 H   0  0  0  0  0  0
  -27.2428  -20.7016   21.7722 H   0  0  0  0  0  0
  -26.7408  -19.1300   22.2502 H   0  0  0  0  0  0
  -29.0823  -22.5411   21.5074 H   0  0  0  0  0  0
  -27.6232  -22.4150   20.5740 H   0  0  0  0  0  0
  -28.4333  -25.1314   21.6448 H   0  0  0  0  0  0
  -27.0949  -24.8635   20.6038 H   0  0  0  0  0  0
  -29.0562  -15.2045   21.5525 H   0  0  0  0  0  0
  1 25  1  0  0  0
  1 30  2  0  0  0
  1 85  1  0  0  0
  2  3  1  0  0  0
  2 25  1  0  0  0
  2 86  1  0  0  0
  2 87  1  0  0  0
  3  4  1  0  0  0
  3 88  1  0  0  0
  3 89  1  0  0  0
  4  5  1  0  0  0
  4 90  1  0  0  0
  4 91  1  0  0  0
  5  6  1  0  0  0
  5 26  1  0  0  0
  5 92  1  0  0  0
  6 25  1  0  0  0
  6 93  1  0  0  0
  6 94  1  0  0  0
  7  8  2  0  0  0
  7 26  1  0  0  0
  7 29  1  0  0  0
  8  9  1  0  0  0
  8 22  1  0  0  0
  9 10  1  0  0  0
  9 27  2  0  0  0
 10 11  2  0  0  0
 10 15  1  0  0  0
 11 12  1  0  0  0
 11 95  1  0  0  0
 12 13  2  0  0  0
 12 96  1  0  0  0
 13 14  1  0  0  0
 13 31  1  0  0  0
 14 15  2  0  0  0
 14 97  1  0  0  0
 15 98  1  0  0  0
 16 17  2  0  0  0
 16 21  1  0  0  0
 16 31  1  0  0  0
 17 18  1  0  0  0
 17 99  1  0  0  0
 18 19  2  0  0  0
 18100  1  0  0  0
 19 20  1  0  0  0
 19 24  1  0  0  0
 20 21  2  0  0  0
 20101  1  0  0  0
 21 23  1  0  0  0
 22 28  1  0  0  0
 22 32  2  0  0  0
 26 27  1  0  0  0
 28102  1  0  0  0
 28103  1  0  0  0
 29104  1  0  0  0
 29105  1  0  0  0
 33 34  1  0  0  0
 33 66  1  0  0  0
 33 70  2  0  0  0
 34 36  1  0  0  0
 34 59  1  0  0  0
 34106  1  0  0  0
 35 44  2  0  0  0
 35 45  1  0  0  0
 35 68  1  0  0  0
 36 56  1  0  0  0
 36107  1  0  0  0
 37 39  1  0  0  0
 37 47  1  0  0  0
 37 66  1  0  0  0
 37108  1  0  0  0
 38 43  2  0  0  0
 38 46  1  0  0  0
 38 47  1  0  0  0
 39 64  1  0  0  0
 39 67  2  0  0  0
 40 52  1  0  0  0
 40 53  2  0  0  0
 40 58  1  0  0  0
 41109  1  0  0  0
 41110  1  0  0  0
 41111  1  0  0  0
 41 48  1  0  0  0
 42 43  1  0  0  0
 42 66  1  0  0  0
 42112  1  0  0  0
 42113  1  0  0  0
 43 44  1  0  0  0
 44114  1  0  0  0
 45 46  2  0  0  0
 45115  1  0  0  0
 46116  1  0  0  0
 47117  1  0  0  0
 47118  1  0  0  0
 48 56  1  0  0  0
 48 65  1  0  0  0
 48119  1  0  0  0
 49 50  1  0  0  0
 49 53  1  0  0  0
 49 64  1  0  0  0
 49120  1  0  0  0
 50 51  1  0  0  0
 50121  1  0  0  0
 50122  1  0  0  0
 51 52  1  0  0  0
 51123  1  0  0  0
 51124  1  0  0  0
 52125  1  0  0  0
 52126  1  0  0  0
 53 54  1  0  0  0
 54 55  2  0  0  0
 54127  1  0  0  0
 55 57  1  0  0  0
 55128  1  0  0  0
 56 69  2  0  0  0
 57 58  2  0  0  0
 57129  1  0  0  0
 58130  1  0  0  0
 59 60  1  0  0  0
 59 61  1  0  0  0
 59 62  1  0  0  0
 60131  1  0  0  0
 60132  1  0  0  0
 60133  1  0  0  0
 61134  1  0  0  0
 61135  1  0  0  0
 61136  1  0  0  0
 62137  1  0  0  0
 62138  1  0  0  0
 62139  1  0  0  0
 63 65  1  0  0  0
 63140  1  0  0  0
 63141  1  0  0  0
 63142  1  0  0  0
 64143  1  0  0  0
 65144  1  0  0  0
 68 83  1  0  0  0
 71 72  2  0  0  0
 71 74  1  0  0  0
 71145  1  0  0  0
 72 76  1  0  0  0
 72146  1  0  0  0
 73 75  1  0  0  0
 73 76  2  0  0  0
 73147  1  0  0  0
 74 75  2  0  0  0
 74 80  1  0  0  0
 75 81  1  0  0  0
 76 85  1  0  0  0
 77 81  1  0  0  0
 77148  1  0  0  0
 77149  1  0  0  0
 77150  1  0  0  0
 78151  1  0  0  0
 78152  1  0  0  0
 78153  1  0  0  0
 78 84  1  0  0  0
 79 84  1  0  0  0
 79154  1  0  0  0
 79155  1  0  0  0
 79156  1  0  0  0
 80 82  1  0  0  0
 80157  1  0  0  0
 80158  1  0  0  0
 81159  1  0  0  0
 81160  1  0  0  0
 82 84  1  0  0  0
 82161  1  0  0  0
 82162  1  0  0  0
 83 84  1  0  0  0
 83163  1  0  0  0
 83164  1  0  0  0
 85165  1  0  0  0
M  ISO  4   1 100  68 101  83 101  85 100
M  END
> <chiral flag>
0

> <version>
0

> <s_m_source_file>
/data/baiqing/PycharmProjects/Reinvent-master-3.2/result/LINK_invent/BTK/process_docking_weight1_custom_product_contain_oxygen_bond_distance_aromatic_linkinvent_7_9_3/rearranged_h_0137.sdf

> <i_m_source_file_index>
56

> <r_mmod_Potential_Energy-OPLS-2005>
59.8350410461426

> <r_mmod_Stretch_Energy-OPLS-2005>
68.9720840454102

> <r_mmod_Bend_Energy-OPLS-2005>
143.503448486328

> <r_mmod_Torsional_Energy-OPLS-2005>
245.161972045898

> <r_mmod_Improper_Torsional_Energy-OPLS-2005>
4.41415739059448

> <r_mmod_Van_der_Waal_Energy-OPLS-2005>
142.540100097656

> <r_mmod_Electrostatic_Energy-OPLS-2005>
-387.119598388672

> <r_mmod_Solvation_Energy-OPLS-2005>
-190.963073730469

> <b_mmod_Minimization_Converged-OPLS-2005>
0

> <r_mmod_RMS_Derivative-OPLS-2005>
3.72135281562805

$$$$
56
                    3D
 Structure written by MMmdl.
176186  0  0  1  0            999 V2000
  -30.7320  -14.3639   20.6957 C   0  0  0  0  0  0
  -30.4269  -12.2936   19.3876 C   0  0  0  0  0  0
  -29.4745  -12.5178   18.1954 C   0  0  0  0  0  0
  -28.0016  -12.3646   18.6180 C   0  0  0  0  0  0
  -27.6634  -13.1874   19.8868 C   0  0  2  0  0  0
  -28.6999  -12.9008   20.9948 C   0  0  0  0  0  0
  -25.2601  -13.8146   20.5708 C   0  0  0  0  0  0
  -24.1816  -13.0460   20.9135 C   0  0  0  0  0  0
  -24.6344  -11.6920   20.8723 C   0  0  0  0  0  0
  -23.8977  -10.4330   21.0382 C   0  0  0  0  0  0
  -24.3563   -9.4267   21.9141 C   0  0  0  0  0  0
  -23.6266   -8.2293   22.0729 C   0  0  0  0  0  0
  -22.4261   -8.0259   21.3514 C   0  0  0  0  0  0
  -21.9864   -9.0236   20.4636 C   0  0  0  0  0  0
  -22.7156  -10.2140   20.3044 C   0  0  0  0  0  0
  -21.6876   -6.0703   22.5254 C   0  0  0  0  0  0
  -21.4031   -6.5624   23.8172 C   0  0  0  0  0  0
  -21.3648   -5.6784   24.9128 C   0  0  0  0  0  0
  -21.6052   -4.3049   24.7209 C   0  0  0  0  0  0
  -21.8821   -3.8124   23.4337 C   0  0  0  0  0  0
  -21.9217   -4.6931   22.3387 C   0  0  0  0  0  0
  -22.7831  -13.5256   21.1817 C   0  0  0  0  0  0
  -22.1677   -4.2123   21.0963 F   0  0  0  0  0  0
  -21.5628   -3.4530   25.7724 F   0  0  0  0  0  0
  -30.0471  -13.2168   20.4643 N   0  0  0  0  0  0
  -26.3019  -12.9296   20.3444 N   0  0  0  0  0  0
  -25.9271  -11.6471   20.5777 N   0  0  0  0  0  0
  -22.0515  -12.8247   22.0406 N   0  0  0  0  0  0
  -25.4358  -15.1830   20.4031 N   0  0  0  0  0  0
  -31.7616  -14.6884   20.0945 O   0  0  0  0  0  0
  -21.6646   -6.8846   21.4208 O   0  0  0  0  0  0
  -22.3517  -14.5553   20.6621 O   0  0  0  0  0  0
  -24.6166  -31.8755   23.2195 C   0  0  0  0  0  0
  -25.9050  -32.4859   23.8467 C   0  0  1  0  0  0
  -27.2266  -27.4719   20.0491 C   0  0  0  0  0  0
  -25.5920  -33.8648   24.2394 N   0  0  0  0  0  0
  -23.4029  -30.5021   21.5682 C   0  0  2  0  0  0
  -24.8431  -28.9829   20.1224 C   0  0  0  0  0  0
  -22.7429  -29.4699   22.5130 C   0  0  0  0  0  0
  -18.0271  -28.1341   22.8464 C   0  0  0  0  0  0
  -24.1503  -36.7317   23.2645 C   0  0  0  0  0  0
  -25.9360  -30.8419   21.3821 C   0  0  0  0  0  0
  -26.0074  -29.4816   20.7232 C   0  0  0  0  0  0
  -27.2013  -28.7275   20.6929 C   0  0  0  0  0  0
  -26.0582  -27.0279   19.3976 C   0  0  0  0  0  0
  -24.8587  -27.7450   19.4699 C   0  0  0  0  0  0
  -23.6048  -29.8434   20.1805 C   0  0  0  0  0  0
  -25.4119  -36.3133   24.0361 C   0  0  1  0  0  0
  -20.5860  -28.3684   23.1434 C   0  0  2  0  0  0
  -20.6824  -26.9437   22.5481 C   0  0  0  0  0  0
  -19.5836  -26.6412   21.5253 C   0  0  0  0  0  0
  -18.1997  -26.7884   22.1593 C   0  0  0  0  0  0
  -19.1489  -28.8820   23.2923 C   0  0  0  0  0  0
  -18.9431  -30.1448   23.8879 C   0  0  0  0  0  0
  -17.6419  -30.6584   24.0512 C   0  0  0  0  0  0
  -25.9009  -34.9487   23.5175 C   0  0  0  0  0  0
  -16.5343  -29.9073   23.6263 C   0  0  0  0  0  0
  -16.7258  -28.6466   23.0286 C   0  0  0  0  0  0
  -26.4467  -31.6621   25.0787 C   0  0  0  0  0  0
  -25.3725  -31.3708   26.1540 C   0  0  0  0  0  0
  -27.0335  -30.3075   24.6184 C   0  0  0  0  0  0
  -27.6059  -32.4352   25.7495 C   0  0  0  0  0  0
  -27.5599  -37.1831   24.8476 C   0  0  0  0  0  0
  -21.4158  -29.3053   22.3855 N   0  0  0  0  0  0
  -26.4327  -37.3800   23.9403 N   0  0  0  0  0  0
  -24.6709  -31.0839   22.1134 N   0  0  0  0  0  0
  -23.4205  -28.8205   23.3157 O   0  0  0  0  0  0
  -28.4150  -26.7955   19.9089 O   0  0  0  0  0  0
  -26.5558  -34.8938   22.4707 O   0  0  0  0  0  0
  -23.5365  -32.1470   23.7585 O   0  0  0  0  0  0
  -31.0992  -18.7231   21.8527 C   0  0  0  0  0  0
  -29.8189  -19.2674   22.0553 C   0  0  0  0  0  0
  -31.2621  -17.3321   21.7081 C   0  0  0  0  0  0
  -28.8516  -17.0382   21.9696 C   0  0  0  0  0  0
  -28.6821  -18.4300   22.0875 C   0  0  0  0  0  0
  -30.1321  -16.4891   21.7703 C   0  0  0  0  0  0
  -26.6131  -19.0118   20.7754 C   0  0  0  0  0  0
  -27.1363  -20.2642   23.0549 C   0  0  0  0  0  0
  -25.8197  -20.2836   20.4596 C   0  0  0  0  0  0
  -26.6917  -21.5751   22.3788 C   0  0  0  0  0  0
  -25.7388  -22.7593   20.3856 C   0  0  0  0  0  0
  -27.9488  -21.6860   20.1081 C   0  0  0  0  0  0
  -26.4301  -24.1085   20.6469 C   0  0  0  0  0  0
  -28.6704  -23.0214   20.3877 C   0  0  0  0  0  0
  -27.2665  -18.9842   22.1787 C   0  0  2  0  0  0
  -26.5866  -21.5636   20.8371 C   0  0  2  0  0  0
  -27.8351  -24.2678   19.9764 C   0  0  1  0  0  0
  -27.7814  -24.2995   18.4194 C   0  0  0  0  0  0
  -28.5811  -25.5243   20.5406 C   0  0  0  0  0  0
  -30.2005  -15.0877   21.6876 N   0  0  0  0  0  0
  -31.4634  -12.4317   19.0772 H   0  0  0  0  0  0
  -30.3624  -11.2663   19.7488 H   0  0  0  0  0  0
  -29.7030  -11.8167   17.3911 H   0  0  0  0  0  0
  -29.6336  -13.5151   17.7870 H   0  0  0  0  0  0
  -27.8104  -11.3058   18.7974 H   0  0  0  0  0  0
  -27.3436  -12.6497   17.8009 H   0  0  0  0  0  0
  -27.7319  -14.2433   19.6264 H   0  0  0  0  0  0
  -28.6633  -11.8497   21.2918 H   0  0  0  0  0  0
  -28.4283  -13.4446   21.8985 H   0  0  0  0  0  0
  -25.2718   -9.5768   22.4673 H   0  0  0  0  0  0
  -23.9987   -7.4712   22.7467 H   0  0  0  0  0  0
  -21.0789   -8.8725   19.8955 H   0  0  0  0  0  0
  -22.3576  -10.9639   19.6135 H   0  0  0  0  0  0
  -21.2029   -7.6143   23.9639 H   0  0  0  0  0  0
  -21.1450   -6.0530   25.9013 H   0  0  0  0  0  0
  -22.0622   -2.7585   23.2844 H   0  0  0  0  0  0
  -22.4169  -11.9889   22.4778 H   0  0  0  0  0  0
  -21.1130  -13.1210   22.2677 H   0  0  0  0  0  0
  -24.6647  -15.8356   20.4704 H   0  0  0  0  0  0
  -26.2875  -15.6063   20.0622 H   0  0  0  0  0  0
  -26.7112  -32.5607   23.1230 H   0  0  0  0  0  0
  -25.0136  -33.9786   25.0589 H   0  0  0  0  0  0
  -22.6923  -31.3208   21.4375 H   0  0  0  0  0  0
  -23.3756  -35.9646   23.3307 H   0  0  0  0  0  0
  -24.3617  -36.8909   22.2058 H   0  0  0  0  0  0
  -23.7230  -37.6534   23.6612 H   0  0  0  0  0  0
  -26.0603  -31.6160   20.6210 H   0  0  0  0  0  0
  -26.8193  -30.8780   22.0079 H   0  0  0  0  0  0
  -28.1087  -29.1207   21.1331 H   0  0  0  0  0  0
  -26.0438  -26.1412   18.7890 H   0  0  0  0  0  0
  -23.9749  -27.3698   18.9747 H   0  0  0  0  0  0
  -23.7067  -30.6222   19.4248 H   0  0  0  0  0  0
  -22.7278  -29.2634   19.8861 H   0  0  0  0  0  0
  -25.1285  -36.2036   25.0854 H   0  0  0  0  0  0
  -20.9910  -28.3158   24.1545 H   0  0  0  0  0  0
  -20.5750  -26.2258   23.3631 H   0  0  0  0  0  0
  -21.6719  -26.7436   22.1353 H   0  0  0  0  0  0
  -19.7012  -25.6381   21.1210 H   0  0  0  0  0  0
  -19.6775  -27.3248   20.6803 H   0  0  0  0  0  0
  -17.4342  -26.6592   21.3931 H   0  0  0  0  0  0
  -18.0418  -26.0012   22.8982 H   0  0  0  0  0  0
  -19.7938  -30.7224   24.2220 H   0  0  0  0  0  0
  -17.4948  -31.6262   24.5145 H   0  0  0  0  0  0
  -15.5334  -30.2983   23.7521 H   0  0  0  0  0  0
  -15.8652  -28.0810   22.6996 H   0  0  0  0  0  0
  -24.5841  -30.7133   25.7871 H   0  0  0  0  0  0
  -24.8974  -32.2861   26.5086 H   0  0  0  0  0  0
  -25.8071  -30.8794   27.0254 H   0  0  0  0  0  0
  -26.2912  -29.6809   24.1260 H   0  0  0  0  0  0
  -27.4114  -29.7337   25.4658 H   0  0  0  0  0  0
  -27.8724  -30.4413   23.9348 H   0  0  0  0  0  0
  -27.2670  -33.3617   26.2136 H   0  0  0  0  0  0
  -28.3780  -32.6978   25.0248 H   0  0  0  0  0  0
  -28.0823  -31.8461   26.5341 H   0  0  0  0  0  0
  -28.2657  -38.0106   24.7537 H   0  0  0  0  0  0
  -28.1064  -36.2647   24.6283 H   0  0  0  0  0  0
  -27.2331  -37.1475   25.8890 H   0  0  0  0  0  0
  -20.9346  -29.8724   21.7032 H   0  0  0  0  0  0
  -26.0236  -38.2900   24.1331 H   0  0  0  0  0  0
  -31.9568  -19.3796   21.8013 H   0  0  0  0  0  0
  -29.7280  -20.3391   22.1613 H   0  0  0  0  0  0
  -32.2500  -16.9237   21.5703 H   0  0  0  0  0  0
  -27.9877  -16.3864   22.0020 H   0  0  0  0  0  0
  -27.3786  -18.8958   20.0056 H   0  0  0  0  0  0
  -25.9614  -18.1453   20.6595 H   0  0  0  0  0  0
  -26.3835  -20.0477   23.8122 H   0  0  0  0  0  0
  -28.0354  -20.4469   23.6410 H   0  0  0  0  0  0
  -24.8818  -20.2504   21.0162 H   0  0  0  0  0  0
  -25.5401  -20.2852   19.4030 H   0  0  0  0  0  0
  -27.3273  -22.3852   22.7335 H   0  0  0  0  0  0
  -25.7089  -21.8234   22.7799 H   0  0  0  0  0  0
  -25.5117  -22.6674   19.3230 H   0  0  0  0  0  0
  -24.7690  -22.7368   20.8849 H   0  0  0  0  0  0
  -28.6097  -20.8711   20.3721 H   0  0  0  0  0  0
  -27.7977  -21.5808   19.0324 H   0  0  0  0  0  0
  -26.5213  -24.2700   21.7205 H   0  0  0  0  0  0
  -25.7066  -24.8500   20.3529 H   0  0  0  0  0  0
  -29.6297  -23.0290   19.8641 H   0  0  0  0  0  0
  -28.9496  -23.0802   21.4405 H   0  0  0  0  0  0
  -26.7182  -18.2272   22.7396 H   0  0  0  0  0  0
  -28.6300  -23.7843   17.9670 H   0  0  0  0  0  0
  -27.8193  -25.3042   18.0015 H   0  0  0  0  0  0
  -26.8781  -23.8345   18.0263 H   0  0  0  0  0  0
  -29.6546  -25.3426   20.4699 H   0  0  0  0  0  0
  -28.3910  -25.6371   21.6070 H   0  0  0  0  0  0
  -29.3955  -14.6188   22.0696 H   0  0  0  0  0  0
  1 25  1  0  0  0
  1 30  2  0  0  0
  1 90  1  0  0  0
  2  3  1  0  0  0
  2 25  1  0  0  0
  2 91  1  0  0  0
  2 92  1  0  0  0
  3  4  1  0  0  0
  3 93  1  0  0  0
  3 94  1  0  0  0
  4  5  1  0  0  0
  4 95  1  0  0  0
  4 96  1  0  0  0
  5  6  1  0  0  0
  5 26  1  0  0  0
  5 97  1  0  0  0
  6 25  1  0  0  0
  6 98  1  0  0  0
  6 99  1  0  0  0
  7  8  2  0  0  0
  7 26  1  0  0  0
  7 29  1  0  0  0
  8  9  1  0  0  0
  8 22  1  0  0  0
  9 10  1  0  0  0
  9 27  2  0  0  0
 10 11  2  0  0  0
 10 15  1  0  0  0
 11 12  1  0  0  0
 11100  1  0  0  0
 12 13  2  0  0  0
 12101  1  0  0  0
 13 14  1  0  0  0
 13 31  1  0  0  0
 14 15  2  0  0  0
 14102  1  0  0  0
 15103  1  0  0  0
 16 17  2  0  0  0
 16 21  1  0  0  0
 16 31  1  0  0  0
 17 18  1  0  0  0
 17104  1  0  0  0
 18 19  2  0  0  0
 18105  1  0  0  0
 19 20  1  0  0  0
 19 24  1  0  0  0
 20 21  2  0  0  0
 20106  1  0  0  0
 21 23  1  0  0  0
 22 28  1  0  0  0
 22 32  2  0  0  0
 26 27  1  0  0  0
 28107  1  0  0  0
 28108  1  0  0  0
 29109  1  0  0  0
 29110  1  0  0  0
 33 34  1  0  0  0
 33 66  1  0  0  0
 33 70  2  0  0  0
 34 36  1  0  0  0
 34 59  1  0  0  0
 34111  1  0  0  0
 35 44  2  0  0  0
 35 45  1  0  0  0
 35 68  1  0  0  0
 36 56  1  0  0  0
 36112  1  0  0  0
 37 39  1  0  0  0
 37 47  1  0  0  0
 37 66  1  0  0  0
 37113  1  0  0  0
 38 43  2  0  0  0
 38 46  1  0  0  0
 38 47  1  0  0  0
 39 64  1  0  0  0
 39 67  2  0  0  0
 40 52  1  0  0  0
 40 53  2  0  0  0
 40 58  1  0  0  0
 41114  1  0  0  0
 41115  1  0  0  0
 41116  1  0  0  0
 41 48  1  0  0  0
 42 43  1  0  0  0
 42 66  1  0  0  0
 42117  1  0  0  0
 42118  1  0  0  0
 43 44  1  0  0  0
 44119  1  0  0  0
 45 46  2  0  0  0
 45120  1  0  0  0
 46121  1  0  0  0
 47122  1  0  0  0
 47123  1  0  0  0
 48 56  1  0  0  0
 48 65  1  0  0  0
 48124  1  0  0  0
 49 50  1  0  0  0
 49 53  1  0  0  0
 49 64  1  0  0  0
 49125  1  0  0  0
 50 51  1  0  0  0
 50126  1  0  0  0
 50127  1  0  0  0
 51 52  1  0  0  0
 51128  1  0  0  0
 51129  1  0  0  0
 52130  1  0  0  0
 52131  1  0  0  0
 53 54  1  0  0  0
 54 55  2  0  0  0
 54132  1  0  0  0
 55 57  1  0  0  0
 55133  1  0  0  0
 56 69  2  0  0  0
 57 58  2  0  0  0
 57134  1  0  0  0
 58135  1  0  0  0
 59 60  1  0  0  0
 59 61  1  0  0  0
 59 62  1  0  0  0
 60136  1  0  0  0
 60137  1  0  0  0
 60138  1  0  0  0
 61139  1  0  0  0
 61140  1  0  0  0
 61141  1  0  0  0
 62142  1  0  0  0
 62143  1  0  0  0
 62144  1  0  0  0
 63 65  1  0  0  0
 63145  1  0  0  0
 63146  1  0  0  0
 63147  1  0  0  0
 64148  1  0  0  0
 65149  1  0  0  0
 68 89  1  0  0  0
 71 72  2  0  0  0
 71 73  1  0  0  0
 71150  1  0  0  0
 72 75  1  0  0  0
 72151  1  0  0  0
 73 76  2  0  0  0
 73152  1  0  0  0
 74 75  2  0  0  0
 74 76  1  0  0  0
 74153  1  0  0  0
 75 85  1  0  0  0
 76 90  1  0  0  0
 77 79  1  0  0  0
 77 85  1  0  0  0
 77154  1  0  0  0
 77155  1  0  0  0
 78 80  1  0  0  0
 78 85  1  0  0  0
 78156  1  0  0  0
 78157  1  0  0  0
 79158  1  0  0  0
 79159  1  0  0  0
 79 86  1  0  0  0
 80 86  1  0  0  0
 80160  1  0  0  0
 80161  1  0  0  0
 81 83  1  0  0  0
 81 86  1  0  0  0
 81162  1  0  0  0
 81163  1  0  0  0
 82 84  1  0  0  0
 82 86  1  0  0  0
 82164  1  0  0  0
 82165  1  0  0  0
 83 87  1  0  0  0
 83166  1  0  0  0
 83167  1  0  0  0
 84 87  1  0  0  0
 84168  1  0  0  0
 84169  1  0  0  0
 85170  1  0  0  0
 87 88  1  0  0  0
 87 89  1  0  0  0
 88171  1  0  0  0
 88172  1  0  0  0
 88173  1  0  0  0
 89174  1  0  0  0
 89175  1  0  0  0
 90176  1  0  0  0
M  ISO  4   1 100  68 101  89 101  90 100
M  END
> <chiral flag>
0

> <version>
0

> <s_m_source_file>
/data/baiqing/PycharmProjects/Reinvent-master-3.2/result/LINK_invent/BTK/process_docking_weight1_custom_product_contain_oxygen_bond_distance_aromatic_linkinvent_7_9_3/rearranged_h_0137.sdf

> <i_m_source_file_index>
57

> <r_mmod_Potential_Energy-OPLS-2005>
148.103530883789

> <r_mmod_Stretch_Energy-OPLS-2005>
37.064380645752

> <r_mmod_Bend_Energy-OPLS-2005>
143.755706787109

> <r_mmod_Torsional_Energy-OPLS-2005>
351.769165039062

> <r_mmod_Improper_Torsional_Energy-OPLS-2005>
5.88954305648804

> <r_mmod_Van_der_Waal_Energy-OPLS-2005>
184.580902099609

> <r_mmod_Electrostatic_Energy-OPLS-2005>
-402.740692138672

> <r_mmod_Solvation_Energy-OPLS-2005>
-184.237228393555

> <b_mmod_Minimization_Converged-OPLS-2005>
0

> <r_mmod_RMS_Derivative-OPLS-2005>
7.30532789230347

$$$$
57
                    3D
 Structure written by MMmdl.
157166  0  0  1  0            999 V2000
  -30.7125  -14.4329   20.6075 C   0  0  0  0  0  0
  -30.4198  -12.2865   19.4311 C   0  0  0  0  0  0
  -29.5006  -12.5116   18.2127 C   0  0  0  0  0  0
  -28.0198  -12.3772   18.6156 C   0  0  0  0  0  0
  -27.6665  -13.2039   19.8816 C   0  0  2  0  0  0
  -28.7000  -12.9678   21.0049 C   0  0  0  0  0  0
  -25.2615  -13.8168   20.5646 C   0  0  0  0  0  0
  -24.1846  -13.0455   20.9132 C   0  0  0  0  0  0
  -24.6388  -11.6916   20.8725 C   0  0  0  0  0  0
  -23.9045  -10.4306   21.0410 C   0  0  0  0  0  0
  -24.3601   -9.4233   21.9208 C   0  0  0  0  0  0
  -23.6266   -8.2270   22.0768 C   0  0  0  0  0  0
  -22.4258   -8.0297   21.3541 C   0  0  0  0  0  0
  -21.9879   -9.0282   20.4657 C   0  0  0  0  0  0
  -22.7208  -10.2163   20.3064 C   0  0  0  0  0  0
  -21.6860   -6.0729   22.5270 C   0  0  0  0  0  0
  -21.4025   -6.5629   23.8202 C   0  0  0  0  0  0
  -21.3657   -5.6779   24.9169 C   0  0  0  0  0  0
  -21.6038   -4.3037   24.7223 C   0  0  0  0  0  0
  -21.8822   -3.8129   23.4346 C   0  0  0  0  0  0
  -21.9196   -4.6947   22.3392 C   0  0  0  0  0  0
  -22.7873  -13.5275   21.1810 C   0  0  0  0  0  0
  -22.1661   -4.2129   21.0972 F   0  0  0  0  0  0
  -21.5625   -3.4524   25.7738 F   0  0  0  0  0  0
  -30.0439  -13.2559   20.4709 N   0  0  0  0  0  0
  -26.3042  -12.9315   20.3359 N   0  0  0  0  0  0
  -25.9310  -11.6481   20.5749 N   0  0  0  0  0  0
  -22.0492  -12.8304   22.0372 N   0  0  0  0  0  0
  -25.4406  -15.1885   20.4075 N   0  0  0  0  0  0
  -31.8051  -14.6508   20.0726 O   0  0  0  0  0  0
  -21.6638   -6.8885   21.4227 O   0  0  0  0  0  0
  -22.3573  -14.5588   20.6651 O   0  0  0  0  0  0
  -24.6130  -31.8685   23.2147 C   0  0  0  0  0  0
  -25.9030  -32.4830   23.8425 C   0  0  1  0  0  0
  -27.2317  -27.4379   20.0880 C   0  0  0  0  0  0
  -25.5894  -33.8621   24.2354 N   0  0  0  0  0  0
  -23.4004  -30.4951   21.5547 C   0  0  2  0  0  0
  -24.8451  -28.9678   20.1161 C   0  0  0  0  0  0
  -22.7398  -29.4651   22.4982 C   0  0  0  0  0  0
  -18.0281  -28.1382   22.8501 C   0  0  0  0  0  0
  -24.1475  -36.7300   23.2636 C   0  0  0  0  0  0
  -25.9302  -30.8340   21.3708 C   0  0  0  0  0  0
  -26.0063  -29.4702   20.7155 C   0  0  0  0  0  0
  -27.1989  -28.7107   20.7042 C   0  0  0  0  0  0
  -26.0454  -26.9574   19.4770 C   0  0  0  0  0  0
  -24.8588  -27.7089   19.4981 C   0  0  0  0  0  0
  -23.6083  -29.8343   20.1668 C   0  0  0  0  0  0
  -25.4093  -36.3102   24.0343 C   0  0  1  0  0  0
  -20.5867  -28.3660   23.1316 C   0  0  2  0  0  0
  -20.6767  -26.9398   22.5410 C   0  0  0  0  0  0
  -19.5737  -26.6385   21.5213 C   0  0  0  0  0  0
  -18.1919  -26.7933   22.1635 C   0  0  0  0  0  0
  -19.1529  -28.8846   23.2910 C   0  0  0  0  0  0
  -18.9456  -30.1452   23.8914 C   0  0  0  0  0  0
  -17.6458  -30.6588   24.0563 C   0  0  0  0  0  0
  -25.9024  -34.9473   23.5140 C   0  0  0  0  0  0
  -16.5346  -29.9089   23.6330 C   0  0  0  0  0  0
  -16.7262  -28.6503   23.0350 C   0  0  0  0  0  0
  -26.4472  -31.6611   25.0737 C   0  0  0  0  0  0
  -25.3751  -31.3749   26.1507 C   0  0  0  0  0  0
  -27.0280  -30.3040   24.6118 C   0  0  0  0  0  0
  -27.6068  -32.4329   25.7481 C   0  0  0  0  0  0
  -27.5578  -37.1793   24.8457 C   0  0  0  0  0  0
  -21.4126  -29.3023   22.3715 N   0  0  0  0  0  0
  -26.4277  -37.3783   23.9420 N   0  0  0  0  0  0
  -24.6660  -31.0787   22.1053 N   0  0  0  0  0  0
  -23.4167  -28.8164   23.3005 O   0  0  0  0  0  0
  -28.4107  -26.7136   20.1081 O   0  0  0  0  0  0
  -26.5568  -34.8908   22.4691 O   0  0  0  0  0  0
  -23.5324  -32.1445   23.7541 O   0  0  0  0  0  0
  -30.1836  -18.6809   19.5136 C   0  0  0  0  0  0
  -30.3384  -17.3076   19.7780 C   0  0  0  0  0  0
  -29.4579  -21.0085   20.4177 C   0  0  0  0  0  0
  -29.6216  -17.6738   22.0716 C   0  0  0  0  0  0
  -29.7344  -19.5904   20.4947 C   0  0  0  0  0  0
  -30.0444  -16.7835   21.0590 C   0  0  0  0  0  0
  -29.4784  -19.0524   21.7949 C   0  0  0  0  0  0
  -29.0317  -21.5280   21.6164 C   0  0  0  0  0  0
  -30.5490  -24.2736   19.1721 C   0  0  0  0  0  0
  -29.5830  -24.5408   20.0683 C   0  0  0  0  0  0
  -28.6265  -22.9512   21.8858 C   0  0  0  0  0  0
  -29.6696  -24.0328   21.5060 C   0  0  0  0  0  0
  -28.3457  -25.3463   19.6838 C   0  0  0  0  0  0
  -30.0774  -15.3789   21.3246 N   0  0  0  0  0  0
  -28.9761  -20.3361   22.8923 S   0  0  0  0  0  0
  -31.4678  -12.3717   19.1373 H   0  0  0  0  0  0
  -30.3019  -11.2720   19.8150 H   0  0  0  0  0  0
  -29.7362  -11.7937   17.4253 H   0  0  0  0  0  0
  -29.6812  -13.5024   17.7937 H   0  0  0  0  0  0
  -27.8182  -11.3202   18.7917 H   0  0  0  0  0  0
  -27.3790  -12.6729   17.7849 H   0  0  0  0  0  0
  -27.7177  -14.2555   19.6007 H   0  0  0  0  0  0
  -28.6607  -11.9327   21.3474 H   0  0  0  0  0  0
  -28.4518  -13.5666   21.8813 H   0  0  0  0  0  0
  -25.2757   -9.5691   22.4785 H   0  0  0  0  0  0
  -23.9970   -7.4656   22.7477 H   0  0  0  0  0  0
  -21.0816   -8.8796   19.8972 H   0  0  0  0  0  0
  -22.3674  -10.9698   19.6168 H   0  0  0  0  0  0
  -21.2027   -7.6140   23.9697 H   0  0  0  0  0  0
  -21.1470   -6.0517   25.9065 H   0  0  0  0  0  0
  -22.0606   -2.7580   23.2860 H   0  0  0  0  0  0
  -22.4041  -11.9944   22.4771 H   0  0  0  0  0  0
  -21.1131  -13.1397   22.2582 H   0  0  0  0  0  0
  -24.6867  -15.8592   20.5105 H   0  0  0  0  0  0
  -26.3116  -15.6126   20.1109 H   0  0  0  0  0  0
  -26.7082  -32.5542   23.1173 H   0  0  0  0  0  0
  -25.0056  -33.9791   25.0506 H   0  0  0  0  0  0
  -22.6892  -31.3125   21.4194 H   0  0  0  0  0  0
  -23.3737  -35.9636   23.3294 H   0  0  0  0  0  0
  -24.3574  -36.8911   22.2050 H   0  0  0  0  0  0
  -23.7218  -37.6498   23.6652 H   0  0  0  0  0  0
  -26.0425  -31.6028   20.6055 H   0  0  0  0  0  0
  -26.8172  -30.8836   21.9897 H   0  0  0  0  0  0
  -28.0934  -29.0926   21.1763 H   0  0  0  0  0  0
  -26.0054  -26.0054   18.9688 H   0  0  0  0  0  0
  -23.9654  -27.3185   19.0276 H   0  0  0  0  0  0
  -23.7142  -30.6124   19.4098 H   0  0  0  0  0  0
  -22.7318  -29.2559   19.8698 H   0  0  0  0  0  0
  -25.1258  -36.1964   25.0834 H   0  0  0  0  0  0
  -20.9969  -28.3233   24.1433 H   0  0  0  0  0  0
  -20.5677  -26.2265   23.3590 H   0  0  0  0  0  0
  -21.6634  -26.7433   22.1199 H   0  0  0  0  0  0
  -19.6881  -25.6295   21.1237 H   0  0  0  0  0  0
  -19.6672  -27.3198   20.6745 H   0  0  0  0  0  0
  -17.4179  -26.6688   21.4044 H   0  0  0  0  0  0
  -18.0310  -26.0075   22.9027 H   0  0  0  0  0  0
  -19.7929  -30.7275   24.2281 H   0  0  0  0  0  0
  -17.5004  -31.6274   24.5152 H   0  0  0  0  0  0
  -15.5348  -30.2988   23.7640 H   0  0  0  0  0  0
  -15.8671  -28.0818   22.7059 H   0  0  0  0  0  0
  -24.5855  -30.7174   25.7842 H   0  0  0  0  0  0
  -24.9037  -32.2935   26.5013 H   0  0  0  0  0  0
  -25.8096  -30.8845   27.0222 H   0  0  0  0  0  0
  -26.2806  -29.6818   24.1171 H   0  0  0  0  0  0
  -27.4024  -29.7264   25.4575 H   0  0  0  0  0  0
  -27.8665  -30.4336   23.9272 H   0  0  0  0  0  0
  -27.2699  -33.3619   26.2094 H   0  0  0  0  0  0
  -28.3854  -32.6905   25.0289 H   0  0  0  0  0  0
  -28.0756  -31.8432   26.5366 H   0  0  0  0  0  0
  -28.2588  -38.0099   24.7522 H   0  0  0  0  0  0
  -28.1085  -36.2635   24.6251 H   0  0  0  0  0  0
  -27.2304  -37.1388   25.8861 H   0  0  0  0  0  0
  -20.9274  -29.8762   21.6961 H   0  0  0  0  0  0
  -26.0164  -38.2856   24.1456 H   0  0  0  0  0  0
  -30.3929  -19.0513   18.5206 H   0  0  0  0  0  0
  -30.6523  -16.6659   18.9667 H   0  0  0  0  0  0
  -29.5659  -21.5824   19.5065 H   0  0  0  0  0  0
  -29.3911  -17.3165   23.0657 H   0  0  0  0  0  0
  -31.4204  -23.6914   19.4385 H   0  0  0  0  0  0
  -30.4863  -24.6281   18.1523 H   0  0  0  0  0  0
  -28.4423  -23.0502   22.9565 H   0  0  0  0  0  0
  -27.6587  -23.1467   21.4276 H   0  0  0  0  0  0
  -29.5152  -24.9061   22.1411 H   0  0  0  0  0  0
  -30.6749  -23.6786   21.7355 H   0  0  0  0  0  0
  -27.4774  -24.8460   20.1081 H   0  0  0  0  0  0
  -28.2291  -25.3239   18.5994 H   0  0  0  0  0  0
  -29.3427  -15.0263   21.9207 H   0  0  0  0  0  0
  1 25  1  0  0  0
  1 30  2  0  0  0
  1 84  1  0  0  0
  2  3  1  0  0  0
  2 25  1  0  0  0
  2 86  1  0  0  0
  2 87  1  0  0  0
  3  4  1  0  0  0
  3 88  1  0  0  0
  3 89  1  0  0  0
  4  5  1  0  0  0
  4 90  1  0  0  0
  4 91  1  0  0  0
  5  6  1  0  0  0
  5 26  1  0  0  0
  5 92  1  0  0  0
  6 25  1  0  0  0
  6 93  1  0  0  0
  6 94  1  0  0  0
  7  8  2  0  0  0
  7 26  1  0  0  0
  7 29  1  0  0  0
  8  9  1  0  0  0
  8 22  1  0  0  0
  9 10  1  0  0  0
  9 27  2  0  0  0
 10 11  2  0  0  0
 10 15  1  0  0  0
 11 12  1  0  0  0
 11 95  1  0  0  0
 12 13  2  0  0  0
 12 96  1  0  0  0
 13 14  1  0  0  0
 13 31  1  0  0  0
 14 15  2  0  0  0
 14 97  1  0  0  0
 15 98  1  0  0  0
 16 17  2  0  0  0
 16 21  1  0  0  0
 16 31  1  0  0  0
 17 18  1  0  0  0
 17 99  1  0  0  0
 18 19  2  0  0  0
 18100  1  0  0  0
 19 20  1  0  0  0
 19 24  1  0  0  0
 20 21  2  0  0  0
 20101  1  0  0  0
 21 23  1  0  0  0
 22 28  1  0  0  0
 22 32  2  0  0  0
 26 27  1  0  0  0
 28102  1  0  0  0
 28103  1  0  0  0
 29104  1  0  0  0
 29105  1  0  0  0
 33 34  1  0  0  0
 33 66  1  0  0  0
 33 70  2  0  0  0
 34 36  1  0  0  0
 34 59  1  0  0  0
 34106  1  0  0  0
 35 44  2  0  0  0
 35 45  1  0  0  0
 35 68  1  0  0  0
 36 56  1  0  0  0
 36107  1  0  0  0
 37 39  1  0  0  0
 37 47  1  0  0  0
 37 66  1  0  0  0
 37108  1  0  0  0
 38 43  2  0  0  0
 38 46  1  0  0  0
 38 47  1  0  0  0
 39 64  1  0  0  0
 39 67  2  0  0  0
 40 52  1  0  0  0
 40 53  2  0  0  0
 40 58  1  0  0  0
 41109  1  0  0  0
 41110  1  0  0  0
 41111  1  0  0  0
 41 48  1  0  0  0
 42 43  1  0  0  0
 42 66  1  0  0  0
 42112  1  0  0  0
 42113  1  0  0  0
 43 44  1  0  0  0
 44114  1  0  0  0
 45 46  2  0  0  0
 45115  1  0  0  0
 46116  1  0  0  0
 47117  1  0  0  0
 47118  1  0  0  0
 48 56  1  0  0  0
 48 65  1  0  0  0
 48119  1  0  0  0
 49 50  1  0  0  0
 49 53  1  0  0  0
 49 64  1  0  0  0
 49120  1  0  0  0
 50 51  1  0  0  0
 50121  1  0  0  0
 50122  1  0  0  0
 51 52  1  0  0  0
 51123  1  0  0  0
 51124  1  0  0  0
 52125  1  0  0  0
 52126  1  0  0  0
 53 54  1  0  0  0
 54 55  2  0  0  0
 54127  1  0  0  0
 55 57  1  0  0  0
 55128  1  0  0  0
 56 69  2  0  0  0
 57 58  2  0  0  0
 57129  1  0  0  0
 58130  1  0  0  0
 59 60  1  0  0  0
 59 61  1  0  0  0
 59 62  1  0  0  0
 60131  1  0  0  0
 60132  1  0  0  0
 60133  1  0  0  0
 61134  1  0  0  0
 61135  1  0  0  0
 61136  1  0  0  0
 62137  1  0  0  0
 62138  1  0  0  0
 62139  1  0  0  0
 63 65  1  0  0  0
 63140  1  0  0  0
 63141  1  0  0  0
 63142  1  0  0  0
 64143  1  0  0  0
 65144  1  0  0  0
 68 83  1  0  0  0
 71 72  2  0  0  0
 71 75  1  0  0  0
 71145  1  0  0  0
 72 76  1  0  0  0
 72146  1  0  0  0
 73 75  1  0  0  0
 73 78  2  0  0  0
 73147  1  0  0  0
 74 76  2  0  0  0
 74 77  1  0  0  0
 74148  1  0  0  0
 75 77  2  0  0  0
 76 84  1  0  0  0
 77 85  1  0  0  0
 78 81  1  0  0  0
 78 85  1  0  0  0
 79 80  2  0  0  0
 79149  1  0  0  0
 79150  1  0  0  0
 80 82  1  0  0  0
 80 83  1  0  0  0
 81 82  1  0  0  0
 81151  1  0  0  0
 81152  1  0  0  0
 82153  1  0  0  0
 82154  1  0  0  0
 83155  1  0  0  0
 83156  1  0  0  0
 84157  1  0  0  0
M  ISO  4   1 100  68 101  83 101  84 100
M  END
> <chiral flag>
0

> <version>
0

> <s_m_source_file>
/data/baiqing/PycharmProjects/Reinvent-master-3.2/result/LINK_invent/BTK/process_docking_weight1_custom_product_contain_oxygen_bond_distance_aromatic_linkinvent_7_9_3/rearranged_h_0137.sdf

> <i_m_source_file_index>
58

> <r_mmod_Potential_Energy-OPLS-2005>
-88.2004165649414

> <r_mmod_Stretch_Energy-OPLS-2005>
35.3102798461914

> <r_mmod_Bend_Energy-OPLS-2005>
105.652969360352

> <r_mmod_Torsional_Energy-OPLS-2005>
209.959548950195

> <r_mmod_Improper_Torsional_Energy-OPLS-2005>
3.38691186904907

> <r_mmod_Van_der_Waal_Energy-OPLS-2005>
154.001846313477

> <r_mmod_Electrostatic_Energy-OPLS-2005>
-397.720428466797

> <r_mmod_Solvation_Energy-OPLS-2005>
-209.258239746094

> <b_mmod_Minimization_Converged-OPLS-2005>
0

> <r_mmod_RMS_Derivative-OPLS-2005>
2.80884599685669

$$$$
58
                    3D
 Structure written by MMmdl.
163172  0  0  1  0            999 V2000
  -30.5970  -14.6563   20.5098 C   0  0  0  0  0  0
  -30.4493  -12.4034   19.4529 C   0  0  0  0  0  0
  -29.5120  -12.5074   18.2274 C   0  0  0  0  0  0
  -28.0358  -12.3383   18.6412 C   0  0  0  0  0  0
  -27.6576  -13.2095   19.8677 C   0  0  2  0  0  0
  -28.7021  -13.0497   20.9957 C   0  0  0  0  0  0
  -25.2590  -13.8155   20.5684 C   0  0  0  0  0  0
  -24.1841  -13.0434   20.9182 C   0  0  0  0  0  0
  -24.6399  -11.6897   20.8741 C   0  0  0  0  0  0
  -23.9063  -10.4284   21.0409 C   0  0  0  0  0  0
  -24.3613   -9.4201   21.9187 C   0  0  0  0  0  0
  -23.6288   -8.2238   22.0755 C   0  0  0  0  0  0
  -22.4271   -8.0278   21.3543 C   0  0  0  0  0  0
  -21.9909   -9.0251   20.4643 C   0  0  0  0  0  0
  -22.7240  -10.2132   20.3056 C   0  0  0  0  0  0
  -21.6855   -6.0736   22.5277 C   0  0  0  0  0  0
  -21.4013   -6.5639   23.8211 C   0  0  0  0  0  0
  -21.3659   -5.6792   24.9172 C   0  0  0  0  0  0
  -21.6048   -4.3054   24.7222 C   0  0  0  0  0  0
  -21.8819   -3.8148   23.4343 C   0  0  0  0  0  0
  -21.9190   -4.6965   22.3400 C   0  0  0  0  0  0
  -22.7866  -13.5235   21.1849 C   0  0  0  0  0  0
  -22.1661   -4.2151   21.0979 F   0  0  0  0  0  0
  -21.5629   -3.4538   25.7736 F   0  0  0  0  0  0
  -30.0182  -13.4131   20.4404 N   0  0  0  0  0  0
  -26.3014  -12.9319   20.3334 N   0  0  0  0  0  0
  -25.9324  -11.6481   20.5762 N   0  0  0  0  0  0
  -22.0505  -12.8221   22.0400 N   0  0  0  0  0  0
  -25.4326  -15.1875   20.4098 N   0  0  0  0  0  0
  -31.7396  -14.8597   20.0862 O   0  0  0  0  0  0
  -21.6638   -6.8877   21.4237 O   0  0  0  0  0  0
  -22.3553  -14.5547   20.6710 O   0  0  0  0  0  0
  -24.6267  -31.8593   23.2006 C   0  0  0  0  0  0
  -25.9107  -32.4779   23.8345 C   0  0  1  0  0  0
  -27.2337  -27.3207   20.1137 C   0  0  0  0  0  0
  -25.5919  -33.8579   24.2279 N   0  0  0  0  0  0
  -23.4208  -30.4833   21.5427 C   0  0  2  0  0  0
  -24.8691  -28.9361   20.1125 C   0  0  0  0  0  0
  -22.7476  -29.4634   22.4919 C   0  0  0  0  0  0
  -18.0294  -28.1399   22.8481 C   0  0  0  0  0  0
  -24.1494  -36.7294   23.2639 C   0  0  0  0  0  0
  -25.9611  -30.7943   21.3674 C   0  0  0  0  0  0
  -26.0384  -29.4192   20.7133 C   0  0  0  0  0  0
  -27.2239  -28.6246   20.7006 C   0  0  0  0  0  0
  -26.0369  -26.8869   19.4981 C   0  0  0  0  0  0
  -24.8703  -27.6757   19.4966 C   0  0  0  0  0  0
  -23.6373  -29.8174   20.1586 C   0  0  0  0  0  0
  -25.4112  -36.3087   24.0340 C   0  0  1  0  0  0
  -20.5892  -28.3710   23.1278 C   0  0  2  0  0  0
  -20.6795  -26.9434   22.5402 C   0  0  0  0  0  0
  -19.5768  -26.6391   21.5213 C   0  0  0  0  0  0
  -18.1942  -26.7940   22.1620 C   0  0  0  0  0  0
  -19.1545  -28.8867   23.2881 C   0  0  0  0  0  0
  -18.9476  -30.1463   23.8911 C   0  0  0  0  0  0
  -17.6476  -30.6598   24.0568 C   0  0  0  0  0  0
  -25.9047  -34.9454   23.5109 C   0  0  0  0  0  0
  -16.5368  -29.9105   23.6327 C   0  0  0  0  0  0
  -16.7278  -28.6524   23.0339 C   0  0  0  0  0  0
  -26.4504  -31.6574   25.0700 C   0  0  0  0  0  0
  -25.3744  -31.3686   26.1428 C   0  0  0  0  0  0
  -27.0342  -30.3015   24.6095 C   0  0  0  0  0  0
  -27.6074  -32.4290   25.7472 C   0  0  0  0  0  0
  -27.5581  -37.1803   24.8468 C   0  0  0  0  0  0
  -21.4186  -29.3071   22.3680 N   0  0  0  0  0  0
  -26.4289  -37.3779   23.9419 N   0  0  0  0  0  0
  -24.6885  -31.0609   22.0953 N   0  0  0  0  0  0
  -23.4199  -28.8162   23.2992 O   0  0  0  0  0  0
  -28.3639  -26.4853   20.1452 O   0  0  0  0  0  0
  -26.5608  -34.8928   22.4673 O   0  0  0  0  0  0
  -23.5427  -32.1380   23.7340 O   0  0  0  0  0  0
  -28.1050  -19.0719   21.2504 C   0  0  0  0  0  0
  -28.4762  -17.6925   21.3733 C   0  0  0  0  0  0
  -30.5641  -17.9591   20.0771 C   0  0  0  0  0  0
  -28.9965  -19.8895   20.5464 C   0  0  0  0  0  0
  -30.1909  -19.3334   19.9926 C   0  0  0  0  0  0
  -29.6601  -17.0996   20.7994 C   0  0  0  0  0  0
  -30.5308  -20.6668   19.3416 C   0  0  0  0  0  0
  -29.1308  -21.2918   19.8920 C   0  0  1  0  0  0
  -27.9920  -21.4543   18.8819 C   0  0  0  0  0  0
  -30.1911  -24.7083   21.6058 C   0  0  0  0  0  0
  -30.3515  -24.0928   19.2022 C   0  0  0  0  0  0
  -29.1000  -22.5361   20.8843 C   0  0  0  0  0  0
  -28.1631  -25.0128   20.1607 C   0  0  0  0  0  0
  -29.4221  -24.0613   20.4326 C   0  0  0  0  0  0
  -29.7756  -15.6479   20.9790 N   0  0  0  0  0  0
  -31.4874  -12.5472   19.1483 H   0  0  0  0  0  0
  -30.4030  -11.4050   19.8907 H   0  0  0  0  0  0
  -29.7782  -11.7517   17.4872 H   0  0  0  0  0  0
  -29.6473  -13.4745   17.7401 H   0  0  0  0  0  0
  -27.8811  -11.2851   18.8788 H   0  0  0  0  0  0
  -27.3774  -12.5599   17.8001 H   0  0  0  0  0  0
  -27.6803  -14.2464   19.5306 H   0  0  0  0  0  0
  -28.7194  -12.0203   21.3567 H   0  0  0  0  0  0
  -28.4372  -13.6567   21.8626 H   0  0  0  0  0  0
  -25.2759   -9.5682   22.4758 H   0  0  0  0  0  0
  -24.0000   -7.4633   22.7476 H   0  0  0  0  0  0
  -21.0842   -8.8768   19.8945 H   0  0  0  0  0  0
  -22.3701  -10.9670   19.6162 H   0  0  0  0  0  0
  -21.2006   -7.6145   23.9714 H   0  0  0  0  0  0
  -21.1483   -6.0523   25.9077 H   0  0  0  0  0  0
  -22.0599   -2.7608   23.2845 H   0  0  0  0  0  0
  -22.4113  -11.9873   22.4774 H   0  0  0  0  0  0
  -21.1126  -13.1250   22.2610 H   0  0  0  0  0  0
  -24.6657  -15.8430   20.5140 H   0  0  0  0  0  0
  -26.2782  -15.6221   20.0624 H   0  0  0  0  0  0
  -26.7179  -32.5463   23.1100 H   0  0  0  0  0  0
  -25.0108  -33.9725   25.0454 H   0  0  0  0  0  0
  -22.7149  -31.3042   21.3979 H   0  0  0  0  0  0
  -23.3761  -35.9620   23.3292 H   0  0  0  0  0  0
  -24.3596  -36.8909   22.2054 H   0  0  0  0  0  0
  -23.7239  -37.6494   23.6663 H   0  0  0  0  0  0
  -26.0804  -31.5550   20.5943 H   0  0  0  0  0  0
  -26.8466  -30.8531   21.9887 H   0  0  0  0  0  0
  -28.1231  -28.9934   21.1737 H   0  0  0  0  0  0
  -25.9766  -25.9253   19.0126 H   0  0  0  0  0  0
  -23.9757  -27.2987   19.0205 H   0  0  0  0  0  0
  -23.7586  -30.5953   19.4031 H   0  0  0  0  0  0
  -22.7580  -29.2485   19.8523 H   0  0  0  0  0  0
  -25.1289  -36.1947   25.0832 H   0  0  0  0  0  0
  -20.9989  -28.3294   24.1396 H   0  0  0  0  0  0
  -20.5718  -26.2318   23.3601 H   0  0  0  0  0  0
  -21.6665  -26.7472   22.1188 H   0  0  0  0  0  0
  -19.6939  -25.6297   21.1257 H   0  0  0  0  0  0
  -19.6719  -27.3197   20.6741 H   0  0  0  0  0  0
  -17.4213  -26.6689   21.4021 H   0  0  0  0  0  0
  -18.0345  -26.0081   22.9016 H   0  0  0  0  0  0
  -19.7953  -30.7275   24.2291 H   0  0  0  0  0  0
  -17.5036  -31.6280   24.5167 H   0  0  0  0  0  0
  -15.5376  -30.3026   23.7639 H   0  0  0  0  0  0
  -15.8671  -28.0857   22.7045 H   0  0  0  0  0  0
  -24.5960  -30.6981   25.7759 H   0  0  0  0  0  0
  -24.8883  -32.2835   26.4829 H   0  0  0  0  0  0
  -25.8079  -30.8898   27.0217 H   0  0  0  0  0  0
  -26.2890  -29.6761   24.1160 H   0  0  0  0  0  0
  -27.4139  -29.7262   25.4547 H   0  0  0  0  0  0
  -27.8713  -30.4339   23.9236 H   0  0  0  0  0  0
  -27.2712  -33.3615   26.2014 H   0  0  0  0  0  0
  -28.3910  -32.6780   25.0307 H   0  0  0  0  0  0
  -28.0704  -31.8415   26.5410 H   0  0  0  0  0  0
  -28.2588  -38.0108   24.7520 H   0  0  0  0  0  0
  -28.1091  -36.2641   24.6292 H   0  0  0  0  0  0
  -27.2302  -37.1437   25.8870 H   0  0  0  0  0  0
  -20.9355  -29.8803   21.6905 H   0  0  0  0  0  0
  -26.0177  -38.2856   24.1421 H   0  0  0  0  0  0
  -27.1705  -19.4488   21.6418 H   0  0  0  0  0  0
  -27.7861  -17.0522   21.9047 H   0  0  0  0  0  0
  -31.4516  -17.5802   19.5897 H   0  0  0  0  0  0
  -30.5988  -20.6068   18.2549 H   0  0  0  0  0  0
  -31.4215  -21.1163   19.7826 H   0  0  0  0  0  0
  -27.9930  -20.6509   18.1441 H   0  0  0  0  0  0
  -28.0546  -22.3903   18.3314 H   0  0  0  0  0  0
  -27.0197  -21.4378   19.3753 H   0  0  0  0  0  0
  -31.1129  -24.1697   21.8311 H   0  0  0  0  0  0
  -29.5889  -24.7242   22.5146 H   0  0  0  0  0  0
  -30.4766  -25.7377   21.3877 H   0  0  0  0  0  0
  -31.2740  -23.5408   19.3816 H   0  0  0  0  0  0
  -30.6343  -25.1158   18.9507 H   0  0  0  0  0  0
  -29.8809  -23.6690   18.3167 H   0  0  0  0  0  0
  -29.8107  -22.2842   21.6727 H   0  0  0  0  0  0
  -28.1431  -22.5433   21.4082 H   0  0  0  0  0  0
  -27.4122  -24.8004   20.9235 H   0  0  0  0  0  0
  -27.7271  -24.7048   19.2110 H   0  0  0  0  0  0
  -28.9559  -15.2423   21.4034 H   0  0  0  0  0  0
  1 25  1  0  0  0
  1 30  2  0  0  0
  1 85  1  0  0  0
  2  3  1  0  0  0
  2 25  1  0  0  0
  2 86  1  0  0  0
  2 87  1  0  0  0
  3  4  1  0  0  0
  3 88  1  0  0  0
  3 89  1  0  0  0
  4  5  1  0  0  0
  4 90  1  0  0  0
  4 91  1  0  0  0
  5  6  1  0  0  0
  5 26  1  0  0  0
  5 92  1  0  0  0
  6 25  1  0  0  0
  6 93  1  0  0  0
  6 94  1  0  0  0
  7  8  2  0  0  0
  7 26  1  0  0  0
  7 29  1  0  0  0
  8  9  1  0  0  0
  8 22  1  0  0  0
  9 10  1  0  0  0
  9 27  2  0  0  0
 10 11  2  0  0  0
 10 15  1  0  0  0
 11 12  1  0  0  0
 11 95  1  0  0  0
 12 13  2  0  0  0
 12 96  1  0  0  0
 13 14  1  0  0  0
 13 31  1  0  0  0
 14 15  2  0  0  0
 14 97  1  0  0  0
 15 98  1  0  0  0
 16 17  2  0  0  0
 16 21  1  0  0  0
 16 31  1  0  0  0
 17 18  1  0  0  0
 17 99  1  0  0  0
 18 19  2  0  0  0
 18100  1  0  0  0
 19 20  1  0  0  0
 19 24  1  0  0  0
 20 21  2  0  0  0
 20101  1  0  0  0
 21 23  1  0  0  0
 22 28  1  0  0  0
 22 32  2  0  0  0
 26 27  1  0  0  0
 28102  1  0  0  0
 28103  1  0  0  0
 29104  1  0  0  0
 29105  1  0  0  0
 33 34  1  0  0  0
 33 66  1  0  0  0
 33 70  2  0  0  0
 34 36  1  0  0  0
 34 59  1  0  0  0
 34106  1  0  0  0
 35 44  2  0  0  0
 35 45  1  0  0  0
 35 68  1  0  0  0
 36 56  1  0  0  0
 36107  1  0  0  0
 37 39  1  0  0  0
 37 47  1  0  0  0
 37 66  1  0  0  0
 37108  1  0  0  0
 38 43  2  0  0  0
 38 46  1  0  0  0
 38 47  1  0  0  0
 39 64  1  0  0  0
 39 67  2  0  0  0
 40 52  1  0  0  0
 40 53  2  0  0  0
 40 58  1  0  0  0
 41109  1  0  0  0
 41110  1  0  0  0
 41111  1  0  0  0
 41 48  1  0  0  0
 42 43  1  0  0  0
 42 66  1  0  0  0
 42112  1  0  0  0
 42113  1  0  0  0
 43 44  1  0  0  0
 44114  1  0  0  0
 45 46  2  0  0  0
 45115  1  0  0  0
 46116  1  0  0  0
 47117  1  0  0  0
 47118  1  0  0  0
 48 56  1  0  0  0
 48 65  1  0  0  0
 48119  1  0  0  0
 49 50  1  0  0  0
 49 53  1  0  0  0
 49 64  1  0  0  0
 49120  1  0  0  0
 50 51  1  0  0  0
 50121  1  0  0  0
 50122  1  0  0  0
 51 52  1  0  0  0
 51123  1  0  0  0
 51124  1  0  0  0
 52125  1  0  0  0
 52126  1  0  0  0
 53 54  1  0  0  0
 54 55  2  0  0  0
 54127  1  0  0  0
 55 57  1  0  0  0
 55128  1  0  0  0
 56 69  2  0  0  0
 57 58  2  0  0  0
 57129  1  0  0  0
 58130  1  0  0  0
 59 60  1  0  0  0
 59 61  1  0  0  0
 59 62  1  0  0  0
 60131  1  0  0  0
 60132  1  0  0  0
 60133  1  0  0  0
 61134  1  0  0  0
 61135  1  0  0  0
 61136  1  0  0  0
 62137  1  0  0  0
 62138  1  0  0  0
 62139  1  0  0  0
 63 65  1  0  0  0
 63140  1  0  0  0
 63141  1  0  0  0
 63142  1  0  0  0
 64143  1  0  0  0
 65144  1  0  0  0
 68 83  1  0  0  0
 71 72  2  0  0  0
 71 74  1  0  0  0
 71145  1  0  0  0
 72 76  1  0  0  0
 72146  1  0  0  0
 73 75  1  0  0  0
 73 76  2  0  0  0
 73147  1  0  0  0
 74 75  2  0  0  0
 74 78  1  0  0  0
 75 77  1  0  0  0
 76 85  1  0  0  0
 77 78  1  0  0  0
 77148  1  0  0  0
 77149  1  0  0  0
 78 79  1  0  0  0
 78 82  1  0  0  0
 79150  1  0  0  0
 79151  1  0  0  0
 79152  1  0  0  0
 80153  1  0  0  0
 80154  1  0  0  0
 80155  1  0  0  0
 80 84  1  0  0  0
 81 84  1  0  0  0
 81156  1  0  0  0
 81157  1  0  0  0
 81158  1  0  0  0
 82 84  1  0  0  0
 82159  1  0  0  0
 82160  1  0  0  0
 83 84  1  0  0  0
 83161  1  0  0  0
 83162  1  0  0  0
 85163  1  0  0  0
M  ISO  4   1 100  68 101  83 101  85 100
M  END
> <chiral flag>
0

> <version>
0

> <s_m_source_file>
/data/baiqing/PycharmProjects/Reinvent-master-3.2/result/LINK_invent/BTK/process_docking_weight1_custom_product_contain_oxygen_bond_distance_aromatic_linkinvent_7_9_3/rearranged_h_0137.sdf

> <i_m_source_file_index>
59

> <r_mmod_Potential_Energy-OPLS-2005>
485.407745361328

> <r_mmod_Stretch_Energy-OPLS-2005>
108.766952514648

> <r_mmod_Bend_Energy-OPLS-2005>
524.071960449219

> <r_mmod_Torsional_Energy-OPLS-2005>
241.883575439453

> <r_mmod_Improper_Torsional_Energy-OPLS-2005>
5.37719011306763

> <r_mmod_Van_der_Waal_Energy-OPLS-2005>
135.576156616211

> <r_mmod_Electrostatic_Energy-OPLS-2005>
-383.419250488281

> <r_mmod_Solvation_Energy-OPLS-2005>
-196.785659790039

> <b_mmod_Minimization_Converged-OPLS-2005>
0

> <r_mmod_RMS_Derivative-OPLS-2005>
1.14538478851318

$$$$
59
                    3D
 Structure written by MMmdl.
153162  0  0  1  0            999 V2000
  -30.6155  -14.6357   20.5118 C   0  0  0  0  0  0
  -30.4446  -12.3927   19.4468 C   0  0  0  0  0  0
  -29.5096  -12.5155   18.2220 C   0  0  0  0  0  0
  -28.0321  -12.3502   18.6331 C   0  0  0  0  0  0
  -27.6565  -13.2129   19.8668 C   0  0  2  0  0  0
  -28.7028  -13.0504   20.9936 C   0  0  0  0  0  0
  -25.2558  -13.8138   20.5681 C   0  0  0  0  0  0
  -24.1826  -13.0414   20.9194 C   0  0  0  0  0  0
  -24.6394  -11.6888   20.8736 C   0  0  0  0  0  0
  -23.9060  -10.4278   21.0401 C   0  0  0  0  0  0
  -24.3610   -9.4196   21.9183 C   0  0  0  0  0  0
  -23.6286   -8.2232   22.0752 C   0  0  0  0  0  0
  -22.4269   -8.0272   21.3542 C   0  0  0  0  0  0
  -21.9902   -9.0244   20.4646 C   0  0  0  0  0  0
  -22.7230  -10.2123   20.3051 C   0  0  0  0  0  0
  -21.6848   -6.0731   22.5279 C   0  0  0  0  0  0
  -21.4009   -6.5637   23.8212 C   0  0  0  0  0  0
  -21.3661   -5.6791   24.9176 C   0  0  0  0  0  0
  -21.6045   -4.3053   24.7225 C   0  0  0  0  0  0
  -21.8820   -3.8144   23.4346 C   0  0  0  0  0  0
  -21.9191   -4.6959   22.3403 C   0  0  0  0  0  0
  -22.7850  -13.5216   21.1857 C   0  0  0  0  0  0
  -22.1661   -4.2145   21.0981 F   0  0  0  0  0  0
  -21.5631   -3.4538   25.7739 F   0  0  0  0  0  0
  -30.0208  -13.4021   20.4367 N   0  0  0  0  0  0
  -26.3001  -12.9327   20.3327 N   0  0  0  0  0  0
  -25.9326  -11.6485   20.5753 N   0  0  0  0  0  0
  -22.0485  -12.8216   22.0414 N   0  0  0  0  0  0
  -25.4231  -15.1854   20.4080 N   0  0  0  0  0  0
  -31.7693  -14.8256   20.1136 O   0  0  0  0  0  0
  -21.6631   -6.8870   21.4240 O   0  0  0  0  0  0
  -22.3541  -14.5525   20.6705 O   0  0  0  0  0  0
  -24.6255  -31.8607   23.2036 C   0  0  0  0  0  0
  -25.9105  -32.4784   23.8363 C   0  0  1  0  0  0
  -27.2273  -27.3296   20.1197 C   0  0  0  0  0  0
  -25.5923  -33.8584   24.2288 N   0  0  0  0  0  0
  -23.4193  -30.4838   21.5459 C   0  0  2  0  0  0
  -24.8676  -28.9402   20.1129 C   0  0  0  0  0  0
  -22.7473  -29.4627   22.4942 C   0  0  0  0  0  0
  -18.0287  -28.1387   22.8488 C   0  0  0  0  0  0
  -24.1489  -36.7297   23.2640 C   0  0  0  0  0  0
  -25.9598  -30.7944   21.3740 C   0  0  0  0  0  0
  -26.0358  -29.4220   20.7179 C   0  0  0  0  0  0
  -27.2208  -28.6286   20.7116 C   0  0  0  0  0  0
  -26.0414  -26.9037   19.4805 C   0  0  0  0  0  0
  -24.8717  -27.6857   19.4849 C   0  0  0  0  0  0
  -23.6343  -29.8183   20.1613 C   0  0  0  0  0  0
  -25.4112  -36.3088   24.0333 C   0  0  1  0  0  0
  -20.5885  -28.3689   23.1289 C   0  0  2  0  0  0
  -20.6773  -26.9413   22.5414 C   0  0  0  0  0  0
  -19.5750  -26.6387   21.5215 C   0  0  0  0  0  0
  -18.1930  -26.7931   22.1625 C   0  0  0  0  0  0
  -19.1537  -28.8856   23.2884 C   0  0  0  0  0  0
  -18.9459  -30.1457   23.8900 C   0  0  0  0  0  0
  -17.6458  -30.6588   24.0564 C   0  0  0  0  0  0
  -25.9049  -34.9457   23.5111 C   0  0  0  0  0  0
  -16.5349  -29.9086   23.6330 C   0  0  0  0  0  0
  -16.7274  -28.6504   23.0351 C   0  0  0  0  0  0
  -26.4492  -31.6591   25.0730 C   0  0  0  0  0  0
  -25.3730  -31.3721   26.1460 C   0  0  0  0  0  0
  -27.0332  -30.3016   24.6177 C   0  0  0  0  0  0
  -27.6060  -32.4320   25.7496 C   0  0  0  0  0  0
  -27.5581  -37.1801   24.8464 C   0  0  0  0  0  0
  -21.4187  -29.3043   22.3684 N   0  0  0  0  0  0
  -26.4290  -37.3782   23.9413 N   0  0  0  0  0  0
  -24.6869  -31.0625   22.0982 N   0  0  0  0  0  0
  -23.4203  -28.8167   23.3016 O   0  0  0  0  0  0
  -28.3363  -26.4743   20.1503 O   0  0  0  0  0  0
  -26.5614  -34.8922   22.4675 O   0  0  0  0  0  0
  -23.5419  -32.1400   23.7367 O   0  0  0  0  0  0
  -28.2453  -18.9519   19.7651 C   0  0  0  0  0  0
  -28.5106  -17.5734   20.0530 C   0  0  0  0  0  0
  -30.7895  -18.0136   20.9132 C   0  0  0  0  0  0
  -29.2670  -19.8510   20.0930 C   0  0  0  0  0  0
  -30.4953  -19.3798   20.6522 C   0  0  0  0  0  0
  -29.7468  -17.0726   20.6010 C   0  0  0  0  0  0
  -29.1100  -23.9741   20.1907 C   0  0  0  0  0  0
  -31.0652  -20.7916   20.6824 C   0  0  0  0  0  0
  -29.7138  -21.3240   19.9621 C   0  0  2  0  0  0
  -28.7933  -22.4687   20.5516 C   0  0  0  0  0  0
  -28.0570  -25.0814   20.5765 C   0  0  0  0  0  0
  -29.7943  -15.6492   20.9225 N   0  0  0  0  0  0
  -30.1613  -24.2758   19.6153 O   0  0  0  0  0  0
  -31.4846  -12.5267   19.1441 H   0  0  0  0  0  0
  -30.3858  -11.3919   19.8779 H   0  0  0  0  0  0
  -29.7739  -11.7722   17.4688 H   0  0  0  0  0  0
  -29.6494  -13.4898   17.7506 H   0  0  0  0  0  0
  -27.8685  -11.2956   18.8579 H   0  0  0  0  0  0
  -27.3774  -12.5867   17.7936 H   0  0  0  0  0  0
  -27.6781  -14.2505   19.5337 H   0  0  0  0  0  0
  -28.7153  -12.0213   21.3562 H   0  0  0  0  0  0
  -28.4462  -13.6615   21.8599 H   0  0  0  0  0  0
  -25.2753   -9.5674   22.4758 H   0  0  0  0  0  0
  -23.9994   -7.4623   22.7471 H   0  0  0  0  0  0
  -21.0830   -8.8763   19.8956 H   0  0  0  0  0  0
  -22.3687  -10.9661   19.6159 H   0  0  0  0  0  0
  -21.1998   -7.6144   23.9716 H   0  0  0  0  0  0
  -21.1488   -6.0520   25.9080 H   0  0  0  0  0  0
  -22.0598   -2.7606   23.2845 H   0  0  0  0  0  0
  -22.4090  -11.9873   22.4801 H   0  0  0  0  0  0
  -21.1106  -13.1256   22.2623 H   0  0  0  0  0  0
  -24.6491  -15.8334   20.5079 H   0  0  0  0  0  0
  -26.2605  -15.6211   20.0489 H   0  0  0  0  0  0
  -26.7178  -32.5461   23.1119 H   0  0  0  0  0  0
  -25.0070  -33.9730   25.0433 H   0  0  0  0  0  0
  -22.7129  -31.3041   21.4030 H   0  0  0  0  0  0
  -23.3752  -35.9628   23.3299 H   0  0  0  0  0  0
  -24.3583  -36.8918   22.2056 H   0  0  0  0  0  0
  -23.7240  -37.6498   23.6660 H   0  0  0  0  0  0
  -26.0888  -31.5569   20.6046 H   0  0  0  0  0  0
  -26.8413  -30.8449   22.0016 H   0  0  0  0  0  0
  -28.1170  -28.9927   21.1943 H   0  0  0  0  0  0
  -26.0018  -25.9538   18.9678 H   0  0  0  0  0  0
  -23.9796  -27.3147   18.9993 H   0  0  0  0  0  0
  -23.7527  -30.5945   19.4045 H   0  0  0  0  0  0
  -22.7552  -29.2461   19.8592 H   0  0  0  0  0  0
  -25.1290  -36.1943   25.0826 H   0  0  0  0  0  0
  -20.9977  -28.3262   24.1411 H   0  0  0  0  0  0
  -20.5679  -26.2298   23.3611 H   0  0  0  0  0  0
  -21.6642  -26.7448   22.1205 H   0  0  0  0  0  0
  -19.6909  -25.6299   21.1245 H   0  0  0  0  0  0
  -19.6687  -27.3200   20.6748 H   0  0  0  0  0  0
  -17.4199  -26.6684   21.4026 H   0  0  0  0  0  0
  -18.0326  -26.0074   22.9022 H   0  0  0  0  0  0
  -19.7932  -30.7275   24.2270 H   0  0  0  0  0  0
  -17.5011  -31.6267   24.5166 H   0  0  0  0  0  0
  -15.5351  -30.2987   23.7654 H   0  0  0  0  0  0
  -15.8674  -28.0828   22.7061 H   0  0  0  0  0  0
  -24.5905  -30.7071   25.7784 H   0  0  0  0  0  0
  -24.8920  -32.2884   26.4893 H   0  0  0  0  0  0
  -25.8058  -30.8891   27.0231 H   0  0  0  0  0  0
  -26.2903  -29.6767   24.1207 H   0  0  0  0  0  0
  -27.4038  -29.7270   25.4676 H   0  0  0  0  0  0
  -27.8772  -30.4302   23.9396 H   0  0  0  0  0  0
  -27.2680  -33.3620   26.2077 H   0  0  0  0  0  0
  -28.3868  -32.6875   25.0322 H   0  0  0  0  0  0
  -28.0732  -31.8441   26.5407 H   0  0  0  0  0  0
  -28.2594  -38.0102   24.7519 H   0  0  0  0  0  0
  -28.1080  -36.2635   24.6276 H   0  0  0  0  0  0
  -27.2304  -37.1440   25.8867 H   0  0  0  0  0  0
  -20.9365  -29.8764   21.6893 H   0  0  0  0  0  0
  -26.0172  -38.2859   24.1412 H   0  0  0  0  0  0
  -27.3184  -19.2751   19.3121 H   0  0  0  0  0  0
  -27.7245  -16.8693   19.8270 H   0  0  0  0  0  0
  -31.7339  -17.7053   21.3401 H   0  0  0  0  0  0
  -31.9678  -20.9055   20.0812 H   0  0  0  0  0  0
  -31.1985  -21.1553   21.7019 H   0  0  0  0  0  0
  -29.9126  -21.4919   18.9023 H   0  0  0  0  0  0
  -27.7701  -22.2969   20.2185 H   0  0  0  0  0  0
  -28.7595  -22.3907   21.6378 H   0  0  0  0  0  0
  -27.9669  -25.0819   21.6627 H   0  0  0  0  0  0
  -27.0993  -24.7278   20.2016 H   0  0  0  0  0  0
  -28.9062  -15.2760   21.2208 H   0  0  0  0  0  0
  1 25  1  0  0  0
  1 30  2  0  0  0
  1 82  1  0  0  0
  2  3  1  0  0  0
  2 25  1  0  0  0
  2 84  1  0  0  0
  2 85  1  0  0  0
  3  4  1  0  0  0
  3 86  1  0  0  0
  3 87  1  0  0  0
  4  5  1  0  0  0
  4 88  1  0  0  0
  4 89  1  0  0  0
  5  6  1  0  0  0
  5 26  1  0  0  0
  5 90  1  0  0  0
  6 25  1  0  0  0
  6 91  1  0  0  0
  6 92  1  0  0  0
  7  8  2  0  0  0
  7 26  1  0  0  0
  7 29  1  0  0  0
  8  9  1  0  0  0
  8 22  1  0  0  0
  9 10  1  0  0  0
  9 27  2  0  0  0
 10 11  2  0  0  0
 10 15  1  0  0  0
 11 12  1  0  0  0
 11 93  1  0  0  0
 12 13  2  0  0  0
 12 94  1  0  0  0
 13 14  1  0  0  0
 13 31  1  0  0  0
 14 15  2  0  0  0
 14 95  1  0  0  0
 15 96  1  0  0  0
 16 17  2  0  0  0
 16 21  1  0  0  0
 16 31  1  0  0  0
 17 18  1  0  0  0
 17 97  1  0  0  0
 18 19  2  0  0  0
 18 98  1  0  0  0
 19 20  1  0  0  0
 19 24  1  0  0  0
 20 21  2  0  0  0
 20 99  1  0  0  0
 21 23  1  0  0  0
 22 28  1  0  0  0
 22 32  2  0  0  0
 26 27  1  0  0  0
 28100  1  0  0  0
 28101  1  0  0  0
 29102  1  0  0  0
 29103  1  0  0  0
 33 34  1  0  0  0
 33 66  1  0  0  0
 33 70  2  0  0  0
 34 36  1  0  0  0
 34 59  1  0  0  0
 34104  1  0  0  0
 35 44  2  0  0  0
 35 45  1  0  0  0
 35 68  1  0  0  0
 36 56  1  0  0  0
 36105  1  0  0  0
 37 39  1  0  0  0
 37 47  1  0  0  0
 37 66  1  0  0  0
 37106  1  0  0  0
 38 43  2  0  0  0
 38 46  1  0  0  0
 38 47  1  0  0  0
 39 64  1  0  0  0
 39 67  2  0  0  0
 40 52  1  0  0  0
 40 53  2  0  0  0
 40 58  1  0  0  0
 41107  1  0  0  0
 41108  1  0  0  0
 41109  1  0  0  0
 41 48  1  0  0  0
 42 43  1  0  0  0
 42 66  1  0  0  0
 42110  1  0  0  0
 42111  1  0  0  0
 43 44  1  0  0  0
 44112  1  0  0  0
 45 46  2  0  0  0
 45113  1  0  0  0
 46114  1  0  0  0
 47115  1  0  0  0
 47116  1  0  0  0
 48 56  1  0  0  0
 48 65  1  0  0  0
 48117  1  0  0  0
 49 50  1  0  0  0
 49 53  1  0  0  0
 49 64  1  0  0  0
 49118  1  0  0  0
 50 51  1  0  0  0
 50119  1  0  0  0
 50120  1  0  0  0
 51 52  1  0  0  0
 51121  1  0  0  0
 51122  1  0  0  0
 52123  1  0  0  0
 52124  1  0  0  0
 53 54  1  0  0  0
 54 55  2  0  0  0
 54125  1  0  0  0
 55 57  1  0  0  0
 55126  1  0  0  0
 56 69  2  0  0  0
 57 58  2  0  0  0
 57127  1  0  0  0
 58128  1  0  0  0
 59 60  1  0  0  0
 59 61  1  0  0  0
 59 62  1  0  0  0
 60129  1  0  0  0
 60130  1  0  0  0
 60131  1  0  0  0
 61132  1  0  0  0
 61133  1  0  0  0
 61134  1  0  0  0
 62135  1  0  0  0
 62136  1  0  0  0
 62137  1  0  0  0
 63 65  1  0  0  0
 63138  1  0  0  0
 63139  1  0  0  0
 63140  1  0  0  0
 64141  1  0  0  0
 65142  1  0  0  0
 68 81  1  0  0  0
 71 72  2  0  0  0
 71 74  1  0  0  0
 71143  1  0  0  0
 72 76  1  0  0  0
 72144  1  0  0  0
 73 75  1  0  0  0
 73 76  2  0  0  0
 73145  1  0  0  0
 74 75  2  0  0  0
 74 79  1  0  0  0
 75 78  1  0  0  0
 76 82  1  0  0  0
 77 80  1  0  0  0
 77 81  1  0  0  0
 77 83  2  0  0  0
 78 79  1  0  0  0
 78146  1  0  0  0
 78147  1  0  0  0
 79 80  1  0  0  0
 79148  1  0  0  0
 80149  1  0  0  0
 80150  1  0  0  0
 81151  1  0  0  0
 81152  1  0  0  0
 82153  1  0  0  0
M  ISO  4   1 100  68 101  81 101  82 100
M  END
> <chiral flag>
0

> <version>
0

> <s_m_source_file>
/data/baiqing/PycharmProjects/Reinvent-master-3.2/result/LINK_invent/BTK/process_docking_weight1_custom_product_contain_oxygen_bond_distance_aromatic_linkinvent_7_9_3/rearranged_h_0137.sdf

> <i_m_source_file_index>
60

> <r_mmod_Potential_Energy-OPLS-2005>
419.912750244141

> <r_mmod_Stretch_Energy-OPLS-2005>
91.6522827148438

> <r_mmod_Bend_Energy-OPLS-2005>
494.857757568359

> <r_mmod_Torsional_Energy-OPLS-2005>
240.763214111328

> <r_mmod_Improper_Torsional_Energy-OPLS-2005>
5.99632215499878

> <r_mmod_Van_der_Waal_Energy-OPLS-2005>
133.410552978516

> <r_mmod_Electrostatic_Energy-OPLS-2005>
-359.358245849609

> <r_mmod_Solvation_Energy-OPLS-2005>
-233.46142578125

> <b_mmod_Minimization_Converged-OPLS-2005>
0

> <r_mmod_RMS_Derivative-OPLS-2005>
0.473379552364349

$$$$
60
                    3D
 Structure written by MMmdl.
168176  0  0  1  0            999 V2000
  -30.6084  -14.5647   20.5695 C   0  0  0  0  0  0
  -30.4482  -12.3611   19.4255 C   0  0  0  0  0  0
  -29.5055  -12.5181   18.2105 C   0  0  0  0  0  0
  -28.0266  -12.3541   18.6229 C   0  0  0  0  0  0
  -27.6614  -13.1958   19.8739 C   0  0  2  0  0  0
  -28.7046  -12.9679   20.9910 C   0  0  0  0  0  0
  -25.2607  -13.8120   20.5686 C   0  0  0  0  0  0
  -24.1842  -13.0423   20.9180 C   0  0  0  0  0  0
  -24.6381  -11.6876   20.8727 C   0  0  0  0  0  0
  -23.9044  -10.4280   21.0411 C   0  0  0  0  0  0
  -24.3599   -9.4197   21.9190 C   0  0  0  0  0  0
  -23.6276   -8.2229   22.0755 C   0  0  0  0  0  0
  -22.4261   -8.0274   21.3541 C   0  0  0  0  0  0
  -21.9901   -9.0243   20.4642 C   0  0  0  0  0  0
  -22.7223  -10.2122   20.3049 C   0  0  0  0  0  0
  -21.6853   -6.0729   22.5278 C   0  0  0  0  0  0
  -21.4011   -6.5636   23.8211 C   0  0  0  0  0  0
  -21.3652   -5.6790   24.9178 C   0  0  0  0  0  0
  -21.6045   -4.3053   24.7229 C   0  0  0  0  0  0
  -21.8818   -3.8143   23.4354 C   0  0  0  0  0  0
  -21.9192   -4.6960   22.3408 C   0  0  0  0  0  0
  -22.7870  -13.5234   21.1850 C   0  0  0  0  0  0
  -22.1663   -4.2143   21.0985 F   0  0  0  0  0  0
  -21.5629   -3.4533   25.7746 F   0  0  0  0  0  0
  -30.0257  -13.3354   20.4455 N   0  0  0  0  0  0
  -26.3020  -12.9262   20.3346 N   0  0  0  0  0  0
  -25.9299  -11.6439   20.5739 N   0  0  0  0  0  0
  -22.0500  -12.8215   22.0399 N   0  0  0  0  0  0
  -25.4368  -15.1836   20.4116 N   0  0  0  0  0  0
  -31.7432  -14.8133   20.1466 O   0  0  0  0  0  0
  -21.6628   -6.8866   21.4237 O   0  0  0  0  0  0
  -22.3568  -14.5546   20.6713 O   0  0  0  0  0  0
  -24.6212  -31.8625   23.2050 C   0  0  0  0  0  0
  -25.9083  -32.4789   23.8349 C   0  0  1  0  0  0
  -27.2380  -27.3787   20.1144 C   0  0  0  0  0  0
  -25.5905  -33.8582   24.2292 N   0  0  0  0  0  0
  -23.4095  -30.4875   21.5462 C   0  0  2  0  0  0
  -24.8593  -28.9438   20.1133 C   0  0  0  0  0  0
  -22.7435  -29.4656   22.4947 C   0  0  0  0  0  0
  -18.0270  -28.1435   22.8514 C   0  0  0  0  0  0
  -24.1459  -36.7266   23.2636 C   0  0  0  0  0  0
  -25.9445  -30.8158   21.3609 C   0  0  0  0  0  0
  -26.0230  -29.4459   20.7070 C   0  0  0  0  0  0
  -27.2151  -28.6750   20.6963 C   0  0  0  0  0  0
  -26.0538  -26.9057   19.5059 C   0  0  0  0  0  0
  -24.8716  -27.6761   19.5065 C   0  0  0  0  0  0
  -23.6230  -29.8179   20.1612 C   0  0  0  0  0  0
  -25.4084  -36.3079   24.0331 C   0  0  1  0  0  0
  -20.5876  -28.3714   23.1318 C   0  0  2  0  0  0
  -20.6759  -26.9433   22.5448 C   0  0  0  0  0  0
  -19.5732  -26.6433   21.5244 C   0  0  0  0  0  0
  -18.1908  -26.7981   22.1648 C   0  0  0  0  0  0
  -19.1533  -28.8883   23.2918 C   0  0  0  0  0  0
  -18.9465  -30.1491   23.8930 C   0  0  0  0  0  0
  -17.6471  -30.6643   24.0598 C   0  0  0  0  0  0
  -25.9036  -34.9454   23.5109 C   0  0  0  0  0  0
  -16.5354  -29.9164   23.6362 C   0  0  0  0  0  0
  -16.7265  -28.6573   23.0385 C   0  0  0  0  0  0
  -26.4483  -31.6595   25.0699 C   0  0  0  0  0  0
  -25.3731  -31.3744   26.1434 C   0  0  0  0  0  0
  -27.0298  -30.3024   24.6106 C   0  0  0  0  0  0
  -27.6036  -32.4325   25.7477 C   0  0  0  0  0  0
  -27.5554  -37.1789   24.8479 C   0  0  0  0  0  0
  -21.4168  -29.3061   22.3692 N   0  0  0  0  0  0
  -26.4252  -37.3791   23.9431 N   0  0  0  0  0  0
  -24.6774  -31.0699   22.0963 N   0  0  0  0  0  0
  -23.4173  -28.8187   23.3019 O   0  0  0  0  0  0
  -28.4020  -26.6134   20.1293 O   0  0  0  0  0  0
  -26.5629  -34.8924   22.4688 O   0  0  0  0  0  0
  -23.5398  -32.1401   23.7460 O   0  0  0  0  0  0
  -29.7116  -19.5666   22.3811 C   0  0  0  0  0  0
  -29.3823  -18.4995   23.2327 C   0  0  0  0  0  0
  -30.1900  -17.9757   20.5935 C   0  0  0  0  0  0
  -30.0942  -19.3349   21.0462 C   0  0  0  0  0  0
  -29.4391  -17.1678   22.7777 C   0  0  0  0  0  0
  -29.8719  -16.8778   21.4582 C   0  0  0  0  0  0
  -28.9972  -16.0636   23.7261 C   0  0  0  0  0  0
  -29.1921  -25.1364   17.9572 C   0  0  0  0  0  0
  -31.1179  -23.8039   20.4929 C   0  0  0  0  0  0
  -30.8376  -22.7929   18.2522 C   0  0  0  0  0  0
  -30.4658  -20.5572   20.1691 C   0  0  0  0  0  0
  -29.5156  -21.8301   20.1781 C   0  0  0  0  0  0
  -28.3095  -25.1650   20.3333 C   0  0  0  0  0  0
  -28.9086  -24.2474   19.1925 C   0  0  2  0  0  0
  -30.0666  -23.1815   19.5427 C   0  0  0  0  0  0
  -29.7468  -15.5067   21.0329 N   0  0  0  0  0  0
  -31.4875  -12.5095   19.1266 H   0  0  0  0  0  0
  -30.3933  -11.3493   19.8279 H   0  0  0  0  0  0
  -29.7623  -11.7913   17.4393 H   0  0  0  0  0  0
  -29.6496  -13.5020   17.7616 H   0  0  0  0  0  0
  -27.8551  -11.2965   18.8291 H   0  0  0  0  0  0
  -27.3705  -12.6102   17.7905 H   0  0  0  0  0  0
  -27.7015  -14.2423   19.5723 H   0  0  0  0  0  0
  -28.7072  -11.9200   21.2944 H   0  0  0  0  0  0
  -28.4475  -13.5226   21.8948 H   0  0  0  0  0  0
  -25.2746   -9.5676   22.4756 H   0  0  0  0  0  0
  -23.9991   -7.4623   22.7473 H   0  0  0  0  0  0
  -21.0832   -8.8751   19.8942 H   0  0  0  0  0  0
  -22.3688  -10.9654   19.6140 H   0  0  0  0  0  0
  -21.1996   -7.6142   23.9715 H   0  0  0  0  0  0
  -21.1476   -6.0520   25.9080 H   0  0  0  0  0  0
  -22.0602   -2.7603   23.2856 H   0  0  0  0  0  0
  -22.4110  -11.9856   22.4746 H   0  0  0  0  0  0
  -21.1114  -13.1240   22.2596 H   0  0  0  0  0  0
  -24.6782  -15.8438   20.5385 H   0  0  0  0  0  0
  -26.2870  -15.6204   20.0787 H   0  0  0  0  0  0
  -26.7145  -32.5482   23.1097 H   0  0  0  0  0  0
  -25.0011  -33.9715   25.0415 H   0  0  0  0  0  0
  -22.7034  -31.3076   21.4018 H   0  0  0  0  0  0
  -23.3725  -35.9597   23.3343 H   0  0  0  0  0  0
  -24.3557  -36.8850   22.2044 H   0  0  0  0  0  0
  -23.7188  -37.6468   23.6631 H   0  0  0  0  0  0
  -26.0634  -31.5781   20.5895 H   0  0  0  0  0  0
  -26.8302  -30.8716   21.9823 H   0  0  0  0  0  0
  -28.1124  -29.0627   21.1592 H   0  0  0  0  0  0
  -26.0309  -25.9383   19.0254 H   0  0  0  0  0  0
  -23.9785  -27.2813   19.0425 H   0  0  0  0  0  0
  -23.7390  -30.5904   19.3992 H   0  0  0  0  0  0
  -22.7447  -29.2413   19.8659 H   0  0  0  0  0  0
  -25.1277  -36.1923   25.0825 H   0  0  0  0  0  0
  -20.9993  -28.3282   24.1432 H   0  0  0  0  0  0
  -20.5675  -26.2307   23.3650 H   0  0  0  0  0  0
  -21.6615  -26.7520   22.1195 H   0  0  0  0  0  0
  -19.6883  -25.6361   21.1240 H   0  0  0  0  0  0
  -19.6642  -27.3272   20.6792 H   0  0  0  0  0  0
  -17.4182  -26.6763   21.4050 H   0  0  0  0  0  0
  -18.0275  -26.0148   22.9059 H   0  0  0  0  0  0
  -19.7946  -30.7301   24.2306 H   0  0  0  0  0  0
  -17.5049  -31.6323   24.5214 H   0  0  0  0  0  0
  -15.5368  -30.3096   23.7687 H   0  0  0  0  0  0
  -15.8649  -28.0931   22.7093 H   0  0  0  0  0  0
  -24.5938  -30.7018   25.7814 H   0  0  0  0  0  0
  -24.8849  -32.2905   26.4780 H   0  0  0  0  0  0
  -25.8081  -30.9026   27.0253 H   0  0  0  0  0  0
  -26.2848  -29.6797   24.1118 H   0  0  0  0  0  0
  -27.4002  -29.7253   25.4594 H   0  0  0  0  0  0
  -27.8728  -30.4319   23.9305 H   0  0  0  0  0  0
  -27.2647  -33.3648   26.2014 H   0  0  0  0  0  0
  -28.3886  -32.6851   25.0333 H   0  0  0  0  0  0
  -28.0642  -31.8451   26.5441 H   0  0  0  0  0  0
  -28.2618  -38.0049   24.7540 H   0  0  0  0  0  0
  -28.1005  -36.2596   24.6304 H   0  0  0  0  0  0
  -27.2291  -37.1454   25.8888 H   0  0  0  0  0  0
  -20.9331  -29.8778   21.6909 H   0  0  0  0  0  0
  -26.0138  -38.2851   24.1483 H   0  0  0  0  0  0
  -29.6672  -20.5735   22.7702 H   0  0  0  0  0  0
  -29.0647  -18.7144   24.2440 H   0  0  0  0  0  0
  -30.4747  -17.7751   19.5704 H   0  0  0  0  0  0
  -28.7815  -16.4540   24.7218 H   0  0  0  0  0  0
  -29.7734  -15.3050   23.8294 H   0  0  0  0  0  0
  -28.0882  -15.5877   23.3567 H   0  0  0  0  0  0
  -28.3375  -25.7763   17.7352 H   0  0  0  0  0  0
  -29.3582  -24.5563   17.0489 H   0  0  0  0  0  0
  -30.0531  -25.7867   18.1179 H   0  0  0  0  0  0
  -31.9511  -23.1225   20.6647 H   0  0  0  0  0  0
  -30.7151  -24.0336   21.4787 H   0  0  0  0  0  0
  -31.5393  -24.7238   20.0850 H   0  0  0  0  0  0
  -31.6788  -22.1323   18.4613 H   0  0  0  0  0  0
  -31.2875  -23.6568   17.7616 H   0  0  0  0  0  0
  -30.1945  -22.2901   17.5277 H   0  0  0  0  0  0
  -30.5777  -20.2012   19.1437 H   0  0  0  0  0  0
  -31.4635  -20.8562   20.4953 H   0  0  0  0  0  0
  -29.2139  -22.0570   21.1985 H   0  0  0  0  0  0
  -28.5940  -21.5420   19.6706 H   0  0  0  0  0  0
  -28.7876  -24.9553   21.2873 H   0  0  0  0  0  0
  -27.2813  -24.8561   20.5180 H   0  0  0  0  0  0
  -28.0681  -23.6339   18.8642 H   0  0  0  0  0  0
  -28.8881  -15.0741   21.3356 H   0  0  0  0  0  0
  1 25  1  0  0  0
  1 30  2  0  0  0
  1 86  1  0  0  0
  2  3  1  0  0  0
  2 25  1  0  0  0
  2 87  1  0  0  0
  2 88  1  0  0  0
  3  4  1  0  0  0
  3 89  1  0  0  0
  3 90  1  0  0  0
  4  5  1  0  0  0
  4 91  1  0  0  0
  4 92  1  0  0  0
  5  6  1  0  0  0
  5 26  1  0  0  0
  5 93  1  0  0  0
  6 25  1  0  0  0
  6 94  1  0  0  0
  6 95  1  0  0  0
  7  8  2  0  0  0
  7 26  1  0  0  0
  7 29  1  0  0  0
  8  9  1  0  0  0
  8 22  1  0  0  0
  9 10  1  0  0  0
  9 27  2  0  0  0
 10 11  2  0  0  0
 10 15  1  0  0  0
 11 12  1  0  0  0
 11 96  1  0  0  0
 12 13  2  0  0  0
 12 97  1  0  0  0
 13 14  1  0  0  0
 13 31  1  0  0  0
 14 15  2  0  0  0
 14 98  1  0  0  0
 15 99  1  0  0  0
 16 17  2  0  0  0
 16 21  1  0  0  0
 16 31  1  0  0  0
 17 18  1  0  0  0
 17100  1  0  0  0
 18 19  2  0  0  0
 18101  1  0  0  0
 19 20  1  0  0  0
 19 24  1  0  0  0
 20 21  2  0  0  0
 20102  1  0  0  0
 21 23  1  0  0  0
 22 28  1  0  0  0
 22 32  2  0  0  0
 26 27  1  0  0  0
 28103  1  0  0  0
 28104  1  0  0  0
 29105  1  0  0  0
 29106  1  0  0  0
 33 34  1  0  0  0
 33 66  1  0  0  0
 33 70  2  0  0  0
 34 36  1  0  0  0
 34 59  1  0  0  0
 34107  1  0  0  0
 35 44  2  0  0  0
 35 45  1  0  0  0
 35 68  1  0  0  0
 36 56  1  0  0  0
 36108  1  0  0  0
 37 39  1  0  0  0
 37 47  1  0  0  0
 37 66  1  0  0  0
 37109  1  0  0  0
 38 43  2  0  0  0
 38 46  1  0  0  0
 38 47  1  0  0  0
 39 64  1  0  0  0
 39 67  2  0  0  0
 40 52  1  0  0  0
 40 53  2  0  0  0
 40 58  1  0  0  0
 41110  1  0  0  0
 41111  1  0  0  0
 41112  1  0  0  0
 41 48  1  0  0  0
 42 43  1  0  0  0
 42 66  1  0  0  0
 42113  1  0  0  0
 42114  1  0  0  0
 43 44  1  0  0  0
 44115  1  0  0  0
 45 46  2  0  0  0
 45116  1  0  0  0
 46117  1  0  0  0
 47118  1  0  0  0
 47119  1  0  0  0
 48 56  1  0  0  0
 48 65  1  0  0  0
 48120  1  0  0  0
 49 50  1  0  0  0
 49 53  1  0  0  0
 49 64  1  0  0  0
 49121  1  0  0  0
 50 51  1  0  0  0
 50122  1  0  0  0
 50123  1  0  0  0
 51 52  1  0  0  0
 51124  1  0  0  0
 51125  1  0  0  0
 52126  1  0  0  0
 52127  1  0  0  0
 53 54  1  0  0  0
 54 55  2  0  0  0
 54128  1  0  0  0
 55 57  1  0  0  0
 55129  1  0  0  0
 56 69  2  0  0  0
 57 58  2  0  0  0
 57130  1  0  0  0
 58131  1  0  0  0
 59 60  1  0  0  0
 59 61  1  0  0  0
 59 62  1  0  0  0
 60132  1  0  0  0
 60133  1  0  0  0
 60134  1  0  0  0
 61135  1  0  0  0
 61136  1  0  0  0
 61137  1  0  0  0
 62138  1  0  0  0
 62139  1  0  0  0
 62140  1  0  0  0
 63 65  1  0  0  0
 63141  1  0  0  0
 63142  1  0  0  0
 63143  1  0  0  0
 64144  1  0  0  0
 65145  1  0  0  0
 68 83  1  0  0  0
 71 72  2  0  0  0
 71 74  1  0  0  0
 71146  1  0  0  0
 72 75  1  0  0  0
 72147  1  0  0  0
 73 74  2  0  0  0
 73 76  1  0  0  0
 73148  1  0  0  0
 74 81  1  0  0  0
 75 76  2  0  0  0
 75 77  1  0  0  0
 76 86  1  0  0  0
 77149  1  0  0  0
 77150  1  0  0  0
 77151  1  0  0  0
 78152  1  0  0  0
 78153  1  0  0  0
 78154  1  0  0  0
 78 84  1  0  0  0
 79155  1  0  0  0
 79156  1  0  0  0
 79157  1  0  0  0
 79 85  1  0  0  0
 80 85  1  0  0  0
 80158  1  0  0  0
 80159  1  0  0  0
 80160  1  0  0  0
 81 82  1  0  0  0
 81161  1  0  0  0
 81162  1  0  0  0
 82 85  1  0  0  0
 82163  1  0  0  0
 82164  1  0  0  0
 83 84  1  0  0  0
 83165  1  0  0  0
 83166  1  0  0  0
 84 85  1  0  0  0
 84167  1  0  0  0
 86168  1  0  0  0
M  ISO  4   1 100  68 101  83 101  86 100
M  END
> <chiral flag>
0

> <version>
0

> <s_m_source_file>
/data/baiqing/PycharmProjects/Reinvent-master-3.2/result/LINK_invent/BTK/process_docking_weight1_custom_product_contain_oxygen_bond_distance_aromatic_linkinvent_7_9_3/rearranged_h_0137.sdf

> <i_m_source_file_index>
61

> <r_mmod_Potential_Energy-OPLS-2005>
98.4409255981445

> <r_mmod_Stretch_Energy-OPLS-2005>
69.5575256347656

> <r_mmod_Bend_Energy-OPLS-2005>
145.187316894531

> <r_mmod_Torsional_Energy-OPLS-2005>
277.2626953125

> <r_mmod_Improper_Torsional_Energy-OPLS-2005>
5.94135046005249

> <r_mmod_Van_der_Waal_Energy-OPLS-2005>
160.25390625

> <r_mmod_Electrostatic_Energy-OPLS-2005>
-395.978576660156

> <r_mmod_Solvation_Energy-OPLS-2005>
-190.892517089844

> <b_mmod_Minimization_Converged-OPLS-2005>
0

> <r_mmod_RMS_Derivative-OPLS-2005>
3.09099793434143

$$$$
61
                    3D
 Structure written by MMmdl.
168176  0  0  1  0            999 V2000
  -30.6741  -14.5178   20.6198 C   0  0  0  0  0  0
  -30.4332  -12.3558   19.4284 C   0  0  0  0  0  0
  -29.5057  -12.5298   18.2062 C   0  0  0  0  0  0
  -28.0215  -12.3851   18.6144 C   0  0  0  0  0  0
  -27.6565  -13.2148   19.8790 C   0  0  2  0  0  0
  -28.6959  -12.9925   20.9985 C   0  0  0  0  0  0
  -25.2585  -13.8139   20.5765 C   0  0  0  0  0  0
  -24.1820  -13.0391   20.9218 C   0  0  0  0  0  0
  -24.6385  -11.6875   20.8703 C   0  0  0  0  0  0
  -23.9049  -10.4264   21.0358 C   0  0  0  0  0  0
  -24.3607   -9.4208   21.9167 C   0  0  0  0  0  0
  -23.6307   -8.2225   22.0731 C   0  0  0  0  0  0
  -22.4281   -8.0257   21.3536 C   0  0  0  0  0  0
  -21.9907   -9.0192   20.4615 C   0  0  0  0  0  0
  -22.7206  -10.2102   20.3032 C   0  0  0  0  0  0
  -21.6842   -6.0758   22.5269 C   0  0  0  0  0  0
  -21.4002   -6.5651   23.8204 C   0  0  0  0  0  0
  -21.3672   -5.6798   24.9158 C   0  0  0  0  0  0
  -21.6039   -4.3056   24.7196 C   0  0  0  0  0  0
  -21.8820   -3.8167   23.4304 C   0  0  0  0  0  0
  -21.9179   -4.6997   22.3380 C   0  0  0  0  0  0
  -22.7840  -13.5215   21.1805 C   0  0  0  0  0  0
  -22.1644   -4.2181   21.0968 F   0  0  0  0  0  0
  -21.5647   -3.4543   25.7716 F   0  0  0  0  0  0
  -30.0184  -13.3356   20.4479 N   0  0  0  0  0  0
  -26.3002  -12.9317   20.3356 N   0  0  0  0  0  0
  -25.9322  -11.6455   20.5696 N   0  0  0  0  0  0
  -22.0422  -12.8263   22.0368 N   0  0  0  0  0  0
  -25.4254  -15.1864   20.4282 N   0  0  0  0  0  0
  -31.8148  -14.7054   20.1811 O   0  0  0  0  0  0
  -21.6641   -6.8877   21.4228 O   0  0  0  0  0  0
  -22.3549  -14.5466   20.6546 O   0  0  0  0  0  0
  -24.6176  -31.8683   23.2137 C   0  0  0  0  0  0
  -25.9084  -32.4808   23.8447 C   0  0  1  0  0  0
  -27.2179  -27.3854   20.1022 C   0  0  0  0  0  0
  -25.5948  -33.8623   24.2362 N   0  0  0  0  0  0
  -23.4034  -30.4859   21.5629 C   0  0  2  0  0  0
  -24.8466  -28.9519   20.1168 C   0  0  0  0  0  0
  -22.7433  -29.4592   22.5109 C   0  0  0  0  0  0
  -18.0308  -28.1355   22.8540 C   0  0  0  0  0  0
  -24.1485  -36.7275   23.2650 C   0  0  0  0  0  0
  -25.9382  -30.8065   21.3821 C   0  0  0  0  0  0
  -26.0122  -29.4426   20.7202 C   0  0  0  0  0  0
  -27.2047  -28.6731   20.7049 C   0  0  0  0  0  0
  -26.0332  -26.9241   19.4965 C   0  0  0  0  0  0
  -24.8565  -27.6935   19.4976 C   0  0  0  0  0  0
  -23.6094  -29.8245   20.1755 C   0  0  0  0  0  0
  -25.4097  -36.3094   24.0359 C   0  0  1  0  0  0
  -20.5889  -28.3581   23.1374 C   0  0  2  0  0  0
  -20.6805  -26.9383   22.5286 C   0  0  0  0  0  0
  -19.5689  -26.6386   21.5168 C   0  0  0  0  0  0
  -18.1935  -26.7892   22.1725 C   0  0  0  0  0  0
  -19.1556  -28.8780   23.2985 C   0  0  0  0  0  0
  -18.9446  -30.1412   23.8969 C   0  0  0  0  0  0
  -17.6428  -30.6540   24.0566 C   0  0  0  0  0  0
  -25.9024  -34.9476   23.5123 C   0  0  0  0  0  0
  -16.5341  -29.9029   23.6324 C   0  0  0  0  0  0
  -16.7288  -28.6447   23.0392 C   0  0  0  0  0  0
  -26.4535  -31.6577   25.0776 C   0  0  0  0  0  0
  -25.3793  -31.3675   26.1490 C   0  0  0  0  0  0
  -27.0378  -30.2990   24.6264 C   0  0  0  0  0  0
  -27.6085  -32.4344   25.7543 C   0  0  0  0  0  0
  -27.5575  -37.1794   24.8478 C   0  0  0  0  0  0
  -21.4141  -29.3026   22.3894 N   0  0  0  0  0  0
  -26.4280  -37.3796   23.9405 N   0  0  0  0  0  0
  -24.6707  -31.0714   22.1086 N   0  0  0  0  0  0
  -23.4234  -28.8114   23.3110 O   0  0  0  0  0  0
  -28.3493  -26.5854   20.0705 O   0  0  0  0  0  0
  -26.5564  -34.8931   22.4705 O   0  0  0  0  0  0
  -23.5377  -32.1518   23.7500 O   0  0  0  0  0  0
  -31.5487  -17.0018   22.3113 C   0  0  0  0  0  0
  -29.5411  -17.9943   21.3678 C   0  0  0  0  0  0
  -31.8998  -18.2466   22.8747 C   0  0  0  0  0  0
  -31.0796  -19.3958   22.6601 C   0  0  0  0  0  0
  -30.3600  -16.8433   21.5670 C   0  0  0  0  0  0
  -29.8917  -19.2817   21.8819 C   0  0  0  0  0  0
  -28.7359  -22.8021   21.2075 C   0  0  0  0  0  0
  -33.1546  -18.2843   23.7434 C   0  0  0  0  0  0
  -30.9096  -20.9123   24.7169 C   0  0  0  0  0  0
  -29.5788  -23.9937   19.1037 C   0  0  0  0  0  0
  -27.1005  -23.5697   19.4355 C   0  0  0  0  0  0
  -31.4438  -20.7434   23.2853 C   0  0  0  0  0  0
  -29.2117  -21.3774   20.7556 C   0  0  0  0  0  0
  -28.3046  -25.3639   20.8634 C   0  0  0  0  0  0
  -28.4324  -23.9397   20.1514 C   0  0  0  0  0  0
  -29.9350  -15.5343   21.1286 N   0  0  0  0  0  0
  -28.5790  -23.0325   22.4123 O   0  0  0  0  0  0
  -29.0104  -20.3601   21.7808 O   0  0  0  0  0  0
  -31.4777  -12.4798   19.1350 H   0  0  0  0  0  0
  -30.3627  -11.3458   19.8316 H   0  0  0  0  0  0
  -29.7535  -11.7938   17.4400 H   0  0  0  0  0  0
  -29.6735  -13.5113   17.7586 H   0  0  0  0  0  0
  -27.8358  -11.3284   18.8029 H   0  0  0  0  0  0
  -27.3773  -12.6610   17.7792 H   0  0  0  0  0  0
  -27.6947  -14.2682   19.6034 H   0  0  0  0  0  0
  -28.6918  -11.9447   21.2970 H   0  0  0  0  0  0
  -28.4478  -13.5527   21.9013 H   0  0  0  0  0  0
  -25.2735   -9.5738   22.4769 H   0  0  0  0  0  0
  -23.9983   -7.4645   22.7490 H   0  0  0  0  0  0
  -21.0812   -8.8702   19.8955 H   0  0  0  0  0  0
  -22.3602  -10.9639   19.6151 H   0  0  0  0  0  0
  -21.1997   -7.6146   23.9743 H   0  0  0  0  0  0
  -21.1504   -6.0494   25.9077 H   0  0  0  0  0  0
  -22.0618   -2.7631   23.2750 H   0  0  0  0  0  0
  -22.3957  -11.9968   22.4900 H   0  0  0  0  0  0
  -21.1021  -13.1331   22.2463 H   0  0  0  0  0  0
  -24.6480  -15.8254   20.5512 H   0  0  0  0  0  0
  -26.2631  -15.6467   20.0968 H   0  0  0  0  0  0
  -26.7090  -32.5477   23.1140 H   0  0  0  0  0  0
  -25.0202  -33.9848   25.0572 H   0  0  0  0  0  0
  -22.6875  -31.2999   21.4328 H   0  0  0  0  0  0
  -23.3790  -35.9574   23.3322 H   0  0  0  0  0  0
  -24.3589  -36.8885   22.2063 H   0  0  0  0  0  0
  -23.7202  -37.6481   23.6639 H   0  0  0  0  0  0
  -26.0813  -31.5760   20.6253 H   0  0  0  0  0  0
  -26.8081  -30.8381   22.0232 H   0  0  0  0  0  0
  -28.1020  -29.0637   21.1651 H   0  0  0  0  0  0
  -26.0032  -25.9611   19.0149 H   0  0  0  0  0  0
  -23.9616  -27.3132   19.0222 H   0  0  0  0  0  0
  -23.7247  -30.6120   19.4314 H   0  0  0  0  0  0
  -22.7256  -29.2581   19.8763 H   0  0  0  0  0  0
  -25.1288  -36.1967   25.0861 H   0  0  0  0  0  0
  -20.9980  -28.3002   24.1481 H   0  0  0  0  0  0
  -21.6641  -26.7577   22.0933 H   0  0  0  0  0  0
  -20.5843  -26.2137   23.3411 H   0  0  0  0  0  0
  -19.6525  -27.3206   20.6683 H   0  0  0  0  0  0
  -19.6781  -25.6289   21.1189 H   0  0  0  0  0  0
  -17.4134  -26.6621   21.4220 H   0  0  0  0  0  0
  -18.0415  -26.0146   22.9252 H   0  0  0  0  0  0
  -19.7860  -30.7312   24.2371 H   0  0  0  0  0  0
  -17.4893  -31.6200   24.5169 H   0  0  0  0  0  0
  -15.5322  -30.2897   23.7599 H   0  0  0  0  0  0
  -15.8668  -28.0775   22.7131 H   0  0  0  0  0  0
  -24.6027  -30.6961   25.7797 H   0  0  0  0  0  0
  -24.8947  -32.2840   26.4877 H   0  0  0  0  0  0
  -25.8203  -30.8892   27.0246 H   0  0  0  0  0  0
  -26.2958  -29.6721   24.1317 H   0  0  0  0  0  0
  -27.4040  -29.7277   25.4805 H   0  0  0  0  0  0
  -27.8859  -30.4224   23.9526 H   0  0  0  0  0  0
  -27.2681  -33.3655   26.2081 H   0  0  0  0  0  0
  -28.3947  -32.6895   25.0417 H   0  0  0  0  0  0
  -28.0698  -31.8514   26.5522 H   0  0  0  0  0  0
  -28.2600  -38.0078   24.7540 H   0  0  0  0  0  0
  -28.1078  -36.2640   24.6292 H   0  0  0  0  0  0
  -27.2308  -37.1399   25.8885 H   0  0  0  0  0  0
  -20.9257  -29.8836   21.7238 H   0  0  0  0  0  0
  -26.0183  -38.2894   24.1410 H   0  0  0  0  0  0
  -32.1847  -16.1494   22.5033 H   0  0  0  0  0  0
  -28.6164  -17.8843   20.8226 H   0  0  0  0  0  0
  -34.0457  -18.4375   23.1339 H   0  0  0  0  0  0
  -33.2785  -17.3348   24.2731 H   0  0  0  0  0  0
  -33.1249  -19.0613   24.5076 H   0  0  0  0  0  0
  -31.1925  -21.8807   25.1305 H   0  0  0  0  0  0
  -31.2981  -20.1435   25.3842 H   0  0  0  0  0  0
  -29.8223  -20.8566   24.7391 H   0  0  0  0  0  0
  -29.8433  -23.0129   18.7042 H   0  0  0  0  0  0
  -30.4858  -24.4297   19.5206 H   0  0  0  0  0  0
  -29.3101  -24.6084   18.2413 H   0  0  0  0  0  0
  -27.0174  -22.5112   19.1684 H   0  0  0  0  0  0
  -26.9753  -24.1283   18.5044 H   0  0  0  0  0  0
  -26.2362  -23.7772   20.0675 H   0  0  0  0  0  0
  -31.0631  -21.5629   22.6778 H   0  0  0  0  0  0
  -32.5256  -20.8703   23.2708 H   0  0  0  0  0  0
  -30.2637  -21.4263   20.4740 H   0  0  0  0  0  0
  -28.6435  -21.0909   19.8711 H   0  0  0  0  0  0
  -29.1534  -25.4771   21.5423 H   0  0  0  0  0  0
  -27.4360  -25.3846   21.5240 H   0  0  0  0  0  0
  -28.9559  -15.3172   21.2480 H   0  0  0  0  0  0
  1 25  1  0  0  0
  1 30  2  0  0  0
  1 86  1  0  0  0
  2  3  1  0  0  0
  2 25  1  0  0  0
  2 89  1  0  0  0
  2 90  1  0  0  0
  3  4  1  0  0  0
  3 91  1  0  0  0
  3 92  1  0  0  0
  4  5  1  0  0  0
  4 93  1  0  0  0
  4 94  1  0  0  0
  5  6  1  0  0  0
  5 26  1  0  0  0
  5 95  1  0  0  0
  6 25  1  0  0  0
  6 96  1  0  0  0
  6 97  1  0  0  0
  7  8  2  0  0  0
  7 26  1  0  0  0
  7 29  1  0  0  0
  8  9  1  0  0  0
  8 22  1  0  0  0
  9 10  1  0  0  0
  9 27  2  0  0  0
 10 11  2  0  0  0
 10 15  1  0  0  0
 11 12  1  0  0  0
 11 98  1  0  0  0
 12 13  2  0  0  0
 12 99  1  0  0  0
 13 14  1  0  0  0
 13 31  1  0  0  0
 14 15  2  0  0  0
 14100  1  0  0  0
 15101  1  0  0  0
 16 17  2  0  0  0
 16 21  1  0  0  0
 16 31  1  0  0  0
 17 18  1  0  0  0
 17102  1  0  0  0
 18 19  2  0  0  0
 18103  1  0  0  0
 19 20  1  0  0  0
 19 24  1  0  0  0
 20 21  2  0  0  0
 20104  1  0  0  0
 21 23  1  0  0  0
 22 28  1  0  0  0
 22 32  2  0  0  0
 26 27  1  0  0  0
 28105  1  0  0  0
 28106  1  0  0  0
 29107  1  0  0  0
 29108  1  0  0  0
 33 34  1  0  0  0
 33 66  1  0  0  0
 33 70  2  0  0  0
 34 36  1  0  0  0
 34 59  1  0  0  0
 34109  1  0  0  0
 35 44  2  0  0  0
 35 45  1  0  0  0
 35 68  1  0  0  0
 36 56  1  0  0  0
 36110  1  0  0  0
 37 39  1  0  0  0
 37 47  1  0  0  0
 37 66  1  0  0  0
 37111  1  0  0  0
 38 43  2  0  0  0
 38 46  1  0  0  0
 38 47  1  0  0  0
 39 64  1  0  0  0
 39 67  2  0  0  0
 40 52  1  0  0  0
 40 53  2  0  0  0
 40 58  1  0  0  0
 41112  1  0  0  0
 41113  1  0  0  0
 41114  1  0  0  0
 41 48  1  0  0  0
 42 43  1  0  0  0
 42 66  1  0  0  0
 42115  1  0  0  0
 42116  1  0  0  0
 43 44  1  0  0  0
 44117  1  0  0  0
 45 46  2  0  0  0
 45118  1  0  0  0
 46119  1  0  0  0
 47120  1  0  0  0
 47121  1  0  0  0
 48 56  1  0  0  0
 48 65  1  0  0  0
 48122  1  0  0  0
 49 50  1  0  0  0
 49 53  1  0  0  0
 49 64  1  0  0  0
 49123  1  0  0  0
 50 51  1  0  0  0
 50124  1  0  0  0
 50125  1  0  0  0
 51 52  1  0  0  0
 51126  1  0  0  0
 51127  1  0  0  0
 52128  1  0  0  0
 52129  1  0  0  0
 53 54  1  0  0  0
 54 55  2  0  0  0
 54130  1  0  0  0
 55 57  1  0  0  0
 55131  1  0  0  0
 56 69  2  0  0  0
 57 58  2  0  0  0
 57132  1  0  0  0
 58133  1  0  0  0
 59 60  1  0  0  0
 59 61  1  0  0  0
 59 62  1  0  0  0
 60134  1  0  0  0
 60135  1  0  0  0
 60136  1  0  0  0
 61137  1  0  0  0
 61138  1  0  0  0
 61139  1  0  0  0
 62140  1  0  0  0
 62141  1  0  0  0
 62142  1  0  0  0
 63 65  1  0  0  0
 63143  1  0  0  0
 63144  1  0  0  0
 63145  1  0  0  0
 64146  1  0  0  0
 65147  1  0  0  0
 68 84  1  0  0  0
 71 73  2  0  0  0
 71 75  1  0  0  0
 71148  1  0  0  0
 72 75  2  0  0  0
 72 76  1  0  0  0
 72149  1  0  0  0
 73 74  1  0  0  0
 73 78  1  0  0  0
 74 76  2  0  0  0
 74 82  1  0  0  0
 75 86  1  0  0  0
 76 88  1  0  0  0
 77 83  1  0  0  0
 77 85  1  0  0  0
 77 87  2  0  0  0
 78150  1  0  0  0
 78151  1  0  0  0
 78152  1  0  0  0
 79 82  1  0  0  0
 79153  1  0  0  0
 79154  1  0  0  0
 79155  1  0  0  0
 80156  1  0  0  0
 80157  1  0  0  0
 80158  1  0  0  0
 80 85  1  0  0  0
 81 85  1  0  0  0
 81159  1  0  0  0
 81160  1  0  0  0
 81161  1  0  0  0
 82162  1  0  0  0
 82163  1  0  0  0
 83 88  1  0  0  0
 83164  1  0  0  0
 83165  1  0  0  0
 84 85  1  0  0  0
 84166  1  0  0  0
 84167  1  0  0  0
 86168  1  0  0  0
M  ISO  4   1 100  68 101  84 101  86 100
M  END
> <chiral flag>
0

> <version>
0

> <s_m_source_file>
/data/baiqing/PycharmProjects/Reinvent-master-3.2/result/LINK_invent/BTK/process_docking_weight1_custom_product_contain_oxygen_bond_distance_aromatic_linkinvent_7_9_3/rearranged_h_0137.sdf

> <i_m_source_file_index>
62

> <r_mmod_Potential_Energy-OPLS-2005>
101.160491943359

> <r_mmod_Stretch_Energy-OPLS-2005>
65.1591644287109

> <r_mmod_Bend_Energy-OPLS-2005>
120.883674621582

> <r_mmod_Torsional_Energy-OPLS-2005>
293.435974121094

> <r_mmod_Improper_Torsional_Energy-OPLS-2005>
5.05779981613159

> <r_mmod_Van_der_Waal_Energy-OPLS-2005>
144.918045043945

> <r_mmod_Electrostatic_Energy-OPLS-2005>
-331.718566894531

> <r_mmod_Solvation_Energy-OPLS-2005>
-218.065185546875

> <b_mmod_Minimization_Converged-OPLS-2005>
0

> <r_mmod_RMS_Derivative-OPLS-2005>
7.17526149749756

$$$$
62
                    3D
 Structure written by MMmdl.
165173  0  0  1  0            999 V2000
  -30.6527  -14.5791   20.5747 C   0  0  0  0  0  0
  -30.4411  -12.3580   19.4604 C   0  0  0  0  0  0
  -29.5185  -12.5076   18.2292 C   0  0  0  0  0  0
  -28.0391  -12.3457   18.6365 C   0  0  0  0  0  0
  -27.6633  -13.2061   19.8735 C   0  0  2  0  0  0
  -28.7025  -13.0211   21.0050 C   0  0  0  0  0  0
  -25.2596  -13.8155   20.5656 C   0  0  0  0  0  0
  -24.1840  -13.0417   20.9128 C   0  0  0  0  0  0
  -24.6395  -11.6897   20.8704 C   0  0  0  0  0  0
  -23.9045  -10.4273   21.0383 C   0  0  0  0  0  0
  -24.3587   -9.4204   21.9175 C   0  0  0  0  0  0
  -23.6251   -8.2244   22.0782 C   0  0  0  0  0  0
  -22.4241   -8.0265   21.3554 C   0  0  0  0  0  0
  -21.9868   -9.0247   20.4664 C   0  0  0  0  0  0
  -22.7208  -10.2122   20.3057 C   0  0  0  0  0  0
  -21.6854   -6.0699   22.5262 C   0  0  0  0  0  0
  -21.4028   -6.5623   23.8194 C   0  0  0  0  0  0
  -21.3662   -5.6789   24.9165 C   0  0  0  0  0  0
  -21.6046   -4.3049   24.7229 C   0  0  0  0  0  0
  -21.8809   -3.8122   23.4354 C   0  0  0  0  0  0
  -21.9195   -4.6919   22.3405 C   0  0  0  0  0  0
  -22.7871  -13.5231   21.1796 C   0  0  0  0  0  0
  -22.1645   -4.2097   21.0970 F   0  0  0  0  0  0
  -21.5627   -3.4547   25.7751 F   0  0  0  0  0  0
  -30.0330  -13.3594   20.4679 N   0  0  0  0  0  0
  -26.3019  -12.9327   20.3318 N   0  0  0  0  0  0
  -25.9330  -11.6480   20.5744 N   0  0  0  0  0  0
  -22.0516  -12.8253   22.0374 N   0  0  0  0  0  0
  -25.4304  -15.1875   20.4095 N   0  0  0  0  0  0
  -31.7408  -14.8033   20.0359 O   0  0  0  0  0  0
  -21.6642   -6.8849   21.4224 O   0  0  0  0  0  0
  -22.3559  -14.5539   20.6659 O   0  0  0  0  0  0
  -24.6269  -31.8648   23.2018 C   0  0  0  0  0  0
  -25.9140  -32.4793   23.8360 C   0  0  1  0  0  0
  -27.2395  -27.3417   20.1306 C   0  0  0  0  0  0
  -25.5945  -33.8586   24.2285 N   0  0  0  0  0  0
  -23.4211  -30.4834   21.5456 C   0  0  2  0  0  0
  -24.8691  -28.9327   20.1263 C   0  0  0  0  0  0
  -22.7504  -29.4677   22.4992 C   0  0  0  0  0  0
  -18.0356  -28.1355   22.8406 C   0  0  0  0  0  0
  -24.1503  -36.7268   23.2643 C   0  0  0  0  0  0
  -25.9590  -30.7980   21.3752 C   0  0  0  0  0  0
  -26.0337  -29.4222   20.7316 C   0  0  0  0  0  0
  -27.2232  -28.6383   20.7263 C   0  0  0  0  0  0
  -26.0658  -26.9206   19.4839 C   0  0  0  0  0  0
  -24.8827  -27.6778   19.5002 C   0  0  0  0  0  0
  -23.6330  -29.8036   20.1688 C   0  0  0  0  0  0
  -25.4116  -36.3070   24.0346 C   0  0  1  0  0  0
  -20.5932  -28.3710   23.1293 C   0  0  2  0  0  0
  -20.6900  -26.9488   22.5323 C   0  0  0  0  0  0
  -19.5937  -26.6525   21.5055 C   0  0  0  0  0  0
  -18.2062  -26.7964   22.1408 C   0  0  0  0  0  0
  -19.1578  -28.8847   23.2828 C   0  0  0  0  0  0
  -18.9478  -30.1459   23.8819 C   0  0  0  0  0  0
  -17.6481  -30.6561   24.0489 C   0  0  0  0  0  0
  -25.9067  -34.9445   23.5102 C   0  0  0  0  0  0
  -16.5391  -29.8975   23.6327 C   0  0  0  0  0  0
  -16.7337  -28.6419   23.0362 C   0  0  0  0  0  0
  -26.4516  -31.6633   25.0742 C   0  0  0  0  0  0
  -25.3741  -31.3800   26.1461 C   0  0  0  0  0  0
  -27.0326  -30.3045   24.6219 C   0  0  0  0  0  0
  -27.6086  -32.4350   25.7516 C   0  0  0  0  0  0
  -27.5576  -37.1776   24.8470 C   0  0  0  0  0  0
  -21.4216  -29.3136   22.3792 N   0  0  0  0  0  0
  -26.4294  -37.3754   23.9414 N   0  0  0  0  0  0
  -24.6872  -31.0682   22.0971 N   0  0  0  0  0  0
  -23.4230  -28.8204   23.3059 O   0  0  0  0  0  0
  -28.3854  -26.5451   20.0666 O   0  0  0  0  0  0
  -26.5624  -34.8911   22.4662 O   0  0  0  0  0  0
  -23.5437  -32.1478   23.7351 O   0  0  0  0  0  0
  -29.1158  -19.0892   22.2321 C   0  0  0  0  0  0
  -29.5926  -19.0663   19.8724 C   0  0  0  0  0  0
  -29.5037  -17.7223   22.3233 C   0  0  0  0  0  0
  -29.9829  -17.6929   19.9624 C   0  0  0  0  0  0
  -29.0835  -19.7826   20.9939 C   0  0  0  0  0  0
  -29.8897  -16.9707   21.1831 C   0  0  0  0  0  0
  -25.5945  -23.3163   19.0294 C   0  0  0  0  0  0
  -27.0073  -20.5898   19.9651 C   0  0  0  0  0  0
  -28.3321  -24.0736   18.4931 C   0  0  0  0  0  0
  -26.4831  -23.7022   20.2423 C   0  0  0  0  0  0
  -28.8505  -22.4990   20.4341 C   0  0  0  0  0  0
  -28.4624  -25.2157   20.7234 C   0  0  0  0  0  0
  -28.1895  -21.0753   20.8370 C   0  0  2  0  0  0
  -28.0192  -23.8480   19.9935 C   0  0  1  0  0  0
  -29.9967  -15.5225   21.3072 N   0  0  0  0  0  0
  -31.4884  -12.4627   19.1709 H   0  0  0  0  0  0
  -30.3516  -11.3534   19.8793 H   0  0  0  0  0  0
  -29.7804  -11.7698   17.4697 H   0  0  0  0  0  0
  -29.6707  -13.4851   17.7667 H   0  0  0  0  0  0
  -27.8725  -11.2909   18.8634 H   0  0  0  0  0  0
  -27.3889  -12.5811   17.7922 H   0  0  0  0  0  0
  -27.7002  -14.2477   19.5568 H   0  0  0  0  0  0
  -28.7037  -11.9865   21.3535 H   0  0  0  0  0  0
  -28.4376  -13.6137   21.8804 H   0  0  0  0  0  0
  -25.2739   -9.5684   22.4737 H   0  0  0  0  0  0
  -23.9951   -7.4674   22.7545 H   0  0  0  0  0  0
  -21.0788   -8.8756   19.9017 H   0  0  0  0  0  0
  -22.3645  -10.9633   19.6156 H   0  0  0  0  0  0
  -21.2028   -7.6142   23.9672 H   0  0  0  0  0  0
  -21.1496   -6.0533   25.9059 H   0  0  0  0  0  0
  -22.0592   -2.7575   23.2880 H   0  0  0  0  0  0
  -22.4118  -11.9897   22.4738 H   0  0  0  0  0  0
  -21.1154  -13.1354   22.2610 H   0  0  0  0  0  0
  -24.6756  -15.8487   20.5615 H   0  0  0  0  0  0
  -26.2880  -15.6303   20.1015 H   0  0  0  0  0  0
  -26.7219  -32.5500   23.1129 H   0  0  0  0  0  0
  -25.0070  -33.9714   25.0408 H   0  0  0  0  0  0
  -22.7184  -31.3044   21.3973 H   0  0  0  0  0  0
  -23.3757  -35.9599   23.3312 H   0  0  0  0  0  0
  -24.3627  -36.8863   22.2051 H   0  0  0  0  0  0
  -23.7239  -37.6474   23.6654 H   0  0  0  0  0  0
  -26.0915  -31.5600   20.6063 H   0  0  0  0  0  0
  -26.8404  -30.8534   22.0026 H   0  0  0  0  0  0
  -28.1238  -29.0237   21.1795 H   0  0  0  0  0  0
  -26.0710  -25.9993   18.9358 H   0  0  0  0  0  0
  -23.9951  -27.2934   19.0168 H   0  0  0  0  0  0
  -23.7352  -30.5692   19.4004 H   0  0  0  0  0  0
  -22.7586  -29.2142   19.8846 H   0  0  0  0  0  0
  -25.1280  -36.1908   25.0835 H   0  0  0  0  0  0
  -20.9970  -28.3197   24.1418 H   0  0  0  0  0  0
  -20.5926  -26.2242   23.3420 H   0  0  0  0  0  0
  -21.6788  -26.7718   22.1060 H   0  0  0  0  0  0
  -19.7191  -25.6523   21.0879 H   0  0  0  0  0  0
  -19.6913  -27.3514   20.6716 H   0  0  0  0  0  0
  -17.4416  -26.6865   21.3728 H   0  0  0  0  0  0
  -18.0409  -26.0004   22.8663 H   0  0  0  0  0  0
  -19.7919  -30.7308   24.2235 H   0  0  0  0  0  0
  -17.5029  -31.6255   24.5055 H   0  0  0  0  0  0
  -15.5373  -30.2801   23.7671 H   0  0  0  0  0  0
  -15.8748  -28.0648   22.7180 H   0  0  0  0  0  0
  -24.5910  -30.7158   25.7808 H   0  0  0  0  0  0
  -24.8964  -32.2989   26.4877 H   0  0  0  0  0  0
  -25.8075  -30.8991   27.0245 H   0  0  0  0  0  0
  -26.2895  -29.6844   24.1213 H   0  0  0  0  0  0
  -27.3971  -29.7273   25.4743 H   0  0  0  0  0  0
  -27.8801  -30.4334   23.9478 H   0  0  0  0  0  0
  -27.2704  -33.3635   26.2138 H   0  0  0  0  0  0
  -28.3887  -32.6946   25.0346 H   0  0  0  0  0  0
  -28.0782  -31.8452   26.5406 H   0  0  0  0  0  0
  -28.2590  -38.0078   24.7476 H   0  0  0  0  0  0
  -28.1067  -36.2592   24.6317 H   0  0  0  0  0  0
  -27.2312  -37.1431   25.8886 H   0  0  0  0  0  0
  -20.9346  -29.8912   21.7097 H   0  0  0  0  0  0
  -26.0169  -38.2840   24.1381 H   0  0  0  0  0  0
  -28.7273  -19.5687   23.1208 H   0  0  0  0  0  0
  -29.5767  -19.5309   18.8964 H   0  0  0  0  0  0
  -29.4213  -17.2266   23.2808 H   0  0  0  0  0  0
  -30.2662  -17.1770   19.0539 H   0  0  0  0  0  0
  -24.5994  -23.0177   19.3561 H   0  0  0  0  0  0
  -25.9998  -22.4980   18.4406 H   0  0  0  0  0  0
  -25.4549  -24.1328   18.3263 H   0  0  0  0  0  0
  -26.7426  -19.5553   20.1944 H   0  0  0  0  0  0
  -27.2347  -20.6335   18.8980 H   0  0  0  0  0  0
  -26.0794  -21.1146   20.1622 H   0  0  0  0  0  0
  -28.1061  -23.1936   17.8894 H   0  0  0  0  0  0
  -29.3875  -24.2923   18.3371 H   0  0  0  0  0  0
  -27.7704  -24.9047   18.0727 H   0  0  0  0  0  0
  -26.3166  -23.0192   21.0704 H   0  0  0  0  0  0
  -26.0743  -24.6203   20.6526 H   0  0  0  0  0  0
  -29.5583  -22.2705   19.6326 H   0  0  0  0  0  0
  -29.5080  -22.7781   21.2606 H   0  0  0  0  0  0
  -28.0006  -25.2912   21.7090 H   0  0  0  0  0  0
  -29.5267  -25.1181   20.9410 H   0  0  0  0  0  0
  -27.7642  -21.2442   21.8302 H   0  0  0  0  0  0
  -29.3149  -15.1143   21.9285 H   0  0  0  0  0  0
  1 25  1  0  0  0
  1 30  2  0  0  0
  1 85  1  0  0  0
  2  3  1  0  0  0
  2 25  1  0  0  0
  2 86  1  0  0  0
  2 87  1  0  0  0
  3  4  1  0  0  0
  3 88  1  0  0  0
  3 89  1  0  0  0
  4  5  1  0  0  0
  4 90  1  0  0  0
  4 91  1  0  0  0
  5  6  1  0  0  0
  5 26  1  0  0  0
  5 92  1  0  0  0
  6 25  1  0  0  0
  6 93  1  0  0  0
  6 94  1  0  0  0
  7  8  2  0  0  0
  7 26  1  0  0  0
  7 29  1  0  0  0
  8  9  1  0  0  0
  8 22  1  0  0  0
  9 10  1  0  0  0
  9 27  2  0  0  0
 10 11  2  0  0  0
 10 15  1  0  0  0
 11 12  1  0  0  0
 11 95  1  0  0  0
 12 13  2  0  0  0
 12 96  1  0  0  0
 13 14  1  0  0  0
 13 31  1  0  0  0
 14 15  2  0  0  0
 14 97  1  0  0  0
 15 98  1  0  0  0
 16 17  2  0  0  0
 16 21  1  0  0  0
 16 31  1  0  0  0
 17 18  1  0  0  0
 17 99  1  0  0  0
 18 19  2  0  0  0
 18100  1  0  0  0
 19 20  1  0  0  0
 19 24  1  0  0  0
 20 21  2  0  0  0
 20101  1  0  0  0
 21 23  1  0  0  0
 22 28  1  0  0  0
 22 32  2  0  0  0
 26 27  1  0  0  0
 28102  1  0  0  0
 28103  1  0  0  0
 29104  1  0  0  0
 29105  1  0  0  0
 33 34  1  0  0  0
 33 66  1  0  0  0
 33 70  2  0  0  0
 34 36  1  0  0  0
 34 59  1  0  0  0
 34106  1  0  0  0
 35 44  2  0  0  0
 35 45  1  0  0  0
 35 68  1  0  0  0
 36 56  1  0  0  0
 36107  1  0  0  0
 37 39  1  0  0  0
 37 47  1  0  0  0
 37 66  1  0  0  0
 37108  1  0  0  0
 38 43  2  0  0  0
 38 46  1  0  0  0
 38 47  1  0  0  0
 39 64  1  0  0  0
 39 67  2  0  0  0
 40 52  1  0  0  0
 40 53  2  0  0  0
 40 58  1  0  0  0
 41109  1  0  0  0
 41110  1  0  0  0
 41111  1  0  0  0
 41 48  1  0  0  0
 42 43  1  0  0  0
 42 66  1  0  0  0
 42112  1  0  0  0
 42113  1  0  0  0
 43 44  1  0  0  0
 44114  1  0  0  0
 45 46  2  0  0  0
 45115  1  0  0  0
 46116  1  0  0  0
 47117  1  0  0  0
 47118  1  0  0  0
 48 56  1  0  0  0
 48 65  1  0  0  0
 48119  1  0  0  0
 49 50  1  0  0  0
 49 53  1  0  0  0
 49 64  1  0  0  0
 49120  1  0  0  0
 50 51  1  0  0  0
 50121  1  0  0  0
 50122  1  0  0  0
 51 52  1  0  0  0
 51123  1  0  0  0
 51124  1  0  0  0
 52125  1  0  0  0
 52126  1  0  0  0
 53 54  1  0  0  0
 54 55  2  0  0  0
 54127  1  0  0  0
 55 57  1  0  0  0
 55128  1  0  0  0
 56 69  2  0  0  0
 57 58  2  0  0  0
 57129  1  0  0  0
 58130  1  0  0  0
 59 60  1  0  0  0
 59 61  1  0  0  0
 59 62  1  0  0  0
 60131  1  0  0  0
 60132  1  0  0  0
 60133  1  0  0  0
 61134  1  0  0  0
 61135  1  0  0  0
 61136  1  0  0  0
 62137  1  0  0  0
 62138  1  0  0  0
 62139  1  0  0  0
 63 65  1  0  0  0
 63140  1  0  0  0
 63141  1  0  0  0
 63142  1  0  0  0
 64143  1  0  0  0
 65144  1  0  0  0
 68 82  1  0  0  0
 71 73  2  0  0  0
 71 75  1  0  0  0
 71145  1  0  0  0
 72 74  1  0  0  0
 72 75  2  0  0  0
 72146  1  0  0  0
 73 76  1  0  0  0
 73147  1  0  0  0
 74 76  2  0  0  0
 74148  1  0  0  0
 75 83  1  0  0  0
 76 85  1  0  0  0
 77 80  1  0  0  0
 77149  1  0  0  0
 77150  1  0  0  0
 77151  1  0  0  0
 78152  1  0  0  0
 78153  1  0  0  0
 78154  1  0  0  0
 78 83  1  0  0  0
 79155  1  0  0  0
 79156  1  0  0  0
 79157  1  0  0  0
 79 84  1  0  0  0
 80 84  1  0  0  0
 80158  1  0  0  0
 80159  1  0  0  0
 81 83  1  0  0  0
 81 84  1  0  0  0
 81160  1  0  0  0
 81161  1  0  0  0
 82 84  1  0  0  0
 82162  1  0  0  0
 82163  1  0  0  0
 83164  1  0  0  0
 85165  1  0  0  0
M  ISO  4   1 100  68 101  82 101  85 100
M  END
> <chiral flag>
0

> <version>
0

> <s_m_source_file>
/data/baiqing/PycharmProjects/Reinvent-master-3.2/result/LINK_invent/BTK/process_docking_weight1_custom_product_contain_oxygen_bond_distance_aromatic_linkinvent_7_9_3/rearranged_h_0137.sdf

> <i_m_source_file_index>
63

> <r_mmod_Potential_Energy-OPLS-2005>
215.41877746582

> <r_mmod_Stretch_Energy-OPLS-2005>
97.156852722168

> <r_mmod_Bend_Energy-OPLS-2005>
183.203948974609

> <r_mmod_Torsional_Energy-OPLS-2005>
311.752807617188

> <r_mmod_Improper_Torsional_Energy-OPLS-2005>
6.72906923294067

> <r_mmod_Van_der_Waal_Energy-OPLS-2005>
160.016235351562

> <r_mmod_Electrostatic_Energy-OPLS-2005>
-383.024780273438

> <r_mmod_Solvation_Energy-OPLS-2005>
-191.883636474609

> <b_mmod_Minimization_Converged-OPLS-2005>
0

> <r_mmod_RMS_Derivative-OPLS-2005>
4.67125511169434

$$$$
63
                    3D
 Structure written by MMmdl.
171179  0  0  1  0            999 V2000
  -30.6850  -14.6204   20.5299 C   0  0  0  0  0  0
  -30.4279  -12.3997   19.4397 C   0  0  0  0  0  0
  -29.5136  -12.5041   18.2119 C   0  0  0  0  0  0
  -28.0245  -12.3787   18.5992 C   0  0  0  0  0  0
  -27.6384  -13.2378   19.8344 C   0  0  2  0  0  0
  -28.6852  -13.1061   20.9604 C   0  0  0  0  0  0
  -25.2427  -13.8264   20.5637 C   0  0  0  0  0  0
  -24.1745  -13.0472   20.9219 C   0  0  0  0  0  0
  -24.6345  -11.6961   20.8724 C   0  0  0  0  0  0
  -23.9050  -10.4340   21.0340 C   0  0  0  0  0  0
  -24.3602   -9.4262   21.9128 C   0  0  0  0  0  0
  -23.6310   -8.2281   22.0706 C   0  0  0  0  0  0
  -22.4258   -8.0327   21.3512 C   0  0  0  0  0  0
  -21.9871   -9.0293   20.4601 C   0  0  0  0  0  0
  -22.7198  -10.2203   20.3019 C   0  0  0  0  0  0
  -21.6837   -6.0782   22.5287 C   0  0  0  0  0  0
  -21.3995   -6.5645   23.8247 C   0  0  0  0  0  0
  -21.3663   -5.6790   24.9185 C   0  0  0  0  0  0
  -21.6032   -4.3059   24.7212 C   0  0  0  0  0  0
  -21.8824   -3.8176   23.4299 C   0  0  0  0  0  0
  -21.9161   -4.7006   22.3373 C   0  0  0  0  0  0
  -22.7744  -13.5252   21.1913 C   0  0  0  0  0  0
  -22.1625   -4.2217   21.0961 F   0  0  0  0  0  0
  -21.5621   -3.4509   25.7680 F   0  0  0  0  0  0
  -29.9972  -13.4428   20.3809 N   0  0  0  0  0  0
  -26.2872  -12.9479   20.3156 N   0  0  0  0  0  0
  -25.9287  -11.6621   20.5693 N   0  0  0  0  0  0
  -22.0296  -12.8383   22.0507 N   0  0  0  0  0  0
  -25.4002  -15.2003   20.3977 N   0  0  0  0  0  0
  -31.8860  -14.7071   20.2488 O   0  0  0  0  0  0
  -21.6608   -6.8904   21.4249 O   0  0  0  0  0  0
  -22.3413  -14.5520   20.6674 O   0  0  0  0  0  0
  -24.6184  -31.8662   23.2114 C   0  0  0  0  0  0
  -25.9075  -32.4842   23.8382 C   0  0  1  0  0  0
  -27.2306  -27.3675   20.1470 C   0  0  0  0  0  0
  -25.5922  -33.8631   24.2305 N   0  0  0  0  0  0
  -23.4089  -30.4943   21.5500 C   0  0  2  0  0  0
  -24.8562  -28.9595   20.1140 C   0  0  0  0  0  0
  -22.7418  -29.4671   22.4933 C   0  0  0  0  0  0
  -18.0264  -28.1347   22.8542 C   0  0  0  0  0  0
  -24.1484  -36.7327   23.2619 C   0  0  0  0  0  0
  -25.9407  -30.8263   21.3638 C   0  0  0  0  0  0
  -26.0208  -29.4514   20.7178 C   0  0  0  0  0  0
  -27.2033  -28.6649   20.7344 C   0  0  0  0  0  0
  -26.0472  -26.9214   19.5148 C   0  0  0  0  0  0
  -24.8705  -27.6927   19.5090 C   0  0  0  0  0  0
  -23.6196  -29.8344   20.1620 C   0  0  0  0  0  0
  -25.4114  -36.3137   24.0305 C   0  0  1  0  0  0
  -20.5868  -28.3696   23.1270 C   0  0  2  0  0  0
  -20.6796  -26.9388   22.5473 C   0  0  0  0  0  0
  -19.5757  -26.6277   21.5323 C   0  0  0  0  0  0
  -18.1938  -26.7865   22.1734 C   0  0  0  0  0  0
  -19.1527  -28.8838   23.2919 C   0  0  0  0  0  0
  -18.9431  -30.1426   23.8949 C   0  0  0  0  0  0
  -17.6446  -30.6607   24.0538 C   0  0  0  0  0  0
  -25.9025  -34.9494   23.5107 C   0  0  0  0  0  0
  -16.5329  -29.9099   23.6288 C   0  0  0  0  0  0
  -16.7254  -28.6477   23.0407 C   0  0  0  0  0  0
  -26.4493  -31.6632   25.0725 C   0  0  0  0  0  0
  -25.3735  -31.3801   26.1476 C   0  0  0  0  0  0
  -27.0242  -30.3048   24.6061 C   0  0  0  0  0  0
  -27.6076  -32.4333   25.7537 C   0  0  0  0  0  0
  -27.5581  -37.1826   24.8440 C   0  0  0  0  0  0
  -21.4154  -29.3069   22.3652 N   0  0  0  0  0  0
  -26.4297  -37.3822   23.9373 N   0  0  0  0  0  0
  -24.6762  -31.0707   22.1039 N   0  0  0  0  0  0
  -23.4162  -28.8180   23.2980 O   0  0  0  0  0  0
  -28.3700  -26.5613   20.2685 O   0  0  0  0  0  0
  -26.5573  -34.8941   22.4656 O   0  0  0  0  0  0
  -23.5378  -32.1406   23.7509 O   0  0  0  0  0  0
  -30.3217  -15.9973   23.1142 C   0  0  0  0  0  0
  -30.2948  -16.6880   24.3319 C   0  0  0  0  0  0
  -29.8669  -18.7523   23.1304 C   0  0  0  0  0  0
  -29.9405  -18.1080   21.8708 C   0  0  0  0  0  0
  -30.1171  -16.6567   21.8745 C   0  0  0  0  0  0
  -30.0322  -18.0594   24.3452 C   0  0  0  0  0  0
  -31.0796  -21.7378   21.9022 C   0  0  0  0  0  0
  -31.1787  -21.6695   19.4236 C   0  0  0  0  0  0
  -27.1032  -23.5907   20.0052 C   0  0  0  0  0  0
  -28.8035  -23.2981   18.1755 C   0  0  0  0  0  0
  -29.8499  -19.0078   20.5908 C   0  0  0  0  0  0
  -29.2625  -20.5150   20.6487 C   0  0  0  0  0  0
  -29.5466  -23.2880   20.6495 C   0  0  0  0  0  0
  -28.6722  -25.5047   19.3151 C   0  0  0  0  0  0
  -30.2097  -21.8007   20.6254 C   0  0  0  0  0  0
  -28.5458  -23.9190   19.5739 C   0  0  0  0  0  0
  -29.9619  -15.7569   20.7511 N   0  0  0  0  0  0
  -29.9211  -18.7147   25.5253 F   0  0  0  0  0  0
  -31.4668  -12.5275   19.1315 H   0  0  0  0  0  0
  -30.3710  -11.4100   19.8947 H   0  0  0  0  0  0
  -29.8061  -11.7437   17.4888 H   0  0  0  0  0  0
  -29.6872  -13.4655   17.7328 H   0  0  0  0  0  0
  -27.8209  -11.3312   18.8034 H   0  0  0  0  0  0
  -27.4003  -12.6559   17.7482 H   0  0  0  0  0  0
  -27.6444  -14.2716   19.4938 H   0  0  0  0  0  0
  -28.6824  -12.0876   21.3491 H   0  0  0  0  0  0
  -28.4358  -13.7436   21.8074 H   0  0  0  0  0  0
  -25.2732   -9.5806   22.4711 H   0  0  0  0  0  0
  -24.0021   -7.4687   22.7440 H   0  0  0  0  0  0
  -21.0789   -8.8815   19.8938 H   0  0  0  0  0  0
  -22.3578  -10.9731   19.6162 H   0  0  0  0  0  0
  -21.2001   -7.6159   23.9793 H   0  0  0  0  0  0
  -21.1442   -6.0463   25.9103 H   0  0  0  0  0  0
  -22.0573   -2.7642   23.2752 H   0  0  0  0  0  0
  -22.3772  -12.0158   22.5207 H   0  0  0  0  0  0
  -21.0872  -13.1467   22.2467 H   0  0  0  0  0  0
  -24.6253  -15.8435   20.5293 H   0  0  0  0  0  0
  -26.2317  -15.6565   20.0454 H   0  0  0  0  0  0
  -26.7154  -32.5540   23.1151 H   0  0  0  0  0  0
  -25.0169  -33.9759   25.0531 H   0  0  0  0  0  0
  -22.7014  -31.3146   21.4179 H   0  0  0  0  0  0
  -23.3751  -35.9663   23.3296 H   0  0  0  0  0  0
  -24.3576  -36.8939   22.2039 H   0  0  0  0  0  0
  -23.7221  -37.6520   23.6626 H   0  0  0  0  0  0
  -26.0280  -31.5775   20.5744 H   0  0  0  0  0  0
  -26.8413  -30.9012   21.9636 H   0  0  0  0  0  0
  -28.0936  -29.0391   21.2237 H   0  0  0  0  0  0
  -25.9872  -25.9526   19.0538 H   0  0  0  0  0  0
  -23.9757  -27.2961   19.0476 H   0  0  0  0  0  0
  -23.7337  -30.6197   19.4146 H   0  0  0  0  0  0
  -22.7403  -29.2658   19.8542 H   0  0  0  0  0  0
  -25.1286  -36.2045   25.0793 H   0  0  0  0  0  0
  -21.0011  -28.3386   24.1369 H   0  0  0  0  0  0
  -20.5750  -26.2334   23.3744 H   0  0  0  0  0  0
  -21.6640  -26.7394   22.1238 H   0  0  0  0  0  0
  -19.6904  -25.6150   21.1449 H   0  0  0  0  0  0
  -19.6706  -27.2990   20.6779 H   0  0  0  0  0  0
  -17.4188  -26.6534   21.4163 H   0  0  0  0  0  0
  -18.0374  -26.0044   22.9178 H   0  0  0  0  0  0
  -19.7888  -30.7237   24.2396 H   0  0  0  0  0  0
  -17.4966  -31.6324   24.5063 H   0  0  0  0  0  0
  -15.5335  -30.3067   23.7490 H   0  0  0  0  0  0
  -15.8633  -28.0767   22.7193 H   0  0  0  0  0  0
  -24.5930  -30.7098   25.7854 H   0  0  0  0  0  0
  -24.8886  -32.2983   26.4800 H   0  0  0  0  0  0
  -25.8053  -30.9105   27.0323 H   0  0  0  0  0  0
  -26.2737  -29.6968   24.0988 H   0  0  0  0  0  0
  -27.3851  -29.7151   25.4497 H   0  0  0  0  0  0
  -27.8672  -30.4323   23.9264 H   0  0  0  0  0  0
  -27.2678  -33.3642   26.2108 H   0  0  0  0  0  0
  -28.3945  -32.6885   25.0417 H   0  0  0  0  0  0
  -28.0684  -31.8455   26.5500 H   0  0  0  0  0  0
  -28.2594  -38.0121   24.7496 H   0  0  0  0  0  0
  -28.1070  -36.2652   24.6281 H   0  0  0  0  0  0
  -27.2269  -37.1502   25.8828 H   0  0  0  0  0  0
  -20.9316  -29.8851   21.6922 H   0  0  0  0  0  0
  -26.0209  -38.2879   24.1470 H   0  0  0  0  0  0
  -30.4560  -14.9251   23.1682 H   0  0  0  0  0  0
  -30.4356  -16.1500   25.2578 H   0  0  0  0  0  0
  -29.6656  -19.8084   23.2092 H   0  0  0  0  0  0
  -31.5232  -20.7585   22.0681 H   0  0  0  0  0  0
  -30.4991  -21.9732   22.7959 H   0  0  0  0  0  0
  -31.9055  -22.4455   21.8651 H   0  0  0  0  0  0
  -32.0117  -21.0001   19.6422 H   0  0  0  0  0  0
  -31.6159  -22.6243   19.1266 H   0  0  0  0  0  0
  -30.6717  -21.2527   18.5547 H   0  0  0  0  0  0
  -26.9550  -22.5209   20.1640 H   0  0  0  0  0  0
  -26.3753  -23.8876   19.2498 H   0  0  0  0  0  0
  -26.8468  -24.0993   20.9364 H   0  0  0  0  0  0
  -28.5240  -22.2454   18.1289 H   0  0  0  0  0  0
  -29.8482  -23.3949   17.8720 H   0  0  0  0  0  0
  -28.2337  -23.7873   17.3814 H   0  0  0  0  0  0
  -29.1972  -18.4440   19.9290 H   0  0  0  0  0  0
  -30.8238  -18.9940   20.0953 H   0  0  0  0  0  0
  -28.4934  -20.6084   21.4143 H   0  0  0  0  0  0
  -28.7134  -20.6004   19.7144 H   0  0  0  0  0  0
  -30.3910  -23.9789   20.6557 H   0  0  0  0  0  0
  -29.0805  -23.4402   21.6294 H   0  0  0  0  0  0
  -28.1397  -25.7629   18.3989 H   0  0  0  0  0  0
  -29.7092  -25.6912   19.0401 H   0  0  0  0  0  0
  -29.0093  -15.6861   20.4273 H   0  0  0  0  0  0
  1 25  1  0  0  0
  1 30  2  0  0  0
  1 87  1  0  0  0
  2  3  1  0  0  0
  2 25  1  0  0  0
  2 89  1  0  0  0
  2 90  1  0  0  0
  3  4  1  0  0  0
  3 91  1  0  0  0
  3 92  1  0  0  0
  4  5  1  0  0  0
  4 93  1  0  0  0
  4 94  1  0  0  0
  5  6  1  0  0  0
  5 26  1  0  0  0
  5 95  1  0  0  0
  6 25  1  0  0  0
  6 96  1  0  0  0
  6 97  1  0  0  0
  7  8  2  0  0  0
  7 26  1  0  0  0
  7 29  1  0  0  0
  8  9  1  0  0  0
  8 22  1  0  0  0
  9 10  1  0  0  0
  9 27  2  0  0  0
 10 11  2  0  0  0
 10 15  1  0  0  0
 11 12  1  0  0  0
 11 98  1  0  0  0
 12 13  2  0  0  0
 12 99  1  0  0  0
 13 14  1  0  0  0
 13 31  1  0  0  0
 14 15  2  0  0  0
 14100  1  0  0  0
 15101  1  0  0  0
 16 17  2  0  0  0
 16 21  1  0  0  0
 16 31  1  0  0  0
 17 18  1  0  0  0
 17102  1  0  0  0
 18 19  2  0  0  0
 18103  1  0  0  0
 19 20  1  0  0  0
 19 24  1  0  0  0
 20 21  2  0  0  0
 20104  1  0  0  0
 21 23  1  0  0  0
 22 28  1  0  0  0
 22 32  2  0  0  0
 26 27  1  0  0  0
 28105  1  0  0  0
 28106  1  0  0  0
 29107  1  0  0  0
 29108  1  0  0  0
 33 34  1  0  0  0
 33 66  1  0  0  0
 33 70  2  0  0  0
 34 36  1  0  0  0
 34 59  1  0  0  0
 34109  1  0  0  0
 35 44  2  0  0  0
 35 45  1  0  0  0
 35 68  1  0  0  0
 36 56  1  0  0  0
 36110  1  0  0  0
 37 39  1  0  0  0
 37 47  1  0  0  0
 37 66  1  0  0  0
 37111  1  0  0  0
 38 43  2  0  0  0
 38 46  1  0  0  0
 38 47  1  0  0  0
 39 64  1  0  0  0
 39 67  2  0  0  0
 40 52  1  0  0  0
 40 53  2  0  0  0
 40 58  1  0  0  0
 41112  1  0  0  0
 41113  1  0  0  0
 41114  1  0  0  0
 41 48  1  0  0  0
 42 43  1  0  0  0
 42 66  1  0  0  0
 42115  1  0  0  0
 42116  1  0  0  0
 43 44  1  0  0  0
 44117  1  0  0  0
 45 46  2  0  0  0
 45118  1  0  0  0
 46119  1  0  0  0
 47120  1  0  0  0
 47121  1  0  0  0
 48 56  1  0  0  0
 48 65  1  0  0  0
 48122  1  0  0  0
 49 50  1  0  0  0
 49 53  1  0  0  0
 49 64  1  0  0  0
 49123  1  0  0  0
 50 51  1  0  0  0
 50124  1  0  0  0
 50125  1  0  0  0
 51 52  1  0  0  0
 51126  1  0  0  0
 51127  1  0  0  0
 52128  1  0  0  0
 52129  1  0  0  0
 53 54  1  0  0  0
 54 55  2  0  0  0
 54130  1  0  0  0
 55 57  1  0  0  0
 55131  1  0  0  0
 56 69  2  0  0  0
 57 58  2  0  0  0
 57132  1  0  0  0
 58133  1  0  0  0
 59 60  1  0  0  0
 59 61  1  0  0  0
 59 62  1  0  0  0
 60134  1  0  0  0
 60135  1  0  0  0
 60136  1  0  0  0
 61137  1  0  0  0
 61138  1  0  0  0
 61139  1  0  0  0
 62140  1  0  0  0
 62141  1  0  0  0
 62142  1  0  0  0
 63 65  1  0  0  0
 63143  1  0  0  0
 63144  1  0  0  0
 63145  1  0  0  0
 64146  1  0  0  0
 65147  1  0  0  0
 68 84  1  0  0  0
 71 72  2  0  0  0
 71 75  1  0  0  0
 71148  1  0  0  0
 72 76  1  0  0  0
 72149  1  0  0  0
 73 74  1  0  0  0
 73 76  2  0  0  0
 73150  1  0  0  0
 74 75  2  0  0  0
 74 81  1  0  0  0
 75 87  1  0  0  0
 76 88  1  0  0  0
 77151  1  0  0  0
 77152  1  0  0  0
 77153  1  0  0  0
 77 85  1  0  0  0
 78 85  1  0  0  0
 78154  1  0  0  0
 78155  1  0  0  0
 78156  1  0  0  0
 79157  1  0  0  0
 79158  1  0  0  0
 79159  1  0  0  0
 79 86  1  0  0  0
 80 86  1  0  0  0
 80160  1  0  0  0
 80161  1  0  0  0
 80162  1  0  0  0
 81 82  1  0  0  0
 81163  1  0  0  0
 81164  1  0  0  0
 82 85  1  0  0  0
 82165  1  0  0  0
 82166  1  0  0  0
 83 85  1  0  0  0
 83 86  1  0  0  0
 83167  1  0  0  0
 83168  1  0  0  0
 84 86  1  0  0  0
 84169  1  0  0  0
 84170  1  0  0  0
 87171  1  0  0  0
M  ISO  4   1 100  68 101  84 101  87 100
M  END
> <chiral flag>
0

> <version>
0

> <s_m_source_file>
/data/baiqing/PycharmProjects/Reinvent-master-3.2/result/LINK_invent/BTK/process_docking_weight1_custom_product_contain_oxygen_bond_distance_aromatic_linkinvent_7_9_3/rearranged_h_0137.sdf

> <i_m_source_file_index>
64

> <r_mmod_Potential_Energy-OPLS-2005>
228.76530456543

> <r_mmod_Stretch_Energy-OPLS-2005>
96.6737442016602

> <r_mmod_Bend_Energy-OPLS-2005>
213.302322387695

> <r_mmod_Torsional_Energy-OPLS-2005>
298.046875

> <r_mmod_Improper_Torsional_Energy-OPLS-2005>
8.58871650695801

> <r_mmod_Van_der_Waal_Energy-OPLS-2005>
146.514526367188

> <r_mmod_Electrostatic_Energy-OPLS-2005>
-391.31396484375

> <r_mmod_Solvation_Energy-OPLS-2005>
-189.578109741211

> <b_mmod_Minimization_Converged-OPLS-2005>
0

> <r_mmod_RMS_Derivative-OPLS-2005>
9.41167545318604

$$$$
64
                    3D
 Structure written by MMmdl.
165174  0  0  1  0            999 V2000
  -30.6443  -14.5692   20.5016 C   0  0  0  0  0  0
  -30.4299  -12.3457   19.4531 C   0  0  0  0  0  0
  -29.5075  -12.4929   18.2231 C   0  0  0  0  0  0
  -28.0296  -12.3392   18.6334 C   0  0  0  0  0  0
  -27.6536  -13.2118   19.8620 C   0  0  2  0  0  0
  -28.6929  -13.0427   20.9945 C   0  0  0  0  0  0
  -25.2554  -13.8173   20.5689 C   0  0  0  0  0  0
  -24.1811  -13.0441   20.9183 C   0  0  0  0  0  0
  -24.6376  -11.6907   20.8715 C   0  0  0  0  0  0
  -23.9043  -10.4281   21.0383 C   0  0  0  0  0  0
  -24.3600   -9.4199   21.9160 C   0  0  0  0  0  0
  -23.6275   -8.2232   22.0731 C   0  0  0  0  0  0
  -22.4257   -8.0266   21.3528 C   0  0  0  0  0  0
  -21.9884   -9.0250   20.4651 C   0  0  0  0  0  0
  -22.7207  -10.2126   20.3046 C   0  0  0  0  0  0
  -21.6863   -6.0727   22.5285 C   0  0  0  0  0  0
  -21.4026   -6.5629   23.8223 C   0  0  0  0  0  0
  -21.3650   -5.6775   24.9183 C   0  0  0  0  0  0
  -21.6047   -4.3041   24.7227 C   0  0  0  0  0  0
  -21.8817   -3.8136   23.4346 C   0  0  0  0  0  0
  -21.9192   -4.6952   22.3404 C   0  0  0  0  0  0
  -22.7834  -13.5248   21.1840 C   0  0  0  0  0  0
  -22.1650   -4.2139   21.0973 F   0  0  0  0  0  0
  -21.5618   -3.4524   25.7735 F   0  0  0  0  0  0
  -30.0181  -13.3573   20.4439 N   0  0  0  0  0  0
  -26.2975  -12.9342   20.3280 N   0  0  0  0  0  0
  -25.9300  -11.6500   20.5717 N   0  0  0  0  0  0
  -22.0456  -12.8282   22.0406 N   0  0  0  0  0  0
  -25.4286  -15.1893   20.4175 N   0  0  0  0  0  0
  -31.7981  -14.7271   20.0908 O   0  0  0  0  0  0
  -21.6626   -6.8862   21.4236 O   0  0  0  0  0  0
  -22.3516  -14.5531   20.6660 O   0  0  0  0  0  0
  -24.6212  -31.8618   23.2059 C   0  0  0  0  0  0
  -25.9070  -32.4789   23.8364 C   0  0  1  0  0  0
  -27.2181  -27.3469   20.1018 C   0  0  0  0  0  0
  -25.5893  -33.8594   24.2269 N   0  0  0  0  0  0
  -23.4140  -30.4875   21.5494 C   0  0  2  0  0  0
  -24.8569  -28.9486   20.1120 C   0  0  0  0  0  0
  -22.7436  -29.4631   22.4950 C   0  0  0  0  0  0
  -18.0265  -28.1381   22.8479 C   0  0  0  0  0  0
  -24.1490  -36.7317   23.2641 C   0  0  0  0  0  0
  -25.9541  -30.7995   21.3763 C   0  0  0  0  0  0
  -26.0262  -29.4329   20.7102 C   0  0  0  0  0  0
  -27.2125  -28.6453   20.6927 C   0  0  0  0  0  0
  -26.0220  -26.9054   19.4916 C   0  0  0  0  0  0
  -24.8543  -27.6888   19.4959 C   0  0  0  0  0  0
  -23.6262  -29.8280   20.1627 C   0  0  0  0  0  0
  -25.4113  -36.3100   24.0328 C   0  0  1  0  0  0
  -20.5867  -28.3675   23.1291 C   0  0  2  0  0  0
  -20.6760  -26.9400   22.5427 C   0  0  0  0  0  0
  -19.5750  -26.6384   21.5212 C   0  0  0  0  0  0
  -18.1921  -26.7924   22.1610 C   0  0  0  0  0  0
  -19.1524  -28.8840   23.2881 C   0  0  0  0  0  0
  -18.9455  -30.1444   23.8890 C   0  0  0  0  0  0
  -17.6467  -30.6585   24.0563 C   0  0  0  0  0  0
  -25.9046  -34.9469   23.5108 C   0  0  0  0  0  0
  -16.5349  -29.9092   23.6336 C   0  0  0  0  0  0
  -16.7258  -28.6516   23.0331 C   0  0  0  0  0  0
  -26.4462  -31.6604   25.0740 C   0  0  0  0  0  0
  -25.3725  -31.3786   26.1503 C   0  0  0  0  0  0
  -27.0279  -30.3002   24.6229 C   0  0  0  0  0  0
  -27.6009  -32.4369   25.7494 C   0  0  0  0  0  0
  -27.5583  -37.1811   24.8449 C   0  0  0  0  0  0
  -21.4156  -29.3034   22.3687 N   0  0  0  0  0  0
  -26.4283  -37.3799   23.9411 N   0  0  0  0  0  0
  -24.6820  -31.0643   22.1009 N   0  0  0  0  0  0
  -23.4158  -28.8150   23.3012 O   0  0  0  0  0  0
  -28.3524  -26.5294   20.1303 O   0  0  0  0  0  0
  -26.5633  -34.8939   22.4685 O   0  0  0  0  0  0
  -23.5389  -32.1411   23.7407 O   0  0  0  0  0  0
  -30.1028  -18.4770   18.4161 C   0  0  0  0  0  0
  -30.2636  -17.2062   19.0035 C   0  0  0  0  0  0
  -29.2849  -18.0707   21.0426 C   0  0  0  0  0  0
  -29.5183  -19.5613   19.1099 C   0  0  0  0  0  0
  -29.1366  -19.3787   20.4689 C   0  0  0  0  0  0
  -29.8444  -16.9648   20.3299 C   0  0  0  0  0  0
  -29.2686  -20.8223   18.2657 C   0  0  0  0  0  0
  -28.5595  -22.0399   18.8986 C   0  0  0  0  0  0
  -28.9508  -21.8053   21.3838 C   0  0  0  0  0  0
  -29.3455  -22.5977   20.0995 C   0  0  2  0  0  0
  -30.4308  -24.6423   19.0533 C   0  0  0  0  0  0
  -30.1402  -24.5676   21.5306 C   0  0  0  0  0  0
  -28.1649  -25.0687   20.0499 C   0  0  0  0  0  0
  -29.4776  -24.2004   20.1886 C   0  0  0  0  0  0
  -28.5168  -20.3916   21.2422 N   0  0  0  0  0  0
  -29.8820  -15.6274   20.8992 N   0  0  0  0  0  0
  -31.4742  -12.4517   19.1597 H   0  0  0  0  0  0
  -30.3466  -11.3447   19.8802 H   0  0  0  0  0  0
  -29.7684  -11.7476   17.4699 H   0  0  0  0  0  0
  -29.6595  -13.4667   17.7548 H   0  0  0  0  0  0
  -27.8674  -11.2882   18.8695 H   0  0  0  0  0  0
  -27.3806  -12.5582   17.7849 H   0  0  0  0  0  0
  -27.6829  -14.2490   19.5303 H   0  0  0  0  0  0
  -28.6853  -12.0177   21.3691 H   0  0  0  0  0  0
  -28.4452  -13.6735   21.8496 H   0  0  0  0  0  0
  -25.2750   -9.5691   22.4715 H   0  0  0  0  0  0
  -24.0003   -7.4637   22.7454 H   0  0  0  0  0  0
  -21.0805   -8.8770   19.8985 H   0  0  0  0  0  0
  -22.3646  -10.9658   19.6149 H   0  0  0  0  0  0
  -21.2026   -7.6144   23.9729 H   0  0  0  0  0  0
  -21.1468   -6.0498   25.9080 H   0  0  0  0  0  0
  -22.0606   -2.7600   23.2846 H   0  0  0  0  0  0
  -22.4059  -11.9984   22.4900 H   0  0  0  0  0  0
  -21.1078  -13.1323   22.2572 H   0  0  0  0  0  0
  -24.6704  -15.8481   20.5529 H   0  0  0  0  0  0
  -26.2926  -15.6307   20.1284 H   0  0  0  0  0  0
  -26.7121  -32.5455   23.1097 H   0  0  0  0  0  0
  -24.9972  -33.9737   25.0363 H   0  0  0  0  0  0
  -22.7094  -31.3101   21.4115 H   0  0  0  0  0  0
  -23.3756  -35.9646   23.3295 H   0  0  0  0  0  0
  -24.3576  -36.8954   22.2058 H   0  0  0  0  0  0
  -23.7251  -37.6519   23.6669 H   0  0  0  0  0  0
  -26.0964  -31.5712   20.6184 H   0  0  0  0  0  0
  -26.8298  -30.8323   22.0129 H   0  0  0  0  0  0
  -28.1132  -29.0170   21.1607 H   0  0  0  0  0  0
  -25.9548  -25.9451   19.0048 H   0  0  0  0  0  0
  -23.9566  -27.3107   19.0261 H   0  0  0  0  0  0
  -23.7494  -30.6111   19.4137 H   0  0  0  0  0  0
  -22.7450  -29.2623   19.8533 H   0  0  0  0  0  0
  -25.1303  -36.1957   25.0822 H   0  0  0  0  0  0
  -20.9955  -28.3261   24.1410 H   0  0  0  0  0  0
  -20.5656  -26.2283   23.3621 H   0  0  0  0  0  0
  -21.6629  -26.7444   22.1228 H   0  0  0  0  0  0
  -19.6923  -25.6306   21.1213 H   0  0  0  0  0  0
  -19.6695  -27.3212   20.6760 H   0  0  0  0  0  0
  -17.4201  -26.6661   21.3996 H   0  0  0  0  0  0
  -18.0322  -26.0057   22.9002 H   0  0  0  0  0  0
  -19.7943  -30.7250   24.2238 H   0  0  0  0  0  0
  -17.5037  -31.6257   24.5183 H   0  0  0  0  0  0
  -15.5358  -30.2996   23.7684 H   0  0  0  0  0  0
  -15.8646  -28.0862   22.7017 H   0  0  0  0  0  0
  -24.5854  -30.7160   25.7885 H   0  0  0  0  0  0
  -24.8978  -32.2982   26.4942 H   0  0  0  0  0  0
  -25.8089  -30.8975   27.0267 H   0  0  0  0  0  0
  -26.2847  -29.6787   24.1217 H   0  0  0  0  0  0
  -27.3874  -29.7245   25.4770 H   0  0  0  0  0  0
  -27.8775  -30.4235   23.9508 H   0  0  0  0  0  0
  -27.2549  -33.3621   26.2117 H   0  0  0  0  0  0
  -28.3763  -32.7030   25.0301 H   0  0  0  0  0  0
  -28.0731  -31.8498   26.5375 H   0  0  0  0  0  0
  -28.2610  -38.0103   24.7501 H   0  0  0  0  0  0
  -28.1070  -36.2642   24.6255 H   0  0  0  0  0  0
  -27.2300  -37.1449   25.8849 H   0  0  0  0  0  0
  -20.9308  -29.8770   21.6933 H   0  0  0  0  0  0
  -26.0175  -38.2872   24.1437 H   0  0  0  0  0  0
  -30.4000  -18.6065   17.3845 H   0  0  0  0  0  0
  -30.6711  -16.4097   18.3946 H   0  0  0  0  0  0
  -28.9461  -17.9036   22.0551 H   0  0  0  0  0  0
  -28.6842  -20.5150   17.3975 H   0  0  0  0  0  0
  -30.2320  -21.1437   17.8672 H   0  0  0  0  0  0
  -27.5404  -21.7808   19.1879 H   0  0  0  0  0  0
  -28.4449  -22.7968   18.1247 H   0  0  0  0  0  0
  -28.1324  -22.3333   21.8740 H   0  0  0  0  0  0
  -29.7750  -21.8341   22.0985 H   0  0  0  0  0  0
  -30.3759  -22.2740   19.9398 H   0  0  0  0  0  0
  -31.4165  -24.1846   19.1489 H   0  0  0  0  0  0
  -30.5826  -25.7210   19.0505 H   0  0  0  0  0  0
  -30.0436  -24.3817   18.0683 H   0  0  0  0  0  0
  -31.0368  -23.9735   21.7103 H   0  0  0  0  0  0
  -29.4594  -24.4028   22.3657 H   0  0  0  0  0  0
  -30.4326  -25.6179   21.5613 H   0  0  0  0  0  0
  -27.4522  -24.7653   20.8189 H   0  0  0  0  0  0
  -27.7186  -24.8167   19.0885 H   0  0  0  0  0  0
  -28.0388  -20.0436   22.0715 H   0  0  0  0  0  0
  -29.0851  -15.3815   21.4667 H   0  0  0  0  0  0
  1 25  1  0  0  0
  1 30  2  0  0  0
  1 86  1  0  0  0
  2  3  1  0  0  0
  2 25  1  0  0  0
  2 87  1  0  0  0
  2 88  1  0  0  0
  3  4  1  0  0  0
  3 89  1  0  0  0
  3 90  1  0  0  0
  4  5  1  0  0  0
  4 91  1  0  0  0
  4 92  1  0  0  0
  5  6  1  0  0  0
  5 26  1  0  0  0
  5 93  1  0  0  0
  6 25  1  0  0  0
  6 94  1  0  0  0
  6 95  1  0  0  0
  7  8  2  0  0  0
  7 26  1  0  0  0
  7 29  1  0  0  0
  8  9  1  0  0  0
  8 22  1  0  0  0
  9 10  1  0  0  0
  9 27  2  0  0  0
 10 11  2  0  0  0
 10 15  1  0  0  0
 11 12  1  0  0  0
 11 96  1  0  0  0
 12 13  2  0  0  0
 12 97  1  0  0  0
 13 14  1  0  0  0
 13 31  1  0  0  0
 14 15  2  0  0  0
 14 98  1  0  0  0
 15 99  1  0  0  0
 16 17  2  0  0  0
 16 21  1  0  0  0
 16 31  1  0  0  0
 17 18  1  0  0  0
 17100  1  0  0  0
 18 19  2  0  0  0
 18101  1  0  0  0
 19 20  1  0  0  0
 19 24  1  0  0  0
 20 21  2  0  0  0
 20102  1  0  0  0
 21 23  1  0  0  0
 22 28  1  0  0  0
 22 32  2  0  0  0
 26 27  1  0  0  0
 28103  1  0  0  0
 28104  1  0  0  0
 29105  1  0  0  0
 29106  1  0  0  0
 33 34  1  0  0  0
 33 66  1  0  0  0
 33 70  2  0  0  0
 34 36  1  0  0  0
 34 59  1  0  0  0
 34107  1  0  0  0
 35 44  2  0  0  0
 35 45  1  0  0  0
 35 68  1  0  0  0
 36 56  1  0  0  0
 36108  1  0  0  0
 37 39  1  0  0  0
 37 47  1  0  0  0
 37 66  1  0  0  0
 37109  1  0  0  0
 38 43  2  0  0  0
 38 46  1  0  0  0
 38 47  1  0  0  0
 39 64  1  0  0  0
 39 67  2  0  0  0
 40 52  1  0  0  0
 40 53  2  0  0  0
 40 58  1  0  0  0
 41110  1  0  0  0
 41111  1  0  0  0
 41112  1  0  0  0
 41 48  1  0  0  0
 42 43  1  0  0  0
 42 66  1  0  0  0
 42113  1  0  0  0
 42114  1  0  0  0
 43 44  1  0  0  0
 44115  1  0  0  0
 45 46  2  0  0  0
 45116  1  0  0  0
 46117  1  0  0  0
 47118  1  0  0  0
 47119  1  0  0  0
 48 56  1  0  0  0
 48 65  1  0  0  0
 48120  1  0  0  0
 49 50  1  0  0  0
 49 53  1  0  0  0
 49 64  1  0  0  0
 49121  1  0  0  0
 50 51  1  0  0  0
 50122  1  0  0  0
 50123  1  0  0  0
 51 52  1  0  0  0
 51124  1  0  0  0
 51125  1  0  0  0
 52126  1  0  0  0
 52127  1  0  0  0
 53 54  1  0  0  0
 54 55  2  0  0  0
 54128  1  0  0  0
 55 57  1  0  0  0
 55129  1  0  0  0
 56 69  2  0  0  0
 57 58  2  0  0  0
 57130  1  0  0  0
 58131  1  0  0  0
 59 60  1  0  0  0
 59 61  1  0  0  0
 59 62  1  0  0  0
 60132  1  0  0  0
 60133  1  0  0  0
 60134  1  0  0  0
 61135  1  0  0  0
 61136  1  0  0  0
 61137  1  0  0  0
 62138  1  0  0  0
 62139  1  0  0  0
 62140  1  0  0  0
 63 65  1  0  0  0
 63141  1  0  0  0
 63142  1  0  0  0
 63143  1  0  0  0
 64144  1  0  0  0
 65145  1  0  0  0
 68 83  1  0  0  0
 71 72  2  0  0  0
 71 74  1  0  0  0
 71146  1  0  0  0
 72 76  1  0  0  0
 72147  1  0  0  0
 73 75  1  0  0  0
 73 76  2  0  0  0
 73148  1  0  0  0
 74 75  2  0  0  0
 74 77  1  0  0  0
 75 85  1  0  0  0
 76 86  1  0  0  0
 77 78  1  0  0  0
 77149  1  0  0  0
 77150  1  0  0  0
 78151  1  0  0  0
 78152  1  0  0  0
 78 80  1  0  0  0
 79 80  1  0  0  0
 79 85  1  0  0  0
 79153  1  0  0  0
 79154  1  0  0  0
 80 84  1  0  0  0
 80155  1  0  0  0
 81156  1  0  0  0
 81157  1  0  0  0
 81158  1  0  0  0
 81 84  1  0  0  0
 82 84  1  0  0  0
 82159  1  0  0  0
 82160  1  0  0  0
 82161  1  0  0  0
 83 84  1  0  0  0
 83162  1  0  0  0
 83163  1  0  0  0
 85164  1  0  0  0
 86165  1  0  0  0
M  ISO  4   1 100  68 101  83 101  86 100
M  END
> <chiral flag>
0

> <version>
0

> <s_m_source_file>
/data/baiqing/PycharmProjects/Reinvent-master-3.2/result/LINK_invent/BTK/process_docking_weight1_custom_product_contain_oxygen_bond_distance_aromatic_linkinvent_7_9_3/rearranged_h_0137.sdf

> <i_m_source_file_index>
65

> <r_mmod_Potential_Energy-OPLS-2005>
115.71509552002

> <r_mmod_Stretch_Energy-OPLS-2005>
68.6597213745117

> <r_mmod_Bend_Energy-OPLS-2005>
159.654525756836

> <r_mmod_Torsional_Energy-OPLS-2005>
275.059722900391

> <r_mmod_Improper_Torsional_Energy-OPLS-2005>
7.10036849975586

> <r_mmod_Van_der_Waal_Energy-OPLS-2005>
157.61865234375

> <r_mmod_Electrostatic_Energy-OPLS-2005>
-371.440277099609

> <r_mmod_Solvation_Energy-OPLS-2005>
-214.202163696289

> <b_mmod_Minimization_Converged-OPLS-2005>
0

> <r_mmod_RMS_Derivative-OPLS-2005>
3.06249761581421

$$$$
65
                    3D
 Structure written by MMmdl.
162170  0  0  1  0            999 V2000
  -30.6875  -14.5053   20.5632 C   0  0  0  0  0  0
  -30.4361  -12.3223   19.4355 C   0  0  0  0  0  0
  -29.5077  -12.5017   18.2145 C   0  0  0  0  0  0
  -28.0280  -12.3557   18.6230 C   0  0  0  0  0  0
  -27.6650  -13.2021   19.8742 C   0  0  2  0  0  0
  -28.7081  -12.9969   20.9971 C   0  0  0  0  0  0
  -25.2622  -13.8154   20.5640 C   0  0  0  0  0  0
  -24.1857  -13.0451   20.9146 C   0  0  0  0  0  0
  -24.6396  -11.6917   20.8712 C   0  0  0  0  0  0
  -23.9065  -10.4310   21.0386 C   0  0  0  0  0  0
  -24.3627   -9.4234   21.9172 C   0  0  0  0  0  0
  -23.6312   -8.2265   22.0764 C   0  0  0  0  0  0
  -22.4294   -8.0280   21.3544 C   0  0  0  0  0  0
  -21.9912   -9.0247   20.4648 C   0  0  0  0  0  0
  -22.7234  -10.2137   20.3050 C   0  0  0  0  0  0
  -21.6865   -6.0733   22.5275 C   0  0  0  0  0  0
  -21.4006   -6.5639   23.8207 C   0  0  0  0  0  0
  -21.3658   -5.6791   24.9167 C   0  0  0  0  0  0
  -21.6055   -4.3051   24.7210 C   0  0  0  0  0  0
  -21.8833   -3.8144   23.4327 C   0  0  0  0  0  0
  -21.9204   -4.6964   22.3384 C   0  0  0  0  0  0
  -22.7886  -13.5271   21.1791 C   0  0  0  0  0  0
  -22.1673   -4.2167   21.0960 F   0  0  0  0  0  0
  -21.5639   -3.4524   25.7705 F   0  0  0  0  0  0
  -30.0367  -13.3130   20.4479 N   0  0  0  0  0  0
  -26.3046  -12.9305   20.3340 N   0  0  0  0  0  0
  -25.9329  -11.6474   20.5754 N   0  0  0  0  0  0
  -22.0521  -12.8269   22.0348 N   0  0  0  0  0  0
  -25.4352  -15.1865   20.3977 N   0  0  0  0  0  0
  -31.8210  -14.6883   20.1075 O   0  0  0  0  0  0
  -21.6668   -6.8870   21.4232 O   0  0  0  0  0  0
  -22.3565  -14.5566   20.6628 O   0  0  0  0  0  0
  -24.6149  -31.8678   23.2078 C   0  0  0  0  0  0
  -25.9042  -32.4822   23.8378 C   0  0  1  0  0  0
  -27.2447  -27.4347   20.0903 C   0  0  0  0  0  0
  -25.5891  -33.8617   24.2325 N   0  0  0  0  0  0
  -23.4032  -30.4893   21.5488 C   0  0  2  0  0  0
  -24.8484  -28.9503   20.1168 C   0  0  0  0  0  0
  -22.7420  -29.4656   22.4996 C   0  0  0  0  0  0
  -18.0281  -28.1378   22.8495 C   0  0  0  0  0  0
  -24.1488  -36.7325   23.2638 C   0  0  0  0  0  0
  -25.9302  -30.8346   21.3567 C   0  0  0  0  0  0
  -26.0079  -29.4656   20.7081 C   0  0  0  0  0  0
  -27.2052  -28.7163   20.6883 C   0  0  0  0  0  0
  -26.0584  -26.9258   19.5071 C   0  0  0  0  0  0
  -24.8684  -27.6793   19.5158 C   0  0  0  0  0  0
  -23.6109  -29.8178   20.1647 C   0  0  0  0  0  0
  -25.4106  -36.3117   24.0343 C   0  0  1  0  0  0
  -20.5869  -28.3657   23.1329 C   0  0  2  0  0  0
  -20.6763  -26.9395   22.5419 C   0  0  0  0  0  0
  -19.5744  -26.6396   21.5214 C   0  0  0  0  0  0
  -18.1929  -26.7929   22.1632 C   0  0  0  0  0  0
  -19.1526  -28.8831   23.2911 C   0  0  0  0  0  0
  -18.9452  -30.1441   23.8914 C   0  0  0  0  0  0
  -17.6450  -30.6583   24.0562 C   0  0  0  0  0  0
  -25.9033  -34.9475   23.5140 C   0  0  0  0  0  0
  -16.5343  -29.9082   23.6318 C   0  0  0  0  0  0
  -16.7266  -28.6502   23.0334 C   0  0  0  0  0  0
  -26.4456  -31.6583   25.0696 C   0  0  0  0  0  0
  -25.3721  -31.3686   26.1441 C   0  0  0  0  0  0
  -27.0273  -30.3027   24.6051 C   0  0  0  0  0  0
  -27.6058  -32.4276   25.7458 C   0  0  0  0  0  0
  -27.5590  -37.1809   24.8468 C   0  0  0  0  0  0
  -21.4144  -29.3031   22.3738 N   0  0  0  0  0  0
  -26.4299  -37.3800   23.9421 N   0  0  0  0  0  0
  -24.6683  -31.0781   22.0971 N   0  0  0  0  0  0
  -23.4191  -28.8211   23.3047 O   0  0  0  0  0  0
  -28.4415  -26.7456   20.1013 O   0  0  0  0  0  0
  -26.5599  -34.8926   22.4702 O   0  0  0  0  0  0
  -23.5344  -32.1412   23.7471 O   0  0  0  0  0  0
  -29.1729  -19.1089   20.2752 C   0  0  0  0  0  0
  -31.5114  -18.9595   20.8808 C   0  0  0  0  0  0
  -29.0293  -17.7173   20.4955 C   0  0  0  0  0  0
  -31.3752  -17.5681   21.1000 C   0  0  0  0  0  0
  -30.4197  -19.7516   20.4510 C   0  0  0  0  0  0
  -30.1352  -16.9227   20.8819 C   0  0  0  0  0  0
  -30.6233  -21.1980   20.1142 C   0  0  0  0  0  0
  -30.9627  -25.9119   20.0023 C   0  0  0  0  0  0
  -30.2996  -24.2179   18.3301 C   0  0  0  0  0  0
  -29.5760  -22.2400   20.5655 C   0  0  0  0  0  0
  -30.1113  -23.6889   20.8352 C   0  0  0  0  0  0
  -28.4896  -25.3736   19.6788 C   0  0  0  0  0  0
  -29.9412  -24.7826   19.7194 C   0  0  0  0  0  0
  -31.6667  -21.5617   19.4967 N   0  0  0  0  0  0
  -29.9518  -15.5149   21.0805 N   0  0  0  0  0  0
  -31.4804  -12.4314   19.1420 H   0  0  0  0  0  0
  -30.3454  -11.3124   19.8427 H   0  0  0  0  0  0
  -29.7573  -11.7679   17.4456 H   0  0  0  0  0  0
  -29.6723  -13.4822   17.7653 H   0  0  0  0  0  0
  -27.8527  -11.2981   18.8290 H   0  0  0  0  0  0
  -27.3778  -12.6127   17.7855 H   0  0  0  0  0  0
  -27.7052  -14.2474   19.5697 H   0  0  0  0  0  0
  -28.6952  -11.9607   21.3381 H   0  0  0  0  0  0
  -28.4665  -13.5955   21.8766 H   0  0  0  0  0  0
  -25.2792   -9.5732   22.4709 H   0  0  0  0  0  0
  -24.0042   -7.4685   22.7490 H   0  0  0  0  0  0
  -21.0846   -8.8756   19.8962 H   0  0  0  0  0  0
  -22.3692  -10.9661   19.6149 H   0  0  0  0  0  0
  -21.1986   -7.6150   23.9700 H   0  0  0  0  0  0
  -21.1474   -6.0520   25.9075 H   0  0  0  0  0  0
  -22.0613   -2.7606   23.2818 H   0  0  0  0  0  0
  -22.4145  -11.9972   22.4803 H   0  0  0  0  0  0
  -21.1125  -13.1290   22.2495 H   0  0  0  0  0  0
  -24.6666  -15.8410   20.4894 H   0  0  0  0  0  0
  -26.2754  -15.6167   20.0328 H   0  0  0  0  0  0
  -26.7121  -32.5532   23.1152 H   0  0  0  0  0  0
  -24.9997  -33.9765   25.0436 H   0  0  0  0  0  0
  -22.6913  -31.3057   21.4068 H   0  0  0  0  0  0
  -23.3753  -35.9656   23.3288 H   0  0  0  0  0  0
  -24.3590  -36.8943   22.2056 H   0  0  0  0  0  0
  -23.7222  -37.6523   23.6646 H   0  0  0  0  0  0
  -26.0318  -31.5982   20.5838 H   0  0  0  0  0  0
  -26.8231  -30.8947   21.9681 H   0  0  0  0  0  0
  -28.1052  -29.1161   21.1331 H   0  0  0  0  0  0
  -26.0320  -25.9510   19.0442 H   0  0  0  0  0  0
  -23.9730  -27.2728   19.0650 H   0  0  0  0  0  0
  -23.7193  -30.5884   19.4021 H   0  0  0  0  0  0
  -22.7350  -29.2361   19.8724 H   0  0  0  0  0  0
  -25.1278  -36.1984   25.0836 H   0  0  0  0  0  0
  -20.9955  -28.3208   24.1452 H   0  0  0  0  0  0
  -20.5668  -26.2263   23.3598 H   0  0  0  0  0  0
  -21.6634  -26.7443   22.1206 H   0  0  0  0  0  0
  -19.6898  -25.6312   21.1229 H   0  0  0  0  0  0
  -19.6683  -27.3219   20.6755 H   0  0  0  0  0  0
  -17.4196  -26.6684   21.4032 H   0  0  0  0  0  0
  -18.0320  -26.0058   22.9016 H   0  0  0  0  0  0
  -19.7919  -30.7263   24.2297 H   0  0  0  0  0  0
  -17.4995  -31.6264   24.5164 H   0  0  0  0  0  0
  -15.5338  -30.2987   23.7623 H   0  0  0  0  0  0
  -15.8675  -28.0831   22.7022 H   0  0  0  0  0  0
  -24.5935  -30.6978   25.7784 H   0  0  0  0  0  0
  -24.8845  -32.2821   26.4853 H   0  0  0  0  0  0
  -25.8068  -30.8895   27.0222 H   0  0  0  0  0  0
  -26.2798  -29.6799   24.1120 H   0  0  0  0  0  0
  -27.4061  -29.7251   25.4496 H   0  0  0  0  0  0
  -27.8625  -30.4359   23.9175 H   0  0  0  0  0  0
  -27.2734  -33.3610   26.2019 H   0  0  0  0  0  0
  -28.3882  -32.6767   25.0274 H   0  0  0  0  0  0
  -28.0695  -31.8376   26.5372 H   0  0  0  0  0  0
  -28.2608  -38.0108   24.7524 H   0  0  0  0  0  0
  -28.1083  -36.2637   24.6278 H   0  0  0  0  0  0
  -27.2307  -37.1444   25.8871 H   0  0  0  0  0  0
  -20.9298  -29.8746   21.6952 H   0  0  0  0  0  0
  -26.0191  -38.2888   24.1405 H   0  0  0  0  0  0
  -28.3223  -19.6819   19.9315 H   0  0  0  0  0  0
  -32.4776  -19.4205   21.0333 H   0  0  0  0  0  0
  -28.0611  -17.2639   20.3312 H   0  0  0  0  0  0
  -32.2347  -17.0017   21.4328 H   0  0  0  0  0  0
  -31.9918  -25.5539   19.9574 H   0  0  0  0  0  0
  -30.8176  -26.3502   20.9895 H   0  0  0  0  0  0
  -30.8778  -26.7185   19.2717 H   0  0  0  0  0  0
  -31.3338  -23.8777   18.2981 H   0  0  0  0  0  0
  -30.1946  -24.9734   17.5510 H   0  0  0  0  0  0
  -29.6627  -23.3792   18.0517 H   0  0  0  0  0  0
  -29.1497  -21.8723   21.5003 H   0  0  0  0  0  0
  -28.7431  -22.2598   19.8628 H   0  0  0  0  0  0
  -31.1612  -23.6229   21.1243 H   0  0  0  0  0  0
  -29.6228  -24.0678   21.7345 H   0  0  0  0  0  0
  -27.8159  -24.7800   20.2962 H   0  0  0  0  0  0
  -28.1090  -25.3146   18.6586 H   0  0  0  0  0  0
  -32.2610  -20.7732   19.2673 H   0  0  0  0  0  0
  -29.0349  -15.2312   21.3886 H   0  0  0  0  0  0
  1 25  1  0  0  0
  1 30  2  0  0  0
  1 85  1  0  0  0
  2  3  1  0  0  0
  2 25  1  0  0  0
  2 86  1  0  0  0
  2 87  1  0  0  0
  3  4  1  0  0  0
  3 88  1  0  0  0
  3 89  1  0  0  0
  4  5  1  0  0  0
  4 90  1  0  0  0
  4 91  1  0  0  0
  5  6  1  0  0  0
  5 26  1  0  0  0
  5 92  1  0  0  0
  6 25  1  0  0  0
  6 93  1  0  0  0
  6 94  1  0  0  0
  7  8  2  0  0  0
  7 26  1  0  0  0
  7 29  1  0  0  0
  8  9  1  0  0  0
  8 22  1  0  0  0
  9 10  1  0  0  0
  9 27  2  0  0  0
 10 11  2  0  0  0
 10 15  1  0  0  0
 11 12  1  0  0  0
 11 95  1  0  0  0
 12 13  2  0  0  0
 12 96  1  0  0  0
 13 14  1  0  0  0
 13 31  1  0  0  0
 14 15  2  0  0  0
 14 97  1  0  0  0
 15 98  1  0  0  0
 16 17  2  0  0  0
 16 21  1  0  0  0
 16 31  1  0  0  0
 17 18  1  0  0  0
 17 99  1  0  0  0
 18 19  2  0  0  0
 18100  1  0  0  0
 19 20  1  0  0  0
 19 24  1  0  0  0
 20 21  2  0  0  0
 20101  1  0  0  0
 21 23  1  0  0  0
 22 28  1  0  0  0
 22 32  2  0  0  0
 26 27  1  0  0  0
 28102  1  0  0  0
 28103  1  0  0  0
 29104  1  0  0  0
 29105  1  0  0  0
 33 34  1  0  0  0
 33 66  1  0  0  0
 33 70  2  0  0  0
 34 36  1  0  0  0
 34 59  1  0  0  0
 34106  1  0  0  0
 35 44  2  0  0  0
 35 45  1  0  0  0
 35 68  1  0  0  0
 36 56  1  0  0  0
 36107  1  0  0  0
 37 39  1  0  0  0
 37 47  1  0  0  0
 37 66  1  0  0  0
 37108  1  0  0  0
 38 43  2  0  0  0
 38 46  1  0  0  0
 38 47  1  0  0  0
 39 64  1  0  0  0
 39 67  2  0  0  0
 40 52  1  0  0  0
 40 53  2  0  0  0
 40 58  1  0  0  0
 41109  1  0  0  0
 41110  1  0  0  0
 41111  1  0  0  0
 41 48  1  0  0  0
 42 43  1  0  0  0
 42 66  1  0  0  0
 42112  1  0  0  0
 42113  1  0  0  0
 43 44  1  0  0  0
 44114  1  0  0  0
 45 46  2  0  0  0
 45115  1  0  0  0
 46116  1  0  0  0
 47117  1  0  0  0
 47118  1  0  0  0
 48 56  1  0  0  0
 48 65  1  0  0  0
 48119  1  0  0  0
 49 50  1  0  0  0
 49 53  1  0  0  0
 49 64  1  0  0  0
 49120  1  0  0  0
 50 51  1  0  0  0
 50121  1  0  0  0
 50122  1  0  0  0
 51 52  1  0  0  0
 51123  1  0  0  0
 51124  1  0  0  0
 52125  1  0  0  0
 52126  1  0  0  0
 53 54  1  0  0  0
 54 55  2  0  0  0
 54127  1  0  0  0
 55 57  1  0  0  0
 55128  1  0  0  0
 56 69  2  0  0  0
 57 58  2  0  0  0
 57129  1  0  0  0
 58130  1  0  0  0
 59 60  1  0  0  0
 59 61  1  0  0  0
 59 62  1  0  0  0
 60131  1  0  0  0
 60132  1  0  0  0
 60133  1  0  0  0
 61134  1  0  0  0
 61135  1  0  0  0
 61136  1  0  0  0
 62137  1  0  0  0
 62138  1  0  0  0
 62139  1  0  0  0
 63 65  1  0  0  0
 63140  1  0  0  0
 63141  1  0  0  0
 63142  1  0  0  0
 64143  1  0  0  0
 65144  1  0  0  0
 68 82  1  0  0  0
 71 73  2  0  0  0
 71 75  1  0  0  0
 71145  1  0  0  0
 72 74  1  0  0  0
 72 75  2  0  0  0
 72146  1  0  0  0
 73 76  1  0  0  0
 73147  1  0  0  0
 74 76  2  0  0  0
 74148  1  0  0  0
 75 77  1  0  0  0
 76 85  1  0  0  0
 77 80  1  0  0  0
 77 84  2  0  0  0
 78149  1  0  0  0
 78150  1  0  0  0
 78151  1  0  0  0
 78 83  1  0  0  0
 79 83  1  0  0  0
 79152  1  0  0  0
 79153  1  0  0  0
 79154  1  0  0  0
 80 81  1  0  0  0
 80155  1  0  0  0
 80156  1  0  0  0
 81 83  1  0  0  0
 81157  1  0  0  0
 81158  1  0  0  0
 82 83  1  0  0  0
 82159  1  0  0  0
 82160  1  0  0  0
 84161  1  0  0  0
 85162  1  0  0  0
M  ISO  4   1 100  68 101  82 101  85 100
M  END
> <chiral flag>
0

> <version>
0

> <s_m_source_file>
/data/baiqing/PycharmProjects/Reinvent-master-3.2/result/LINK_invent/BTK/process_docking_weight1_custom_product_contain_oxygen_bond_distance_aromatic_linkinvent_7_9_3/rearranged_h_0137.sdf

> <i_m_source_file_index>
66

> <r_mmod_Potential_Energy-OPLS-2005>
0.0560380332171917

> <r_mmod_Stretch_Energy-OPLS-2005>
45.2573623657227

> <r_mmod_Bend_Energy-OPLS-2005>
111.20280456543

> <r_mmod_Torsional_Energy-OPLS-2005>
254.95539855957

> <r_mmod_Improper_Torsional_Energy-OPLS-2005>
4.7180643081665

> <r_mmod_Van_der_Waal_Energy-OPLS-2005>
163.402450561523

> <r_mmod_Electrostatic_Energy-OPLS-2005>
-386.159759521484

> <r_mmod_Solvation_Energy-OPLS-2005>
-208.218276977539

> <b_mmod_Minimization_Converged-OPLS-2005>
0

> <r_mmod_RMS_Derivative-OPLS-2005>
3.02592587471008

$$$$
66
                    3D
 Structure written by MMmdl.
163171  0  0  1  0            999 V2000
  -30.5742  -14.7944   20.4375 C   0  0  0  0  0  0
  -30.4418  -12.4725   19.4984 C   0  0  0  0  0  0
  -29.5198  -12.4724   18.2569 C   0  0  0  0  0  0
  -28.0402  -12.3246   18.6634 C   0  0  0  0  0  0
  -27.6428  -13.2273   19.8625 C   0  0  2  0  0  0
  -28.6866  -13.1731   20.9987 C   0  0  0  0  0  0
  -25.2519  -13.8175   20.5710 C   0  0  0  0  0  0
  -24.1808  -13.0431   20.9222 C   0  0  0  0  0  0
  -24.6398  -11.6907   20.8780 C   0  0  0  0  0  0
  -23.9070  -10.4284   21.0435 C   0  0  0  0  0  0
  -24.3622   -9.4195   21.9209 C   0  0  0  0  0  0
  -23.6291   -8.2234   22.0767 C   0  0  0  0  0  0
  -22.4271   -8.0281   21.3550 C   0  0  0  0  0  0
  -21.9915   -9.0259   20.4654 C   0  0  0  0  0  0
  -22.7246  -10.2139   20.3074 C   0  0  0  0  0  0
  -21.6851   -6.0737   22.5279 C   0  0  0  0  0  0
  -21.4009   -6.5640   23.8207 C   0  0  0  0  0  0
  -21.3658   -5.6793   24.9173 C   0  0  0  0  0  0
  -21.6044   -4.3054   24.7223 C   0  0  0  0  0  0
  -21.8814   -3.8147   23.4340 C   0  0  0  0  0  0
  -21.9191   -4.6966   22.3400 C   0  0  0  0  0  0
  -22.7823  -13.5228   21.1859 C   0  0  0  0  0  0
  -22.1661   -4.2150   21.0978 F   0  0  0  0  0  0
  -21.5632   -3.4539   25.7737 F   0  0  0  0  0  0
  -29.9836  -13.5438   20.4199 N   0  0  0  0  0  0
  -26.2954  -12.9369   20.3359 N   0  0  0  0  0  0
  -25.9335  -11.6521   20.5826 N   0  0  0  0  0  0
  -22.0457  -12.8232   22.0414 N   0  0  0  0  0  0
  -25.4220  -15.1901   20.4101 N   0  0  0  0  0  0
  -31.7480  -14.9068   20.0708 O   0  0  0  0  0  0
  -21.6634   -6.8885   21.4240 O   0  0  0  0  0  0
  -22.3527  -14.5535   20.6703 O   0  0  0  0  0  0
  -24.6335  -31.8554   23.2017 C   0  0  0  0  0  0
  -25.9157  -32.4758   23.8352 C   0  0  1  0  0  0
  -27.2060  -27.2317   20.1627 C   0  0  0  0  0  0
  -25.5933  -33.8556   24.2258 N   0  0  0  0  0  0
  -23.4303  -30.4768   21.5475 C   0  0  2  0  0  0
  -24.8753  -28.9172   20.1195 C   0  0  0  0  0  0
  -22.7527  -29.4602   22.4972 C   0  0  0  0  0  0
  -18.0344  -28.1343   22.8510 C   0  0  0  0  0  0
  -24.1489  -36.7281   23.2642 C   0  0  0  0  0  0
  -25.9773  -30.7551   21.3903 C   0  0  0  0  0  0
  -26.0447  -29.3721   20.7428 C   0  0  0  0  0  0
  -27.2123  -28.5390   20.7596 C   0  0  0  0  0  0
  -26.0417  -26.8810   19.4552 C   0  0  0  0  0  0
  -24.8790  -27.6769   19.4633 C   0  0  0  0  0  0
  -23.6489  -29.8096   20.1642 C   0  0  0  0  0  0
  -25.4117  -36.3076   24.0329 C   0  0  1  0  0  0
  -20.5934  -28.3681   23.1320 C   0  0  2  0  0  0
  -20.6840  -26.9414   22.5420 C   0  0  0  0  0  0
  -19.5820  -26.6442   21.5195 C   0  0  0  0  0  0
  -18.2009  -26.7898   22.1634 C   0  0  0  0  0  0
  -19.1581  -28.8827   23.2909 C   0  0  0  0  0  0
  -18.9488  -30.1433   23.8903 C   0  0  0  0  0  0
  -17.6483  -30.6569   24.0520 C   0  0  0  0  0  0
  -25.9057  -34.9441   23.5098 C   0  0  0  0  0  0
  -16.5387  -29.9041   23.6302 C   0  0  0  0  0  0
  -16.7327  -28.6438   23.0380 C   0  0  0  0  0  0
  -26.4507  -31.6591   25.0749 C   0  0  0  0  0  0
  -25.3717  -31.3745   26.1459 C   0  0  0  0  0  0
  -27.0355  -30.3003   24.6256 C   0  0  0  0  0  0
  -27.6056  -32.4345   25.7514 C   0  0  0  0  0  0
  -27.5576  -37.1792   24.8465 C   0  0  0  0  0  0
  -21.4237  -29.3044   22.3723 N   0  0  0  0  0  0
  -26.4295  -37.3770   23.9408 N   0  0  0  0  0  0
  -24.6995  -31.0500   22.1010 N   0  0  0  0  0  0
  -23.4223  -28.8132   23.3062 O   0  0  0  0  0  0
  -28.2973  -26.3318   20.1554 O   0  0  0  0  0  0
  -26.5640  -34.8921   22.4673 O   0  0  0  0  0  0
  -23.5487  -32.1377   23.7313 O   0  0  0  0  0  0
  -29.1473  -18.6083   18.0873 C   0  0  0  0  0  0
  -29.0436  -19.8060   18.8140 C   0  0  0  0  0  0
  -29.5780  -18.5511   20.8239 C   0  0  0  0  0  0
  -29.4565  -17.3717   18.6969 C   0  0  0  0  0  0
  -29.6685  -17.2733   20.1040 C   0  0  0  0  0  0
  -29.2738  -19.8437   20.1971 C   0  0  0  0  0  0
  -29.5041  -16.1678   17.7758 C   0  0  0  0  0  0
  -25.4526  -22.8942   19.1404 C   0  0  0  0  0  0
  -28.3132  -23.5332   18.7161 C   0  0  0  0  0  0
  -26.2512  -23.5742   20.2697 C   0  0  0  0  0  0
  -28.2896  -24.9666   20.8352 C   0  0  0  0  0  0
  -28.1440  -22.0636   20.8767 C   0  0  0  0  0  0
  -27.8172  -23.5368   20.1739 C   0  0  2  0  0  0
  -29.7957  -15.9158   20.7434 N   0  0  0  0  0  0
  -29.3226  -21.1420   20.8006 O   0  0  0  0  0  0
  -31.4793  -12.6095   19.1894 H   0  0  0  0  0  0
  -30.4090  -11.5035   19.9999 H   0  0  0  0  0  0
  -29.7975  -11.6578   17.5870 H   0  0  0  0  0  0
  -29.6657  -13.3866   17.6839 H   0  0  0  0  0  0
  -27.8831  -11.2788   18.9304 H   0  0  0  0  0  0
  -27.3890  -12.5196   17.8103 H   0  0  0  0  0  0
  -27.6257  -14.2486   19.4911 H   0  0  0  0  0  0
  -28.7324  -12.1741   21.4366 H   0  0  0  0  0  0
  -28.4117  -13.8482   21.8099 H   0  0  0  0  0  0
  -25.2768   -9.5657   22.4796 H   0  0  0  0  0  0
  -23.9985   -7.4618   22.7486 H   0  0  0  0  0  0
  -21.0841   -8.8783   19.8962 H   0  0  0  0  0  0
  -22.3709  -10.9685   19.6187 H   0  0  0  0  0  0
  -21.1994   -7.6148   23.9705 H   0  0  0  0  0  0
  -21.1495   -6.0533   25.9075 H   0  0  0  0  0  0
  -22.0596   -2.7609   23.2842 H   0  0  0  0  0  0
  -22.4061  -11.9893   22.4805 H   0  0  0  0  0  0
  -21.1094  -13.1295   22.2635 H   0  0  0  0  0  0
  -24.6491  -15.8404   20.5022 H   0  0  0  0  0  0
  -26.2715  -15.6290   20.0797 H   0  0  0  0  0  0
  -26.7214  -32.5404   23.1087 H   0  0  0  0  0  0
  -25.0048  -33.9675   25.0382 H   0  0  0  0  0  0
  -22.7278  -31.3005   21.4029 H   0  0  0  0  0  0
  -23.3763  -35.9602   23.3315 H   0  0  0  0  0  0
  -24.3584  -36.8897   22.2054 H   0  0  0  0  0  0
  -23.7219  -37.6472   23.6663 H   0  0  0  0  0  0
  -26.1208  -31.5072   20.6142 H   0  0  0  0  0  0
  -26.8549  -30.8027   22.0242 H   0  0  0  0  0  0
  -28.1067  -28.8810   21.2604 H   0  0  0  0  0  0
  -26.0290  -25.9690   18.8794 H   0  0  0  0  0  0
  -23.9957  -27.3344   18.9414 H   0  0  0  0  0  0
  -23.7774  -30.5845   19.4087 H   0  0  0  0  0  0
  -22.7657  -29.2469   19.8583 H   0  0  0  0  0  0
  -25.1299  -36.1928   25.0821 H   0  0  0  0  0  0
  -21.0019  -28.3234   24.1439 H   0  0  0  0  0  0
  -20.5734  -26.2275   23.3589 H   0  0  0  0  0  0
  -21.6713  -26.7456   22.1207 H   0  0  0  0  0  0
  -19.7020  -25.6411   21.1085 H   0  0  0  0  0  0
  -19.6727  -27.3377   20.6820 H   0  0  0  0  0  0
  -17.4274  -26.6667   21.4043 H   0  0  0  0  0  0
  -18.0441  -26.0003   22.9003 H   0  0  0  0  0  0
  -19.7960  -30.7244   24.2276 H   0  0  0  0  0  0
  -17.5048  -31.6265   24.5090 H   0  0  0  0  0  0
  -15.5373  -30.2914   23.7595 H   0  0  0  0  0  0
  -15.8744  -28.0724   22.7113 H   0  0  0  0  0  0
  -24.5895  -30.7095   25.7782 H   0  0  0  0  0  0
  -24.8912  -32.2914   26.4878 H   0  0  0  0  0  0
  -25.8020  -30.8916   27.0241 H   0  0  0  0  0  0
  -26.2945  -29.6762   24.1248 H   0  0  0  0  0  0
  -27.3979  -29.7255   25.4791 H   0  0  0  0  0  0
  -27.8858  -30.4276   23.9553 H   0  0  0  0  0  0
  -27.2650  -33.3646   26.2074 H   0  0  0  0  0  0
  -28.3857  -32.6902   25.0332 H   0  0  0  0  0  0
  -28.0732  -31.8486   26.5431 H   0  0  0  0  0  0
  -28.2600  -38.0082   24.7520 H   0  0  0  0  0  0
  -28.1059  -36.2616   24.6291 H   0  0  0  0  0  0
  -27.2298  -37.1451   25.8866 H   0  0  0  0  0  0
  -20.9425  -29.8785   21.6950 H   0  0  0  0  0  0
  -26.0185  -38.2851   24.1392 H   0  0  0  0  0  0
  -28.9811  -18.6560   17.0200 H   0  0  0  0  0  0
  -28.8349  -20.7163   18.2757 H   0  0  0  0  0  0
  -29.7497  -18.5402   21.8903 H   0  0  0  0  0  0
  -29.3112  -16.4467   16.7407 H   0  0  0  0  0  0
  -28.7434  -15.4453   18.0553 H   0  0  0  0  0  0
  -30.4849  -15.6944   17.7974 H   0  0  0  0  0  0
  -24.3838  -22.9287   19.3522 H   0  0  0  0  0  0
  -25.7242  -21.8453   19.0222 H   0  0  0  0  0  0
  -25.6029  -23.3922   18.1833 H   0  0  0  0  0  0
  -28.0093  -24.4396   18.1909 H   0  0  0  0  0  0
  -27.9223  -22.6895   18.1509 H   0  0  0  0  0  0
  -29.4013  -23.4751   18.6719 H   0  0  0  0  0  0
  -25.8747  -24.5787   20.3957 H   0  0  0  0  0  0
  -25.9406  -23.1237   21.2139 H   0  0  0  0  0  0
  -27.7839  -25.0915   21.7936 H   0  0  0  0  0  0
  -29.3320  -24.8160   21.1155 H   0  0  0  0  0  0
  -27.3202  -21.3961   20.6230 H   0  0  0  0  0  0
  -28.0136  -22.2226   21.9468 H   0  0  0  0  0  0
  -28.9918  -15.6715   21.3034 H   0  0  0  0  0  0
  1 25  1  0  0  0
  1 30  2  0  0  0
  1 84  1  0  0  0
  2  3  1  0  0  0
  2 25  1  0  0  0
  2 86  1  0  0  0
  2 87  1  0  0  0
  3  4  1  0  0  0
  3 88  1  0  0  0
  3 89  1  0  0  0
  4  5  1  0  0  0
  4 90  1  0  0  0
  4 91  1  0  0  0
  5  6  1  0  0  0
  5 26  1  0  0  0
  5 92  1  0  0  0
  6 25  1  0  0  0
  6 93  1  0  0  0
  6 94  1  0  0  0
  7  8  2  0  0  0
  7 26  1  0  0  0
  7 29  1  0  0  0
  8  9  1  0  0  0
  8 22  1  0  0  0
  9 10  1  0  0  0
  9 27  2  0  0  0
 10 11  2  0  0  0
 10 15  1  0  0  0
 11 12  1  0  0  0
 11 95  1  0  0  0
 12 13  2  0  0  0
 12 96  1  0  0  0
 13 14  1  0  0  0
 13 31  1  0  0  0
 14 15  2  0  0  0
 14 97  1  0  0  0
 15 98  1  0  0  0
 16 17  2  0  0  0
 16 21  1  0  0  0
 16 31  1  0  0  0
 17 18  1  0  0  0
 17 99  1  0  0  0
 18 19  2  0  0  0
 18100  1  0  0  0
 19 20  1  0  0  0
 19 24  1  0  0  0
 20 21  2  0  0  0
 20101  1  0  0  0
 21 23  1  0  0  0
 22 28  1  0  0  0
 22 32  2  0  0  0
 26 27  1  0  0  0
 28102  1  0  0  0
 28103  1  0  0  0
 29104  1  0  0  0
 29105  1  0  0  0
 33 34  1  0  0  0
 33 66  1  0  0  0
 33 70  2  0  0  0
 34 36  1  0  0  0
 34 59  1  0  0  0
 34106  1  0  0  0
 35 44  2  0  0  0
 35 45  1  0  0  0
 35 68  1  0  0  0
 36 56  1  0  0  0
 36107  1  0  0  0
 37 39  1  0  0  0
 37 47  1  0  0  0
 37 66  1  0  0  0
 37108  1  0  0  0
 38 43  2  0  0  0
 38 46  1  0  0  0
 38 47  1  0  0  0
 39 64  1  0  0  0
 39 67  2  0  0  0
 40 52  1  0  0  0
 40 53  2  0  0  0
 40 58  1  0  0  0
 41109  1  0  0  0
 41110  1  0  0  0
 41111  1  0  0  0
 41 48  1  0  0  0
 42 43  1  0  0  0
 42 66  1  0  0  0
 42112  1  0  0  0
 42113  1  0  0  0
 43 44  1  0  0  0
 44114  1  0  0  0
 45 46  2  0  0  0
 45115  1  0  0  0
 46116  1  0  0  0
 47117  1  0  0  0
 47118  1  0  0  0
 48 56  1  0  0  0
 48 65  1  0  0  0
 48119  1  0  0  0
 49 50  1  0  0  0
 49 53  1  0  0  0
 49 64  1  0  0  0
 49120  1  0  0  0
 50 51  1  0  0  0
 50121  1  0  0  0
 50122  1  0  0  0
 51 52  1  0  0  0
 51123  1  0  0  0
 51124  1  0  0  0
 52125  1  0  0  0
 52126  1  0  0  0
 53 54  1  0  0  0
 54 55  2  0  0  0
 54127  1  0  0  0
 55 57  1  0  0  0
 55128  1  0  0  0
 56 69  2  0  0  0
 57 58  2  0  0  0
 57129  1  0  0  0
 58130  1  0  0  0
 59 60  1  0  0  0
 59 61  1  0  0  0
 59 62  1  0  0  0
 60131  1  0  0  0
 60132  1  0  0  0
 60133  1  0  0  0
 61134  1  0  0  0
 61135  1  0  0  0
 61136  1  0  0  0
 62137  1  0  0  0
 62138  1  0  0  0
 62139  1  0  0  0
 63 65  1  0  0  0
 63140  1  0  0  0
 63141  1  0  0  0
 63142  1  0  0  0
 64143  1  0  0  0
 65144  1  0  0  0
 68 81  1  0  0  0
 71 72  2  0  0  0
 71 74  1  0  0  0
 71145  1  0  0  0
 72 76  1  0  0  0
 72146  1  0  0  0
 73 75  1  0  0  0
 73 76  2  0  0  0
 73147  1  0  0  0
 74 75  2  0  0  0
 74 77  1  0  0  0
 75 84  1  0  0  0
 76 85  1  0  0  0
 77148  1  0  0  0
 77149  1  0  0  0
 77150  1  0  0  0
 78 80  1  0  0  0
 78151  1  0  0  0
 78152  1  0  0  0
 78153  1  0  0  0
 79154  1  0  0  0
 79155  1  0  0  0
 79156  1  0  0  0
 79 83  1  0  0  0
 80 83  1  0  0  0
 80157  1  0  0  0
 80158  1  0  0  0
 81 83  1  0  0  0
 81159  1  0  0  0
 81160  1  0  0  0
 82 83  1  0  0  0
 82 85  1  0  0  0
 82161  1  0  0  0
 82162  1  0  0  0
 84163  1  0  0  0
M  ISO  4   1 100  68 101  81 101  84 100
M  END
> <chiral flag>
0

> <version>
0

> <s_m_source_file>
/data/baiqing/PycharmProjects/Reinvent-master-3.2/result/LINK_invent/BTK/process_docking_weight1_custom_product_contain_oxygen_bond_distance_aromatic_linkinvent_7_9_3/rearranged_h_0137.sdf

> <i_m_source_file_index>
67

> <r_mmod_Potential_Energy-OPLS-2005>
408.282867431641

> <r_mmod_Stretch_Energy-OPLS-2005>
163.319213867188

> <r_mmod_Bend_Energy-OPLS-2005>
252.720230102539

> <r_mmod_Torsional_Energy-OPLS-2005>
320.057769775391

> <r_mmod_Improper_Torsional_Energy-OPLS-2005>
5.56806182861328

> <r_mmod_Van_der_Waal_Energy-OPLS-2005>
140.588180541992

> <r_mmod_Electrostatic_Energy-OPLS-2005>
-371.974548339844

> <r_mmod_Solvation_Energy-OPLS-2005>
-205.873550415039

> <b_mmod_Minimization_Converged-OPLS-2005>
0

> <r_mmod_RMS_Derivative-OPLS-2005>
2.22785997390747

$$$$
67
                    3D
 Structure written by MMmdl.
157166  0  0  1  0            999 V2000
  -30.5973  -14.6251   20.5034 C   0  0  0  0  0  0
  -30.4381  -12.3838   19.4558 C   0  0  0  0  0  0
  -29.5106  -12.5084   18.2267 C   0  0  0  0  0  0
  -28.0295  -12.3537   18.6329 C   0  0  0  0  0  0
  -27.6550  -13.2126   19.8719 C   0  0  2  0  0  0
  -28.6961  -13.0413   21.0007 C   0  0  0  0  0  0
  -25.2553  -13.8181   20.5690 C   0  0  0  0  0  0
  -24.1824  -13.0443   20.9213 C   0  0  0  0  0  0
  -24.6380  -11.6920   20.8750 C   0  0  0  0  0  0
  -23.9053  -10.4288   21.0404 C   0  0  0  0  0  0
  -24.3612   -9.4205   21.9181 C   0  0  0  0  0  0
  -23.6281   -8.2247   22.0751 C   0  0  0  0  0  0
  -22.4261   -8.0273   21.3543 C   0  0  0  0  0  0
  -21.9903   -9.0245   20.4651 C   0  0  0  0  0  0
  -22.7232  -10.2124   20.3056 C   0  0  0  0  0  0
  -21.6845   -6.0743   22.5282 C   0  0  0  0  0  0
  -21.4014   -6.5643   23.8214 C   0  0  0  0  0  0
  -21.3660   -5.6786   24.9176 C   0  0  0  0  0  0
  -21.6051   -4.3056   24.7222 C   0  0  0  0  0  0
  -21.8822   -3.8154   23.4342 C   0  0  0  0  0  0
  -21.9188   -4.6972   22.3408 C   0  0  0  0  0  0
  -22.7854  -13.5239   21.1867 C   0  0  0  0  0  0
  -22.1646   -4.2164   21.0985 F   0  0  0  0  0  0
  -21.5621   -3.4537   25.7733 F   0  0  0  0  0  0
  -30.0125  -13.3905   20.4462 N   0  0  0  0  0  0
  -26.2975  -12.9345   20.3340 N   0  0  0  0  0  0
  -25.9300  -11.6508   20.5766 N   0  0  0  0  0  0
  -22.0477  -12.8231   22.0431 N   0  0  0  0  0  0
  -25.4253  -15.1910   20.4102 N   0  0  0  0  0  0
  -31.7425  -14.8176   20.0798 O   0  0  0  0  0  0
  -21.6640   -6.8872   21.4235 O   0  0  0  0  0  0
  -22.3534  -14.5523   20.6679 O   0  0  0  0  0  0
  -24.6252  -31.8610   23.2053 C   0  0  0  0  0  0
  -25.9117  -32.4778   23.8365 C   0  0  1  0  0  0
  -27.2049  -27.3276   20.1102 C   0  0  0  0  0  0
  -25.5945  -33.8585   24.2303 N   0  0  0  0  0  0
  -23.4175  -30.4867   21.5484 C   0  0  2  0  0  0
  -24.8568  -28.9423   20.1121 C   0  0  0  0  0  0
  -22.7467  -29.4637   22.4956 C   0  0  0  0  0  0
  -18.0296  -28.1415   22.8495 C   0  0  0  0  0  0
  -24.1491  -36.7289   23.2640 C   0  0  0  0  0  0
  -25.9577  -30.7948   21.3721 C   0  0  0  0  0  0
  -26.0289  -29.4222   20.7138 C   0  0  0  0  0  0
  -27.2112  -28.6253   20.7039 C   0  0  0  0  0  0
  -26.0196  -26.9032   19.4742 C   0  0  0  0  0  0
  -24.8529  -27.6886   19.4836 C   0  0  0  0  0  0
  -23.6270  -29.8243   20.1624 C   0  0  0  0  0  0
  -25.4117  -36.3094   24.0334 C   0  0  1  0  0  0
  -20.5886  -28.3687   23.1312 C   0  0  2  0  0  0
  -20.6746  -26.9410   22.5438 C   0  0  0  0  0  0
  -19.5745  -26.6400   21.5214 C   0  0  0  0  0  0
  -18.1928  -26.7961   22.1608 C   0  0  0  0  0  0
  -19.1543  -28.8870   23.2908 C   0  0  0  0  0  0
  -18.9471  -30.1471   23.8930 C   0  0  0  0  0  0
  -17.6463  -30.6589   24.0614 C   0  0  0  0  0  0
  -25.9050  -34.9457   23.5123 C   0  0  0  0  0  0
  -16.5357  -29.9096   23.6356 C   0  0  0  0  0  0
  -16.7284  -28.6528   23.0355 C   0  0  0  0  0  0
  -26.4505  -31.6582   25.0732 C   0  0  0  0  0  0
  -25.3758  -31.3686   26.1471 C   0  0  0  0  0  0
  -27.0327  -30.3011   24.6165 C   0  0  0  0  0  0
  -27.6079  -32.4306   25.7486 C   0  0  0  0  0  0
  -27.5580  -37.1805   24.8468 C   0  0  0  0  0  0
  -21.4182  -29.3036   22.3700 N   0  0  0  0  0  0
  -26.4290  -37.3789   23.9414 N   0  0  0  0  0  0
  -24.6861  -31.0631   22.0996 N   0  0  0  0  0  0
  -23.4209  -28.8175   23.3008 O   0  0  0  0  0  0
  -28.3049  -26.4667   20.1239 O   0  0  0  0  0  0
  -26.5607  -34.8922   22.4677 O   0  0  0  0  0  0
  -23.5425  -32.1412   23.7406 O   0  0  0  0  0  0
  -29.3451  -19.4085   21.3919 C   0  0  0  0  0  0
  -29.4897  -18.0154   21.6719 C   0  0  0  0  0  0
  -29.6942  -18.9494   19.0576 C   0  0  0  0  0  0
  -29.4499  -19.9167   20.0725 C   0  0  0  0  0  0
  -29.7672  -17.0570   20.6593 C   0  0  0  0  0  0
  -29.8449  -17.5580   19.3333 C   0  0  0  0  0  0
  -28.6335  -21.8592   18.4648 C   0  0  0  0  0  0
  -28.2143  -23.3503   18.6272 C   0  0  0  0  0  0
  -28.9234  -22.5247   20.7578 C   0  0  0  0  0  0
  -29.4169  -21.4547   19.7312 C   0  0  1  0  0  0
  -28.8213  -23.8690   19.9479 C   0  0  2  0  0  0
  -28.0631  -25.0931   20.6158 C   0  0  0  0  0  0
  -29.8098  -15.6353   20.9814 N   0  0  0  0  0  0
  -30.0171  -16.6979   18.2998 F   0  0  0  0  0  0
  -31.4786  -12.5214   19.1554 H   0  0  0  0  0  0
  -30.3815  -11.3841   19.8866 H   0  0  0  0  0  0
  -29.7783  -11.7607   17.4795 H   0  0  0  0  0  0
  -29.6607  -13.4799   17.7544 H   0  0  0  0  0  0
  -27.8563  -11.2990   18.8527 H   0  0  0  0  0  0
  -27.3781  -12.6004   17.7938 H   0  0  0  0  0  0
  -27.6816  -14.2538   19.5504 H   0  0  0  0  0  0
  -28.7050  -12.0114   21.3595 H   0  0  0  0  0  0
  -28.4433  -13.6504   21.8709 H   0  0  0  0  0  0
  -25.2750   -9.5677   22.4753 H   0  0  0  0  0  0
  -23.9996   -7.4634   22.7460 H   0  0  0  0  0  0
  -21.0832   -8.8756   19.8954 H   0  0  0  0  0  0
  -22.3677  -10.9655   19.6170 H   0  0  0  0  0  0
  -21.2006   -7.6146   23.9728 H   0  0  0  0  0  0
  -21.1483   -6.0518   25.9080 H   0  0  0  0  0  0
  -22.0607   -2.7619   23.2835 H   0  0  0  0  0  0
  -22.4054  -11.9889   22.4834 H   0  0  0  0  0  0
  -21.1100  -13.1272   22.2613 H   0  0  0  0  0  0
  -24.6625  -15.8466   20.5356 H   0  0  0  0  0  0
  -26.2764  -15.6299   20.0790 H   0  0  0  0  0  0
  -26.7188  -32.5442   23.1106 H   0  0  0  0  0  0
  -25.0108  -33.9731   25.0462 H   0  0  0  0  0  0
  -22.7121  -31.3080   21.4094 H   0  0  0  0  0  0
  -23.3755  -35.9618   23.3307 H   0  0  0  0  0  0
  -24.3567  -36.8914   22.2051 H   0  0  0  0  0  0
  -23.7249  -37.6501   23.6644 H   0  0  0  0  0  0
  -26.0892  -31.5569   20.6015 H   0  0  0  0  0  0
  -26.8408  -30.8422   21.9987 H   0  0  0  0  0  0
  -28.1117  -28.9857   21.1816 H   0  0  0  0  0  0
  -25.9847  -25.9441   18.9745 H   0  0  0  0  0  0
  -23.9561  -27.3213   19.0042 H   0  0  0  0  0  0
  -23.7451  -30.6044   19.4075 H   0  0  0  0  0  0
  -22.7451  -29.2562   19.8612 H   0  0  0  0  0  0
  -25.1293  -36.1942   25.0826 H   0  0  0  0  0  0
  -21.0007  -28.3235   24.1426 H   0  0  0  0  0  0
  -20.5628  -26.2311   23.3643 H   0  0  0  0  0  0
  -21.6625  -26.7397   22.1259 H   0  0  0  0  0  0
  -19.6922  -25.6324   21.1224 H   0  0  0  0  0  0
  -19.6652  -27.3286   20.6797 H   0  0  0  0  0  0
  -17.4197  -26.6748   21.4016 H   0  0  0  0  0  0
  -18.0298  -26.0123   22.9017 H   0  0  0  0  0  0
  -19.7951  -30.7301   24.2275 H   0  0  0  0  0  0
  -17.5005  -31.6267   24.5212 H   0  0  0  0  0  0
  -15.5359  -30.3004   23.7664 H   0  0  0  0  0  0
  -15.8685  -28.0872   22.7048 H   0  0  0  0  0  0
  -24.5950  -30.7012   25.7801 H   0  0  0  0  0  0
  -24.8921  -32.2837   26.4908 H   0  0  0  0  0  0
  -25.8121  -30.8865   27.0237 H   0  0  0  0  0  0
  -26.2878  -29.6780   24.1208 H   0  0  0  0  0  0
  -27.4051  -29.7248   25.4646 H   0  0  0  0  0  0
  -27.8745  -30.4296   23.9363 H   0  0  0  0  0  0
  -27.2702  -33.3609   26.2064 H   0  0  0  0  0  0
  -28.3883  -32.6873   25.0308 H   0  0  0  0  0  0
  -28.0752  -31.8432   26.5407 H   0  0  0  0  0  0
  -28.2609  -38.0093   24.7504 H   0  0  0  0  0  0
  -28.1076  -36.2625   24.6301 H   0  0  0  0  0  0
  -27.2285  -37.1460   25.8872 H   0  0  0  0  0  0
  -20.9354  -29.8791   21.6929 H   0  0  0  0  0  0
  -26.0176  -38.2873   24.1402 H   0  0  0  0  0  0
  -29.1618  -20.0891   22.2119 H   0  0  0  0  0  0
  -29.3887  -17.6857   22.6962 H   0  0  0  0  0  0
  -29.7719  -19.2716   18.0306 H   0  0  0  0  0  0
  -29.2299  -21.6990   17.5650 H   0  0  0  0  0  0
  -27.7358  -21.2476   18.3613 H   0  0  0  0  0  0
  -27.1250  -23.4081   18.6744 H   0  0  0  0  0  0
  -28.5283  -23.9547   17.7754 H   0  0  0  0  0  0
  -29.5921  -22.6122   21.6165 H   0  0  0  0  0  0
  -27.9402  -22.2475   21.1416 H   0  0  0  0  0  0
  -30.4605  -21.7044   19.5309 H   0  0  0  0  0  0
  -29.8446  -24.1910   19.7531 H   0  0  0  0  0  0
  -28.3589  -25.1138   21.6638 H   0  0  0  0  0  0
  -27.0004  -24.8494   20.6521 H   0  0  0  0  0  0
  -29.0113  -15.3053   21.5031 H   0  0  0  0  0  0
  1 25  1  0  0  0
  1 30  2  0  0  0
  1 83  1  0  0  0
  2  3  1  0  0  0
  2 25  1  0  0  0
  2 85  1  0  0  0
  2 86  1  0  0  0
  3  4  1  0  0  0
  3 87  1  0  0  0
  3 88  1  0  0  0
  4  5  1  0  0  0
  4 89  1  0  0  0
  4 90  1  0  0  0
  5  6  1  0  0  0
  5 26  1  0  0  0
  5 91  1  0  0  0
  6 25  1  0  0  0
  6 92  1  0  0  0
  6 93  1  0  0  0
  7  8  2  0  0  0
  7 26  1  0  0  0
  7 29  1  0  0  0
  8  9  1  0  0  0
  8 22  1  0  0  0
  9 10  1  0  0  0
  9 27  2  0  0  0
 10 11  2  0  0  0
 10 15  1  0  0  0
 11 12  1  0  0  0
 11 94  1  0  0  0
 12 13  2  0  0  0
 12 95  1  0  0  0
 13 14  1  0  0  0
 13 31  1  0  0  0
 14 15  2  0  0  0
 14 96  1  0  0  0
 15 97  1  0  0  0
 16 17  2  0  0  0
 16 21  1  0  0  0
 16 31  1  0  0  0
 17 18  1  0  0  0
 17 98  1  0  0  0
 18 19  2  0  0  0
 18 99  1  0  0  0
 19 20  1  0  0  0
 19 24  1  0  0  0
 20 21  2  0  0  0
 20100  1  0  0  0
 21 23  1  0  0  0
 22 28  1  0  0  0
 22 32  2  0  0  0
 26 27  1  0  0  0
 28101  1  0  0  0
 28102  1  0  0  0
 29103  1  0  0  0
 29104  1  0  0  0
 33 34  1  0  0  0
 33 66  1  0  0  0
 33 70  2  0  0  0
 34 36  1  0  0  0
 34 59  1  0  0  0
 34105  1  0  0  0
 35 44  2  0  0  0
 35 45  1  0  0  0
 35 68  1  0  0  0
 36 56  1  0  0  0
 36106  1  0  0  0
 37 39  1  0  0  0
 37 47  1  0  0  0
 37 66  1  0  0  0
 37107  1  0  0  0
 38 43  2  0  0  0
 38 46  1  0  0  0
 38 47  1  0  0  0
 39 64  1  0  0  0
 39 67  2  0  0  0
 40 52  1  0  0  0
 40 53  2  0  0  0
 40 58  1  0  0  0
 41108  1  0  0  0
 41109  1  0  0  0
 41110  1  0  0  0
 41 48  1  0  0  0
 42 43  1  0  0  0
 42 66  1  0  0  0
 42111  1  0  0  0
 42112  1  0  0  0
 43 44  1  0  0  0
 44113  1  0  0  0
 45 46  2  0  0  0
 45114  1  0  0  0
 46115  1  0  0  0
 47116  1  0  0  0
 47117  1  0  0  0
 48 56  1  0  0  0
 48 65  1  0  0  0
 48118  1  0  0  0
 49 50  1  0  0  0
 49 53  1  0  0  0
 49 64  1  0  0  0
 49119  1  0  0  0
 50 51  1  0  0  0
 50120  1  0  0  0
 50121  1  0  0  0
 51 52  1  0  0  0
 51122  1  0  0  0
 51123  1  0  0  0
 52124  1  0  0  0
 52125  1  0  0  0
 53 54  1  0  0  0
 54 55  2  0  0  0
 54126  1  0  0  0
 55 57  1  0  0  0
 55127  1  0  0  0
 56 69  2  0  0  0
 57 58  2  0  0  0
 57128  1  0  0  0
 58129  1  0  0  0
 59 60  1  0  0  0
 59 61  1  0  0  0
 59 62  1  0  0  0
 60130  1  0  0  0
 60131  1  0  0  0
 60132  1  0  0  0
 61133  1  0  0  0
 61134  1  0  0  0
 61135  1  0  0  0
 62136  1  0  0  0
 62137  1  0  0  0
 62138  1  0  0  0
 63 65  1  0  0  0
 63139  1  0  0  0
 63140  1  0  0  0
 63141  1  0  0  0
 64142  1  0  0  0
 65143  1  0  0  0
 68 82  1  0  0  0
 71 72  2  0  0  0
 71 74  1  0  0  0
 71144  1  0  0  0
 72 75  1  0  0  0
 72145  1  0  0  0
 73 74  2  0  0  0
 73 76  1  0  0  0
 73146  1  0  0  0
 74 80  1  0  0  0
 75 76  2  0  0  0
 75 83  1  0  0  0
 76 84  1  0  0  0
 77 78  1  0  0  0
 77 80  1  0  0  0
 77147  1  0  0  0
 77148  1  0  0  0
 78 81  1  0  0  0
 78149  1  0  0  0
 78150  1  0  0  0
 79 80  1  0  0  0
 79 81  1  0  0  0
 79151  1  0  0  0
 79152  1  0  0  0
 80153  1  0  0  0
 81 82  1  0  0  0
 81154  1  0  0  0
 82155  1  0  0  0
 82156  1  0  0  0
 83157  1  0  0  0
M  ISO  4   1 100  68 101  82 101  83 100
M  END
> <chiral flag>
0

> <version>
0

> <s_m_source_file>
/data/baiqing/PycharmProjects/Reinvent-master-3.2/result/LINK_invent/BTK/process_docking_weight1_custom_product_contain_oxygen_bond_distance_aromatic_linkinvent_7_9_3/rearranged_h_0137.sdf

> <i_m_source_file_index>
68

> <r_mmod_Potential_Energy-OPLS-2005>
111.858909606934

> <r_mmod_Stretch_Energy-OPLS-2005>
68.6991500854492

> <r_mmod_Bend_Energy-OPLS-2005>
157.463302612305

> <r_mmod_Torsional_Energy-OPLS-2005>
293.926574707031

> <r_mmod_Improper_Torsional_Energy-OPLS-2005>
3.83760786056519

> <r_mmod_Van_der_Waal_Energy-OPLS-2005>
137.119476318359

> <r_mmod_Electrostatic_Energy-OPLS-2005>
-392.564147949219

> <r_mmod_Solvation_Energy-OPLS-2005>
-202.617111206055

> <b_mmod_Minimization_Converged-OPLS-2005>
0

> <r_mmod_RMS_Derivative-OPLS-2005>
3.23108816146851

$$$$
68
                    3D
 Structure written by MMmdl.
159167  0  0  1  0            999 V2000
  -30.6379  -14.6004   20.5078 C   0  0  0  0  0  0
  -30.4357  -12.3673   19.4406 C   0  0  0  0  0  0
  -29.5051  -12.5040   18.2154 C   0  0  0  0  0  0
  -28.0250  -12.3564   18.6253 C   0  0  0  0  0  0
  -27.6567  -13.2147   19.8646 C   0  0  2  0  0  0
  -28.7012  -13.0458   20.9905 C   0  0  0  0  0  0
  -25.2577  -13.8159   20.5668 C   0  0  0  0  0  0
  -24.1843  -13.0438   20.9194 C   0  0  0  0  0  0
  -24.6408  -11.6909   20.8747 C   0  0  0  0  0  0
  -23.9069  -10.4299   21.0417 C   0  0  0  0  0  0
  -24.3624   -9.4211   21.9193 C   0  0  0  0  0  0
  -23.6307   -8.2240   22.0757 C   0  0  0  0  0  0
  -22.4283   -8.0282   21.3548 C   0  0  0  0  0  0
  -21.9915   -9.0253   20.4645 C   0  0  0  0  0  0
  -22.7246  -10.2135   20.3058 C   0  0  0  0  0  0
  -21.6847   -6.0746   22.5286 C   0  0  0  0  0  0
  -21.4010   -6.5649   23.8222 C   0  0  0  0  0  0
  -21.3657   -5.6799   24.9185 C   0  0  0  0  0  0
  -21.6041   -4.3057   24.7231 C   0  0  0  0  0  0
  -21.8820   -3.8154   23.4347 C   0  0  0  0  0  0
  -21.9192   -4.6975   22.3406 C   0  0  0  0  0  0
  -22.7867  -13.5236   21.1844 C   0  0  0  0  0  0
  -22.1664   -4.2165   21.0982 F   0  0  0  0  0  0
  -21.5630   -3.4532   25.7738 F   0  0  0  0  0  0
  -30.0217  -13.3798   20.4319 N   0  0  0  0  0  0
  -26.3011  -12.9346   20.3311 N   0  0  0  0  0  0
  -25.9330  -11.6500   20.5747 N   0  0  0  0  0  0
  -22.0490  -12.8237   22.0397 N   0  0  0  0  0  0
  -25.4275  -15.1880   20.4043 N   0  0  0  0  0  0
  -31.7970  -14.7578   20.1113 O   0  0  0  0  0  0
  -21.6635   -6.8885   21.4249 O   0  0  0  0  0  0
  -22.3560  -14.5540   20.6693 O   0  0  0  0  0  0
  -24.6214  -31.8626   23.2067 C   0  0  0  0  0  0
  -25.9075  -32.4795   23.8383 C   0  0  1  0  0  0
  -27.2146  -27.3453   20.1293 C   0  0  0  0  0  0
  -25.5906  -33.8595   24.2307 N   0  0  0  0  0  0
  -23.4146  -30.4888   21.5455 C   0  0  2  0  0  0
  -24.8626  -28.9503   20.1109 C   0  0  0  0  0  0
  -22.7452  -29.4649   22.4925 C   0  0  0  0  0  0
  -18.0280  -28.1398   22.8503 C   0  0  0  0  0  0
  -24.1479  -36.7292   23.2646 C   0  0  0  0  0  0
  -25.9538  -30.7994   21.3778 C   0  0  0  0  0  0
  -26.0272  -29.4279   20.7266 C   0  0  0  0  0  0
  -27.2095  -28.6358   20.7318 C   0  0  0  0  0  0
  -26.0450  -26.9294   19.4584 C   0  0  0  0  0  0
  -24.8708  -27.7024   19.4693 C   0  0  0  0  0  0
  -23.6314  -29.8287   20.1576 C   0  0  0  0  0  0
  -25.4110  -36.3089   24.0336 C   0  0  1  0  0  0
  -20.5886  -28.3678   23.1311 C   0  0  2  0  0  0
  -20.6791  -26.9408   22.5405 C   0  0  0  0  0  0
  -19.5757  -26.6395   21.5203 C   0  0  0  0  0  0
  -18.1929  -26.7947   22.1623 C   0  0  0  0  0  0
  -19.1532  -28.8856   23.2916 C   0  0  0  0  0  0
  -18.9462  -30.1474   23.8908 C   0  0  0  0  0  0
  -17.6470  -30.6615   24.0578 C   0  0  0  0  0  0
  -25.9047  -34.9463   23.5122 C   0  0  0  0  0  0
  -16.5362  -29.9114   23.6343 C   0  0  0  0  0  0
  -16.7271  -28.6531   23.0359 C   0  0  0  0  0  0
  -26.4477  -31.6599   25.0731 C   0  0  0  0  0  0
  -25.3726  -31.3738   26.1467 C   0  0  0  0  0  0
  -27.0321  -30.3031   24.6144 C   0  0  0  0  0  0
  -27.6039  -32.4332   25.7496 C   0  0  0  0  0  0
  -27.5587  -37.1813   24.8472 C   0  0  0  0  0  0
  -21.4162  -29.3054   22.3700 N   0  0  0  0  0  0
  -26.4290  -37.3785   23.9420 N   0  0  0  0  0  0
  -24.6812  -31.0689   22.0993 N   0  0  0  0  0  0
  -23.4198  -28.8180   23.2977 O   0  0  0  0  0  0
  -28.3223  -26.4941   20.1314 O   0  0  0  0  0  0
  -26.5617  -34.8916   22.4685 O   0  0  0  0  0  0
  -23.5387  -32.1396   23.7412 O   0  0  0  0  0  0
  -28.8668  -19.3348   20.9112 C   0  0  0  0  0  0
  -31.0838  -19.1812   20.0131 C   0  0  0  0  0  0
  -28.8555  -17.9179   21.0836 C   0  0  0  0  0  0
  -31.0786  -17.7685   20.1851 C   0  0  0  0  0  0
  -29.9792  -20.0176   20.3535 C   0  0  0  0  0  0
  -29.9519  -17.0905   20.7171 C   0  0  0  0  0  0
  -30.0216  -21.5281   20.0603 C   0  0  0  0  0  0
  -26.8956  -24.6905   21.2589 C   0  0  0  0  0  0
  -29.0118  -25.6142   22.2167 C   0  0  0  0  0  0
  -29.1143  -22.5859   20.7783 C   0  0  0  0  0  0
  -29.1049  -24.0697   20.1700 C   0  0  0  0  0  0
  -28.3044  -25.2289   20.9080 C   0  0  0  0  0  0
  -30.8455  -21.9700   19.2055 N   0  0  0  0  0  0
  -29.8435  -15.6439   20.8934 N   0  0  0  0  0  0
  -31.4766  -12.4862   19.1348 H   0  0  0  0  0  0
  -30.3642  -11.3647   19.8668 H   0  0  0  0  0  0
  -29.7606  -11.7573   17.4622 H   0  0  0  0  0  0
  -29.6606  -13.4765   17.7456 H   0  0  0  0  0  0
  -27.8454  -11.3020   18.8376 H   0  0  0  0  0  0
  -27.3744  -12.6104   17.7873 H   0  0  0  0  0  0
  -27.6831  -14.2552   19.5402 H   0  0  0  0  0  0
  -28.6984  -12.0184   21.3571 H   0  0  0  0  0  0
  -28.4540  -13.6663   21.8524 H   0  0  0  0  0  0
  -25.2773   -9.5680   22.4764 H   0  0  0  0  0  0
  -24.0022   -7.4622   22.7464 H   0  0  0  0  0  0
  -21.0849   -8.8762   19.8944 H   0  0  0  0  0  0
  -22.3707  -10.9672   19.6157 H   0  0  0  0  0  0
  -21.1994   -7.6154   23.9734 H   0  0  0  0  0  0
  -21.1480   -6.0522   25.9091 H   0  0  0  0  0  0
  -22.0597   -2.7618   23.2834 H   0  0  0  0  0  0
  -22.4099  -11.9907   22.4797 H   0  0  0  0  0  0
  -21.1093  -13.1249   22.2558 H   0  0  0  0  0  0
  -24.6511  -15.8338   20.4935 H   0  0  0  0  0  0
  -26.2607  -15.6192   20.0243 H   0  0  0  0  0  0
  -26.7142  -32.5473   23.1140 H   0  0  0  0  0  0
  -25.0065  -33.9747   25.0461 H   0  0  0  0  0  0
  -22.7065  -31.3092   21.4072 H   0  0  0  0  0  0
  -23.3745  -35.9621   23.3294 H   0  0  0  0  0  0
  -24.3582  -36.8902   22.2061 H   0  0  0  0  0  0
  -23.7215  -37.6492   23.6665 H   0  0  0  0  0  0
  -26.0883  -31.5599   20.6071 H   0  0  0  0  0  0
  -26.8369  -30.8481   22.0029 H   0  0  0  0  0  0
  -28.1039  -28.9973   21.2227 H   0  0  0  0  0  0
  -26.0290  -25.9823   18.9406 H   0  0  0  0  0  0
  -23.9832  -27.3350   18.9742 H   0  0  0  0  0  0
  -23.7572  -30.6106   19.4062 H   0  0  0  0  0  0
  -22.7516  -29.2618   19.8476 H   0  0  0  0  0  0
  -25.1285  -36.1943   25.0830 H   0  0  0  0  0  0
  -21.0013  -28.3235   24.1417 H   0  0  0  0  0  0
  -20.5688  -26.2273   23.3594 H   0  0  0  0  0  0
  -21.6671  -26.7469   22.1199 H   0  0  0  0  0  0
  -19.6907  -25.6291   21.1242 H   0  0  0  0  0  0
  -19.6702  -27.3226   20.6747 H   0  0  0  0  0  0
  -17.4214  -26.6716   21.4007 H   0  0  0  0  0  0
  -18.0354  -26.0062   22.8996 H   0  0  0  0  0  0
  -19.7933  -30.7314   24.2264 H   0  0  0  0  0  0
  -17.5014  -31.6277   24.5196 H   0  0  0  0  0  0
  -15.5364  -30.3037   23.7654 H   0  0  0  0  0  0
  -15.8667  -28.0871   22.7069 H   0  0  0  0  0  0
  -24.5879  -30.7098   25.7826 H   0  0  0  0  0  0
  -24.8938  -32.2915   26.4910 H   0  0  0  0  0  0
  -25.8048  -30.8914   27.0239 H   0  0  0  0  0  0
  -26.2893  -29.6778   24.1170 H   0  0  0  0  0  0
  -27.4077  -29.7258   25.4610 H   0  0  0  0  0  0
  -27.8732  -30.4360   23.9322 H   0  0  0  0  0  0
  -27.2675  -33.3661   26.2040 H   0  0  0  0  0  0
  -28.3880  -32.6848   25.0334 H   0  0  0  0  0  0
  -28.0676  -31.8465   26.5436 H   0  0  0  0  0  0
  -28.2616  -38.0111   24.7552 H   0  0  0  0  0  0
  -28.1070  -36.2648   24.6256 H   0  0  0  0  0  0
  -27.2316  -37.1416   25.8879 H   0  0  0  0  0  0
  -20.9315  -29.8772   21.6922 H   0  0  0  0  0  0
  -26.0146  -38.2844   24.1433 H   0  0  0  0  0  0
  -27.9884  -19.8975   21.1919 H   0  0  0  0  0  0
  -31.9763  -19.6229   19.5944 H   0  0  0  0  0  0
  -27.9662  -17.4633   21.4977 H   0  0  0  0  0  0
  -31.9605  -17.2204   19.8870 H   0  0  0  0  0  0
  -26.9511  -23.8573   21.9602 H   0  0  0  0  0  0
  -26.3742  -24.3207   20.3774 H   0  0  0  0  0  0
  -26.2688  -25.4393   21.7440 H   0  0  0  0  0  0
  -29.1345  -24.7575   22.8805 H   0  0  0  0  0  0
  -28.4477  -26.3720   22.7616 H   0  0  0  0  0  0
  -30.0039  -26.0249   22.0196 H   0  0  0  0  0  0
  -29.4205  -22.6255   21.8240 H   0  0  0  0  0  0
  -28.0955  -22.1988   20.7760 H   0  0  0  0  0  0
  -28.7217  -24.0023   19.1520 H   0  0  0  0  0  0
  -30.1369  -24.4094   20.0639 H   0  0  0  0  0  0
  -31.3879  -21.2186   18.7932 H   0  0  0  0  0  0
  -28.9487  -15.3329   21.2413 H   0  0  0  0  0  0
  1 25  1  0  0  0
  1 30  2  0  0  0
  1 84  1  0  0  0
  2  3  1  0  0  0
  2 25  1  0  0  0
  2 85  1  0  0  0
  2 86  1  0  0  0
  3  4  1  0  0  0
  3 87  1  0  0  0
  3 88  1  0  0  0
  4  5  1  0  0  0
  4 89  1  0  0  0
  4 90  1  0  0  0
  5  6  1  0  0  0
  5 26  1  0  0  0
  5 91  1  0  0  0
  6 25  1  0  0  0
  6 92  1  0  0  0
  6 93  1  0  0  0
  7  8  2  0  0  0
  7 26  1  0  0  0
  7 29  1  0  0  0
  8  9  1  0  0  0
  8 22  1  0  0  0
  9 10  1  0  0  0
  9 27  2  0  0  0
 10 11  2  0  0  0
 10 15  1  0  0  0
 11 12  1  0  0  0
 11 94  1  0  0  0
 12 13  2  0  0  0
 12 95  1  0  0  0
 13 14  1  0  0  0
 13 31  1  0  0  0
 14 15  2  0  0  0
 14 96  1  0  0  0
 15 97  1  0  0  0
 16 17  2  0  0  0
 16 21  1  0  0  0
 16 31  1  0  0  0
 17 18  1  0  0  0
 17 98  1  0  0  0
 18 19  2  0  0  0
 18 99  1  0  0  0
 19 20  1  0  0  0
 19 24  1  0  0  0
 20 21  2  0  0  0
 20100  1  0  0  0
 21 23  1  0  0  0
 22 28  1  0  0  0
 22 32  2  0  0  0
 26 27  1  0  0  0
 28101  1  0  0  0
 28102  1  0  0  0
 29103  1  0  0  0
 29104  1  0  0  0
 33 34  1  0  0  0
 33 66  1  0  0  0
 33 70  2  0  0  0
 34 36  1  0  0  0
 34 59  1  0  0  0
 34105  1  0  0  0
 35 44  2  0  0  0
 35 45  1  0  0  0
 35 68  1  0  0  0
 36 56  1  0  0  0
 36106  1  0  0  0
 37 39  1  0  0  0
 37 47  1  0  0  0
 37 66  1  0  0  0
 37107  1  0  0  0
 38 43  2  0  0  0
 38 46  1  0  0  0
 38 47  1  0  0  0
 39 64  1  0  0  0
 39 67  2  0  0  0
 40 52  1  0  0  0
 40 53  2  0  0  0
 40 58  1  0  0  0
 41108  1  0  0  0
 41109  1  0  0  0
 41110  1  0  0  0
 41 48  1  0  0  0
 42 43  1  0  0  0
 42 66  1  0  0  0
 42111  1  0  0  0
 42112  1  0  0  0
 43 44  1  0  0  0
 44113  1  0  0  0
 45 46  2  0  0  0
 45114  1  0  0  0
 46115  1  0  0  0
 47116  1  0  0  0
 47117  1  0  0  0
 48 56  1  0  0  0
 48 65  1  0  0  0
 48118  1  0  0  0
 49 50  1  0  0  0
 49 53  1  0  0  0
 49 64  1  0  0  0
 49119  1  0  0  0
 50 51  1  0  0  0
 50120  1  0  0  0
 50121  1  0  0  0
 51 52  1  0  0  0
 51122  1  0  0  0
 51123  1  0  0  0
 52124  1  0  0  0
 52125  1  0  0  0
 53 54  1  0  0  0
 54 55  2  0  0  0
 54126  1  0  0  0
 55 57  1  0  0  0
 55127  1  0  0  0
 56 69  2  0  0  0
 57 58  2  0  0  0
 57128  1  0  0  0
 58129  1  0  0  0
 59 60  1  0  0  0
 59 61  1  0  0  0
 59 62  1  0  0  0
 60130  1  0  0  0
 60131  1  0  0  0
 60132  1  0  0  0
 61133  1  0  0  0
 61134  1  0  0  0
 61135  1  0  0  0
 62136  1  0  0  0
 62137  1  0  0  0
 62138  1  0  0  0
 63 65  1  0  0  0
 63139  1  0  0  0
 63140  1  0  0  0
 63141  1  0  0  0
 64142  1  0  0  0
 65143  1  0  0  0
 68 82  1  0  0  0
 71 73  2  0  0  0
 71 75  1  0  0  0
 71144  1  0  0  0
 72 74  1  0  0  0
 72 75  2  0  0  0
 72145  1  0  0  0
 73 76  1  0  0  0
 73146  1  0  0  0
 74 76  2  0  0  0
 74147  1  0  0  0
 75 77  1  0  0  0
 76 84  1  0  0  0
 77 80  1  0  0  0
 77 83  2  0  0  0
 78148  1  0  0  0
 78149  1  0  0  0
 78150  1  0  0  0
 78 82  1  0  0  0
 79 82  1  0  0  0
 79151  1  0  0  0
 79152  1  0  0  0
 79153  1  0  0  0
 80 81  1  0  0  0
 80154  1  0  0  0
 80155  1  0  0  0
 81 82  1  0  0  0
 81156  1  0  0  0
 81157  1  0  0  0
 83158  1  0  0  0
 84159  1  0  0  0
M  ISO  4   1 100  68 101  82 101  84 100
M  END
> <chiral flag>
0

> <version>
0

> <s_m_source_file>
/data/baiqing/PycharmProjects/Reinvent-master-3.2/result/LINK_invent/BTK/process_docking_weight1_custom_product_contain_oxygen_bond_distance_aromatic_linkinvent_7_9_3/rearranged_h_0137.sdf

> <i_m_source_file_index>
69

> <r_mmod_Potential_Energy-OPLS-2005>
13.1480741500854

> <r_mmod_Stretch_Energy-OPLS-2005>
77.6094970703125

> <r_mmod_Bend_Energy-OPLS-2005>
138.231872558594

> <r_mmod_Torsional_Energy-OPLS-2005>
238.847137451172

> <r_mmod_Improper_Torsional_Energy-OPLS-2005>
4.30315685272217

> <r_mmod_Van_der_Waal_Energy-OPLS-2005>
153.047271728516

> <r_mmod_Electrostatic_Energy-OPLS-2005>
-425.468383789062

> <r_mmod_Solvation_Energy-OPLS-2005>
-211.231140136719

> <b_mmod_Minimization_Converged-OPLS-2005>
0

> <r_mmod_RMS_Derivative-OPLS-2005>
2.64189291000366

$$$$
69
                    3D
 Structure written by MMmdl.
163171  0  0  1  0            999 V2000
  -30.6259  -14.6528   20.5006 C   0  0  0  0  0  0
  -30.4393  -12.3975   19.4630 C   0  0  0  0  0  0
  -29.5137  -12.5096   18.2309 C   0  0  0  0  0  0
  -28.0357  -12.3436   18.6393 C   0  0  0  0  0  0
  -27.6549  -13.2184   19.8638 C   0  0  2  0  0  0
  -28.6977  -13.0820   20.9967 C   0  0  0  0  0  0
  -25.2566  -13.8160   20.5654 C   0  0  0  0  0  0
  -24.1836  -13.0435   20.9171 C   0  0  0  0  0  0
  -24.6403  -11.6902   20.8726 C   0  0  0  0  0  0
  -23.9078  -10.4281   21.0394 C   0  0  0  0  0  0
  -24.3626   -9.4202   21.9171 C   0  0  0  0  0  0
  -23.6291   -8.2248   22.0755 C   0  0  0  0  0  0
  -22.4275   -8.0283   21.3551 C   0  0  0  0  0  0
  -21.9916   -9.0251   20.4649 C   0  0  0  0  0  0
  -22.7250  -10.2120   20.3048 C   0  0  0  0  0  0
  -21.6859   -6.0736   22.5270 C   0  0  0  0  0  0
  -21.4018   -6.5643   23.8205 C   0  0  0  0  0  0
  -21.3662   -5.6797   24.9167 C   0  0  0  0  0  0
  -21.6045   -4.3060   24.7218 C   0  0  0  0  0  0
  -21.8820   -3.8150   23.4342 C   0  0  0  0  0  0
  -21.9192   -4.6966   22.3396 C   0  0  0  0  0  0
  -22.7864  -13.5225   21.1834 C   0  0  0  0  0  0
  -22.1662   -4.2157   21.0978 F   0  0  0  0  0  0
  -21.5628   -3.4541   25.7732 F   0  0  0  0  0  0
  -30.0153  -13.4246   20.4351 N   0  0  0  0  0  0
  -26.3004  -12.9353   20.3306 N   0  0  0  0  0  0
  -25.9333  -11.6505   20.5749 N   0  0  0  0  0  0
  -22.0523  -12.8200   22.0397 N   0  0  0  0  0  0
  -25.4263  -15.1873   20.4029 N   0  0  0  0  0  0
  -31.7847  -14.8091   20.1066 O   0  0  0  0  0  0
  -21.6646   -6.8877   21.4235 O   0  0  0  0  0  0
  -22.3537  -14.5532   20.6692 O   0  0  0  0  0  0
  -24.6270  -31.8607   23.2012 C   0  0  0  0  0  0
  -25.9118  -32.4783   23.8345 C   0  0  1  0  0  0
  -27.2228  -27.3143   20.1263 C   0  0  0  0  0  0
  -25.5898  -33.8580   24.2262 N   0  0  0  0  0  0
  -23.4206  -30.4855   21.5411 C   0  0  2  0  0  0
  -24.8690  -28.9445   20.1106 C   0  0  0  0  0  0
  -22.7498  -29.4623   22.4889 C   0  0  0  0  0  0
  -18.0282  -28.1375   22.8478 C   0  0  0  0  0  0
  -24.1485  -36.7312   23.2648 C   0  0  0  0  0  0
  -25.9630  -30.7929   21.3730 C   0  0  0  0  0  0
  -26.0387  -29.4198   20.7153 C   0  0  0  0  0  0
  -27.2189  -28.6178   20.7124 C   0  0  0  0  0  0
  -26.0297  -26.8958   19.4914 C   0  0  0  0  0  0
  -24.8659  -27.6855   19.4909 C   0  0  0  0  0  0
  -23.6410  -29.8292   20.1544 C   0  0  0  0  0  0
  -25.4104  -36.3093   24.0334 C   0  0  1  0  0  0
  -20.5892  -28.3721   23.1261 C   0  0  2  0  0  0
  -20.6778  -26.9436   22.5404 C   0  0  0  0  0  0
  -19.5754  -26.6379   21.5207 C   0  0  0  0  0  0
  -18.1932  -26.7918   22.1612 C   0  0  0  0  0  0
  -19.1534  -28.8854   23.2862 C   0  0  0  0  0  0
  -18.9476  -30.1451   23.8907 C   0  0  0  0  0  0
  -17.6491  -30.6601   24.0557 C   0  0  0  0  0  0
  -25.9043  -34.9468   23.5106 C   0  0  0  0  0  0
  -16.5373  -29.9110   23.6312 C   0  0  0  0  0  0
  -16.7279  -28.6513   23.0333 C   0  0  0  0  0  0
  -26.4490  -31.6582   25.0713 C   0  0  0  0  0  0
  -25.3712  -31.3729   26.1432 C   0  0  0  0  0  0
  -27.0326  -30.2997   24.6164 C   0  0  0  0  0  0
  -27.6019  -32.4342   25.7491 C   0  0  0  0  0  0
  -27.5582  -37.1816   24.8469 C   0  0  0  0  0  0
  -21.4204  -29.3071   22.3667 N   0  0  0  0  0  0
  -26.4286  -37.3785   23.9424 N   0  0  0  0  0  0
  -24.6884  -31.0624   22.0958 N   0  0  0  0  0  0
  -23.4227  -28.8148   23.2962 O   0  0  0  0  0  0
  -28.3311  -26.4534   20.1967 O   0  0  0  0  0  0
  -26.5648  -34.8945   22.4697 O   0  0  0  0  0  0
  -23.5435  -32.1417   23.7328 O   0  0  0  0  0  0
  -29.3929  -19.4437   21.6027 C   0  0  0  0  0  0
  -30.3783  -19.2010   19.4295 C   0  0  0  0  0  0
  -29.4366  -18.0230   21.7803 C   0  0  0  0  0  0
  -29.9380  -17.1492   20.7645 C   0  0  0  0  0  0
  -29.8650  -20.0736   20.4250 C   0  0  0  0  0  0
  -30.3978  -17.7808   19.5742 C   0  0  0  0  0  0
  -27.4990  -16.9958   23.0661 C   0  0  0  0  0  0
  -30.4783  -24.2624   19.6481 C   0  0  0  0  0  0
  -29.5679  -24.1602   21.9851 C   0  0  0  0  0  0
  -28.9600  -17.4562   23.1105 C   0  0  0  0  0  0
  -28.0900  -24.9888   20.0883 C   0  0  0  0  0  0
  -28.8587  -22.3917   20.3086 C   0  0  0  0  0  0
  -29.2332  -23.9470   20.4987 C   0  0  0  0  0  0
  -29.8444  -15.6935   20.9282 N   0  0  0  0  0  0
  -29.9979  -21.4701   20.2850 O   0  0  0  0  0  0
  -30.8362  -17.0311   18.5338 F   0  0  0  0  0  0
  -31.4830  -12.5162   19.1673 H   0  0  0  0  0  0
  -30.3651  -11.4049   19.9095 H   0  0  0  0  0  0
  -29.7836  -11.7568   17.4884 H   0  0  0  0  0  0
  -29.6552  -13.4803   17.7510 H   0  0  0  0  0  0
  -27.8739  -11.2906   18.8730 H   0  0  0  0  0  0
  -27.3826  -12.5717   17.7955 H   0  0  0  0  0  0
  -27.6714  -14.2520   19.5186 H   0  0  0  0  0  0
  -28.7102  -12.0632   21.3865 H   0  0  0  0  0  0
  -28.4351  -13.7178   21.8443 H   0  0  0  0  0  0
  -25.2768   -9.5683   22.4739 H   0  0  0  0  0  0
  -24.0010   -7.4647   22.7473 H   0  0  0  0  0  0
  -21.0857   -8.8764   19.8950 H   0  0  0  0  0  0
  -22.3705  -10.9661   19.6161 H   0  0  0  0  0  0
  -21.2015   -7.6154   23.9710 H   0  0  0  0  0  0
  -21.1488   -6.0530   25.9072 H   0  0  0  0  0  0
  -22.0597   -2.7617   23.2834 H   0  0  0  0  0  0
  -22.4168  -11.9857   22.4761 H   0  0  0  0  0  0
  -21.1140  -13.1200   22.2623 H   0  0  0  0  0  0
  -24.6541  -15.8367   20.5039 H   0  0  0  0  0  0
  -26.2697  -15.6277   20.0592 H   0  0  0  0  0  0
  -26.7193  -32.5443   23.1102 H   0  0  0  0  0  0
  -24.9956  -33.9679   25.0352 H   0  0  0  0  0  0
  -22.7155  -31.3081   21.3982 H   0  0  0  0  0  0
  -23.3734  -35.9658   23.3302 H   0  0  0  0  0  0
  -24.3598  -36.8945   22.2070 H   0  0  0  0  0  0
  -23.7257  -37.6518   23.6683 H   0  0  0  0  0  0
  -26.0977  -31.5612   20.6102 H   0  0  0  0  0  0
  -26.8413  -30.8397   22.0042 H   0  0  0  0  0  0
  -28.1116  -28.9779   21.2028 H   0  0  0  0  0  0
  -25.9586  -25.9363   19.0031 H   0  0  0  0  0  0
  -23.9668  -27.3098   19.0206 H   0  0  0  0  0  0
  -23.7821  -30.6138   19.4102 H   0  0  0  0  0  0
  -22.7576  -29.2745   19.8331 H   0  0  0  0  0  0
  -25.1278  -36.1947   25.0824 H   0  0  0  0  0  0
  -20.9950  -28.3293   24.1391 H   0  0  0  0  0  0
  -20.5684  -26.2325   23.3613 H   0  0  0  0  0  0
  -21.6638  -26.7468   22.1178 H   0  0  0  0  0  0
  -19.6910  -25.6284   21.1239 H   0  0  0  0  0  0
  -19.6664  -27.3184   20.6733 H   0  0  0  0  0  0
  -17.4192  -26.6672   21.4016 H   0  0  0  0  0  0
  -18.0319  -26.0062   22.9003 H   0  0  0  0  0  0
  -19.7972  -30.7233   24.2267 H   0  0  0  0  0  0
  -17.5072  -31.6274   24.5183 H   0  0  0  0  0  0
  -15.5377  -30.3040   23.7628 H   0  0  0  0  0  0
  -15.8663  -28.0864   22.7035 H   0  0  0  0  0  0
  -24.5879  -30.7062   25.7796 H   0  0  0  0  0  0
  -24.8886  -32.2896   26.4840 H   0  0  0  0  0  0
  -25.8030  -30.8943   27.0225 H   0  0  0  0  0  0
  -26.2880  -29.6736   24.1219 H   0  0  0  0  0  0
  -27.4068  -29.7257   25.4652 H   0  0  0  0  0  0
  -27.8741  -30.4266   23.9342 H   0  0  0  0  0  0
  -27.2583  -33.3655   26.2012 H   0  0  0  0  0  0
  -28.3855  -32.6896   25.0341 H   0  0  0  0  0  0
  -28.0657  -31.8508   26.5459 H   0  0  0  0  0  0
  -28.2578  -38.0131   24.7520 H   0  0  0  0  0  0
  -28.1081  -36.2660   24.6253 H   0  0  0  0  0  0
  -27.2306  -37.1419   25.8871 H   0  0  0  0  0  0
  -20.9394  -29.8908   21.6969 H   0  0  0  0  0  0
  -26.0159  -38.2855   24.1425 H   0  0  0  0  0  0
  -29.0350  -20.0655   22.4114 H   0  0  0  0  0  0
  -30.7694  -19.6287   18.5173 H   0  0  0  0  0  0
  -27.1997  -16.5845   24.0300 H   0  0  0  0  0  0
  -27.3466  -16.2212   22.3150 H   0  0  0  0  0  0
  -26.8314  -17.8257   22.8339 H   0  0  0  0  0  0
  -30.7780  -25.3047   19.7571 H   0  0  0  0  0  0
  -30.2915  -24.0814   18.5895 H   0  0  0  0  0  0
  -31.3309  -23.6499   19.9430 H   0  0  0  0  0  0
  -29.8158  -25.2016   22.1937 H   0  0  0  0  0  0
  -30.4147  -23.5471   22.2947 H   0  0  0  0  0  0
  -28.7231  -23.8939   22.6208 H   0  0  0  0  0  0
  -29.0824  -18.2102   23.8909 H   0  0  0  0  0  0
  -29.6085  -16.6303   23.4061 H   0  0  0  0  0  0
  -27.8281  -24.7824   19.0493 H   0  0  0  0  0  0
  -27.2051  -24.7447   20.6782 H   0  0  0  0  0  0
  -28.3372  -22.2719   19.3574 H   0  0  0  0  0  0
  -28.1446  -22.0786   21.0715 H   0  0  0  0  0  0
  -28.9893  -15.3868   21.3640 H   0  0  0  0  0  0
  1 25  1  0  0  0
  1 30  2  0  0  0
  1 84  1  0  0  0
  2  3  1  0  0  0
  2 25  1  0  0  0
  2 87  1  0  0  0
  2 88  1  0  0  0
  3  4  1  0  0  0
  3 89  1  0  0  0
  3 90  1  0  0  0
  4  5  1  0  0  0
  4 91  1  0  0  0
  4 92  1  0  0  0
  5  6  1  0  0  0
  5 26  1  0  0  0
  5 93  1  0  0  0
  6 25  1  0  0  0
  6 94  1  0  0  0
  6 95  1  0  0  0
  7  8  2  0  0  0
  7 26  1  0  0  0
  7 29  1  0  0  0
  8  9  1  0  0  0
  8 22  1  0  0  0
  9 10  1  0  0  0
  9 27  2  0  0  0
 10 11  2  0  0  0
 10 15  1  0  0  0
 11 12  1  0  0  0
 11 96  1  0  0  0
 12 13  2  0  0  0
 12 97  1  0  0  0
 13 14  1  0  0  0
 13 31  1  0  0  0
 14 15  2  0  0  0
 14 98  1  0  0  0
 15 99  1  0  0  0
 16 17  2  0  0  0
 16 21  1  0  0  0
 16 31  1  0  0  0
 17 18  1  0  0  0
 17100  1  0  0  0
 18 19  2  0  0  0
 18101  1  0  0  0
 19 20  1  0  0  0
 19 24  1  0  0  0
 20 21  2  0  0  0
 20102  1  0  0  0
 21 23  1  0  0  0
 22 28  1  0  0  0
 22 32  2  0  0  0
 26 27  1  0  0  0
 28103  1  0  0  0
 28104  1  0  0  0
 29105  1  0  0  0
 29106  1  0  0  0
 33 34  1  0  0  0
 33 66  1  0  0  0
 33 70  2  0  0  0
 34 36  1  0  0  0
 34 59  1  0  0  0
 34107  1  0  0  0
 35 44  2  0  0  0
 35 45  1  0  0  0
 35 68  1  0  0  0
 36 56  1  0  0  0
 36108  1  0  0  0
 37 39  1  0  0  0
 37 47  1  0  0  0
 37 66  1  0  0  0
 37109  1  0  0  0
 38 43  2  0  0  0
 38 46  1  0  0  0
 38 47  1  0  0  0
 39 64  1  0  0  0
 39 67  2  0  0  0
 40 52  1  0  0  0
 40 53  2  0  0  0
 40 58  1  0  0  0
 41110  1  0  0  0
 41111  1  0  0  0
 41112  1  0  0  0
 41 48  1  0  0  0
 42 43  1  0  0  0
 42 66  1  0  0  0
 42113  1  0  0  0
 42114  1  0  0  0
 43 44  1  0  0  0
 44115  1  0  0  0
 45 46  2  0  0  0
 45116  1  0  0  0
 46117  1  0  0  0
 47118  1  0  0  0
 47119  1  0  0  0
 48 56  1  0  0  0
 48 65  1  0  0  0
 48120  1  0  0  0
 49 50  1  0  0  0
 49 53  1  0  0  0
 49 64  1  0  0  0
 49121  1  0  0  0
 50 51  1  0  0  0
 50122  1  0  0  0
 50123  1  0  0  0
 51 52  1  0  0  0
 51124  1  0  0  0
 51125  1  0  0  0
 52126  1  0  0  0
 52127  1  0  0  0
 53 54  1  0  0  0
 54 55  2  0  0  0
 54128  1  0  0  0
 55 57  1  0  0  0
 55129  1  0  0  0
 56 69  2  0  0  0
 57 58  2  0  0  0
 57130  1  0  0  0
 58131  1  0  0  0
 59 60  1  0  0  0
 59 61  1  0  0  0
 59 62  1  0  0  0
 60132  1  0  0  0
 60133  1  0  0  0
 60134  1  0  0  0
 61135  1  0  0  0
 61136  1  0  0  0
 61137  1  0  0  0
 62138  1  0  0  0
 62139  1  0  0  0
 62140  1  0  0  0
 63 65  1  0  0  0
 63141  1  0  0  0
 63142  1  0  0  0
 63143  1  0  0  0
 64144  1  0  0  0
 65145  1  0  0  0
 68 81  1  0  0  0
 71 73  2  0  0  0
 71 75  1  0  0  0
 71146  1  0  0  0
 72 75  2  0  0  0
 72 76  1  0  0  0
 72147  1  0  0  0
 73 74  1  0  0  0
 73 80  1  0  0  0
 74 76  2  0  0  0
 74 84  1  0  0  0
 75 85  1  0  0  0
 76 86  1  0  0  0
 77 80  1  0  0  0
 77148  1  0  0  0
 77149  1  0  0  0
 77150  1  0  0  0
 78151  1  0  0  0
 78152  1  0  0  0
 78153  1  0  0  0
 78 83  1  0  0  0
 79 83  1  0  0  0
 79154  1  0  0  0
 79155  1  0  0  0
 79156  1  0  0  0
 80157  1  0  0  0
 80158  1  0  0  0
 81 83  1  0  0  0
 81159  1  0  0  0
 81160  1  0  0  0
 82 83  1  0  0  0
 82 85  1  0  0  0
 82161  1  0  0  0
 82162  1  0  0  0
 84163  1  0  0  0
M  ISO  4   1 100  68 101  81 101  84 100
M  END
> <chiral flag>
0

> <version>
0

> <s_m_source_file>
/data/baiqing/PycharmProjects/Reinvent-master-3.2/result/LINK_invent/BTK/process_docking_weight1_custom_product_contain_oxygen_bond_distance_aromatic_linkinvent_7_9_3/rearranged_h_0137.sdf

> <i_m_source_file_index>
70

> <r_mmod_Potential_Energy-OPLS-2005>
66.2415313720703

> <r_mmod_Stretch_Energy-OPLS-2005>
84.5093078613281

> <r_mmod_Bend_Energy-OPLS-2005>
142.626266479492

> <r_mmod_Torsional_Energy-OPLS-2005>
258.134063720703

> <r_mmod_Improper_Torsional_Energy-OPLS-2005>
4.08070611953735

> <r_mmod_Van_der_Waal_Energy-OPLS-2005>
136.476165771484

> <r_mmod_Electrostatic_Energy-OPLS-2005>
-409.0498046875

> <r_mmod_Solvation_Energy-OPLS-2005>
-203.392578125

> <b_mmod_Minimization_Converged-OPLS-2005>
0

> <r_mmod_RMS_Derivative-OPLS-2005>
2.92076420783997

$$$$
70
                    3D
 Structure written by MMmdl.
160168  0  0  1  0            999 V2000
  -30.5608  -14.7864   20.4580 C   0  0  0  0  0  0
  -30.4497  -12.4820   19.5201 C   0  0  0  0  0  0
  -29.5332  -12.5343   18.2752 C   0  0  0  0  0  0
  -28.0791  -12.2751   18.6976 C   0  0  0  0  0  0
  -27.6459  -13.2169   19.8489 C   0  0  2  0  0  0
  -28.6615  -13.2135   21.0119 C   0  0  0  0  0  0
  -25.2545  -13.8155   20.5599 C   0  0  0  0  0  0
  -24.1787  -13.0420   20.9163 C   0  0  0  0  0  0
  -24.6389  -11.6921   20.8745 C   0  0  0  0  0  0
  -23.9057  -10.4289   21.0401 C   0  0  0  0  0  0
  -24.3622   -9.4224   21.9185 C   0  0  0  0  0  0
  -23.6307   -8.2251   22.0763 C   0  0  0  0  0  0
  -22.4275   -8.0285   21.3555 C   0  0  0  0  0  0
  -21.9900   -9.0243   20.4657 C   0  0  0  0  0  0
  -22.7228  -10.2145   20.3058 C   0  0  0  0  0  0
  -21.6875   -6.0755   22.5279 C   0  0  0  0  0  0
  -21.4010   -6.5649   23.8199 C   0  0  0  0  0  0
  -21.3651   -5.6825   24.9159 C   0  0  0  0  0  0
  -21.6034   -4.3067   24.7231 C   0  0  0  0  0  0
  -21.8837   -3.8162   23.4335 C   0  0  0  0  0  0
  -21.9200   -4.6983   22.3393 C   0  0  0  0  0  0
  -22.7839  -13.5235   21.1840 C   0  0  0  0  0  0
  -22.1676   -4.2151   21.0984 F   0  0  0  0  0  0
  -21.5625   -3.4548   25.7745 F   0  0  0  0  0  0
  -29.9871  -13.5360   20.4631 N   0  0  0  0  0  0
  -26.2938  -12.9345   20.3195 N   0  0  0  0  0  0
  -25.9305  -11.6508   20.5701 N   0  0  0  0  0  0
  -22.0492  -12.8189   22.0407 N   0  0  0  0  0  0
  -25.4196  -15.1883   20.3947 N   0  0  0  0  0  0
  -31.7112  -14.9248   20.0182 O   0  0  0  0  0  0
  -21.6648   -6.8875   21.4235 O   0  0  0  0  0  0
  -22.3544  -14.5508   20.6706 O   0  0  0  0  0  0
  -24.6423  -31.8497   23.1874 C   0  0  0  0  0  0
  -25.9143  -32.4807   23.8284 C   0  0  1  0  0  0
  -27.2305  -27.2313   20.1659 C   0  0  0  0  0  0
  -25.5889  -33.8599   24.2259 N   0  0  0  0  0  0
  -23.4458  -30.4600   21.5480 C   0  0  2  0  0  0
  -24.8823  -28.8793   20.1523 C   0  0  0  0  0  0
  -22.7530  -29.4579   22.4991 C   0  0  0  0  0  0
  -18.0390  -28.1241   22.8488 C   0  0  0  0  0  0
  -24.1487  -36.7378   23.2645 C   0  0  0  0  0  0
  -25.9836  -30.7693   21.3447 C   0  0  0  0  0  0
  -26.0679  -29.3762   20.7166 C   0  0  0  0  0  0
  -27.2504  -28.5755   20.6885 C   0  0  0  0  0  0
  -26.0152  -26.7868   19.6260 C   0  0  0  0  0  0
  -24.8572  -27.5873   19.6042 C   0  0  0  0  0  0
  -23.6677  -29.7765   20.1751 C   0  0  0  0  0  0
  -25.4093  -36.3163   24.0361 C   0  0  1  0  0  0
  -20.5956  -28.3678   23.1253 C   0  0  2  0  0  0
  -20.7030  -26.9511   22.5041 C   0  0  0  0  0  0
  -19.5792  -26.6208   21.5154 C   0  0  0  0  0  0
  -18.2058  -26.7751   22.1684 C   0  0  0  0  0  0
  -19.1596  -28.8749   23.2893 C   0  0  0  0  0  0
  -18.9498  -30.1309   23.8955 C   0  0  0  0  0  0
  -17.6480  -30.6448   24.0614 C   0  0  0  0  0  0
  -25.9028  -34.9518   23.5152 C   0  0  0  0  0  0
  -16.5410  -29.8928   23.6340 C   0  0  0  0  0  0
  -16.7359  -28.6372   23.0348 C   0  0  0  0  0  0
  -26.4509  -31.6648   25.0712 C   0  0  0  0  0  0
  -25.3733  -31.3805   26.1448 C   0  0  0  0  0  0
  -27.0271  -30.3070   24.6118 C   0  0  0  0  0  0
  -27.6128  -32.4331   25.7513 C   0  0  0  0  0  0
  -27.5586  -37.1852   24.8441 C   0  0  0  0  0  0
  -21.4178  -29.3312   22.3940 N   0  0  0  0  0  0
  -26.4282  -37.3847   23.9424 N   0  0  0  0  0  0
  -24.7185  -31.0453   22.0883 N   0  0  0  0  0  0
  -23.4188  -28.7817   23.2912 O   0  0  0  0  0  0
  -28.3412  -26.3514   20.1128 O   0  0  0  0  0  0
  -26.5642  -34.8973   22.4737 O   0  0  0  0  0  0
  -23.5558  -32.1254   23.7138 O   0  0  0  0  0  0
  -29.1286  -17.1567   18.7946 C   0  0  0  0  0  0
  -28.7268  -19.5960   18.7621 C   0  0  0  0  0  0
  -29.4272  -18.4753   20.8014 C   0  0  0  0  0  0
  -28.6868  -18.3296   18.1244 C   0  0  0  0  0  0
  -29.5313  -17.1747   20.1607 C   0  0  0  0  0  0
  -29.0590  -19.7143   20.1284 C   0  0  0  0  0  0
  -28.0547  -18.2333   16.7416 C   0  0  0  0  0  0
  -27.6447  -23.6270   18.6202 C   0  0  0  0  0  0
  -26.7001  -23.0484   20.8173 C   0  0  0  0  0  0
  -28.3305  -24.9860   20.7697 C   0  0  0  0  0  0
  -29.1212  -22.3158   20.2473 C   0  0  0  0  0  0
  -27.9951  -23.5059   20.1151 C   0  0  0  0  0  0
  -29.8017  -15.8844   20.8638 N   0  0  0  0  0  0
  -28.8814  -20.9461   20.8191 O   0  0  0  0  0  0
  -31.4893  -12.6250   19.2068 H   0  0  0  0  0  0
  -30.4275  -11.4988   19.9983 H   0  0  0  0  0  0
  -29.8605  -11.8168   17.5218 H   0  0  0  0  0  0
  -29.6087  -13.5230   17.8182 H   0  0  0  0  0  0
  -28.0190  -11.2379   19.0364 H   0  0  0  0  0  0
  -27.4062  -12.3488   17.8447 H   0  0  0  0  0  0
  -27.6323  -14.2215   19.4259 H   0  0  0  0  0  0
  -28.6734  -12.2641   21.5489 H   0  0  0  0  0  0
  -28.3539  -13.9634   21.7446 H   0  0  0  0  0  0
  -25.2770   -9.5731   22.4732 H   0  0  0  0  0  0
  -24.0035   -7.4669   22.7489 H   0  0  0  0  0  0
  -21.0820   -8.8766   19.8960 H   0  0  0  0  0  0
  -22.3667  -10.9685   19.6154 H   0  0  0  0  0  0
  -21.2003   -7.6153   23.9698 H   0  0  0  0  0  0
  -21.1449   -6.0536   25.9064 H   0  0  0  0  0  0
  -22.0614   -2.7610   23.2842 H   0  0  0  0  0  0
  -22.4110  -11.9873   22.4813 H   0  0  0  0  0  0
  -21.1109  -13.1231   22.2590 H   0  0  0  0  0  0
  -24.6398  -15.8297   20.4921 H   0  0  0  0  0  0
  -26.2616  -15.6387   20.0530 H   0  0  0  0  0  0
  -26.7223  -32.5394   23.1025 H   0  0  0  0  0  0
  -24.9949  -33.9720   25.0356 H   0  0  0  0  0  0
  -22.7530  -31.2887   21.3867 H   0  0  0  0  0  0
  -23.3764  -35.9700   23.3290 H   0  0  0  0  0  0
  -24.3572  -36.9009   22.2060 H   0  0  0  0  0  0
  -23.7199  -37.6568   23.6653 H   0  0  0  0  0  0
  -26.0621  -31.5021   20.5438 H   0  0  0  0  0  0
  -26.8823  -30.8600   21.9454 H   0  0  0  0  0  0
  -28.1688  -28.9770   21.0922 H   0  0  0  0  0  0
  -25.9482  -25.7764   19.2596 H   0  0  0  0  0  0
  -23.9397  -27.1683   19.2177 H   0  0  0  0  0  0
  -23.8223  -30.5457   19.4191 H   0  0  0  0  0  0
  -22.7856  -29.2258   19.8446 H   0  0  0  0  0  0
  -25.1267  -36.2091   25.0865 H   0  0  0  0  0  0
  -21.0062  -28.3089   24.1357 H   0  0  0  0  0  0
  -20.6551  -26.2198   23.3117 H   0  0  0  0  0  0
  -21.6789  -26.7988   22.0403 H   0  0  0  0  0  0
  -19.6986  -25.6014   21.1437 H   0  0  0  0  0  0
  -19.6558  -27.2776   20.6475 H   0  0  0  0  0  0
  -17.4226  -26.6376   21.4221 H   0  0  0  0  0  0
  -18.0662  -25.9924   22.9167 H   0  0  0  0  0  0
  -19.7979  -30.7087   24.2408 H   0  0  0  0  0  0
  -17.5024  -31.6057   24.5306 H   0  0  0  0  0  0
  -15.5406  -30.2759   23.7678 H   0  0  0  0  0  0
  -15.8774  -28.0629   22.7091 H   0  0  0  0  0  0
  -24.5990  -30.7075   25.7774 H   0  0  0  0  0  0
  -24.8833  -32.2965   26.4764 H   0  0  0  0  0  0
  -25.8050  -30.9086   27.0278 H   0  0  0  0  0  0
  -26.2764  -29.6913   24.1182 H   0  0  0  0  0  0
  -27.3975  -29.7276   25.4564 H   0  0  0  0  0  0
  -27.8626  -30.4351   23.9246 H   0  0  0  0  0  0
  -27.2818  -33.3643   26.2103 H   0  0  0  0  0  0
  -28.3962  -32.6836   25.0369 H   0  0  0  0  0  0
  -28.0768  -31.8421   26.5416 H   0  0  0  0  0  0
  -28.2638  -38.0126   24.7508 H   0  0  0  0  0  0
  -28.1055  -36.2672   24.6248 H   0  0  0  0  0  0
  -27.2318  -37.1494   25.8843 H   0  0  0  0  0  0
  -20.9288  -29.9681   21.7750 H   0  0  0  0  0  0
  -26.0222  -38.2959   24.1392 H   0  0  0  0  0  0
  -29.0904  -16.2133   18.2677 H   0  0  0  0  0  0
  -28.4198  -20.4751   18.2104 H   0  0  0  0  0  0
  -29.6224  -18.5301   21.8608 H   0  0  0  0  0  0
  -27.8520  -17.2004   16.4610 H   0  0  0  0  0  0
  -28.6779  -18.6735   15.9642 H   0  0  0  0  0  0
  -27.0920  -18.7531   16.7353 H   0  0  0  0  0  0
  -26.6361  -24.0038   18.4745 H   0  0  0  0  0  0
  -27.6660  -22.6483   18.1429 H   0  0  0  0  0  0
  -28.3380  -24.2758   18.0853 H   0  0  0  0  0  0
  -26.8854  -22.7909   21.8633 H   0  0  0  0  0  0
  -26.2191  -22.1980   20.3300 H   0  0  0  0  0  0
  -25.9745  -23.8623   20.8037 H   0  0  0  0  0  0
  -27.7274  -25.1040   21.6736 H   0  0  0  0  0  0
  -29.3174  -24.8987   21.2187 H   0  0  0  0  0  0
  -29.8695  -22.7212   20.9250 H   0  0  0  0  0  0
  -29.6901  -22.2143   19.3228 H   0  0  0  0  0  0
  -29.0833  -15.6221   21.5214 H   0  0  0  0  0  0
  1 25  1  0  0  0
  1 30  2  0  0  0
  1 83  1  0  0  0
  2  3  1  0  0  0
  2 25  1  0  0  0
  2 85  1  0  0  0
  2 86  1  0  0  0
  3  4  1  0  0  0
  3 87  1  0  0  0
  3 88  1  0  0  0
  4  5  1  0  0  0
  4 89  1  0  0  0
  4 90  1  0  0  0
  5  6  1  0  0  0
  5 26  1  0  0  0
  5 91  1  0  0  0
  6 25  1  0  0  0
  6 92  1  0  0  0
  6 93  1  0  0  0
  7  8  2  0  0  0
  7 26  1  0  0  0
  7 29  1  0  0  0
  8  9  1  0  0  0
  8 22  1  0  0  0
  9 10  1  0  0  0
  9 27  2  0  0  0
 10 11  2  0  0  0
 10 15  1  0  0  0
 11 12  1  0  0  0
 11 94  1  0  0  0
 12 13  2  0  0  0
 12 95  1  0  0  0
 13 14  1  0  0  0
 13 31  1  0  0  0
 14 15  2  0  0  0
 14 96  1  0  0  0
 15 97  1  0  0  0
 16 17  2  0  0  0
 16 21  1  0  0  0
 16 31  1  0  0  0
 17 18  1  0  0  0
 17 98  1  0  0  0
 18 19  2  0  0  0
 18 99  1  0  0  0
 19 20  1  0  0  0
 19 24  1  0  0  0
 20 21  2  0  0  0
 20100  1  0  0  0
 21 23  1  0  0  0
 22 28  1  0  0  0
 22 32  2  0  0  0
 26 27  1  0  0  0
 28101  1  0  0  0
 28102  1  0  0  0
 29103  1  0  0  0
 29104  1  0  0  0
 33 34  1  0  0  0
 33 66  1  0  0  0
 33 70  2  0  0  0
 34 36  1  0  0  0
 34 59  1  0  0  0
 34105  1  0  0  0
 35 44  2  0  0  0
 35 45  1  0  0  0
 35 68  1  0  0  0
 36 56  1  0  0  0
 36106  1  0  0  0
 37 39  1  0  0  0
 37 47  1  0  0  0
 37 66  1  0  0  0
 37107  1  0  0  0
 38 43  2  0  0  0
 38 46  1  0  0  0
 38 47  1  0  0  0
 39 64  1  0  0  0
 39 67  2  0  0  0
 40 52  1  0  0  0
 40 53  2  0  0  0
 40 58  1  0  0  0
 41108  1  0  0  0
 41109  1  0  0  0
 41110  1  0  0  0
 41 48  1  0  0  0
 42 43  1  0  0  0
 42 66  1  0  0  0
 42111  1  0  0  0
 42112  1  0  0  0
 43 44  1  0  0  0
 44113  1  0  0  0
 45 46  2  0  0  0
 45114  1  0  0  0
 46115  1  0  0  0
 47116  1  0  0  0
 47117  1  0  0  0
 48 56  1  0  0  0
 48 65  1  0  0  0
 48118  1  0  0  0
 49 50  1  0  0  0
 49 53  1  0  0  0
 49 64  1  0  0  0
 49119  1  0  0  0
 50 51  1  0  0  0
 50120  1  0  0  0
 50121  1  0  0  0
 51 52  1  0  0  0
 51122  1  0  0  0
 51123  1  0  0  0
 52124  1  0  0  0
 52125  1  0  0  0
 53 54  1  0  0  0
 54 55  2  0  0  0
 54126  1  0  0  0
 55 57  1  0  0  0
 55127  1  0  0  0
 56 69  2  0  0  0
 57 58  2  0  0  0
 57128  1  0  0  0
 58129  1  0  0  0
 59 60  1  0  0  0
 59 61  1  0  0  0
 59 62  1  0  0  0
 60130  1  0  0  0
 60131  1  0  0  0
 60132  1  0  0  0
 61133  1  0  0  0
 61134  1  0  0  0
 61135  1  0  0  0
 62136  1  0  0  0
 62137  1  0  0  0
 62138  1  0  0  0
 63 65  1  0  0  0
 63139  1  0  0  0
 63140  1  0  0  0
 63141  1  0  0  0
 64142  1  0  0  0
 65143  1  0  0  0
 68 80  1  0  0  0
 71 74  2  0  0  0
 71 75  1  0  0  0
 71144  1  0  0  0
 72 74  1  0  0  0
 72 76  2  0  0  0
 72145  1  0  0  0
 73 75  2  0  0  0
 73 76  1  0  0  0
 73146  1  0  0  0
 74 77  1  0  0  0
 75 83  1  0  0  0
 76 84  1  0  0  0
 77147  1  0  0  0
 77148  1  0  0  0
 77149  1  0  0  0
 78150  1  0  0  0
 78151  1  0  0  0
 78152  1  0  0  0
 78 82  1  0  0  0
 79 82  1  0  0  0
 79153  1  0  0  0
 79154  1  0  0  0
 79155  1  0  0  0
 80 82  1  0  0  0
 80156  1  0  0  0
 80157  1  0  0  0
 81 82  1  0  0  0
 81 84  1  0  0  0
 81158  1  0  0  0
 81159  1  0  0  0
 83160  1  0  0  0
M  ISO  4   1 100  68 101  80 101  83 100
M  END
> <chiral flag>
0

> <version>
0

> <s_m_source_file>
/data/baiqing/PycharmProjects/Reinvent-master-3.2/result/LINK_invent/BTK/process_docking_weight1_custom_product_contain_oxygen_bond_distance_aromatic_linkinvent_7_9_3/rearranged_h_0137.sdf

> <i_m_source_file_index>
71

> <r_mmod_Potential_Energy-OPLS-2005>
364.525054931641

> <r_mmod_Stretch_Energy-OPLS-2005>
145.093276977539

> <r_mmod_Bend_Energy-OPLS-2005>
214.847991943359

> <r_mmod_Torsional_Energy-OPLS-2005>
315.375091552734

> <r_mmod_Improper_Torsional_Energy-OPLS-2005>
6.75856065750122

> <r_mmod_Van_der_Waal_Energy-OPLS-2005>
130.140213012695

> <r_mmod_Electrostatic_Energy-OPLS-2005>
-352.952178955078

> <r_mmod_Solvation_Energy-OPLS-2005>
-206.00114440918

> <b_mmod_Minimization_Converged-OPLS-2005>
0

> <r_mmod_RMS_Derivative-OPLS-2005>
12.3332052230835

$$$$
71
                    3D
 Structure written by MMmdl.
163171  0  0  1  0            999 V2000
  -30.6154  -14.6009   20.5329 C   0  0  0  0  0  0
  -30.4461  -12.3736   19.4444 C   0  0  0  0  0  0
  -29.5090  -12.5090   18.2230 C   0  0  0  0  0  0
  -28.0292  -12.3525   18.6304 C   0  0  0  0  0  0
  -27.6582  -13.2086   19.8705 C   0  0  2  0  0  0
  -28.7002  -13.0212   20.9970 C   0  0  0  0  0  0
  -25.2570  -13.8156   20.5677 C   0  0  0  0  0  0
  -24.1820  -13.0435   20.9170 C   0  0  0  0  0  0
  -24.6374  -11.6905   20.8727 C   0  0  0  0  0  0
  -23.9041  -10.4292   21.0402 C   0  0  0  0  0  0
  -24.3593   -9.4207   21.9187 C   0  0  0  0  0  0
  -23.6263   -8.2246   22.0763 C   0  0  0  0  0  0
  -22.4252   -8.0274   21.3543 C   0  0  0  0  0  0
  -21.9879   -9.0251   20.4653 C   0  0  0  0  0  0
  -22.7210  -10.2129   20.3055 C   0  0  0  0  0  0
  -21.6847   -6.0722   22.5273 C   0  0  0  0  0  0
  -21.4021   -6.5629   23.8211 C   0  0  0  0  0  0
  -21.3663   -5.6784   24.9178 C   0  0  0  0  0  0
  -21.6039   -4.3046   24.7230 C   0  0  0  0  0  0
  -21.8821   -3.8133   23.4353 C   0  0  0  0  0  0
  -21.9194   -4.6949   22.3405 C   0  0  0  0  0  0
  -22.7839  -13.5233   21.1837 C   0  0  0  0  0  0
  -22.1662   -4.2135   21.0986 F   0  0  0  0  0  0
  -21.5628   -3.4531   25.7745 F   0  0  0  0  0  0
  -30.0220  -13.3706   20.4449 N   0  0  0  0  0  0
  -26.3001  -12.9325   20.3333 N   0  0  0  0  0  0
  -25.9298  -11.6486   20.5742 N   0  0  0  0  0  0
  -22.0475  -12.8244   22.0411 N   0  0  0  0  0  0
  -25.4291  -15.1884   20.4132 N   0  0  0  0  0  0
  -31.7561  -14.8111   20.1064 O   0  0  0  0  0  0
  -21.6625   -6.8863   21.4235 O   0  0  0  0  0  0
  -22.3527  -14.5537   20.6685 O   0  0  0  0  0  0
  -24.6240  -31.8607   23.2048 C   0  0  0  0  0  0
  -25.9104  -32.4775   23.8363 C   0  0  1  0  0  0
  -27.2239  -27.3369   20.1043 C   0  0  0  0  0  0
  -25.5938  -33.8581   24.2293 N   0  0  0  0  0  0
  -23.4133  -30.4877   21.5452 C   0  0  2  0  0  0
  -24.8573  -28.9410   20.1150 C   0  0  0  0  0  0
  -22.7440  -29.4650   22.4931 C   0  0  0  0  0  0
  -18.0283  -28.1385   22.8470 C   0  0  0  0  0  0
  -24.1492  -36.7289   23.2633 C   0  0  0  0  0  0
  -25.9523  -30.7977   21.3713 C   0  0  0  0  0  0
  -26.0245  -29.4252   20.7151 C   0  0  0  0  0  0
  -27.2058  -28.6314   20.7056 C   0  0  0  0  0  0
  -26.0237  -26.8912   19.5009 C   0  0  0  0  0  0
  -24.8557  -27.6763   19.5090 C   0  0  0  0  0  0
  -23.6269  -29.8218   20.1611 C   0  0  0  0  0  0
  -25.4114  -36.3080   24.0324 C   0  0  1  0  0  0
  -20.5886  -28.3663   23.1250 C   0  0  2  0  0  0
  -20.6780  -26.9407   22.5322 C   0  0  0  0  0  0
  -19.5725  -26.6356   21.5164 C   0  0  0  0  0  0
  -18.1904  -26.7938   22.1583 C   0  0  0  0  0  0
  -19.1547  -28.8828   23.2877 C   0  0  0  0  0  0
  -18.9499  -30.1403   23.8959 C   0  0  0  0  0  0
  -17.6510  -30.6547   24.0657 C   0  0  0  0  0  0
  -25.9047  -34.9450   23.5101 C   0  0  0  0  0  0
  -16.5391  -29.9086   23.6374 C   0  0  0  0  0  0
  -16.7281  -28.6522   23.0346 C   0  0  0  0  0  0
  -26.4504  -31.6581   25.0729 C   0  0  0  0  0  0
  -25.3756  -31.3724   26.1470 C   0  0  0  0  0  0
  -27.0347  -30.3012   24.6175 C   0  0  0  0  0  0
  -27.6063  -32.4311   25.7501 C   0  0  0  0  0  0
  -27.5574  -37.1805   24.8463 C   0  0  0  0  0  0
  -21.4156  -29.3052   22.3666 N   0  0  0  0  0  0
  -26.4291  -37.3772   23.9401 N   0  0  0  0  0  0
  -24.6816  -31.0655   22.0977 N   0  0  0  0  0  0
  -23.4176  -28.8188   23.2998 O   0  0  0  0  0  0
  -28.3796  -26.5505   20.1498 O   0  0  0  0  0  0
  -26.5604  -34.8916   22.4662 O   0  0  0  0  0  0
  -23.5420  -32.1400   23.7400 O   0  0  0  0  0  0
  -29.0063  -19.1291   19.8618 C   0  0  0  0  0  0
  -29.2283  -17.7214   19.8541 C   0  0  0  0  0  0
  -30.1177  -19.2658   21.9848 C   0  0  0  0  0  0
  -30.3471  -17.8525   22.0037 C   0  0  0  0  0  0
  -29.4169  -19.9401   20.9504 C   0  0  0  0  0  0
  -29.8814  -17.0445   20.9194 C   0  0  0  0  0  0
  -31.0732  -17.2670   23.1780 C   0  0  0  0  0  0
  -28.6613  -24.0115   20.5364 C   0  0  0  0  0  0
  -30.9445  -17.9876   24.5151 C   0  0  0  0  0  0
  -29.7055  -22.3947   18.8588 C   0  0  0  0  0  0
  -27.2622  -22.1959   19.4955 C   0  0  0  0  0  0
  -29.0646  -21.4631   21.1660 C   0  0  0  0  0  0
  -28.4503  -25.2105   19.5363 C   0  0  0  0  0  0
  -28.6869  -22.5058   20.0134 C   0  0  0  0  0  0
  -29.7962  -15.5922   20.9844 N   0  0  0  0  0  0
  -31.7521  -16.2370   23.1366 O   0  0  0  0  0  0
  -28.7978  -24.2471   21.7411 O   0  0  0  0  0  0
  -31.4845  -12.5152   19.1395 H   0  0  0  0  0  0
  -30.3936  -11.3693   19.8679 H   0  0  0  0  0  0
  -29.7674  -11.7698   17.4636 H   0  0  0  0  0  0
  -29.6549  -13.4856   17.7594 H   0  0  0  0  0  0
  -27.8516  -11.2964   18.8395 H   0  0  0  0  0  0
  -27.3801  -12.6068   17.7916 H   0  0  0  0  0  0
  -27.6881  -14.2503   19.5478 H   0  0  0  0  0  0
  -28.7047  -11.9870   21.3432 H   0  0  0  0  0  0
  -28.4430  -13.6164   21.8743 H   0  0  0  0  0  0
  -25.2746   -9.5676   22.4756 H   0  0  0  0  0  0
  -23.9966   -7.4634   22.7474 H   0  0  0  0  0  0
  -21.0815   -8.8772   19.8951 H   0  0  0  0  0  0
  -22.3678  -10.9664   19.6156 H   0  0  0  0  0  0
  -21.2022   -7.6140   23.9713 H   0  0  0  0  0  0
  -21.1478   -6.0519   25.9080 H   0  0  0  0  0  0
  -22.0594   -2.7588   23.2865 H   0  0  0  0  0  0
  -22.4075  -11.9901   22.4806 H   0  0  0  0  0  0
  -21.1098  -13.1285   22.2631 H   0  0  0  0  0  0
  -24.6612  -15.8413   20.5229 H   0  0  0  0  0  0
  -26.2848  -15.6340   20.1084 H   0  0  0  0  0  0
  -26.7164  -32.5454   23.1100 H   0  0  0  0  0  0
  -25.0140  -33.9733   25.0477 H   0  0  0  0  0  0
  -22.7067  -31.3078   21.4034 H   0  0  0  0  0  0
  -23.3747  -35.9629   23.3303 H   0  0  0  0  0  0
  -24.3587  -36.8908   22.2047 H   0  0  0  0  0  0
  -23.7260  -37.6500   23.6655 H   0  0  0  0  0  0
  -26.0815  -31.5632   20.6049 H   0  0  0  0  0  0
  -26.8326  -30.8455   22.0004 H   0  0  0  0  0  0
  -28.1035  -29.0011   21.1811 H   0  0  0  0  0  0
  -25.9326  -25.9257   19.0323 H   0  0  0  0  0  0
  -23.9533  -27.2938   19.0524 H   0  0  0  0  0  0
  -23.7453  -30.5981   19.4031 H   0  0  0  0  0  0
  -22.7464  -29.2508   19.8603 H   0  0  0  0  0  0
  -25.1295  -36.1920   25.0819 H   0  0  0  0  0  0
  -21.0008  -28.3207   24.1355 H   0  0  0  0  0  0
  -20.5756  -26.2256   23.3490 H   0  0  0  0  0  0
  -21.6629  -26.7491   22.1040 H   0  0  0  0  0  0
  -19.6865  -25.6247   21.1249 H   0  0  0  0  0  0
  -19.6650  -27.3121   20.6659 H   0  0  0  0  0  0
  -17.4175  -26.6734   21.3976 H   0  0  0  0  0  0
  -18.0272  -26.0062   22.8956 H   0  0  0  0  0  0
  -19.7992  -30.7168   24.2386 H   0  0  0  0  0  0
  -17.5087  -31.6194   24.5340 H   0  0  0  0  0  0
  -15.5405  -30.3000   23.7715 H   0  0  0  0  0  0
  -15.8668  -28.0876   22.7018 H   0  0  0  0  0  0
  -24.5931  -30.7055   25.7828 H   0  0  0  0  0  0
  -24.8944  -32.2892   26.4898 H   0  0  0  0  0  0
  -25.8109  -30.8927   27.0246 H   0  0  0  0  0  0
  -26.2926  -29.6760   24.1201 H   0  0  0  0  0  0
  -27.4053  -29.7274   25.4678 H   0  0  0  0  0  0
  -27.8790  -30.4302   23.9394 H   0  0  0  0  0  0
  -27.2679  -33.3608   26.2091 H   0  0  0  0  0  0
  -28.3884  -32.6878   25.0338 H   0  0  0  0  0  0
  -28.0718  -31.8427   26.5420 H   0  0  0  0  0  0
  -28.2594  -38.0097   24.7498 H   0  0  0  0  0  0
  -28.1069  -36.2633   24.6301 H   0  0  0  0  0  0
  -27.2299  -37.1466   25.8869 H   0  0  0  0  0  0
  -20.9306  -29.8777   21.6893 H   0  0  0  0  0  0
  -26.0168  -38.2849   24.1401 H   0  0  0  0  0  0
  -28.4754  -19.5539   19.0253 H   0  0  0  0  0  0
  -28.8335  -17.1501   19.0261 H   0  0  0  0  0  0
  -30.4539  -19.8630   22.8200 H   0  0  0  0  0  0
  -29.9388  -18.3886   24.6387 H   0  0  0  0  0  0
  -31.6629  -18.8042   24.5740 H   0  0  0  0  0  0
  -31.1386  -17.2991   25.3367 H   0  0  0  0  0  0
  -29.4631  -23.0633   18.0317 H   0  0  0  0  0  0
  -29.7443  -21.3895   18.4439 H   0  0  0  0  0  0
  -30.7113  -22.6415   19.1992 H   0  0  0  0  0  0
  -27.0004  -22.8027   18.6287 H   0  0  0  0  0  0
  -26.5086  -22.3827   20.2630 H   0  0  0  0  0  0
  -27.1401  -21.1603   19.1898 H   0  0  0  0  0  0
  -29.9156  -21.8824   21.7059 H   0  0  0  0  0  0
  -28.2535  -21.4707   21.8962 H   0  0  0  0  0  0
  -27.6272  -24.9825   18.8669 H   0  0  0  0  0  0
  -29.3253  -25.2277   18.8872 H   0  0  0  0  0  0
  -28.9006  -15.2387   21.2853 H   0  0  0  0  0  0
  1 25  1  0  0  0
  1 30  2  0  0  0
  1 85  1  0  0  0
  2  3  1  0  0  0
  2 25  1  0  0  0
  2 88  1  0  0  0
  2 89  1  0  0  0
  3  4  1  0  0  0
  3 90  1  0  0  0
  3 91  1  0  0  0
  4  5  1  0  0  0
  4 92  1  0  0  0
  4 93  1  0  0  0
  5  6  1  0  0  0
  5 26  1  0  0  0
  5 94  1  0  0  0
  6 25  1  0  0  0
  6 95  1  0  0  0
  6 96  1  0  0  0
  7  8  2  0  0  0
  7 26  1  0  0  0
  7 29  1  0  0  0
  8  9  1  0  0  0
  8 22  1  0  0  0
  9 10  1  0  0  0
  9 27  2  0  0  0
 10 11  2  0  0  0
 10 15  1  0  0  0
 11 12  1  0  0  0
 11 97  1  0  0  0
 12 13  2  0  0  0
 12 98  1  0  0  0
 13 14  1  0  0  0
 13 31  1  0  0  0
 14 15  2  0  0  0
 14 99  1  0  0  0
 15100  1  0  0  0
 16 17  2  0  0  0
 16 21  1  0  0  0
 16 31  1  0  0  0
 17 18  1  0  0  0
 17101  1  0  0  0
 18 19  2  0  0  0
 18102  1  0  0  0
 19 20  1  0  0  0
 19 24  1  0  0  0
 20 21  2  0  0  0
 20103  1  0  0  0
 21 23  1  0  0  0
 22 28  1  0  0  0
 22 32  2  0  0  0
 26 27  1  0  0  0
 28104  1  0  0  0
 28105  1  0  0  0
 29106  1  0  0  0
 29107  1  0  0  0
 33 34  1  0  0  0
 33 66  1  0  0  0
 33 70  2  0  0  0
 34 36  1  0  0  0
 34 59  1  0  0  0
 34108  1  0  0  0
 35 44  2  0  0  0
 35 45  1  0  0  0
 35 68  1  0  0  0
 36 56  1  0  0  0
 36109  1  0  0  0
 37 39  1  0  0  0
 37 47  1  0  0  0
 37 66  1  0  0  0
 37110  1  0  0  0
 38 43  2  0  0  0
 38 46  1  0  0  0
 38 47  1  0  0  0
 39 64  1  0  0  0
 39 67  2  0  0  0
 40 52  1  0  0  0
 40 53  2  0  0  0
 40 58  1  0  0  0
 41111  1  0  0  0
 41112  1  0  0  0
 41113  1  0  0  0
 41 48  1  0  0  0
 42 43  1  0  0  0
 42 66  1  0  0  0
 42114  1  0  0  0
 42115  1  0  0  0
 43 44  1  0  0  0
 44116  1  0  0  0
 45 46  2  0  0  0
 45117  1  0  0  0
 46118  1  0  0  0
 47119  1  0  0  0
 47120  1  0  0  0
 48 56  1  0  0  0
 48 65  1  0  0  0
 48121  1  0  0  0
 49 50  1  0  0  0
 49 53  1  0  0  0
 49 64  1  0  0  0
 49122  1  0  0  0
 50 51  1  0  0  0
 50123  1  0  0  0
 50124  1  0  0  0
 51 52  1  0  0  0
 51125  1  0  0  0
 51126  1  0  0  0
 52127  1  0  0  0
 52128  1  0  0  0
 53 54  1  0  0  0
 54 55  2  0  0  0
 54129  1  0  0  0
 55 57  1  0  0  0
 55130  1  0  0  0
 56 69  2  0  0  0
 57 58  2  0  0  0
 57131  1  0  0  0
 58132  1  0  0  0
 59 60  1  0  0  0
 59 61  1  0  0  0
 59 62  1  0  0  0
 60133  1  0  0  0
 60134  1  0  0  0
 60135  1  0  0  0
 61136  1  0  0  0
 61137  1  0  0  0
 61138  1  0  0  0
 62139  1  0  0  0
 62140  1  0  0  0
 62141  1  0  0  0
 63 65  1  0  0  0
 63142  1  0  0  0
 63143  1  0  0  0
 63144  1  0  0  0
 64145  1  0  0  0
 65146  1  0  0  0
 68 83  1  0  0  0
 71 72  2  0  0  0
 71 75  1  0  0  0
 71147  1  0  0  0
 72 76  1  0  0  0
 72148  1  0  0  0
 73 74  1  0  0  0
 73 75  2  0  0  0
 73149  1  0  0  0
 74 76  2  0  0  0
 74 77  1  0  0  0
 75 82  1  0  0  0
 76 85  1  0  0  0
 77 79  1  0  0  0
 77 86  2  0  0  0
 78 83  1  0  0  0
 78 84  1  0  0  0
 78 87  2  0  0  0
 79150  1  0  0  0
 79151  1  0  0  0
 79152  1  0  0  0
 80153  1  0  0  0
 80154  1  0  0  0
 80155  1  0  0  0
 80 84  1  0  0  0
 81 84  1  0  0  0
 81156  1  0  0  0
 81157  1  0  0  0
 81158  1  0  0  0
 82 84  1  0  0  0
 82159  1  0  0  0
 82160  1  0  0  0
 83161  1  0  0  0
 83162  1  0  0  0
 85163  1  0  0  0
M  ISO  4   1 100  68 101  83 101  85 100
M  END
> <chiral flag>
0

> <version>
0

> <s_m_source_file>
/data/baiqing/PycharmProjects/Reinvent-master-3.2/result/LINK_invent/BTK/process_docking_weight1_custom_product_contain_oxygen_bond_distance_aromatic_linkinvent_7_9_3/rearranged_h_0137.sdf

> <i_m_source_file_index>
72

> <r_mmod_Potential_Energy-OPLS-2005>
175.742553710938

> <r_mmod_Stretch_Energy-OPLS-2005>
78.9765701293945

> <r_mmod_Bend_Energy-OPLS-2005>
151.031478881836

> <r_mmod_Torsional_Energy-OPLS-2005>
278.979766845703

> <r_mmod_Improper_Torsional_Energy-OPLS-2005>
5.91240215301514

> <r_mmod_Van_der_Waal_Energy-OPLS-2005>
150.765380859375

> <r_mmod_Electrostatic_Energy-OPLS-2005>
-285.738067626953

> <r_mmod_Solvation_Energy-OPLS-2005>
-241.050964355469

> <b_mmod_Minimization_Converged-OPLS-2005>
0

> <r_mmod_RMS_Derivative-OPLS-2005>
2.05355024337769

$$$$
72
                    3D
 Structure written by MMmdl.
162170  0  0  1  0            999 V2000
  -30.6414  -14.7243   20.4815 C   0  0  0  0  0  0
  -30.4286  -12.4468   19.4767 C   0  0  0  0  0  0
  -29.5025  -12.4952   18.2435 C   0  0  0  0  0  0
  -28.0349  -12.3027   18.6633 C   0  0  0  0  0  0
  -27.6333  -13.2191   19.8467 C   0  0  2  0  0  0
  -28.6791  -13.1766   20.9801 C   0  0  0  0  0  0
  -25.2542  -13.8192   20.5796 C   0  0  0  0  0  0
  -24.1782  -13.0448   20.9233 C   0  0  0  0  0  0
  -24.6359  -11.6928   20.8767 C   0  0  0  0  0  0
  -23.9030  -10.4291   21.0421 C   0  0  0  0  0  0
  -24.3610   -9.4213   21.9181 C   0  0  0  0  0  0
  -23.6315   -8.2236   22.0746 C   0  0  0  0  0  0
  -22.4277   -8.0264   21.3550 C   0  0  0  0  0  0
  -21.9908   -9.0223   20.4647 C   0  0  0  0  0  0
  -22.7213  -10.2116   20.3066 C   0  0  0  0  0  0
  -21.6854   -6.0732   22.5276 C   0  0  0  0  0  0
  -21.4011   -6.5637   23.8214 C   0  0  0  0  0  0
  -21.3669   -5.6784   24.9182 C   0  0  0  0  0  0
  -21.6058   -4.3046   24.7230 C   0  0  0  0  0  0
  -21.8834   -3.8143   23.4351 C   0  0  0  0  0  0
  -21.9204   -4.6959   22.3407 C   0  0  0  0  0  0
  -22.7810  -13.5227   21.1899 C   0  0  0  0  0  0
  -22.1660   -4.2156   21.0976 F   0  0  0  0  0  0
  -21.5642   -3.4535   25.7734 F   0  0  0  0  0  0
  -29.9840  -13.5150   20.3991 N   0  0  0  0  0  0
  -26.2894  -12.9341   20.3303 N   0  0  0  0  0  0
  -25.9278  -11.6508   20.5770 N   0  0  0  0  0  0
  -22.0488  -12.8179   22.0467 N   0  0  0  0  0  0
  -25.4397  -15.1905   20.4390 N   0  0  0  0  0  0
  -31.8414  -14.7980   20.1994 O   0  0  0  0  0  0
  -21.6636   -6.8860   21.4232 O   0  0  0  0  0  0
  -22.3470  -14.5518   20.6762 O   0  0  0  0  0  0
  -24.6308  -31.8570   23.2024 C   0  0  0  0  0  0
  -25.9148  -32.4757   23.8368 C   0  0  1  0  0  0
  -27.2189  -27.2783   20.1133 C   0  0  0  0  0  0
  -25.5962  -33.8565   24.2285 N   0  0  0  0  0  0
  -23.4252  -30.4828   21.5454 C   0  0  2  0  0  0
  -24.8689  -28.9341   20.1114 C   0  0  0  0  0  0
  -22.7496  -29.4606   22.4927 C   0  0  0  0  0  0
  -18.0306  -28.1372   22.8484 C   0  0  0  0  0  0
  -24.1498  -36.7266   23.2626 C   0  0  0  0  0  0
  -25.9720  -30.7727   21.3830 C   0  0  0  0  0  0
  -26.0404  -29.3994   20.7198 C   0  0  0  0  0  0
  -27.2136  -28.5818   20.7121 C   0  0  0  0  0  0
  -26.0147  -26.8751   19.4868 C   0  0  0  0  0  0
  -24.8604  -27.6790   19.4884 C   0  0  0  0  0  0
  -23.6400  -29.8196   20.1603 C   0  0  0  0  0  0
  -25.4119  -36.3070   24.0329 C   0  0  1  0  0  0
  -20.5909  -28.3687   23.1271 C   0  0  2  0  0  0
  -20.6785  -26.9408   22.5415 C   0  0  0  0  0  0
  -19.5759  -26.6377   21.5212 C   0  0  0  0  0  0
  -18.1944  -26.7930   22.1601 C   0  0  0  0  0  0
  -19.1562  -28.8850   23.2877 C   0  0  0  0  0  0
  -18.9460  -30.1456   23.8886 C   0  0  0  0  0  0
  -17.6456  -30.6576   24.0562 C   0  0  0  0  0  0
  -25.9072  -34.9443   23.5100 C   0  0  0  0  0  0
  -16.5357  -29.9066   23.6334 C   0  0  0  0  0  0
  -16.7295  -28.6489   23.0354 C   0  0  0  0  0  0
  -26.4520  -31.6575   25.0744 C   0  0  0  0  0  0
  -25.3752  -31.3695   26.1459 C   0  0  0  0  0  0
  -27.0362  -30.2994   24.6224 C   0  0  0  0  0  0
  -27.6081  -32.4314   25.7497 C   0  0  0  0  0  0
  -27.5625  -37.1740   24.8425 C   0  0  0  0  0  0
  -21.4206  -29.3041   22.3658 N   0  0  0  0  0  0
  -26.4275  -37.3793   23.9467 N   0  0  0  0  0  0
  -24.6955  -31.0550   22.0992 N   0  0  0  0  0  0
  -23.4204  -28.8142   23.3018 O   0  0  0  0  0  0
  -28.3420  -26.4236   20.1908 O   0  0  0  0  0  0
  -26.5626  -34.8907   22.4666 O   0  0  0  0  0  0
  -23.5460  -32.1380   23.7327 O   0  0  0  0  0  0
  -30.3604  -16.4269   22.9552 C   0  0  0  0  0  0
  -30.5237  -17.0984   24.1754 C   0  0  0  0  0  0
  -29.9607  -19.1702   23.0722 C   0  0  0  0  0  0
  -30.0150  -17.0832   21.7392 C   0  0  0  0  0  0
  -29.8132  -18.5522   21.7973 C   0  0  0  0  0  0
  -30.3178  -18.4744   24.2337 C   0  0  0  0  0  0
  -29.8041  -16.0930   20.5725 C   0  0  0  0  0  0
  -28.7753  -23.8127   20.5201 C   0  0  0  0  0  0
  -30.3313  -22.4332   19.0605 C   0  0  0  0  0  0
  -27.8760  -21.9441   18.9915 C   0  0  0  0  0  0
  -29.4476  -19.5731   20.6293 C   0  0  0  0  0  0
  -28.3587  -25.0476   19.5926 C   0  0  0  0  0  0
  -29.2604  -21.1558   20.9980 C   0  0  0  0  0  0
  -29.0473  -22.3396   19.9142 C   0  0  0  0  0  0
  -28.9978  -16.4002   19.6440 N   0  0  0  0  0  0
  -28.9064  -23.9924   21.7337 O   0  0  0  0  0  0
  -30.4538  -19.1358   25.4084 F   0  0  0  0  0  0
  -31.4657  -12.5705   19.1609 H   0  0  0  0  0  0
  -30.3757  -11.4718   19.9652 H   0  0  0  0  0  0
  -29.7847  -11.7214   17.5257 H   0  0  0  0  0  0
  -29.6150  -13.4509   17.7303 H   0  0  0  0  0  0
  -27.9127  -11.2574   18.9511 H   0  0  0  0  0  0
  -27.3710  -12.4678   17.8143 H   0  0  0  0  0  0
  -27.6104  -14.2243   19.4369 H   0  0  0  0  0  0
  -28.7191  -12.1857   21.4359 H   0  0  0  0  0  0
  -28.4099  -13.8666   21.7813 H   0  0  0  0  0  0
  -25.2757   -9.5683   22.4737 H   0  0  0  0  0  0
  -24.0056   -7.4609   22.7432 H   0  0  0  0  0  0
  -21.0854   -8.8712   19.8938 H   0  0  0  0  0  0
  -22.3658  -10.9652   19.6172 H   0  0  0  0  0  0
  -21.1981   -7.6141   23.9722 H   0  0  0  0  0  0
  -21.1481   -6.0504   25.9074 H   0  0  0  0  0  0
  -22.0613   -2.7606   23.2830 H   0  0  0  0  0  0
  -22.4101  -11.9812   22.4794 H   0  0  0  0  0  0
  -21.1121  -13.1171   22.2721 H   0  0  0  0  0  0
  -24.7117  -15.8694   20.6310 H   0  0  0  0  0  0
  -26.3314  -15.6198   20.2174 H   0  0  0  0  0  0
  -26.7204  -32.5392   23.1094 H   0  0  0  0  0  0
  -25.0159  -33.9724   25.0457 H   0  0  0  0  0  0
  -22.7226  -31.3069   21.4044 H   0  0  0  0  0  0
  -23.3825  -35.9521   23.3137 H   0  0  0  0  0  0
  -24.3633  -36.9047   22.2077 H   0  0  0  0  0  0
  -23.7140  -37.6371   23.6747 H   0  0  0  0  0  0
  -26.1220  -31.5384   20.6226 H   0  0  0  0  0  0
  -26.8450  -30.8071   22.0231 H   0  0  0  0  0  0
  -28.1114  -28.9334   21.2013 H   0  0  0  0  0  0
  -25.8932  -25.9240   18.9988 H   0  0  0  0  0  0
  -23.9583  -27.3158   19.0140 H   0  0  0  0  0  0
  -23.7602  -30.5971   19.4053 H   0  0  0  0  0  0
  -22.7572  -29.2540   19.8563 H   0  0  0  0  0  0
  -25.1273  -36.1900   25.0811 H   0  0  0  0  0  0
  -21.0019  -28.3276   24.1377 H   0  0  0  0  0  0
  -20.5691  -26.2303   23.3614 H   0  0  0  0  0  0
  -21.6655  -26.7423   22.1210 H   0  0  0  0  0  0
  -19.6924  -25.6291   21.1243 H   0  0  0  0  0  0
  -19.6712  -27.3182   20.6738 H   0  0  0  0  0  0
  -17.4235  -26.6725   21.3991 H   0  0  0  0  0  0
  -18.0309  -26.0059   22.8973 H   0  0  0  0  0  0
  -19.7937  -30.7296   24.2246 H   0  0  0  0  0  0
  -17.4997  -31.6244   24.5167 H   0  0  0  0  0  0
  -15.5356  -30.2939   23.7653 H   0  0  0  0  0  0
  -15.8704  -28.0789   22.7050 H   0  0  0  0  0  0
  -24.5931  -30.7051   25.7761 H   0  0  0  0  0  0
  -24.8942  -32.2850   26.4917 H   0  0  0  0  0  0
  -25.8078  -30.8835   27.0213 H   0  0  0  0  0  0
  -26.2931  -29.6727   24.1281 H   0  0  0  0  0  0
  -27.4066  -29.7271   25.4742 H   0  0  0  0  0  0
  -27.8811  -30.4254   23.9451 H   0  0  0  0  0  0
  -27.2702  -33.3596   26.2107 H   0  0  0  0  0  0
  -28.3865  -32.6900   25.0309 H   0  0  0  0  0  0
  -28.0789  -31.8429   26.5384 H   0  0  0  0  0  0
  -28.2462  -38.0211   24.7759 H   0  0  0  0  0  0
  -28.1304  -36.2777   24.5883 H   0  0  0  0  0  0
  -27.2400  -37.0929   25.8819 H   0  0  0  0  0  0
  -20.9398  -29.8765   21.6852 H   0  0  0  0  0  0
  -26.0140  -38.2820   24.1634 H   0  0  0  0  0  0
  -30.4908  -15.3569   22.9978 H   0  0  0  0  0  0
  -30.7868  -16.5573   25.0736 H   0  0  0  0  0  0
  -29.7957  -20.2218   23.2263 H   0  0  0  0  0  0
  -30.2016  -23.0796   18.1907 H   0  0  0  0  0  0
  -30.6369  -21.4577   18.6846 H   0  0  0  0  0  0
  -31.1674  -22.8302   19.6397 H   0  0  0  0  0  0
  -27.6322  -22.7221   18.2684 H   0  0  0  0  0  0
  -26.9724  -21.7253   19.5606 H   0  0  0  0  0  0
  -28.1207  -21.0537   18.4117 H   0  0  0  0  0  0
  -28.5335  -19.2155   20.1564 H   0  0  0  0  0  0
  -30.2258  -19.4759   19.8735 H   0  0  0  0  0  0
  -27.4115  -24.7720   19.1468 H   0  0  0  0  0  0
  -29.0657  -25.0728   18.7637 H   0  0  0  0  0  0
  -30.1443  -21.4649   21.5565 H   0  0  0  0  0  0
  -28.4267  -21.2171   21.6996 H   0  0  0  0  0  0
  -28.9935  -15.6896   18.9220 H   0  0  0  0  0  0
  1 25  1  0  0  0
  1 30  2  0  0  0
  1 77  1  0  0  0
  2  3  1  0  0  0
  2 25  1  0  0  0
  2 88  1  0  0  0
  2 89  1  0  0  0
  3  4  1  0  0  0
  3 90  1  0  0  0
  3 91  1  0  0  0
  4  5  1  0  0  0
  4 92  1  0  0  0
  4 93  1  0  0  0
  5  6  1  0  0  0
  5 26  1  0  0  0
  5 94  1  0  0  0
  6 25  1  0  0  0
  6 95  1  0  0  0
  6 96  1  0  0  0
  7  8  2  0  0  0
  7 26  1  0  0  0
  7 29  1  0  0  0
  8  9  1  0  0  0
  8 22  1  0  0  0
  9 10  1  0  0  0
  9 27  2  0  0  0
 10 11  2  0  0  0
 10 15  1  0  0  0
 11 12  1  0  0  0
 11 97  1  0  0  0
 12 13  2  0  0  0
 12 98  1  0  0  0
 13 14  1  0  0  0
 13 31  1  0  0  0
 14 15  2  0  0  0
 14 99  1  0  0  0
 15100  1  0  0  0
 16 17  2  0  0  0
 16 21  1  0  0  0
 16 31  1  0  0  0
 17 18  1  0  0  0
 17101  1  0  0  0
 18 19  2  0  0  0
 18102  1  0  0  0
 19 20  1  0  0  0
 19 24  1  0  0  0
 20 21  2  0  0  0
 20103  1  0  0  0
 21 23  1  0  0  0
 22 28  1  0  0  0
 22 32  2  0  0  0
 26 27  1  0  0  0
 28104  1  0  0  0
 28105  1  0  0  0
 29106  1  0  0  0
 29107  1  0  0  0
 33 34  1  0  0  0
 33 66  1  0  0  0
 33 70  2  0  0  0
 34 36  1  0  0  0
 34 59  1  0  0  0
 34108  1  0  0  0
 35 44  2  0  0  0
 35 45  1  0  0  0
 35 68  1  0  0  0
 36 56  1  0  0  0
 36109  1  0  0  0
 37 39  1  0  0  0
 37 47  1  0  0  0
 37 66  1  0  0  0
 37110  1  0  0  0
 38 43  2  0  0  0
 38 46  1  0  0  0
 38 47  1  0  0  0
 39 64  1  0  0  0
 39 67  2  0  0  0
 40 52  1  0  0  0
 40 53  2  0  0  0
 40 58  1  0  0  0
 41111  1  0  0  0
 41112  1  0  0  0
 41113  1  0  0  0
 41 48  1  0  0  0
 42 43  1  0  0  0
 42 66  1  0  0  0
 42114  1  0  0  0
 42115  1  0  0  0
 43 44  1  0  0  0
 44116  1  0  0  0
 45 46  2  0  0  0
 45117  1  0  0  0
 46118  1  0  0  0
 47119  1  0  0  0
 47120  1  0  0  0
 48 56  1  0  0  0
 48 65  1  0  0  0
 48121  1  0  0  0
 49 50  1  0  0  0
 49 53  1  0  0  0
 49 64  1  0  0  0
 49122  1  0  0  0
 50 51  1  0  0  0
 50123  1  0  0  0
 50124  1  0  0  0
 51 52  1  0  0  0
 51125  1  0  0  0
 51126  1  0  0  0
 52127  1  0  0  0
 52128  1  0  0  0
 53 54  1  0  0  0
 54 55  2  0  0  0
 54129  1  0  0  0
 55 57  1  0  0  0
 55130  1  0  0  0
 56 69  2  0  0  0
 57 58  2  0  0  0
 57131  1  0  0  0
 58132  1  0  0  0
 59 60  1  0  0  0
 59 61  1  0  0  0
 59 62  1  0  0  0
 60133  1  0  0  0
 60134  1  0  0  0
 60135  1  0  0  0
 61136  1  0  0  0
 61137  1  0  0  0
 61138  1  0  0  0
 62139  1  0  0  0
 62140  1  0  0  0
 62141  1  0  0  0
 63 65  1  0  0  0
 63142  1  0  0  0
 63143  1  0  0  0
 63144  1  0  0  0
 64145  1  0  0  0
 65146  1  0  0  0
 68 82  1  0  0  0
 71 72  2  0  0  0
 71 74  1  0  0  0
 71147  1  0  0  0
 72 76  1  0  0  0
 72148  1  0  0  0
 73 75  1  0  0  0
 73 76  2  0  0  0
 73149  1  0  0  0
 74 75  2  0  0  0
 74 77  1  0  0  0
 75 81  1  0  0  0
 76 87  1  0  0  0
 77 85  2  0  0  0
 78 82  1  0  0  0
 78 84  1  0  0  0
 78 86  2  0  0  0
 79150  1  0  0  0
 79151  1  0  0  0
 79152  1  0  0  0
 79 84  1  0  0  0
 80 84  1  0  0  0
 80153  1  0  0  0
 80154  1  0  0  0
 80155  1  0  0  0
 81 83  1  0  0  0
 81156  1  0  0  0
 81157  1  0  0  0
 82158  1  0  0  0
 82159  1  0  0  0
 83 84  1  0  0  0
 83160  1  0  0  0
 83161  1  0  0  0
 85162  1  0  0  0
M  ISO  4   1 100  68 101  77 100  82 101
M  END
> <chiral flag>
0

> <version>
0

> <s_m_source_file>
/data/baiqing/PycharmProjects/Reinvent-master-3.2/result/LINK_invent/BTK/process_docking_weight1_custom_product_contain_oxygen_bond_distance_aromatic_linkinvent_7_9_3/rearranged_h_0137.sdf

> <i_m_source_file_index>
73

> <r_mmod_Potential_Energy-OPLS-2005>
428.569183349609

> <r_mmod_Stretch_Energy-OPLS-2005>
144.853057861328

> <r_mmod_Bend_Energy-OPLS-2005>
190.712738037109

> <r_mmod_Torsional_Energy-OPLS-2005>
233.992431640625

> <r_mmod_Improper_Torsional_Energy-OPLS-2005>
8.21748542785645

> <r_mmod_Van_der_Waal_Energy-OPLS-2005>
149.233291625977

> <r_mmod_Electrostatic_Energy-OPLS-2005>
-168.899169921875

> <r_mmod_Solvation_Energy-OPLS-2005>
-207.367309570312

> <b_mmod_Minimization_Converged-OPLS-2005>
0

> <r_mmod_RMS_Derivative-OPLS-2005>
3.61170411109924

$$$$
73
                    3D
 Structure written by MMmdl.
172180  0  0  1  0            999 V2000
  -30.6065  -14.7068   20.4623 C   0  0  0  0  0  0
  -30.4299  -12.4310   19.4657 C   0  0  0  0  0  0
  -29.5097  -12.5015   18.2283 C   0  0  0  0  0  0
  -28.0317  -12.3364   18.6371 C   0  0  0  0  0  0
  -27.6410  -13.2275   19.8478 C   0  0  2  0  0  0
  -28.6824  -13.1401   20.9838 C   0  0  0  0  0  0
  -25.2492  -13.8180   20.5646 C   0  0  0  0  0  0
  -24.1796  -13.0437   20.9216 C   0  0  0  0  0  0
  -24.6383  -11.6915   20.8760 C   0  0  0  0  0  0
  -23.9063  -10.4291   21.0409 C   0  0  0  0  0  0
  -24.3617   -9.4211   21.9185 C   0  0  0  0  0  0
  -23.6297   -8.2243   22.0753 C   0  0  0  0  0  0
  -22.4280   -8.0282   21.3548 C   0  0  0  0  0  0
  -21.9916   -9.0252   20.4643 C   0  0  0  0  0  0
  -22.7237  -10.2130   20.3056 C   0  0  0  0  0  0
  -21.6854   -6.0734   22.5280 C   0  0  0  0  0  0
  -21.4003   -6.5636   23.8215 C   0  0  0  0  0  0
  -21.3664   -5.6790   24.9174 C   0  0  0  0  0  0
  -21.6044   -4.3050   24.7221 C   0  0  0  0  0  0
  -21.8824   -3.8144   23.4343 C   0  0  0  0  0  0
  -21.9189   -4.6963   22.3399 C   0  0  0  0  0  0
  -22.7821  -13.5232   21.1872 C   0  0  0  0  0  0
  -22.1665   -4.2148   21.0980 F   0  0  0  0  0  0
  -21.5630   -3.4537   25.7735 F   0  0  0  0  0  0
  -29.9861  -13.4839   20.4056 N   0  0  0  0  0  0
  -26.2923  -12.9384   20.3249 N   0  0  0  0  0  0
  -25.9308  -11.6535   20.5739 N   0  0  0  0  0  0
  -22.0465  -12.8228   22.0418 N   0  0  0  0  0  0
  -25.4139  -15.1884   20.3966 N   0  0  0  0  0  0
  -31.7933  -14.8168   20.1439 O   0  0  0  0  0  0
  -21.6646   -6.8880   21.4242 O   0  0  0  0  0  0
  -22.3523  -14.5537   20.6706 O   0  0  0  0  0  0
  -24.6261  -31.8564   23.1985 C   0  0  0  0  0  0
  -25.9100  -32.4760   23.8318 C   0  0  1  0  0  0
  -27.2253  -27.3028   20.1335 C   0  0  0  0  0  0
  -25.5912  -33.8560   24.2261 N   0  0  0  0  0  0
  -23.4210  -30.4778   21.5404 C   0  0  2  0  0  0
  -24.8671  -28.9163   20.1201 C   0  0  0  0  0  0
  -22.7465  -29.4627   22.4933 C   0  0  0  0  0  0
  -18.0284  -28.1389   22.8497 C   0  0  0  0  0  0
  -24.1486  -36.7284   23.2639 C   0  0  0  0  0  0
  -25.9611  -30.7839   21.3683 C   0  0  0  0  0  0
  -26.0356  -29.4041   20.7208 C   0  0  0  0  0  0
  -27.2203  -28.6102   20.7140 C   0  0  0  0  0  0
  -26.0386  -26.8582   19.5196 C   0  0  0  0  0  0
  -24.8701  -27.6486   19.5116 C   0  0  0  0  0  0
  -23.6368  -29.8015   20.1601 C   0  0  0  0  0  0
  -25.4111  -36.3069   24.0332 C   0  0  1  0  0  0
  -20.5887  -28.3690   23.1286 C   0  0  2  0  0  0
  -20.6782  -26.9410   22.5411 C   0  0  0  0  0  0
  -19.5757  -26.6385   21.5218 C   0  0  0  0  0  0
  -18.1931  -26.7937   22.1624 C   0  0  0  0  0  0
  -19.1541  -28.8859   23.2893 C   0  0  0  0  0  0
  -18.9467  -30.1466   23.8897 C   0  0  0  0  0  0
  -17.6468  -30.6593   24.0573 C   0  0  0  0  0  0
  -25.9050  -34.9443   23.5098 C   0  0  0  0  0  0
  -16.5358  -29.9093   23.6337 C   0  0  0  0  0  0
  -16.7273  -28.6515   23.0345 C   0  0  0  0  0  0
  -26.4482  -31.6573   25.0695 C   0  0  0  0  0  0
  -25.3711  -31.3741   26.1424 C   0  0  0  0  0  0
  -27.0316  -30.2992   24.6142 C   0  0  0  0  0  0
  -27.6041  -32.4305   25.7470 C   0  0  0  0  0  0
  -27.5583  -37.1795   24.8464 C   0  0  0  0  0  0
  -21.4181  -29.3051   22.3688 N   0  0  0  0  0  0
  -26.4286  -37.3767   23.9415 N   0  0  0  0  0  0
  -24.6882  -31.0570   22.0930 N   0  0  0  0  0  0
  -23.4187  -28.8184   23.3026 O   0  0  0  0  0  0
  -28.3624  -26.4834   20.0799 O   0  0  0  0  0  0
  -26.5623  -34.8922   22.4670 O   0  0  0  0  0  0
  -23.5430  -32.1368   23.7320 O   0  0  0  0  0  0
  -29.6121  -19.8708   20.6079 C   0  0  0  0  0  0
  -27.3796  -20.6440   20.0588 C   0  0  0  0  0  0
  -27.8998  -18.2381   20.0665 C   0  0  0  0  0  0
  -28.6966  -20.9783   20.4322 C   0  0  0  0  0  0
  -29.2422  -18.4825   20.4284 C   0  0  0  0  0  0
  -26.9664  -19.2909   19.9030 C   0  0  0  0  0  0
  -23.0779  -18.4920   21.0588 C   0  0  0  0  0  0
  -22.1682  -20.3701   19.6373 C   0  0  0  0  0  0
  -27.6065  -25.2536   22.1023 C   0  0  0  0  0  0
  -29.9727  -25.3631   21.3022 C   0  0  0  0  0  0
  -29.0653  -22.4823   20.7725 C   0  0  0  0  0  0
  -30.2657  -17.2834   20.6131 C   0  0  0  0  0  0
  -28.3456  -23.7781   20.1134 C   0  0  0  0  0  0
  -24.6561  -19.9303   19.6821 C   0  0  0  0  0  0
  -23.2581  -19.2919   19.7575 C   0  0  0  0  0  0
  -28.5086  -25.2128   20.8496 C   0  0  0  0  0  0
  -29.8269  -15.8286   20.6713 N   0  0  0  0  0  0
  -25.6659  -18.9245   19.6185 O   0  0  0  0  0  0
  -31.4722  -12.5544   19.1679 H   0  0  0  0  0  0
  -30.3695  -11.4494   19.9378 H   0  0  0  0  0  0
  -29.7891  -11.7303   17.5091 H   0  0  0  0  0  0
  -29.6462  -13.4575   17.7201 H   0  0  0  0  0  0
  -27.8763  -11.2860   18.8865 H   0  0  0  0  0  0
  -27.3786  -12.5446   17.7884 H   0  0  0  0  0  0
  -27.6410  -14.2535   19.4785 H   0  0  0  0  0  0
  -28.7093  -12.1376   21.4124 H   0  0  0  0  0  0
  -28.4216  -13.8145   21.8020 H   0  0  0  0  0  0
  -25.2760   -9.5686   22.4753 H   0  0  0  0  0  0
  -24.0010   -7.4629   22.7467 H   0  0  0  0  0  0
  -21.0855   -8.8756   19.8944 H   0  0  0  0  0  0
  -22.3700  -10.9662   19.6159 H   0  0  0  0  0  0
  -21.1992   -7.6147   23.9716 H   0  0  0  0  0  0
  -21.1489   -6.0519   25.9080 H   0  0  0  0  0  0
  -22.0599   -2.7605   23.2838 H   0  0  0  0  0  0
  -22.4073  -11.9881   22.4794 H   0  0  0  0  0  0
  -21.1066  -13.1231   22.2593 H   0  0  0  0  0  0
  -24.6253  -15.8222   20.4571 H   0  0  0  0  0  0
  -26.2252  -15.6109   19.9670 H   0  0  0  0  0  0
  -26.7165  -32.5416   23.1064 H   0  0  0  0  0  0
  -25.0056  -33.9692   25.0404 H   0  0  0  0  0  0
  -22.7172  -31.2995   21.3916 H   0  0  0  0  0  0
  -23.3747  -35.9617   23.3293 H   0  0  0  0  0  0
  -24.3588  -36.8910   22.2056 H   0  0  0  0  0  0
  -23.7251  -37.6491   23.6660 H   0  0  0  0  0  0
  -26.0874  -31.5403   20.5937 H   0  0  0  0  0  0
  -26.8450  -30.8403   21.9919 H   0  0  0  0  0  0
  -28.1225  -28.9880   21.1739 H   0  0  0  0  0  0
  -26.0203  -25.8859   19.0471 H   0  0  0  0  0  0
  -23.9738  -27.2691   19.0388 H   0  0  0  0  0  0
  -23.7592  -30.5709   19.3969 H   0  0  0  0  0  0
  -22.7578  -29.2300   19.8595 H   0  0  0  0  0  0
  -25.1299  -36.1900   25.0822 H   0  0  0  0  0  0
  -20.9993  -28.3244   24.1405 H   0  0  0  0  0  0
  -20.5686  -26.2288   23.3605 H   0  0  0  0  0  0
  -21.6644  -26.7440   22.1199 H   0  0  0  0  0  0
  -19.6913  -25.6297   21.1238 H   0  0  0  0  0  0
  -19.6696  -27.3211   20.6760 H   0  0  0  0  0  0
  -17.4209  -26.6697   21.4012 H   0  0  0  0  0  0
  -18.0327  -26.0077   22.9014 H   0  0  0  0  0  0
  -19.7944  -30.7296   24.2240 H   0  0  0  0  0  0
  -17.5022  -31.6268   24.5186 H   0  0  0  0  0  0
  -15.5362  -30.3004   23.7670 H   0  0  0  0  0  0
  -15.8666  -28.0855   22.7032 H   0  0  0  0  0  0
  -24.5871  -30.7098   25.7769 H   0  0  0  0  0  0
  -24.8914  -32.2928   26.4814 H   0  0  0  0  0  0
  -25.8026  -30.8943   27.0214 H   0  0  0  0  0  0
  -26.2887  -29.6750   24.1157 H   0  0  0  0  0  0
  -27.4026  -29.7234   25.4628 H   0  0  0  0  0  0
  -27.8746  -30.4293   23.9350 H   0  0  0  0  0  0
  -27.2646  -33.3613   26.2022 H   0  0  0  0  0  0
  -28.3863  -32.6842   25.0304 H   0  0  0  0  0  0
  -28.0678  -31.8434   26.5405 H   0  0  0  0  0  0
  -28.2585  -38.0103   24.7514 H   0  0  0  0  0  0
  -28.1094  -36.2639   24.6272 H   0  0  0  0  0  0
  -27.2308  -37.1418   25.8867 H   0  0  0  0  0  0
  -20.9354  -29.8759   21.6891 H   0  0  0  0  0  0
  -26.0158  -38.2837   24.1415 H   0  0  0  0  0  0
  -30.6268  -20.0919   20.9102 H   0  0  0  0  0  0
  -26.6779  -21.4526   19.9303 H   0  0  0  0  0  0
  -27.5654  -17.2215   19.9219 H   0  0  0  0  0  0
  -22.0982  -18.0137   21.0969 H   0  0  0  0  0  0
  -23.1668  -19.1351   21.9357 H   0  0  0  0  0  0
  -23.8280  -17.7061   21.1496 H   0  0  0  0  0  0
  -21.1692  -19.9345   19.6841 H   0  0  0  0  0  0
  -22.2469  -20.9072   18.6910 H   0  0  0  0  0  0
  -22.2476  -21.1049   20.4406 H   0  0  0  0  0  0
  -27.8289  -24.4319   22.7829 H   0  0  0  0  0  0
  -26.5518  -25.1763   21.8385 H   0  0  0  0  0  0
  -27.7391  -26.1784   22.6648 H   0  0  0  0  0  0
  -30.2694  -24.5891   22.0093 H   0  0  0  0  0  0
  -30.1368  -26.3204   21.7984 H   0  0  0  0  0  0
  -30.6539  -25.3144   20.4521 H   0  0  0  0  0  0
  -30.1386  -22.5843   20.6102 H   0  0  0  0  0  0
  -28.9348  -22.5553   21.8518 H   0  0  0  0  0  0
  -30.8248  -17.4808   21.5285 H   0  0  0  0  0  0
  -30.9970  -17.3754   19.8075 H   0  0  0  0  0  0
  -27.2764  -23.5904   20.0257 H   0  0  0  0  0  0
  -28.7022  -23.8672   19.0878 H   0  0  0  0  0  0
  -24.7840  -20.5650   20.5599 H   0  0  0  0  0  0
  -24.7329  -20.5642   18.7972 H   0  0  0  0  0  0
  -23.1463  -18.6070   18.9150 H   0  0  0  0  0  0
  -28.8586  -15.6620   20.8924 H   0  0  0  0  0  0
  1 25  1  0  0  0
  1 30  2  0  0  0
  1 87  1  0  0  0
  2  3  1  0  0  0
  2 25  1  0  0  0
  2 89  1  0  0  0
  2 90  1  0  0  0
  3  4  1  0  0  0
  3 91  1  0  0  0
  3 92  1  0  0  0
  4  5  1  0  0  0
  4 93  1  0  0  0
  4 94  1  0  0  0
  5  6  1  0  0  0
  5 26  1  0  0  0
  5 95  1  0  0  0
  6 25  1  0  0  0
  6 96  1  0  0  0
  6 97  1  0  0  0
  7  8  2  0  0  0
  7 26  1  0  0  0
  7 29  1  0  0  0
  8  9  1  0  0  0
  8 22  1  0  0  0
  9 10  1  0  0  0
  9 27  2  0  0  0
 10 11  2  0  0  0
 10 15  1  0  0  0
 11 12  1  0  0  0
 11 98  1  0  0  0
 12 13  2  0  0  0
 12 99  1  0  0  0
 13 14  1  0  0  0
 13 31  1  0  0  0
 14 15  2  0  0  0
 14100  1  0  0  0
 15101  1  0  0  0
 16 17  2  0  0  0
 16 21  1  0  0  0
 16 31  1  0  0  0
 17 18  1  0  0  0
 17102  1  0  0  0
 18 19  2  0  0  0
 18103  1  0  0  0
 19 20  1  0  0  0
 19 24  1  0  0  0
 20 21  2  0  0  0
 20104  1  0  0  0
 21 23  1  0  0  0
 22 28  1  0  0  0
 22 32  2  0  0  0
 26 27  1  0  0  0
 28105  1  0  0  0
 28106  1  0  0  0
 29107  1  0  0  0
 29108  1  0  0  0
 33 34  1  0  0  0
 33 66  1  0  0  0
 33 70  2  0  0  0
 34 36  1  0  0  0
 34 59  1  0  0  0
 34109  1  0  0  0
 35 44  2  0  0  0
 35 45  1  0  0  0
 35 68  1  0  0  0
 36 56  1  0  0  0
 36110  1  0  0  0
 37 39  1  0  0  0
 37 47  1  0  0  0
 37 66  1  0  0  0
 37111  1  0  0  0
 38 43  2  0  0  0
 38 46  1  0  0  0
 38 47  1  0  0  0
 39 64  1  0  0  0
 39 67  2  0  0  0
 40 52  1  0  0  0
 40 53  2  0  0  0
 40 58  1  0  0  0
 41112  1  0  0  0
 41113  1  0  0  0
 41114  1  0  0  0
 41 48  1  0  0  0
 42 43  1  0  0  0
 42 66  1  0  0  0
 42115  1  0  0  0
 42116  1  0  0  0
 43 44  1  0  0  0
 44117  1  0  0  0
 45 46  2  0  0  0
 45118  1  0  0  0
 46119  1  0  0  0
 47120  1  0  0  0
 47121  1  0  0  0
 48 56  1  0  0  0
 48 65  1  0  0  0
 48122  1  0  0  0
 49 50  1  0  0  0
 49 53  1  0  0  0
 49 64  1  0  0  0
 49123  1  0  0  0
 50 51  1  0  0  0
 50124  1  0  0  0
 50125  1  0  0  0
 51 52  1  0  0  0
 51126  1  0  0  0
 51127  1  0  0  0
 52128  1  0  0  0
 52129  1  0  0  0
 53 54  1  0  0  0
 54 55  2  0  0  0
 54130  1  0  0  0
 55 57  1  0  0  0
 55131  1  0  0  0
 56 69  2  0  0  0
 57 58  2  0  0  0
 57132  1  0  0  0
 58133  1  0  0  0
 59 60  1  0  0  0
 59 61  1  0  0  0
 59 62  1  0  0  0
 60134  1  0  0  0
 60135  1  0  0  0
 60136  1  0  0  0
 61137  1  0  0  0
 61138  1  0  0  0
 61139  1  0  0  0
 62140  1  0  0  0
 62141  1  0  0  0
 62142  1  0  0  0
 63 65  1  0  0  0
 63143  1  0  0  0
 63144  1  0  0  0
 63145  1  0  0  0
 64146  1  0  0  0
 65147  1  0  0  0
 68 86  1  0  0  0
 71 74  2  0  0  0
 71 75  1  0  0  0
 71148  1  0  0  0
 72 74  1  0  0  0
 72 76  2  0  0  0
 72149  1  0  0  0
 73 75  2  0  0  0
 73 76  1  0  0  0
 73150  1  0  0  0
 74 81  1  0  0  0
 75 82  1  0  0  0
 76 88  1  0  0  0
 77151  1  0  0  0
 77152  1  0  0  0
 77153  1  0  0  0
 77 85  1  0  0  0
 78 85  1  0  0  0
 78154  1  0  0  0
 78155  1  0  0  0
 78156  1  0  0  0
 79157  1  0  0  0
 79158  1  0  0  0
 79159  1  0  0  0
 79 86  1  0  0  0
 80 86  1  0  0  0
 80160  1  0  0  0
 80161  1  0  0  0
 80162  1  0  0  0
 81 83  1  0  0  0
 81163  1  0  0  0
 81164  1  0  0  0
 82 87  1  0  0  0
 82165  1  0  0  0
 82166  1  0  0  0
 83 86  1  0  0  0
 83167  1  0  0  0
 83168  1  0  0  0
 84 85  1  0  0  0
 84 88  1  0  0  0
 84169  1  0  0  0
 84170  1  0  0  0
 85171  1  0  0  0
 87172  1  0  0  0
M  ISO  4   1 100  68 101  86 101  87 100
M  END
> <chiral flag>
0

> <version>
0

> <s_m_source_file>
/data/baiqing/PycharmProjects/Reinvent-master-3.2/result/LINK_invent/BTK/process_docking_weight1_custom_product_contain_oxygen_bond_distance_aromatic_linkinvent_7_9_3/rearranged_h_0137.sdf

> <i_m_source_file_index>
74

> <r_mmod_Potential_Energy-OPLS-2005>
70.6019439697266

> <r_mmod_Stretch_Energy-OPLS-2005>
105.867790222168

> <r_mmod_Bend_Energy-OPLS-2005>
169.352478027344

> <r_mmod_Torsional_Energy-OPLS-2005>
235.000381469727

> <r_mmod_Improper_Torsional_Energy-OPLS-2005>
5.8458309173584

> <r_mmod_Van_der_Waal_Energy-OPLS-2005>
131.459976196289

> <r_mmod_Electrostatic_Energy-OPLS-2005>
-444.504364013672

> <r_mmod_Solvation_Energy-OPLS-2005>
-195.041564941406

> <b_mmod_Minimization_Converged-OPLS-2005>
0

> <r_mmod_RMS_Derivative-OPLS-2005>
2.07987666130066

$$$$
74
                    3D
 Structure written by MMmdl.
165173  0  0  1  0            999 V2000
  -30.6230  -14.6190   20.4573 C   0  0  0  0  0  0
  -30.4379  -12.3749   19.4368 C   0  0  0  0  0  0
  -29.4994  -12.4865   18.2142 C   0  0  0  0  0  0
  -28.0216  -12.3463   18.6308 C   0  0  0  0  0  0
  -27.6551  -13.2120   19.8638 C   0  0  2  0  0  0
  -28.7046  -13.0636   20.9884 C   0  0  0  0  0  0
  -25.2582  -13.8134   20.5643 C   0  0  0  0  0  0
  -24.1855  -13.0412   20.9226 C   0  0  0  0  0  0
  -24.6428  -11.6892   20.8799 C   0  0  0  0  0  0
  -23.9099  -10.4274   21.0464 C   0  0  0  0  0  0
  -24.3641   -9.4171   21.9225 C   0  0  0  0  0  0
  -23.6308   -8.2212   22.0765 C   0  0  0  0  0  0
  -22.4283   -8.0276   21.3556 C   0  0  0  0  0  0
  -21.9945   -9.0261   20.4652 C   0  0  0  0  0  0
  -22.7289  -10.2134   20.3087 C   0  0  0  0  0  0
  -21.6846   -6.0738   22.5293 C   0  0  0  0  0  0
  -21.4002   -6.5639   23.8229 C   0  0  0  0  0  0
  -21.3660   -5.6791   24.9192 C   0  0  0  0  0  0
  -21.6045   -4.3058   24.7242 C   0  0  0  0  0  0
  -21.8818   -3.8149   23.4364 C   0  0  0  0  0  0
  -21.9188   -4.6965   22.3419 C   0  0  0  0  0  0
  -22.7880  -13.5232   21.1883 C   0  0  0  0  0  0
  -22.1652   -4.2156   21.0995 F   0  0  0  0  0  0
  -21.5646   -3.4535   25.7755 F   0  0  0  0  0  0
  -30.0185  -13.3932   20.4157 N   0  0  0  0  0  0
  -26.3013  -12.9313   20.3342 N   0  0  0  0  0  0
  -25.9362  -11.6476   20.5840 N   0  0  0  0  0  0
  -22.0506  -12.8212   22.0425 N   0  0  0  0  0  0
  -25.4260  -15.1820   20.3864 N   0  0  0  0  0  0
  -31.7899  -14.7799   20.0874 O   0  0  0  0  0  0
  -21.6628   -6.8880   21.4258 O   0  0  0  0  0  0
  -22.3582  -14.5548   20.6748 O   0  0  0  0  0  0
  -24.6246  -31.8618   23.2025 C   0  0  0  0  0  0
  -25.9087  -32.4772   23.8363 C   0  0  1  0  0  0
  -27.2160  -27.3339   20.0888 C   0  0  0  0  0  0
  -25.5909  -33.8571   24.2281 N   0  0  0  0  0  0
  -23.4197  -30.4899   21.5410 C   0  0  2  0  0  0
  -24.8602  -28.9510   20.1085 C   0  0  0  0  0  0
  -22.7486  -29.4628   22.4867 C   0  0  0  0  0  0
  -18.0315  -28.1355   22.8439 C   0  0  0  0  0  0
  -24.1502  -36.7284   23.2654 C   0  0  0  0  0  0
  -25.9622  -30.7945   21.3755 C   0  0  0  0  0  0
  -26.0323  -29.4243   20.7125 C   0  0  0  0  0  0
  -27.2103  -28.6237   20.7004 C   0  0  0  0  0  0
  -26.0160  -26.9201   19.4583 C   0  0  0  0  0  0
  -24.8501  -27.6973   19.4846 C   0  0  0  0  0  0
  -23.6368  -29.8347   20.1550 C   0  0  0  0  0  0
  -25.4110  -36.3066   24.0356 C   0  0  1  0  0  0
  -20.5920  -28.3662   23.1248 C   0  0  2  0  0  0
  -20.6771  -26.9382   22.5385 C   0  0  0  0  0  0
  -19.5769  -26.6356   21.5164 C   0  0  0  0  0  0
  -18.1954  -26.7902   22.1592 C   0  0  0  0  0  0
  -19.1574  -28.8822   23.2847 C   0  0  0  0  0  0
  -18.9509  -30.1409   23.8864 C   0  0  0  0  0  0
  -17.6509  -30.6539   24.0551 C   0  0  0  0  0  0
  -25.9041  -34.9444   23.5116 C   0  0  0  0  0  0
  -16.5389  -29.9053   23.6329 C   0  0  0  0  0  0
  -16.7308  -28.6479   23.0299 C   0  0  0  0  0  0
  -26.4462  -31.6588   25.0737 C   0  0  0  0  0  0
  -25.3728  -31.3775   26.1514 C   0  0  0  0  0  0
  -27.0288  -30.3015   24.6173 C   0  0  0  0  0  0
  -27.5994  -32.4317   25.7547 C   0  0  0  0  0  0
  -27.5576  -37.1788   24.8478 C   0  0  0  0  0  0
  -21.4189  -29.3026   22.3627 N   0  0  0  0  0  0
  -26.4280  -37.3753   23.9438 N   0  0  0  0  0  0
  -24.6870  -31.0641   22.0964 N   0  0  0  0  0  0
  -23.4235  -28.8157   23.2929 O   0  0  0  0  0  0
  -28.3310  -26.4834   20.1353 O   0  0  0  0  0  0
  -26.5597  -34.8927   22.4671 O   0  0  0  0  0  0
  -23.5395  -32.1394   23.7348 O   0  0  0  0  0  0
  -30.6452  -19.0441   19.1757 C   0  0  0  0  0  0
  -30.5910  -17.6404   19.4011 C   0  0  0  0  0  0
  -29.3541  -19.4331   21.1726 C   0  0  0  0  0  0
  -30.0463  -19.9754   20.0618 C   0  0  0  0  0  0
  -29.2772  -18.0249   21.3935 C   0  0  0  0  0  0
  -29.9235  -17.0957   20.5282 C   0  0  0  0  0  0
  -28.4906  -17.5179   22.5896 C   0  0  0  0  0  0
  -27.2233  -24.5465   21.2443 C   0  0  0  0  0  0
  -30.4462  -24.5285   20.9852 C   0  0  0  0  0  0
  -30.0131  -24.3613   18.5219 C   0  0  0  0  0  0
  -30.2780  -21.5063   19.8439 C   0  0  0  0  0  0
  -29.1090  -22.5376   20.0797 C   0  0  0  0  0  0
  -28.1148  -25.0172   20.0663 C   0  0  2  0  0  0
  -29.4145  -24.1021   19.9234 C   0  0  0  0  0  0
  -29.8049  -15.6644   20.7717 N   0  0  0  0  0  0
  -31.4749  -12.5055   19.1231 H   0  0  0  0  0  0
  -30.3794  -11.3810   19.8828 H   0  0  0  0  0  0
  -29.7487  -11.7153   17.4835 H   0  0  0  0  0  0
  -29.6497  -13.4429   17.7117 H   0  0  0  0  0  0
  -27.8395  -11.2940   18.8521 H   0  0  0  0  0  0
  -27.3694  -12.5977   17.7936 H   0  0  0  0  0  0
  -27.6744  -14.2471   19.5241 H   0  0  0  0  0  0
  -28.7133  -12.0460   21.3815 H   0  0  0  0  0  0
  -28.4633  -13.7082   21.8347 H   0  0  0  0  0  0
  -25.2786   -9.5625   22.4808 H   0  0  0  0  0  0
  -24.0009   -7.4584   22.7469 H   0  0  0  0  0  0
  -21.0885   -8.8812   19.8933 H   0  0  0  0  0  0
  -22.3789  -10.9697   19.6198 H   0  0  0  0  0  0
  -21.1977   -7.6141   23.9747 H   0  0  0  0  0  0
  -21.1483   -6.0509   25.9099 H   0  0  0  0  0  0
  -22.0593   -2.7612   23.2870 H   0  0  0  0  0  0
  -22.4104  -11.9859   22.4803 H   0  0  0  0  0  0
  -21.1135  -13.1259   22.2648 H   0  0  0  0  0  0
  -24.6316  -15.8113   20.4092 H   0  0  0  0  0  0
  -26.2351  -15.5848   19.9313 H   0  0  0  0  0  0
  -26.7143  -32.5429   23.1100 H   0  0  0  0  0  0
  -25.0085  -33.9726   25.0454 H   0  0  0  0  0  0
  -22.7147  -31.3109   21.3937 H   0  0  0  0  0  0
  -23.3750  -35.9626   23.3291 H   0  0  0  0  0  0
  -24.3635  -36.8915   22.2072 H   0  0  0  0  0  0
  -23.7295  -37.6505   23.6666 H   0  0  0  0  0  0
  -26.1045  -31.5635   20.6177 H   0  0  0  0  0  0
  -26.8389  -30.8337   22.0114 H   0  0  0  0  0  0
  -28.1073  -28.9710   21.1941 H   0  0  0  0  0  0
  -25.9305  -25.9767   18.9464 H   0  0  0  0  0  0
  -23.9486  -27.3195   19.0192 H   0  0  0  0  0  0
  -23.7759  -30.6125   19.4037 H   0  0  0  0  0  0
  -22.7572  -29.2721   19.8362 H   0  0  0  0  0  0
  -25.1275  -36.1905   25.0841 H   0  0  0  0  0  0
  -21.0018  -28.3195   24.1364 H   0  0  0  0  0  0
  -20.5640  -26.2246   23.3573 H   0  0  0  0  0  0
  -21.6639  -26.7345   22.1217 H   0  0  0  0  0  0
  -19.6940  -25.6271   21.1202 H   0  0  0  0  0  0
  -19.6727  -27.3138   20.6676 H   0  0  0  0  0  0
  -17.4215  -26.6625   21.4006 H   0  0  0  0  0  0
  -18.0364  -26.0055   22.9005 H   0  0  0  0  0  0
  -19.8004  -30.7216   24.2201 H   0  0  0  0  0  0
  -17.5093  -31.6243   24.5138 H   0  0  0  0  0  0
  -15.5395  -30.2945   23.7656 H   0  0  0  0  0  0
  -15.8719  -28.0820   22.6952 H   0  0  0  0  0  0
  -24.5941  -30.7027   25.7964 H   0  0  0  0  0  0
  -24.8875  -32.2945   26.4841 H   0  0  0  0  0  0
  -25.8116  -30.9122   27.0361 H   0  0  0  0  0  0
  -26.2838  -29.6802   24.1184 H   0  0  0  0  0  0
  -27.4008  -29.7236   25.4644 H   0  0  0  0  0  0
  -27.8700  -30.4313   23.9372 H   0  0  0  0  0  0
  -27.2576  -33.3668   26.2004 H   0  0  0  0  0  0
  -28.3888  -32.6789   25.0439 H   0  0  0  0  0  0
  -28.0545  -31.8523   26.5604 H   0  0  0  0  0  0
  -28.2530  -38.0135   24.7475 H   0  0  0  0  0  0
  -28.1119  -36.2639   24.6292 H   0  0  0  0  0  0
  -27.2307  -37.1429   25.8892 H   0  0  0  0  0  0
  -20.9323  -29.8902   21.7005 H   0  0  0  0  0  0
  -26.0160  -38.2832   24.1425 H   0  0  0  0  0  0
  -31.1846  -19.4094   18.3116 H   0  0  0  0  0  0
  -31.0656  -16.9871   18.6826 H   0  0  0  0  0  0
  -28.8877  -20.1012   21.8839 H   0  0  0  0  0  0
  -28.1741  -18.3310   23.2425 H   0  0  0  0  0  0
  -29.0932  -16.8306   23.1834 H   0  0  0  0  0  0
  -27.5970  -16.9953   22.2492 H   0  0  0  0  0  0
  -26.7625  -23.5879   21.0068 H   0  0  0  0  0  0
  -26.3944  -25.2178   21.4570 H   0  0  0  0  0  0
  -27.7832  -24.4215   22.1700 H   0  0  0  0  0  0
  -31.3834  -23.9836   20.8811 H   0  0  0  0  0  0
  -30.0791  -24.3466   21.9952 H   0  0  0  0  0  0
  -30.6864  -25.5888   20.9108 H   0  0  0  0  0  0
  -31.0306  -23.9798   18.4364 H   0  0  0  0  0  0
  -30.0566  -25.4274   18.2936 H   0  0  0  0  0  0
  -29.4219  -23.8897   17.7363 H   0  0  0  0  0  0
  -30.6415  -21.6418   18.8257 H   0  0  0  0  0  0
  -31.1170  -21.7752   20.4839 H   0  0  0  0  0  0
  -28.7385  -22.3628   21.0886 H   0  0  0  0  0  0
  -28.2891  -22.2753   19.4111 H   0  0  0  0  0  0
  -27.5625  -24.8055   19.1544 H   0  0  0  0  0  0
  -28.9257  -15.3760   21.1712 H   0  0  0  0  0  0
  1 25  1  0  0  0
  1 30  2  0  0  0
  1 85  1  0  0  0
  2  3  1  0  0  0
  2 25  1  0  0  0
  2 86  1  0  0  0
  2 87  1  0  0  0
  3  4  1  0  0  0
  3 88  1  0  0  0
  3 89  1  0  0  0
  4  5  1  0  0  0
  4 90  1  0  0  0
  4 91  1  0  0  0
  5  6  1  0  0  0
  5 26  1  0  0  0
  5 92  1  0  0  0
  6 25  1  0  0  0
  6 93  1  0  0  0
  6 94  1  0  0  0
  7  8  2  0  0  0
  7 26  1  0  0  0
  7 29  1  0  0  0
  8  9  1  0  0  0
  8 22  1  0  0  0
  9 10  1  0  0  0
  9 27  2  0  0  0
 10 11  2  0  0  0
 10 15  1  0  0  0
 11 12  1  0  0  0
 11 95  1  0  0  0
 12 13  2  0  0  0
 12 96  1  0  0  0
 13 14  1  0  0  0
 13 31  1  0  0  0
 14 15  2  0  0  0
 14 97  1  0  0  0
 15 98  1  0  0  0
 16 17  2  0  0  0
 16 21  1  0  0  0
 16 31  1  0  0  0
 17 18  1  0  0  0
 17 99  1  0  0  0
 18 19  2  0  0  0
 18100  1  0  0  0
 19 20  1  0  0  0
 19 24  1  0  0  0
 20 21  2  0  0  0
 20101  1  0  0  0
 21 23  1  0  0  0
 22 28  1  0  0  0
 22 32  2  0  0  0
 26 27  1  0  0  0
 28102  1  0  0  0
 28103  1  0  0  0
 29104  1  0  0  0
 29105  1  0  0  0
 33 34  1  0  0  0
 33 66  1  0  0  0
 33 70  2  0  0  0
 34 36  1  0  0  0
 34 59  1  0  0  0
 34106  1  0  0  0
 35 44  2  0  0  0
 35 45  1  0  0  0
 35 68  1  0  0  0
 36 56  1  0  0  0
 36107  1  0  0  0
 37 39  1  0  0  0
 37 47  1  0  0  0
 37 66  1  0  0  0
 37108  1  0  0  0
 38 43  2  0  0  0
 38 46  1  0  0  0
 38 47  1  0  0  0
 39 64  1  0  0  0
 39 67  2  0  0  0
 40 52  1  0  0  0
 40 53  2  0  0  0
 40 58  1  0  0  0
 41109  1  0  0  0
 41110  1  0  0  0
 41111  1  0  0  0
 41 48  1  0  0  0
 42 43  1  0  0  0
 42 66  1  0  0  0
 42112  1  0  0  0
 42113  1  0  0  0
 43 44  1  0  0  0
 44114  1  0  0  0
 45 46  2  0  0  0
 45115  1  0  0  0
 46116  1  0  0  0
 47117  1  0  0  0
 47118  1  0  0  0
 48 56  1  0  0  0
 48 65  1  0  0  0
 48119  1  0  0  0
 49 50  1  0  0  0
 49 53  1  0  0  0
 49 64  1  0  0  0
 49120  1  0  0  0
 50 51  1  0  0  0
 50121  1  0  0  0
 50122  1  0  0  0
 51 52  1  0  0  0
 51123  1  0  0  0
 51124  1  0  0  0
 52125  1  0  0  0
 52126  1  0  0  0
 53 54  1  0  0  0
 54 55  2  0  0  0
 54127  1  0  0  0
 55 57  1  0  0  0
 55128  1  0  0  0
 56 69  2  0  0  0
 57 58  2  0  0  0
 57129  1  0  0  0
 58130  1  0  0  0
 59 60  1  0  0  0
 59 61  1  0  0  0
 59 62  1  0  0  0
 60131  1  0  0  0
 60132  1  0  0  0
 60133  1  0  0  0
 61134  1  0  0  0
 61135  1  0  0  0
 61136  1  0  0  0
 62137  1  0  0  0
 62138  1  0  0  0
 62139  1  0  0  0
 63 65  1  0  0  0
 63140  1  0  0  0
 63141  1  0  0  0
 63142  1  0  0  0
 64143  1  0  0  0
 65144  1  0  0  0
 68 83  1  0  0  0
 71 72  2  0  0  0
 71 74  1  0  0  0
 71145  1  0  0  0
 72 76  1  0  0  0
 72146  1  0  0  0
 73 74  2  0  0  0
 73 75  1  0  0  0
 73147  1  0  0  0
 74 81  1  0  0  0
 75 76  2  0  0  0
 75 77  1  0  0  0
 76 85  1  0  0  0
 77148  1  0  0  0
 77149  1  0  0  0
 77150  1  0  0  0
 78151  1  0  0  0
 78152  1  0  0  0
 78153  1  0  0  0
 78 83  1  0  0  0
 79154  1  0  0  0
 79155  1  0  0  0
 79156  1  0  0  0
 79 84  1  0  0  0
 80 84  1  0  0  0
 80157  1  0  0  0
 80158  1  0  0  0
 80159  1  0  0  0
 81 82  1  0  0  0
 81160  1  0  0  0
 81161  1  0  0  0
 82 84  1  0  0  0
 82162  1  0  0  0
 82163  1  0  0  0
 83 84  1  0  0  0
 83164  1  0  0  0
 85165  1  0  0  0
M  ISO  4   1 100  68 101  83 101  85 100
M  END
> <chiral flag>
0

> <version>
0

> <s_m_source_file>
/data/baiqing/PycharmProjects/Reinvent-master-3.2/result/LINK_invent/BTK/process_docking_weight1_custom_product_contain_oxygen_bond_distance_aromatic_linkinvent_7_9_3/rearranged_h_0137.sdf

> <i_m_source_file_index>
75

> <r_mmod_Potential_Energy-OPLS-2005>
37.1794967651367

> <r_mmod_Stretch_Energy-OPLS-2005>
72.8488540649414

> <r_mmod_Bend_Energy-OPLS-2005>
128.230850219727

> <r_mmod_Torsional_Energy-OPLS-2005>
239.728530883789

> <r_mmod_Improper_Torsional_Energy-OPLS-2005>
5.4307165145874

> <r_mmod_Van_der_Waal_Energy-OPLS-2005>
155.171463012695

> <r_mmod_Electrostatic_Energy-OPLS-2005>
-419.435333251953

> <r_mmod_Solvation_Energy-OPLS-2005>
-189.972579956055

> <b_mmod_Minimization_Converged-OPLS-2005>
0

> <r_mmod_RMS_Derivative-OPLS-2005>
3.87073063850403

$$$$
75
                    3D
 Structure written by MMmdl.
162170  0  0  1  0            999 V2000
  -30.6869  -14.4929   20.5564 C   0  0  0  0  0  0
  -30.4301  -12.3113   19.4380 C   0  0  0  0  0  0
  -29.5128  -12.5021   18.2128 C   0  0  0  0  0  0
  -28.0275  -12.3695   18.6099 C   0  0  0  0  0  0
  -27.6622  -13.2086   19.8655 C   0  0  2  0  0  0
  -28.7002  -12.9979   20.9926 C   0  0  0  0  0  0
  -25.2599  -13.8172   20.5643 C   0  0  0  0  0  0
  -24.1848  -13.0452   20.9161 C   0  0  0  0  0  0
  -24.6401  -11.6916   20.8703 C   0  0  0  0  0  0
  -23.9053  -10.4300   21.0386 C   0  0  0  0  0  0
  -24.3613   -9.4220   21.9170 C   0  0  0  0  0  0
  -23.6294   -8.2248   22.0747 C   0  0  0  0  0  0
  -22.4279   -8.0284   21.3531 C   0  0  0  0  0  0
  -21.9896   -9.0257   20.4636 C   0  0  0  0  0  0
  -22.7216  -10.2134   20.3037 C   0  0  0  0  0  0
  -21.6854   -6.0743   22.5281 C   0  0  0  0  0  0
  -21.4015   -6.5633   23.8218 C   0  0  0  0  0  0
  -21.3648   -5.6777   24.9171 C   0  0  0  0  0  0
  -21.6055   -4.3049   24.7219 C   0  0  0  0  0  0
  -21.8818   -3.8145   23.4331 C   0  0  0  0  0  0
  -21.9189   -4.6970   22.3393 C   0  0  0  0  0  0
  -22.7865  -13.5263   21.1813 C   0  0  0  0  0  0
  -22.1665   -4.2149   21.0972 F   0  0  0  0  0  0
  -21.5620   -3.4536   25.7732 F   0  0  0  0  0  0
  -30.0324  -13.3038   20.4468 N   0  0  0  0  0  0
  -26.3033  -12.9339   20.3276 N   0  0  0  0  0  0
  -25.9326  -11.6498   20.5704 N   0  0  0  0  0  0
  -22.0465  -12.8298   22.0367 N   0  0  0  0  0  0
  -25.4303  -15.1900   20.4049 N   0  0  0  0  0  0
  -31.8306  -14.6590   20.1243 O   0  0  0  0  0  0
  -21.6630   -6.8889   21.4241 O   0  0  0  0  0  0
  -22.3561  -14.5554   20.6627 O   0  0  0  0  0  0
  -24.6152  -31.8625   23.2084 C   0  0  0  0  0  0
  -25.9046  -32.4781   23.8353 C   0  0  1  0  0  0
  -27.2370  -27.4026   20.1012 C   0  0  0  0  0  0
  -25.5887  -33.8578   24.2271 N   0  0  0  0  0  0
  -23.4025  -30.4887   21.5475 C   0  0  2  0  0  0
  -24.8497  -28.9475   20.1135 C   0  0  0  0  0  0
  -22.7391  -29.4644   22.4966 C   0  0  0  0  0  0
  -18.0263  -28.1379   22.8494 C   0  0  0  0  0  0
  -24.1482  -36.7293   23.2643 C   0  0  0  0  0  0
  -25.9330  -30.8197   21.3657 C   0  0  0  0  0  0
  -26.0083  -29.4494   20.7162 C   0  0  0  0  0  0
  -27.1995  -28.6824   20.7120 C   0  0  0  0  0  0
  -26.0576  -26.9280   19.4802 C   0  0  0  0  0  0
  -24.8709  -27.6859   19.4938 C   0  0  0  0  0  0
  -23.6118  -29.8176   20.1624 C   0  0  0  0  0  0
  -25.4108  -36.3082   24.0325 C   0  0  1  0  0  0
  -20.5861  -28.3642   23.1329 C   0  0  2  0  0  0
  -20.6748  -26.9378   22.5428 C   0  0  0  0  0  0
  -19.5729  -26.6383   21.5217 C   0  0  0  0  0  0
  -18.1913  -26.7918   22.1641 C   0  0  0  0  0  0
  -19.1521  -28.8823   23.2916 C   0  0  0  0  0  0
  -18.9459  -30.1433   23.8914 C   0  0  0  0  0  0
  -17.6466  -30.6595   24.0559 C   0  0  0  0  0  0
  -25.9033  -34.9449   23.5109 C   0  0  0  0  0  0
  -16.5353  -29.9106   23.6323 C   0  0  0  0  0  0
  -16.7253  -28.6525   23.0338 C   0  0  0  0  0  0
  -26.4492  -31.6564   25.0670 C   0  0  0  0  0  0
  -25.3789  -31.3656   26.1432 C   0  0  0  0  0  0
  -27.0315  -30.3015   24.6039 C   0  0  0  0  0  0
  -27.6057  -32.4279   25.7439 C   0  0  0  0  0  0
  -27.5567  -37.1801   24.8470 C   0  0  0  0  0  0
  -21.4115  -29.3012   22.3719 N   0  0  0  0  0  0
  -26.4284  -37.3779   23.9410 N   0  0  0  0  0  0
  -24.6678  -31.0722   22.0988 N   0  0  0  0  0  0
  -23.4146  -28.8183   23.3010 O   0  0  0  0  0  0
  -28.4270  -26.6893   20.1020 O   0  0  0  0  0  0
  -26.5615  -34.8919   22.4679 O   0  0  0  0  0  0
  -23.5356  -32.1375   23.7498 O   0  0  0  0  0  0
  -29.3993  -19.1168   20.0063 C   0  0  0  0  0  0
  -29.1519  -17.7545   20.3181 C   0  0  0  0  0  0
  -31.4502  -17.5078   21.0458 C   0  0  0  0  0  0
  -30.6824  -19.6899   20.1883 C   0  0  0  0  0  0
  -30.1888  -16.9194   20.7953 C   0  0  0  0  0  0
  -31.6947  -18.8662   20.7482 C   0  0  0  0  0  0
  -30.9919  -21.0818   19.7206 C   0  0  0  0  0  0
  -30.9021  -25.2375   19.4510 C   0  0  0  0  0  0
  -29.1500  -25.2305   17.6706 C   0  0  0  0  0  0
  -30.1193  -22.2777   20.1549 C   0  0  0  0  0  0
  -29.5452  -23.1278   18.9723 C   0  0  0  0  0  0
  -28.4340  -25.2385   20.0710 C   0  0  0  0  0  0
  -29.5057  -24.6969   19.0756 C   0  0  0  0  0  0
  -32.0014  -21.3117   18.9883 N   0  0  0  0  0  0
  -29.9431  -15.5238   21.0214 N   0  0  0  0  0  0
  -32.9358  -19.3621   20.9811 F   0  0  0  0  0  0
  -31.4788  -12.4089   19.1511 H   0  0  0  0  0  0
  -30.3305  -11.3029   19.8419 H   0  0  0  0  0  0
  -29.7685  -11.7721   17.4446 H   0  0  0  0  0  0
  -29.6893  -13.4857   17.7743 H   0  0  0  0  0  0
  -27.8313  -11.3135   18.8005 H   0  0  0  0  0  0
  -27.3923  -12.6517   17.7693 H   0  0  0  0  0  0
  -27.7046  -14.2555   19.5660 H   0  0  0  0  0  0
  -28.6767  -11.9664   21.3473 H   0  0  0  0  0  0
  -28.4572  -13.6075   21.8625 H   0  0  0  0  0  0
  -25.2762   -9.5726   22.4729 H   0  0  0  0  0  0
  -24.0010   -7.4655   22.7486 H   0  0  0  0  0  0
  -21.0813   -8.8767   19.8958 H   0  0  0  0  0  0
  -22.3672  -10.9661   19.6136 H   0  0  0  0  0  0
  -21.2007   -7.6144   23.9734 H   0  0  0  0  0  0
  -21.1473   -6.0495   25.9073 H   0  0  0  0  0  0
  -22.0606   -2.7612   23.2827 H   0  0  0  0  0  0
  -22.4047  -11.9996   22.4846 H   0  0  0  0  0  0
  -21.1058  -13.1348   22.2483 H   0  0  0  0  0  0
  -24.6592  -15.8417   20.5085 H   0  0  0  0  0  0
  -26.2749  -15.6258   20.0606 H   0  0  0  0  0  0
  -26.7089  -32.5487   23.1085 H   0  0  0  0  0  0
  -24.9977  -33.9701   25.0385 H   0  0  0  0  0  0
  -22.6918  -31.3060   21.4068 H   0  0  0  0  0  0
  -23.3720  -35.9656   23.3337 H   0  0  0  0  0  0
  -24.3580  -36.8876   22.2055 H   0  0  0  0  0  0
  -23.7253  -37.6516   23.6637 H   0  0  0  0  0  0
  -26.0488  -31.5821   20.5942 H   0  0  0  0  0  0
  -26.8210  -30.8734   21.9831 H   0  0  0  0  0  0
  -28.0902  -29.0631   21.1937 H   0  0  0  0  0  0
  -26.0376  -25.9854   18.9556 H   0  0  0  0  0  0
  -23.9840  -27.2974   19.0117 H   0  0  0  0  0  0
  -23.7149  -30.5883   19.3972 H   0  0  0  0  0  0
  -22.7352  -29.2338   19.8738 H   0  0  0  0  0  0
  -25.1300  -36.1937   25.0817 H   0  0  0  0  0  0
  -20.9969  -28.3221   24.1445 H   0  0  0  0  0  0
  -20.5648  -26.2241   23.3610 H   0  0  0  0  0  0
  -21.6624  -26.7428   22.1230 H   0  0  0  0  0  0
  -19.6889  -25.6308   21.1209 H   0  0  0  0  0  0
  -19.6690  -27.3228   20.6780 H   0  0  0  0  0  0
  -17.4184  -26.6655   21.4048 H   0  0  0  0  0  0
  -18.0338  -26.0073   22.9055 H   0  0  0  0  0  0
  -19.7945  -30.7232   24.2301 H   0  0  0  0  0  0
  -17.5042  -31.6280   24.5158 H   0  0  0  0  0  0
  -15.5367  -30.3024   23.7644 H   0  0  0  0  0  0
  -15.8648  -28.0867   22.7028 H   0  0  0  0  0  0
  -24.5981  -30.6960   25.7800 H   0  0  0  0  0  0
  -24.8951  -32.2794   26.4893 H   0  0  0  0  0  0
  -25.8199  -30.8841   27.0171 H   0  0  0  0  0  0
  -26.2837  -29.6754   24.1154 H   0  0  0  0  0  0
  -27.4154  -29.7276   25.4482 H   0  0  0  0  0  0
  -27.8642  -30.4316   23.9122 H   0  0  0  0  0  0
  -27.2674  -33.3578   26.2025 H   0  0  0  0  0  0
  -28.3890  -32.6834   25.0285 H   0  0  0  0  0  0
  -28.0688  -31.8371   26.5355 H   0  0  0  0  0  0
  -28.2622  -38.0064   24.7500 H   0  0  0  0  0  0
  -28.1025  -36.2602   24.6333 H   0  0  0  0  0  0
  -27.2271  -37.1492   25.8868 H   0  0  0  0  0  0
  -20.9247  -29.8719   21.6955 H   0  0  0  0  0  0
  -26.0159  -38.2850   24.1441 H   0  0  0  0  0  0
  -28.6075  -19.7141   19.5780 H   0  0  0  0  0  0
  -28.1684  -17.3461   20.1348 H   0  0  0  0  0  0
  -32.2540  -16.9122   21.4523 H   0  0  0  0  0  0
  -31.6851  -24.7769   18.8450 H   0  0  0  0  0  0
  -31.1446  -25.0543   20.4980 H   0  0  0  0  0  0
  -30.9719  -26.3155   19.2991 H   0  0  0  0  0  0
  -29.9143  -24.9797   16.9334 H   0  0  0  0  0  0
  -29.0473  -26.3158   17.6607 H   0  0  0  0  0  0
  -28.2059  -24.8184   17.3148 H   0  0  0  0  0  0
  -30.7452  -22.8905   20.8021 H   0  0  0  0  0  0
  -29.3015  -21.9291   20.7856 H   0  0  0  0  0  0
  -28.5462  -22.7537   18.7430 H   0  0  0  0  0  0
  -30.1235  -22.8954   18.0754 H   0  0  0  0  0  0
  -28.6651  -24.8833   21.0755 H   0  0  0  0  0  0
  -27.4699  -24.7896   19.8438 H   0  0  0  0  0  0
  -32.5145  -20.4593   18.7858 H   0  0  0  0  0  0
  -29.0117  -15.2658   21.3077 H   0  0  0  0  0  0
  1 25  1  0  0  0
  1 30  2  0  0  0
  1 85  1  0  0  0
  2  3  1  0  0  0
  2 25  1  0  0  0
  2 87  1  0  0  0
  2 88  1  0  0  0
  3  4  1  0  0  0
  3 89  1  0  0  0
  3 90  1  0  0  0
  4  5  1  0  0  0
  4 91  1  0  0  0
  4 92  1  0  0  0
  5  6  1  0  0  0
  5 26  1  0  0  0
  5 93  1  0  0  0
  6 25  1  0  0  0
  6 94  1  0  0  0
  6 95  1  0  0  0
  7  8  2  0  0  0
  7 26  1  0  0  0
  7 29  1  0  0  0
  8  9  1  0  0  0
  8 22  1  0  0  0
  9 10  1  0  0  0
  9 27  2  0  0  0
 10 11  2  0  0  0
 10 15  1  0  0  0
 11 12  1  0  0  0
 11 96  1  0  0  0
 12 13  2  0  0  0
 12 97  1  0  0  0
 13 14  1  0  0  0
 13 31  1  0  0  0
 14 15  2  0  0  0
 14 98  1  0  0  0
 15 99  1  0  0  0
 16 17  2  0  0  0
 16 21  1  0  0  0
 16 31  1  0  0  0
 17 18  1  0  0  0
 17100  1  0  0  0
 18 19  2  0  0  0
 18101  1  0  0  0
 19 20  1  0  0  0
 19 24  1  0  0  0
 20 21  2  0  0  0
 20102  1  0  0  0
 21 23  1  0  0  0
 22 28  1  0  0  0
 22 32  2  0  0  0
 26 27  1  0  0  0
 28103  1  0  0  0
 28104  1  0  0  0
 29105  1  0  0  0
 29106  1  0  0  0
 33 34  1  0  0  0
 33 66  1  0  0  0
 33 70  2  0  0  0
 34 36  1  0  0  0
 34 59  1  0  0  0
 34107  1  0  0  0
 35 44  2  0  0  0
 35 45  1  0  0  0
 35 68  1  0  0  0
 36 56  1  0  0  0
 36108  1  0  0  0
 37 39  1  0  0  0
 37 47  1  0  0  0
 37 66  1  0  0  0
 37109  1  0  0  0
 38 43  2  0  0  0
 38 46  1  0  0  0
 38 47  1  0  0  0
 39 64  1  0  0  0
 39 67  2  0  0  0
 40 52  1  0  0  0
 40 53  2  0  0  0
 40 58  1  0  0  0
 41110  1  0  0  0
 41111  1  0  0  0
 41112  1  0  0  0
 41 48  1  0  0  0
 42 43  1  0  0  0
 42 66  1  0  0  0
 42113  1  0  0  0
 42114  1  0  0  0
 43 44  1  0  0  0
 44115  1  0  0  0
 45 46  2  0  0  0
 45116  1  0  0  0
 46117  1  0  0  0
 47118  1  0  0  0
 47119  1  0  0  0
 48 56  1  0  0  0
 48 65  1  0  0  0
 48120  1  0  0  0
 49 50  1  0  0  0
 49 53  1  0  0  0
 49 64  1  0  0  0
 49121  1  0  0  0
 50 51  1  0  0  0
 50122  1  0  0  0
 50123  1  0  0  0
 51 52  1  0  0  0
 51124  1  0  0  0
 51125  1  0  0  0
 52126  1  0  0  0
 52127  1  0  0  0
 53 54  1  0  0  0
 54 55  2  0  0  0
 54128  1  0  0  0
 55 57  1  0  0  0
 55129  1  0  0  0
 56 69  2  0  0  0
 57 58  2  0  0  0
 57130  1  0  0  0
 58131  1  0  0  0
 59 60  1  0  0  0
 59 61  1  0  0  0
 59 62  1  0  0  0
 60132  1  0  0  0
 60133  1  0  0  0
 60134  1  0  0  0
 61135  1  0  0  0
 61136  1  0  0  0
 61137  1  0  0  0
 62138  1  0  0  0
 62139  1  0  0  0
 62140  1  0  0  0
 63 65  1  0  0  0
 63141  1  0  0  0
 63142  1  0  0  0
 63143  1  0  0  0
 64144  1  0  0  0
 65145  1  0  0  0
 68 82  1  0  0  0
 71 72  2  0  0  0
 71 74  1  0  0  0
 71146  1  0  0  0
 72 75  1  0  0  0
 72147  1  0  0  0
 73 75  2  0  0  0
 73 76  1  0  0  0
 73148  1  0  0  0
 74 76  2  0  0  0
 74 77  1  0  0  0
 75 85  1  0  0  0
 76 86  1  0  0  0
 77 80  1  0  0  0
 77 84  2  0  0  0
 78149  1  0  0  0
 78150  1  0  0  0
 78151  1  0  0  0
 78 83  1  0  0  0
 79 83  1  0  0  0
 79152  1  0  0  0
 79153  1  0  0  0
 79154  1  0  0  0
 80 81  1  0  0  0
 80155  1  0  0  0
 80156  1  0  0  0
 81 83  1  0  0  0
 81157  1  0  0  0
 81158  1  0  0  0
 82 83  1  0  0  0
 82159  1  0  0  0
 82160  1  0  0  0
 84161  1  0  0  0
 85162  1  0  0  0
M  ISO  4   1 100  68 101  82 101  85 100
M  END
> <chiral flag>
0

> <version>
0

> <s_m_source_file>
/data/baiqing/PycharmProjects/Reinvent-master-3.2/result/LINK_invent/BTK/process_docking_weight1_custom_product_contain_oxygen_bond_distance_aromatic_linkinvent_7_9_3/rearranged_h_0137.sdf

> <i_m_source_file_index>
76

> <r_mmod_Potential_Energy-OPLS-2005>
38.8946952819824

> <r_mmod_Stretch_Energy-OPLS-2005>
47.0529251098633

> <r_mmod_Bend_Energy-OPLS-2005>
114.494873046875

> <r_mmod_Torsional_Energy-OPLS-2005>
250.632553100586

> <r_mmod_Improper_Torsional_Energy-OPLS-2005>
4.95621919631958

> <r_mmod_Van_der_Waal_Energy-OPLS-2005>
155.566009521484

> <r_mmod_Electrostatic_Energy-OPLS-2005>
-339.379425048828

> <r_mmod_Solvation_Energy-OPLS-2005>
-210.364318847656

> <b_mmod_Minimization_Converged-OPLS-2005>
0

> <r_mmod_RMS_Derivative-OPLS-2005>
3.52093482017517

$$$$
76
                    3D
 Structure written by MMmdl.
162171  0  0  1  0            999 V2000
  -30.5838  -14.7379   20.4803 C   0  0  0  0  0  0
  -30.4440  -12.4642   19.4444 C   0  0  0  0  0  0
  -29.5047  -12.5140   18.2192 C   0  0  0  0  0  0
  -28.0324  -12.3329   18.6429 C   0  0  0  0  0  0
  -27.6436  -13.2239   19.8511 C   0  0  2  0  0  0
  -28.6932  -13.1310   20.9782 C   0  0  0  0  0  0
  -25.2551  -13.8212   20.5693 C   0  0  0  0  0  0
  -24.1823  -13.0473   20.9228 C   0  0  0  0  0  0
  -24.6391  -11.6951   20.8766 C   0  0  0  0  0  0
  -23.9036  -10.4335   21.0430 C   0  0  0  0  0  0
  -24.3600   -9.4243   21.9185 C   0  0  0  0  0  0
  -23.6284   -8.2267   22.0737 C   0  0  0  0  0  0
  -22.4277   -8.0290   21.3508 C   0  0  0  0  0  0
  -21.9915   -9.0278   20.4634 C   0  0  0  0  0  0
  -22.7222  -10.2169   20.3066 C   0  0  0  0  0  0
  -21.6867   -6.0721   22.5257 C   0  0  0  0  0  0
  -21.4024   -6.5611   23.8192 C   0  0  0  0  0  0
  -21.3655   -5.6764   24.9146 C   0  0  0  0  0  0
  -21.6051   -4.3027   24.7214 C   0  0  0  0  0  0
  -21.8831   -3.8123   23.4334 C   0  0  0  0  0  0
  -21.9192   -4.6941   22.3388 C   0  0  0  0  0  0
  -22.7865  -13.5285   21.1925 C   0  0  0  0  0  0
  -22.1661   -4.2123   21.0965 F   0  0  0  0  0  0
  -21.5644   -3.4517   25.7732 F   0  0  0  0  0  0
  -29.9854  -13.5036   20.3873 N   0  0  0  0  0  0
  -26.2957  -12.9381   20.3289 N   0  0  0  0  0  0
  -25.9320  -11.6535   20.5760 N   0  0  0  0  0  0
  -22.0509  -12.8242   22.0449 N   0  0  0  0  0  0
  -25.4243  -15.1938   20.4114 N   0  0  0  0  0  0
  -31.7878  -14.8676   20.2352 O   0  0  0  0  0  0
  -21.6647   -6.8868   21.4209 O   0  0  0  0  0  0
  -22.3552  -14.5613   20.6827 O   0  0  0  0  0  0
  -24.6319  -31.8554   23.1976 C   0  0  0  0  0  0
  -25.9153  -32.4742   23.8314 C   0  0  1  0  0  0
  -27.2078  -27.2679   20.1145 C   0  0  0  0  0  0
  -25.5956  -33.8542   24.2247 N   0  0  0  0  0  0
  -23.4275  -30.4791   21.5423 C   0  0  2  0  0  0
  -24.8732  -28.9303   20.1055 C   0  0  0  0  0  0
  -22.7519  -29.4585   22.4891 C   0  0  0  0  0  0
  -18.0318  -28.1352   22.8485 C   0  0  0  0  0  0
  -24.1497  -36.7252   23.2634 C   0  0  0  0  0  0
  -25.9747  -30.7691   21.3781 C   0  0  0  0  0  0
  -26.0483  -29.3946   20.7126 C   0  0  0  0  0  0
  -27.2250  -28.5786   20.7011 C   0  0  0  0  0  0
  -26.0123  -26.8671   19.4871 C   0  0  0  0  0  0
  -24.8588  -27.6738   19.4818 C   0  0  0  0  0  0
  -23.6452  -29.8191   20.1562 C   0  0  0  0  0  0
  -25.4120  -36.3048   24.0316 C   0  0  1  0  0  0
  -20.5917  -28.3692   23.1304 C   0  0  2  0  0  0
  -20.6802  -26.9403   22.5466 C   0  0  0  0  0  0
  -19.5816  -26.6422   21.5216 C   0  0  0  0  0  0
  -18.1991  -26.7888   22.1647 C   0  0  0  0  0  0
  -19.1555  -28.8837   23.2887 C   0  0  0  0  0  0
  -18.9458  -30.1452   23.8872 C   0  0  0  0  0  0
  -17.6446  -30.6579   24.0488 C   0  0  0  0  0  0
  -25.9069  -34.9427   23.5081 C   0  0  0  0  0  0
  -16.5355  -29.9038   23.6257 C   0  0  0  0  0  0
  -16.7303  -28.6439   23.0321 C   0  0  0  0  0  0
  -26.4531  -31.6562   25.0693 C   0  0  0  0  0  0
  -25.3743  -31.3730   26.1399 C   0  0  0  0  0  0
  -27.0382  -30.2966   24.6214 C   0  0  0  0  0  0
  -27.6089  -32.4298   25.7482 C   0  0  0  0  0  0
  -27.5576  -37.1780   24.8472 C   0  0  0  0  0  0
  -21.4225  -29.3033   22.3664 N   0  0  0  0  0  0
  -26.4287  -37.3748   23.9408 N   0  0  0  0  0  0
  -24.6968  -31.0519   22.0954 N   0  0  0  0  0  0
  -23.4213  -28.8124   23.2998 O   0  0  0  0  0  0
  -28.2754  -26.3463   20.1183 O   0  0  0  0  0  0
  -26.5634  -34.8916   22.4656 O   0  0  0  0  0  0
  -23.5478  -32.1393   23.7282 O   0  0  0  0  0  0
  -29.5686  -19.7616   22.3582 C   0  0  0  0  0  0
  -29.9144  -18.6070   23.0875 C   0  0  0  0  0  0
  -29.5474  -18.4300   20.3467 C   0  0  0  0  0  0
  -29.4321  -19.7624   20.9523 C   0  0  0  0  0  0
  -30.0767  -17.3487   22.4740 C   0  0  0  0  0  0
  -29.8617  -17.2050   21.0795 C   0  0  0  0  0  0
  -28.9259  -21.0671   18.8854 C   0  0  0  0  0  0
  -29.1398  -21.1264   20.2170 C   0  0  0  0  0  0
  -29.0653  -22.5492   20.7990 C   0  0  0  0  0  0
  -28.3956  -23.6017   20.1730 C   0  0  0  0  0  0
  -28.5814  -22.2733   18.0278 C   0  0  0  0  0  0
  -27.7700  -23.3254   18.8157 C   0  0  0  0  0  0
  -30.4056  -16.1565   23.3613 C   0  0  0  0  0  0
  -29.8117  -22.9001   22.0745 C   0  0  0  0  0  0
  -28.0332  -25.0336   20.8057 C   0  0  0  0  0  0
  -29.7366  -15.8339   20.5255 N   0  0  0  0  0  0
  -31.4769  -12.6260   19.1337 H   0  0  0  0  0  0
  -30.4172  -11.4812   19.9168 H   0  0  0  0  0  0
  -29.7904  -11.7483   17.4960 H   0  0  0  0  0  0
  -29.6169  -13.4728   17.7091 H   0  0  0  0  0  0
  -27.8904  -11.2825   18.9001 H   0  0  0  0  0  0
  -27.3739  -12.5344   17.7974 H   0  0  0  0  0  0
  -27.6437  -14.2482   19.4791 H   0  0  0  0  0  0
  -28.7376  -12.1208   21.3909 H   0  0  0  0  0  0
  -28.4391  -13.7899   21.8098 H   0  0  0  0  0  0
  -25.2765   -9.5736   22.4713 H   0  0  0  0  0  0
  -24.0002   -7.4677   22.7485 H   0  0  0  0  0  0
  -21.0820   -8.8801   19.8971 H   0  0  0  0  0  0
  -22.3681  -10.9690   19.6169 H   0  0  0  0  0  0
  -21.2017   -7.6117   23.9688 H   0  0  0  0  0  0
  -21.1458   -6.0488   25.9045 H   0  0  0  0  0  0
  -22.0619   -2.7585   23.2840 H   0  0  0  0  0  0
  -22.4132  -11.9875   22.4756 H   0  0  0  0  0  0
  -21.1129  -13.1277   22.2656 H   0  0  0  0  0  0
  -24.6642  -15.8460   20.5652 H   0  0  0  0  0  0
  -26.2528  -15.6478   20.0504 H   0  0  0  0  0  0
  -26.7187  -32.5391   23.1030 H   0  0  0  0  0  0
  -25.0128  -33.9668   25.0407 H   0  0  0  0  0  0
  -22.7226  -31.3007   21.3997 H   0  0  0  0  0  0
  -23.3761  -35.9585   23.3319 H   0  0  0  0  0  0
  -24.3583  -36.8852   22.2046 H   0  0  0  0  0  0
  -23.7259  -37.6456   23.6656 H   0  0  0  0  0  0
  -26.1247  -31.5360   20.6184 H   0  0  0  0  0  0
  -26.8481  -30.8070   22.0182 H   0  0  0  0  0  0
  -28.1283  -28.9294   21.1792 H   0  0  0  0  0  0
  -25.9590  -25.8969   19.0127 H   0  0  0  0  0  0
  -23.9594  -27.3157   18.9994 H   0  0  0  0  0  0
  -23.7686  -30.6043   19.4078 H   0  0  0  0  0  0
  -22.7627  -29.2553   19.8464 H   0  0  0  0  0  0
  -25.1309  -36.1880   25.0799 H   0  0  0  0  0  0
  -21.0029  -28.3284   24.1424 H   0  0  0  0  0  0
  -20.5598  -26.2336   23.3689 H   0  0  0  0  0  0
  -21.6679  -26.7368   22.1346 H   0  0  0  0  0  0
  -19.7022  -25.6368   21.1202 H   0  0  0  0  0  0
  -19.6783  -27.3306   20.6809 H   0  0  0  0  0  0
  -17.4244  -26.6548   21.4086 H   0  0  0  0  0  0
  -18.0490  -26.0031   22.9071 H   0  0  0  0  0  0
  -19.7947  -30.7262   24.2219 H   0  0  0  0  0  0
  -17.4992  -31.6278   24.5025 H   0  0  0  0  0  0
  -15.5337  -30.2921   23.7536 H   0  0  0  0  0  0
  -15.8721  -28.0725   22.7032 H   0  0  0  0  0  0
  -24.5934  -30.7064   25.7724 H   0  0  0  0  0  0
  -24.8914  -32.2905   26.4770 H   0  0  0  0  0  0
  -25.8041  -30.8944   27.0207 H   0  0  0  0  0  0
  -26.2977  -29.6685   24.1236 H   0  0  0  0  0  0
  -27.4051  -29.7262   25.4764 H   0  0  0  0  0  0
  -27.8878  -30.4218   23.9490 H   0  0  0  0  0  0
  -27.2704  -33.3605   26.2056 H   0  0  0  0  0  0
  -28.3925  -32.6828   25.0323 H   0  0  0  0  0  0
  -28.0733  -31.8403   26.5403 H   0  0  0  0  0  0
  -28.2598  -38.0068   24.7486 H   0  0  0  0  0  0
  -28.1074  -36.2598   24.6351 H   0  0  0  0  0  0
  -27.2297  -37.1480   25.8876 H   0  0  0  0  0  0
  -20.9395  -29.8767   21.6892 H   0  0  0  0  0  0
  -26.0168  -38.2827   24.1396 H   0  0  0  0  0  0
  -29.3943  -20.6437   22.9435 H   0  0  0  0  0  0
  -30.0233  -18.6981   24.1604 H   0  0  0  0  0  0
  -29.3724  -18.3157   19.2890 H   0  0  0  0  0  0
  -28.9963  -20.1375   18.3426 H   0  0  0  0  0  0
  -28.0301  -21.9463   17.1452 H   0  0  0  0  0  0
  -29.5202  -22.7044   17.6736 H   0  0  0  0  0  0
  -27.6842  -24.2460   18.2357 H   0  0  0  0  0  0
  -26.7559  -22.9562   18.9812 H   0  0  0  0  0  0
  -30.5599  -16.4563   24.3978 H   0  0  0  0  0  0
  -31.3287  -15.6799   23.0298 H   0  0  0  0  0  0
  -29.5974  -15.4237   23.3424 H   0  0  0  0  0  0
  -29.1372  -22.9154   22.9324 H   0  0  0  0  0  0
  -30.2861  -23.8783   21.9919 H   0  0  0  0  0  0
  -30.6374  -22.2163   22.2567 H   0  0  0  0  0  0
  -28.5067  -25.1361   21.7794 H   0  0  0  0  0  0
  -26.9744  -24.9589   21.0505 H   0  0  0  0  0  0
  -28.7782  -15.5602   20.3754 H   0  0  0  0  0  0
  1 25  1  0  0  0
  1 30  2  0  0  0
  1 86  1  0  0  0
  2  3  1  0  0  0
  2 25  1  0  0  0
  2 87  1  0  0  0
  2 88  1  0  0  0
  3  4  1  0  0  0
  3 89  1  0  0  0
  3 90  1  0  0  0
  4  5  1  0  0  0
  4 91  1  0  0  0
  4 92  1  0  0  0
  5  6  1  0  0  0
  5 26  1  0  0  0
  5 93  1  0  0  0
  6 25  1  0  0  0
  6 94  1  0  0  0
  6 95  1  0  0  0
  7  8  2  0  0  0
  7 26  1  0  0  0
  7 29  1  0  0  0
  8  9  1  0  0  0
  8 22  1  0  0  0
  9 10  1  0  0  0
  9 27  2  0  0  0
 10 11  2  0  0  0
 10 15  1  0  0  0
 11 12  1  0  0  0
 11 96  1  0  0  0
 12 13  2  0  0  0
 12 97  1  0  0  0
 13 14  1  0  0  0
 13 31  1  0  0  0
 14 15  2  0  0  0
 14 98  1  0  0  0
 15 99  1  0  0  0
 16 17  2  0  0  0
 16 21  1  0  0  0
 16 31  1  0  0  0
 17 18  1  0  0  0
 17100  1  0  0  0
 18 19  2  0  0  0
 18101  1  0  0  0
 19 20  1  0  0  0
 19 24  1  0  0  0
 20 21  2  0  0  0
 20102  1  0  0  0
 21 23  1  0  0  0
 22 28  1  0  0  0
 22 32  2  0  0  0
 26 27  1  0  0  0
 28103  1  0  0  0
 28104  1  0  0  0
 29105  1  0  0  0
 29106  1  0  0  0
 33 34  1  0  0  0
 33 66  1  0  0  0
 33 70  2  0  0  0
 34 36  1  0  0  0
 34 59  1  0  0  0
 34107  1  0  0  0
 35 44  2  0  0  0
 35 45  1  0  0  0
 35 68  1  0  0  0
 36 56  1  0  0  0
 36108  1  0  0  0
 37 39  1  0  0  0
 37 47  1  0  0  0
 37 66  1  0  0  0
 37109  1  0  0  0
 38 43  2  0  0  0
 38 46  1  0  0  0
 38 47  1  0  0  0
 39 64  1  0  0  0
 39 67  2  0  0  0
 40 52  1  0  0  0
 40 53  2  0  0  0
 40 58  1  0  0  0
 41110  1  0  0  0
 41111  1  0  0  0
 41112  1  0  0  0
 41 48  1  0  0  0
 42 43  1  0  0  0
 42 66  1  0  0  0
 42113  1  0  0  0
 42114  1  0  0  0
 43 44  1  0  0  0
 44115  1  0  0  0
 45 46  2  0  0  0
 45116  1  0  0  0
 46117  1  0  0  0
 47118  1  0  0  0
 47119  1  0  0  0
 48 56  1  0  0  0
 48 65  1  0  0  0
 48120  1  0  0  0
 49 50  1  0  0  0
 49 53  1  0  0  0
 49 64  1  0  0  0
 49121  1  0  0  0
 50 51  1  0  0  0
 50122  1  0  0  0
 50123  1  0  0  0
 51 52  1  0  0  0
 51124  1  0  0  0
 51125  1  0  0  0
 52126  1  0  0  0
 52127  1  0  0  0
 53 54  1  0  0  0
 54 55  2  0  0  0
 54128  1  0  0  0
 55 57  1  0  0  0
 55129  1  0  0  0
 56 69  2  0  0  0
 57 58  2  0  0  0
 57130  1  0  0  0
 58131  1  0  0  0
 59 60  1  0  0  0
 59 61  1  0  0  0
 59 62  1  0  0  0
 60132  1  0  0  0
 60133  1  0  0  0
 60134  1  0  0  0
 61135  1  0  0  0
 61136  1  0  0  0
 61137  1  0  0  0
 62138  1  0  0  0
 62139  1  0  0  0
 62140  1  0  0  0
 63 65  1  0  0  0
 63141  1  0  0  0
 63142  1  0  0  0
 63143  1  0  0  0
 64144  1  0  0  0
 65145  1  0  0  0
 68 85  1  0  0  0
 71 72  2  0  0  0
 71 74  1  0  0  0
 71146  1  0  0  0
 72 75  1  0  0  0
 72147  1  0  0  0
 73 74  2  0  0  0
 73 76  1  0  0  0
 73148  1  0  0  0
 74 78  1  0  0  0
 75 76  2  0  0  0
 75 83  1  0  0  0
 76 86  1  0  0  0
 77 78  2  0  0  0
 77 81  1  0  0  0
 77149  1  0  0  0
 78 79  1  0  0  0
 79 80  2  0  0  0
 79 84  1  0  0  0
 80 82  1  0  0  0
 80 85  1  0  0  0
 81 82  1  0  0  0
 81150  1  0  0  0
 81151  1  0  0  0
 82152  1  0  0  0
 82153  1  0  0  0
 83154  1  0  0  0
 83155  1  0  0  0
 83156  1  0  0  0
 84157  1  0  0  0
 84158  1  0  0  0
 84159  1  0  0  0
 85160  1  0  0  0
 85161  1  0  0  0
 86162  1  0  0  0
M  ISO  4   1 100  68 101  85 101  86 100
M  END
> <chiral flag>
0

> <version>
0

> <s_m_source_file>
/data/baiqing/PycharmProjects/Reinvent-master-3.2/result/LINK_invent/BTK/process_docking_weight1_custom_product_contain_oxygen_bond_distance_aromatic_linkinvent_7_9_3/rearranged_h_0137.sdf

> <i_m_source_file_index>
77

> <r_mmod_Potential_Energy-OPLS-2005>
286.5751953125

> <r_mmod_Stretch_Energy-OPLS-2005>
138.10791015625

> <r_mmod_Bend_Energy-OPLS-2005>
172.952072143555

> <r_mmod_Torsional_Energy-OPLS-2005>
285.567718505859

> <r_mmod_Improper_Torsional_Energy-OPLS-2005>
10.6363592147827

> <r_mmod_Van_der_Waal_Energy-OPLS-2005>
161.009796142578

> <r_mmod_Electrostatic_Energy-OPLS-2005>
-367.736145019531

> <r_mmod_Solvation_Energy-OPLS-2005>
-200.499328613281

> <b_mmod_Minimization_Converged-OPLS-2005>
0

> <r_mmod_RMS_Derivative-OPLS-2005>
4.03465843200684

$$$$
77
                    3D
 Structure written by MMmdl.
161169  0  0  1  0            999 V2000
  -30.6351  -14.7058   20.4398 C   0  0  0  0  0  0
  -30.4362  -12.4034   19.4972 C   0  0  0  0  0  0
  -29.5195  -12.4177   18.2513 C   0  0  0  0  0  0
  -28.0282  -12.3372   18.6399 C   0  0  0  0  0  0
  -27.6485  -13.2320   19.8498 C   0  0  2  0  0  0
  -28.6910  -13.1507   20.9862 C   0  0  0  0  0  0
  -25.2572  -13.8232   20.5732 C   0  0  0  0  0  0
  -24.1841  -13.0470   20.9189 C   0  0  0  0  0  0
  -24.6433  -11.6948   20.8721 C   0  0  0  0  0  0
  -23.9119  -10.4326   21.0383 C   0  0  0  0  0  0
  -24.3664   -9.4241   21.9161 C   0  0  0  0  0  0
  -23.6340   -8.2276   22.0736 C   0  0  0  0  0  0
  -22.4313   -8.0314   21.3543 C   0  0  0  0  0  0
  -21.9967   -9.0297   20.4628 C   0  0  0  0  0  0
  -22.7306  -10.2170   20.3033 C   0  0  0  0  0  0
  -21.6876   -6.0755   22.5271 C   0  0  0  0  0  0
  -21.4038   -6.5645   23.8213 C   0  0  0  0  0  0
  -21.3665   -5.6777   24.9159 C   0  0  0  0  0  0
  -21.6049   -4.3043   24.7192 C   0  0  0  0  0  0
  -21.8838   -3.8152   23.4306 C   0  0  0  0  0  0
  -21.9204   -4.6981   22.3374 C   0  0  0  0  0  0
  -22.7856  -13.5244   21.1839 C   0  0  0  0  0  0
  -22.1673   -4.2176   21.0946 F   0  0  0  0  0  0
  -21.5630   -3.4517   25.7695 F   0  0  0  0  0  0
  -30.0020  -13.4843   20.4126 N   0  0  0  0  0  0
  -26.2987  -12.9440   20.3273 N   0  0  0  0  0  0
  -25.9365  -11.6583   20.5733 N   0  0  0  0  0  0
  -22.0517  -12.8220   22.0383 N   0  0  0  0  0  0
  -25.4290  -15.1959   20.4256 N   0  0  0  0  0  0
  -31.8136  -14.7997   20.0846 O   0  0  0  0  0  0
  -21.6671   -6.8913   21.4241 O   0  0  0  0  0  0
  -22.3533  -14.5559   20.6695 O   0  0  0  0  0  0
  -24.6285  -31.8588   23.2014 C   0  0  0  0  0  0
  -25.9127  -32.4776   23.8346 C   0  0  1  0  0  0
  -27.2198  -27.2831   20.1363 C   0  0  0  0  0  0
  -25.5932  -33.8574   24.2271 N   0  0  0  0  0  0
  -23.4247  -30.4826   21.5442 C   0  0  2  0  0  0
  -24.8744  -28.9384   20.1074 C   0  0  0  0  0  0
  -22.7498  -29.4623   22.4927 C   0  0  0  0  0  0
  -18.0295  -28.1388   22.8487 C   0  0  0  0  0  0
  -24.1488  -36.7280   23.2643 C   0  0  0  0  0  0
  -25.9692  -30.7773   21.3817 C   0  0  0  0  0  0
  -26.0428  -29.4011   20.7275 C   0  0  0  0  0  0
  -27.2168  -28.5835   20.7398 C   0  0  0  0  0  0
  -26.0382  -26.9016   19.4583 C   0  0  0  0  0  0
  -24.8765  -27.6948   19.4610 C   0  0  0  0  0  0
  -23.6417  -29.8203   20.1584 C   0  0  0  0  0  0
  -25.4118  -36.3082   24.0329 C   0  0  1  0  0  0
  -20.5897  -28.3702   23.1280 C   0  0  2  0  0  0
  -20.6785  -26.9421   22.5419 C   0  0  0  0  0  0
  -19.5756  -26.6384   21.5221 C   0  0  0  0  0  0
  -18.1935  -26.7930   22.1630 C   0  0  0  0  0  0
  -19.1546  -28.8866   23.2877 C   0  0  0  0  0  0
  -18.9463  -30.1466   23.8894 C   0  0  0  0  0  0
  -17.6462  -30.6591   24.0561 C   0  0  0  0  0  0
  -25.9061  -34.9448   23.5104 C   0  0  0  0  0  0
  -16.5355  -29.9083   23.6328 C   0  0  0  0  0  0
  -16.7285  -28.6500   23.0357 C   0  0  0  0  0  0
  -26.4502  -31.6584   25.0721 C   0  0  0  0  0  0
  -25.3722  -31.3714   26.1439 C   0  0  0  0  0  0
  -27.0353  -30.3006   24.6193 C   0  0  0  0  0  0
  -27.6057  -32.4326   25.7499 C   0  0  0  0  0  0
  -27.5579  -37.1805   24.8468 C   0  0  0  0  0  0
  -21.4212  -29.3038   22.3667 N   0  0  0  0  0  0
  -26.4298  -37.3772   23.9413 N   0  0  0  0  0  0
  -24.6929  -31.0567   22.0988 N   0  0  0  0  0  0
  -23.4215  -28.8168   23.3017 O   0  0  0  0  0  0
  -28.2930  -26.3649   20.2144 O   0  0  0  0  0  0
  -26.5625  -34.8923   22.4673 O   0  0  0  0  0  0
  -23.5438  -32.1411   23.7313 O   0  0  0  0  0  0
  -29.8882  -19.7737   18.7911 C   0  0  0  0  0  0
  -29.9525  -18.5879   18.0446 C   0  0  0  0  0  0
  -29.8700  -18.4347   20.8252 C   0  0  0  0  0  0
  -29.8287  -19.7466   20.1946 C   0  0  0  0  0  0
  -29.9554  -17.3166   18.6564 C   0  0  0  0  0  0
  -29.9489  -17.1868   20.0786 C   0  0  0  0  0  0
  -28.0549  -24.9494   20.5339 C   0  0  0  0  0  0
  -29.9062  -16.1266   17.7147 C   0  0  0  0  0  0
  -30.1011  -24.1490   19.2442 C   0  0  0  0  0  0
  -30.1339  -24.1913   21.7554 C   0  0  0  0  0  0
  -29.8687  -21.1538   20.9196 C   0  0  0  0  0  0
  -28.8316  -22.3296   20.5279 C   0  0  0  0  0  0
  -29.2657  -23.9000   20.5142 C   0  0  0  0  0  0
  -29.8898  -15.8417   20.7046 N   0  0  0  0  0  0
  -26.9469  -24.5241   20.8733 O   0  0  0  0  0  0
  -31.4798  -12.5083   19.1963 H   0  0  0  0  0  0
  -30.3795  -11.4414   20.0084 H   0  0  0  0  0  0
  -29.7687  -11.5712   17.6098 H   0  0  0  0  0  0
  -29.7105  -13.3041   17.6509 H   0  0  0  0  0  0
  -27.8088  -11.2945   18.8725 H   0  0  0  0  0  0
  -27.4033  -12.5896   17.7813 H   0  0  0  0  0  0
  -27.6502  -14.2556   19.4761 H   0  0  0  0  0  0
  -28.7092  -12.1504   21.4206 H   0  0  0  0  0  0
  -28.4321  -13.8317   21.7973 H   0  0  0  0  0  0
  -25.2810   -9.5745   22.4722 H   0  0  0  0  0  0
  -24.0072   -7.4671   22.7454 H   0  0  0  0  0  0
  -21.0912   -8.8853   19.8907 H   0  0  0  0  0  0
  -22.3804  -10.9726   19.6139 H   0  0  0  0  0  0
  -21.2059   -7.6157   23.9755 H   0  0  0  0  0  0
  -21.1459   -6.0463   25.9070 H   0  0  0  0  0  0
  -22.0622   -2.7614   23.2770 H   0  0  0  0  0  0
  -22.4168  -11.9880   22.4735 H   0  0  0  0  0  0
  -21.1165  -13.1278   22.2687 H   0  0  0  0  0  0
  -24.6716  -15.8517   20.5860 H   0  0  0  0  0  0
  -26.2876  -15.6444   20.1331 H   0  0  0  0  0  0
  -26.7200  -32.5436   23.1088 H   0  0  0  0  0  0
  -25.0064  -33.9713   25.0411 H   0  0  0  0  0  0
  -22.7184  -31.3030   21.4022 H   0  0  0  0  0  0
  -23.3753  -35.9612   23.3319 H   0  0  0  0  0  0
  -24.3569  -36.8885   22.2052 H   0  0  0  0  0  0
  -23.7237  -37.6487   23.6653 H   0  0  0  0  0  0
  -26.1071  -31.5378   20.6113 H   0  0  0  0  0  0
  -26.8469  -30.8255   22.0142 H   0  0  0  0  0  0
  -28.1053  -28.9260   21.2507 H   0  0  0  0  0  0
  -25.9902  -25.9492   18.9491 H   0  0  0  0  0  0
  -23.9868  -27.3385   18.9603 H   0  0  0  0  0  0
  -23.7609  -30.5988   19.4036 H   0  0  0  0  0  0
  -22.7595  -29.2513   19.8569 H   0  0  0  0  0  0
  -25.1298  -36.1930   25.0818 H   0  0  0  0  0  0
  -20.9993  -28.3277   24.1400 H   0  0  0  0  0  0
  -20.5696  -26.2309   23.3626 H   0  0  0  0  0  0
  -21.6655  -26.7454   22.1205 H   0  0  0  0  0  0
  -19.6920  -25.6292   21.1253 H   0  0  0  0  0  0
  -19.6688  -27.3197   20.6751 H   0  0  0  0  0  0
  -17.4213  -26.6698   21.4021 H   0  0  0  0  0  0
  -18.0321  -26.0073   22.9027 H   0  0  0  0  0  0
  -19.7940  -30.7285   24.2260 H   0  0  0  0  0  0
  -17.5015  -31.6268   24.5166 H   0  0  0  0  0  0
  -15.5352  -30.2980   23.7658 H   0  0  0  0  0  0
  -15.8689  -28.0816   22.7070 H   0  0  0  0  0  0
  -24.5901  -30.7070   25.7745 H   0  0  0  0  0  0
  -24.8905  -32.2875   26.4867 H   0  0  0  0  0  0
  -25.8027  -30.8874   27.0216 H   0  0  0  0  0  0
  -26.2935  -29.6757   24.1209 H   0  0  0  0  0  0
  -27.4038  -29.7260   25.4699 H   0  0  0  0  0  0
  -27.8811  -30.4288   23.9437 H   0  0  0  0  0  0
  -27.2669  -33.3636   26.2062 H   0  0  0  0  0  0
  -28.3874  -32.6879   25.0328 H   0  0  0  0  0  0
  -28.0732  -31.8466   26.5426 H   0  0  0  0  0  0
  -28.2606  -38.0093   24.7506 H   0  0  0  0  0  0
  -28.1062  -36.2619   24.6306 H   0  0  0  0  0  0
  -27.2296  -37.1476   25.8873 H   0  0  0  0  0  0
  -20.9408  -29.8735   21.6847 H   0  0  0  0  0  0
  -26.0171  -38.2857   24.1388 H   0  0  0  0  0  0
  -29.9038  -20.7187   18.2648 H   0  0  0  0  0  0
  -29.9909  -18.6613   16.9666 H   0  0  0  0  0  0
  -29.8649  -18.3837   21.9044 H   0  0  0  0  0  0
  -29.5658  -16.4235   16.7211 H   0  0  0  0  0  0
  -29.1938  -15.3908   18.0809 H   0  0  0  0  0  0
  -30.8911  -15.6699   17.6024 H   0  0  0  0  0  0
  -30.4805  -25.1704   19.2015 H   0  0  0  0  0  0
  -29.5103  -23.9785   18.3436 H   0  0  0  0  0  0
  -30.9606  -23.4802   19.2010 H   0  0  0  0  0  0
  -30.4194  -25.2426   21.8109 H   0  0  0  0  0  0
  -31.0586  -23.6143   21.7505 H   0  0  0  0  0  0
  -29.6028  -23.9467   22.6765 H   0  0  0  0  0  0
  -30.8713  -21.5306   20.7207 H   0  0  0  0  0  0
  -29.8435  -21.0010   21.9993 H   0  0  0  0  0  0
  -27.9706  -22.2050   21.1851 H   0  0  0  0  0  0
  -28.4344  -22.1103   19.5378 H   0  0  0  0  0  0
  -29.0367  -15.6593   21.2119 H   0  0  0  0  0  0
  1 25  1  0  0  0
  1 30  2  0  0  0
  1 84  1  0  0  0
  2  3  1  0  0  0
  2 25  1  0  0  0
  2 86  1  0  0  0
  2 87  1  0  0  0
  3  4  1  0  0  0
  3 88  1  0  0  0
  3 89  1  0  0  0
  4  5  1  0  0  0
  4 90  1  0  0  0
  4 91  1  0  0  0
  5  6  1  0  0  0
  5 26  1  0  0  0
  5 92  1  0  0  0
  6 25  1  0  0  0
  6 93  1  0  0  0
  6 94  1  0  0  0
  7  8  2  0  0  0
  7 26  1  0  0  0
  7 29  1  0  0  0
  8  9  1  0  0  0
  8 22  1  0  0  0
  9 10  1  0  0  0
  9 27  2  0  0  0
 10 11  2  0  0  0
 10 15  1  0  0  0
 11 12  1  0  0  0
 11 95  1  0  0  0
 12 13  2  0  0  0
 12 96  1  0  0  0
 13 14  1  0  0  0
 13 31  1  0  0  0
 14 15  2  0  0  0
 14 97  1  0  0  0
 15 98  1  0  0  0
 16 17  2  0  0  0
 16 21  1  0  0  0
 16 31  1  0  0  0
 17 18  1  0  0  0
 17 99  1  0  0  0
 18 19  2  0  0  0
 18100  1  0  0  0
 19 20  1  0  0  0
 19 24  1  0  0  0
 20 21  2  0  0  0
 20101  1  0  0  0
 21 23  1  0  0  0
 22 28  1  0  0  0
 22 32  2  0  0  0
 26 27  1  0  0  0
 28102  1  0  0  0
 28103  1  0  0  0
 29104  1  0  0  0
 29105  1  0  0  0
 33 34  1  0  0  0
 33 66  1  0  0  0
 33 70  2  0  0  0
 34 36  1  0  0  0
 34 59  1  0  0  0
 34106  1  0  0  0
 35 44  2  0  0  0
 35 45  1  0  0  0
 35 68  1  0  0  0
 36 56  1  0  0  0
 36107  1  0  0  0
 37 39  1  0  0  0
 37 47  1  0  0  0
 37 66  1  0  0  0
 37108  1  0  0  0
 38 43  2  0  0  0
 38 46  1  0  0  0
 38 47  1  0  0  0
 39 64  1  0  0  0
 39 67  2  0  0  0
 40 52  1  0  0  0
 40 53  2  0  0  0
 40 58  1  0  0  0
 41109  1  0  0  0
 41110  1  0  0  0
 41111  1  0  0  0
 41 48  1  0  0  0
 42 43  1  0  0  0
 42 66  1  0  0  0
 42112  1  0  0  0
 42113  1  0  0  0
 43 44  1  0  0  0
 44114  1  0  0  0
 45 46  2  0  0  0
 45115  1  0  0  0
 46116  1  0  0  0
 47117  1  0  0  0
 47118  1  0  0  0
 48 56  1  0  0  0
 48 65  1  0  0  0
 48119  1  0  0  0
 49 50  1  0  0  0
 49 53  1  0  0  0
 49 64  1  0  0  0
 49120  1  0  0  0
 50 51  1  0  0  0
 50121  1  0  0  0
 50122  1  0  0  0
 51 52  1  0  0  0
 51123  1  0  0  0
 51124  1  0  0  0
 52125  1  0  0  0
 52126  1  0  0  0
 53 54  1  0  0  0
 54 55  2  0  0  0
 54127  1  0  0  0
 55 57  1  0  0  0
 55128  1  0  0  0
 56 69  2  0  0  0
 57 58  2  0  0  0
 57129  1  0  0  0
 58130  1  0  0  0
 59 60  1  0  0  0
 59 61  1  0  0  0
 59 62  1  0  0  0
 60131  1  0  0  0
 60132  1  0  0  0
 60133  1  0  0  0
 61134  1  0  0  0
 61135  1  0  0  0
 61136  1  0  0  0
 62137  1  0  0  0
 62138  1  0  0  0
 62139  1  0  0  0
 63 65  1  0  0  0
 63140  1  0  0  0
 63141  1  0  0  0
 63142  1  0  0  0
 64143  1  0  0  0
 65144  1  0  0  0
 68 77  1  0  0  0
 71 72  2  0  0  0
 71 74  1  0  0  0
 71145  1  0  0  0
 72 75  1  0  0  0
 72146  1  0  0  0
 73 74  2  0  0  0
 73 76  1  0  0  0
 73147  1  0  0  0
 74 81  1  0  0  0
 75 76  2  0  0  0
 75 78  1  0  0  0
 76 84  1  0  0  0
 77 83  1  0  0  0
 77 85  2  0  0  0
 78148  1  0  0  0
 78149  1  0  0  0
 78150  1  0  0  0
 79151  1  0  0  0
 79152  1  0  0  0
 79153  1  0  0  0
 79 83  1  0  0  0
 80 83  1  0  0  0
 80154  1  0  0  0
 80155  1  0  0  0
 80156  1  0  0  0
 81 82  1  0  0  0
 81157  1  0  0  0
 81158  1  0  0  0
 82 83  1  0  0  0
 82159  1  0  0  0
 82160  1  0  0  0
 84161  1  0  0  0
M  ISO  4   1 100  68 101  77 101  84 100
M  END
> <chiral flag>
0

> <version>
0

> <s_m_source_file>
/data/baiqing/PycharmProjects/Reinvent-master-3.2/result/LINK_invent/BTK/process_docking_weight1_custom_product_contain_oxygen_bond_distance_aromatic_linkinvent_7_9_3/rearranged_h_0137.sdf

> <i_m_source_file_index>
78

> <r_mmod_Potential_Energy-OPLS-2005>
185.259796142578

> <r_mmod_Stretch_Energy-OPLS-2005>
125.19384765625

> <r_mmod_Bend_Energy-OPLS-2005>
149.793350219727

> <r_mmod_Torsional_Energy-OPLS-2005>
259.713165283203

> <r_mmod_Improper_Torsional_Energy-OPLS-2005>
5.40796804428101

> <r_mmod_Van_der_Waal_Energy-OPLS-2005>
143.916625976562

> <r_mmod_Electrostatic_Energy-OPLS-2005>
-370.345916748047

> <r_mmod_Solvation_Energy-OPLS-2005>
-205.223907470703

> <b_mmod_Minimization_Converged-OPLS-2005>
0

> <r_mmod_RMS_Derivative-OPLS-2005>
2.58675980567932

$$$$
78
                    3D
 Structure written by MMmdl.
164172  0  0  1  0            999 V2000
  -30.5571  -14.7595   20.4687 C   0  0  0  0  0  0
  -30.4505  -12.4682   19.4771 C   0  0  0  0  0  0
  -29.5213  -12.5333   18.2422 C   0  0  0  0  0  0
  -28.0413  -12.3431   18.6366 C   0  0  0  0  0  0
  -27.6455  -13.2119   19.8587 C   0  0  2  0  0  0
  -28.6869  -13.0610   20.9848 C   0  0  0  0  0  0
  -25.2541  -13.8144   20.5721 C   0  0  0  0  0  0
  -24.1772  -13.0414   20.9138 C   0  0  0  0  0  0
  -24.6349  -11.6884   20.8678 C   0  0  0  0  0  0
  -23.9020  -10.4276   21.0382 C   0  0  0  0  0  0
  -24.3588   -9.4210   21.9168 C   0  0  0  0  0  0
  -23.6262   -8.2250   22.0767 C   0  0  0  0  0  0
  -22.4242   -8.0276   21.3566 C   0  0  0  0  0  0
  -21.9859   -9.0239   20.4661 C   0  0  0  0  0  0
  -22.7186  -10.2110   20.3045 C   0  0  0  0  0  0
  -21.6830   -6.0709   22.5274 C   0  0  0  0  0  0
  -21.3998   -6.5624   23.8203 C   0  0  0  0  0  0
  -21.3661   -5.6789   24.9174 C   0  0  0  0  0  0
  -21.6037   -4.3048   24.7229 C   0  0  0  0  0  0
  -21.8825   -3.8132   23.4353 C   0  0  0  0  0  0
  -21.9184   -4.6938   22.3399 C   0  0  0  0  0  0
  -22.7811  -13.5251   21.1834 C   0  0  0  0  0  0
  -22.1671   -4.2137   21.0977 F   0  0  0  0  0  0
  -21.5628   -3.4524   25.7737 F   0  0  0  0  0  0
  -29.9833  -13.4963   20.4393 N   0  0  0  0  0  0
  -26.2926  -12.9302   20.3267 N   0  0  0  0  0  0
  -25.9269  -11.6458   20.5656 N   0  0  0  0  0  0
  -22.0452  -12.8248   22.0388 N   0  0  0  0  0  0
  -25.4373  -15.1858   20.4370 N   0  0  0  0  0  0
  -31.7489  -14.8840   20.1570 O   0  0  0  0  0  0
  -21.6644   -6.8845   21.4236 O   0  0  0  0  0  0
  -22.3502  -14.5562   20.6690 O   0  0  0  0  0  0
  -24.6261  -31.8587   23.1984 C   0  0  0  0  0  0
  -25.9104  -32.4774   23.8321 C   0  0  1  0  0  0
  -27.2281  -27.2955   20.1488 C   0  0  0  0  0  0
  -25.5914  -33.8567   24.2272 N   0  0  0  0  0  0
  -23.4218  -30.4776   21.5416 C   0  0  2  0  0  0
  -24.8709  -28.9134   20.1245 C   0  0  0  0  0  0
  -22.7464  -29.4619   22.4940 C   0  0  0  0  0  0
  -18.0280  -28.1317   22.8529 C   0  0  0  0  0  0
  -24.1495  -36.7290   23.2638 C   0  0  0  0  0  0
  -25.9607  -30.7824   21.3699 C   0  0  0  0  0  0
  -26.0382  -29.4004   20.7285 C   0  0  0  0  0  0
  -27.2221  -28.6036   20.7274 C   0  0  0  0  0  0
  -26.0465  -26.8568   19.5244 C   0  0  0  0  0  0
  -24.8760  -27.6457   19.5138 C   0  0  0  0  0  0
  -23.6404  -29.7993   20.1610 C   0  0  0  0  0  0
  -25.4113  -36.3080   24.0329 C   0  0  1  0  0  0
  -20.5887  -28.3668   23.1197 C   0  0  2  0  0  0
  -20.6824  -26.9420   22.5222 C   0  0  0  0  0  0
  -19.5661  -26.6301   21.5199 C   0  0  0  0  0  0
  -18.1928  -26.7784   22.1811 C   0  0  0  0  0  0
  -19.1536  -28.8821   23.2839 C   0  0  0  0  0  0
  -18.9471  -30.1438   23.8824 C   0  0  0  0  0  0
  -17.6478  -30.6585   24.0504 C   0  0  0  0  0  0
  -25.9043  -34.9449   23.5111 C   0  0  0  0  0  0
  -16.5348  -29.9066   23.6320 C   0  0  0  0  0  0
  -16.7265  -28.6461   23.0404 C   0  0  0  0  0  0
  -26.4484  -31.6568   25.0691 C   0  0  0  0  0  0
  -25.3728  -31.3707   26.1432 C   0  0  0  0  0  0
  -27.0301  -30.2983   24.6128 C   0  0  0  0  0  0
  -27.6049  -32.4290   25.7467 C   0  0  0  0  0  0
  -27.5577  -37.1806   24.8468 C   0  0  0  0  0  0
  -21.4184  -29.3082   22.3676 N   0  0  0  0  0  0
  -26.4289  -37.3773   23.9417 N   0  0  0  0  0  0
  -24.6892  -31.0575   22.0949 N   0  0  0  0  0  0
  -23.4159  -28.8142   23.3022 O   0  0  0  0  0  0
  -28.3672  -26.4870   20.0646 O   0  0  0  0  0  0
  -26.5627  -34.8932   22.4684 O   0  0  0  0  0  0
  -23.5420  -32.1393   23.7298 O   0  0  0  0  0  0
  -30.2481  -19.0210   18.1827 C   0  0  0  0  0  0
  -29.8131  -20.1535   18.8890 C   0  0  0  0  0  0
  -29.3633  -18.6959   20.7643 C   0  0  0  0  0  0
  -29.8109  -17.4822   20.0782 C   0  0  0  0  0  0
  -30.2164  -17.7086   18.7187 C   0  0  0  0  0  0
  -29.3262  -20.0326   20.1991 C   0  0  0  0  0  0
  -29.6331  -16.0671   20.7520 C   0  0  0  0  0  0
  -29.6901  -15.5102   15.5447 C   0  0  0  0  0  0
  -26.7243  -23.3700   20.7519 C   0  0  0  0  0  0
  -30.5250  -16.6229   17.6895 C   0  0  0  0  0  0
  -29.3162  -16.3299   16.7877 C   0  0  0  0  0  0
  -29.1831  -22.5613   20.6376 C   0  0  0  0  0  0
  -28.5067  -25.2195   20.8275 C   0  0  0  0  0  0
  -28.1416  -23.7458   20.2797 C   0  0  2  0  0  0
  -28.6794  -16.0043   21.5843 N   0  0  0  0  0  0
  -28.7481  -21.1524   20.8529 O   0  0  0  0  0  0
  -31.4888  -12.6196   19.1748 H   0  0  0  0  0  0
  -30.4250  -11.4761   19.9296 H   0  0  0  0  0  0
  -29.8172  -11.7895   17.5025 H   0  0  0  0  0  0
  -29.6425  -13.5037   17.7638 H   0  0  0  0  0  0
  -27.8939  -11.2885   18.8708 H   0  0  0  0  0  0
  -27.3942  -12.5624   17.7872 H   0  0  0  0  0  0
  -27.6562  -14.2468   19.5160 H   0  0  0  0  0  0
  -28.7392  -12.0220   21.3144 H   0  0  0  0  0  0
  -28.3984  -13.6012   21.8828 H   0  0  0  0  0  0
  -25.2736   -9.5675   22.4737 H   0  0  0  0  0  0
  -23.9959   -7.4639   22.7489 H   0  0  0  0  0  0
  -21.0790   -8.8743   19.8973 H   0  0  0  0  0  0
  -22.3644  -10.9645   19.6145 H   0  0  0  0  0  0
  -21.2007   -7.6138   23.9689 H   0  0  0  0  0  0
  -21.1473   -6.0533   25.9070 H   0  0  0  0  0  0
  -22.0603   -2.7599   23.2860 H   0  0  0  0  0  0
  -22.4064  -11.9911   22.4776 H   0  0  0  0  0  0
  -21.1096  -13.1324   22.2638 H   0  0  0  0  0  0
  -24.7070  -15.8544   20.6554 H   0  0  0  0  0  0
  -26.3548  -15.6073   20.3530 H   0  0  0  0  0  0
  -26.7156  -32.5462   23.1050 H   0  0  0  0  0  0
  -25.0056  -33.9693   25.0410 H   0  0  0  0  0  0
  -22.7179  -31.2990   21.3914 H   0  0  0  0  0  0
  -23.3750  -35.9626   23.3294 H   0  0  0  0  0  0
  -24.3597  -36.8912   22.2055 H   0  0  0  0  0  0
  -23.7251  -37.6493   23.6660 H   0  0  0  0  0  0
  -26.0851  -31.5371   20.5899 H   0  0  0  0  0  0
  -26.8415  -30.8472   21.9955 H   0  0  0  0  0  0
  -28.1283  -28.9794   21.1837 H   0  0  0  0  0  0
  -26.0365  -25.8956   19.0318 H   0  0  0  0  0  0
  -23.9848  -27.2672   19.0335 H   0  0  0  0  0  0
  -23.7636  -30.5696   19.3981 H   0  0  0  0  0  0
  -22.7619  -29.2264   19.8621 H   0  0  0  0  0  0
  -25.1291  -36.1917   25.0816 H   0  0  0  0  0  0
  -20.9935  -28.3152   24.1344 H   0  0  0  0  0  0
  -20.6018  -26.2240   23.3398 H   0  0  0  0  0  0
  -21.6628  -26.7623   22.0770 H   0  0  0  0  0  0
  -19.6808  -25.6183   21.1297 H   0  0  0  0  0  0
  -19.6430  -27.3078   20.6675 H   0  0  0  0  0  0
  -17.4048  -26.6288   21.4414 H   0  0  0  0  0  0
  -18.0575  -26.0072   22.9405 H   0  0  0  0  0  0
  -19.7971  -30.7277   24.2123 H   0  0  0  0  0  0
  -17.5050  -31.6285   24.5054 H   0  0  0  0  0  0
  -15.5346  -30.2965   23.7653 H   0  0  0  0  0  0
  -15.8676  -28.0724   22.7191 H   0  0  0  0  0  0
  -24.5902  -30.7045   25.7779 H   0  0  0  0  0  0
  -24.8913  -32.2872   26.4864 H   0  0  0  0  0  0
  -25.8057  -30.8897   27.0216 H   0  0  0  0  0  0
  -26.2852  -29.6756   24.1154 H   0  0  0  0  0  0
  -27.3999  -29.7218   25.4622 H   0  0  0  0  0  0
  -27.8735  -30.4254   23.9330 H   0  0  0  0  0  0
  -27.2648  -33.3582   26.2060 H   0  0  0  0  0  0
  -28.3844  -32.6861   25.0279 H   0  0  0  0  0  0
  -28.0728  -31.8406   26.5371 H   0  0  0  0  0  0
  -28.2597  -38.0107   24.7514 H   0  0  0  0  0  0
  -28.1075  -36.2635   24.6277 H   0  0  0  0  0  0
  -27.2322  -37.1445   25.8886 H   0  0  0  0  0  0
  -20.9370  -29.8950   21.7014 H   0  0  0  0  0  0
  -26.0167  -38.2852   24.1404 H   0  0  0  0  0  0
  -30.5527  -19.1694   17.1553 H   0  0  0  0  0  0
  -29.7948  -21.1016   18.3716 H   0  0  0  0  0  0
  -28.9899  -18.5997   21.7735 H   0  0  0  0  0  0
  -28.7983  -15.2214   14.9887 H   0  0  0  0  0  0
  -30.2313  -14.5982   15.7991 H   0  0  0  0  0  0
  -30.3209  -16.0935   14.8720 H   0  0  0  0  0  0
  -26.3853  -22.4413   20.2933 H   0  0  0  0  0  0
  -25.9964  -24.1426   20.5061 H   0  0  0  0  0  0
  -26.6941  -23.2323   21.8328 H   0  0  0  0  0  0
  -30.8989  -15.6970   18.0961 H   0  0  0  0  0  0
  -31.3470  -16.9835   17.0702 H   0  0  0  0  0  0
  -28.5436  -15.8192   17.3637 H   0  0  0  0  0  0
  -28.8754  -17.2687   16.4496 H   0  0  0  0  0  0
  -29.6420  -22.8373   21.5858 H   0  0  0  0  0  0
  -30.0137  -22.6084   19.9351 H   0  0  0  0  0  0
  -28.0536  -25.3574   21.8105 H   0  0  0  0  0  0
  -29.5760  -25.1933   21.0365 H   0  0  0  0  0  0
  -28.1094  -23.8026   19.1926 H   0  0  0  0  0  0
  -28.1992  -16.8929   21.6474 H   0  0  0  0  0  0
  1 25  1  0  0  0
  1 30  2  0  0  0
  1 77  1  0  0  0
  2  3  1  0  0  0
  2 25  1  0  0  0
  2 87  1  0  0  0
  2 88  1  0  0  0
  3  4  1  0  0  0
  3 89  1  0  0  0
  3 90  1  0  0  0
  4  5  1  0  0  0
  4 91  1  0  0  0
  4 92  1  0  0  0
  5  6  1  0  0  0
  5 26  1  0  0  0
  5 93  1  0  0  0
  6 25  1  0  0  0
  6 94  1  0  0  0
  6 95  1  0  0  0
  7  8  2  0  0  0
  7 26  1  0  0  0
  7 29  1  0  0  0
  8  9  1  0  0  0
  8 22  1  0  0  0
  9 10  1  0  0  0
  9 27  2  0  0  0
 10 11  2  0  0  0
 10 15  1  0  0  0
 11 12  1  0  0  0
 11 96  1  0  0  0
 12 13  2  0  0  0
 12 97  1  0  0  0
 13 14  1  0  0  0
 13 31  1  0  0  0
 14 15  2  0  0  0
 14 98  1  0  0  0
 15 99  1  0  0  0
 16 17  2  0  0  0
 16 21  1  0  0  0
 16 31  1  0  0  0
 17 18  1  0  0  0
 17100  1  0  0  0
 18 19  2  0  0  0
 18101  1  0  0  0
 19 20  1  0  0  0
 19 24  1  0  0  0
 20 21  2  0  0  0
 20102  1  0  0  0
 21 23  1  0  0  0
 22 28  1  0  0  0
 22 32  2  0  0  0
 26 27  1  0  0  0
 28103  1  0  0  0
 28104  1  0  0  0
 29105  1  0  0  0
 29106  1  0  0  0
 33 34  1  0  0  0
 33 66  1  0  0  0
 33 70  2  0  0  0
 34 36  1  0  0  0
 34 59  1  0  0  0
 34107  1  0  0  0
 35 44  2  0  0  0
 35 45  1  0  0  0
 35 68  1  0  0  0
 36 56  1  0  0  0
 36108  1  0  0  0
 37 39  1  0  0  0
 37 47  1  0  0  0
 37 66  1  0  0  0
 37109  1  0  0  0
 38 43  2  0  0  0
 38 46  1  0  0  0
 38 47  1  0  0  0
 39 64  1  0  0  0
 39 67  2  0  0  0
 40 52  1  0  0  0
 40 53  2  0  0  0
 40 58  1  0  0  0
 41110  1  0  0  0
 41111  1  0  0  0
 41112  1  0  0  0
 41 48  1  0  0  0
 42 43  1  0  0  0
 42 66  1  0  0  0
 42113  1  0  0  0
 42114  1  0  0  0
 43 44  1  0  0  0
 44115  1  0  0  0
 45 46  2  0  0  0
 45116  1  0  0  0
 46117  1  0  0  0
 47118  1  0  0  0
 47119  1  0  0  0
 48 56  1  0  0  0
 48 65  1  0  0  0
 48120  1  0  0  0
 49 50  1  0  0  0
 49 53  1  0  0  0
 49 64  1  0  0  0
 49121  1  0  0  0
 50 51  1  0  0  0
 50122  1  0  0  0
 50123  1  0  0  0
 51 52  1  0  0  0
 51124  1  0  0  0
 51125  1  0  0  0
 52126  1  0  0  0
 52127  1  0  0  0
 53 54  1  0  0  0
 54 55  2  0  0  0
 54128  1  0  0  0
 55 57  1  0  0  0
 55129  1  0  0  0
 56 69  2  0  0  0
 57 58  2  0  0  0
 57130  1  0  0  0
 58131  1  0  0  0
 59 60  1  0  0  0
 59 61  1  0  0  0
 59 62  1  0  0  0
 60132  1  0  0  0
 60133  1  0  0  0
 60134  1  0  0  0
 61135  1  0  0  0
 61136  1  0  0  0
 61137  1  0  0  0
 62138  1  0  0  0
 62139  1  0  0  0
 62140  1  0  0  0
 63 65  1  0  0  0
 63141  1  0  0  0
 63142  1  0  0  0
 63143  1  0  0  0
 64144  1  0  0  0
 65145  1  0  0  0
 68 83  1  0  0  0
 71 72  2  0  0  0
 71 75  1  0  0  0
 71146  1  0  0  0
 72 76  1  0  0  0
 72147  1  0  0  0
 73 74  1  0  0  0
 73 76  2  0  0  0
 73148  1  0  0  0
 74 75  2  0  0  0
 74 77  1  0  0  0
 75 80  1  0  0  0
 76 86  1  0  0  0
 77 85  2  0  0  0
 78 81  1  0  0  0
 78149  1  0  0  0
 78150  1  0  0  0
 78151  1  0  0  0
 79152  1  0  0  0
 79153  1  0  0  0
 79154  1  0  0  0
 79 84  1  0  0  0
 80 81  1  0  0  0
 80155  1  0  0  0
 80156  1  0  0  0
 81157  1  0  0  0
 81158  1  0  0  0
 82 84  1  0  0  0
 82 86  1  0  0  0
 82159  1  0  0  0
 82160  1  0  0  0
 83 84  1  0  0  0
 83161  1  0  0  0
 83162  1  0  0  0
 84163  1  0  0  0
 85164  1  0  0  0
M  ISO  4   1 100  68 101  77 100  83 101
M  END
> <chiral flag>
0

> <version>
0

> <s_m_source_file>
/data/baiqing/PycharmProjects/Reinvent-master-3.2/result/LINK_invent/BTK/process_docking_weight1_custom_product_contain_oxygen_bond_distance_aromatic_linkinvent_7_9_3/rearranged_h_0137.sdf

> <i_m_source_file_index>
79

> <r_mmod_Potential_Energy-OPLS-2005>
398.621734619141

> <r_mmod_Stretch_Energy-OPLS-2005>
135.687850952148

> <r_mmod_Bend_Energy-OPLS-2005>
209.404891967773

> <r_mmod_Torsional_Energy-OPLS-2005>
254.343856811523

> <r_mmod_Improper_Torsional_Energy-OPLS-2005>
5.62995338439941

> <r_mmod_Van_der_Waal_Energy-OPLS-2005>
143.077301025391

> <r_mmod_Electrostatic_Energy-OPLS-2005>
-232.985137939453

> <r_mmod_Solvation_Energy-OPLS-2005>
-187.846176147461

> <b_mmod_Minimization_Converged-OPLS-2005>
0

> <r_mmod_RMS_Derivative-OPLS-2005>
3.3433825969696

$$$$
79
                    3D
 Structure written by MMmdl.
169177  0  0  1  0            999 V2000
  -30.5565  -14.7096   20.4847 C   0  0  0  0  0  0
  -30.4396  -12.4366   19.4432 C   0  0  0  0  0  0
  -29.5033  -12.5050   18.2153 C   0  0  0  0  0  0
  -28.0275  -12.3257   18.6334 C   0  0  0  0  0  0
  -27.6389  -13.2080   19.8480 C   0  0  2  0  0  0
  -28.6844  -13.0900   20.9734 C   0  0  0  0  0  0
  -25.2540  -13.8135   20.5734 C   0  0  0  0  0  0
  -24.1811  -13.0425   20.9225 C   0  0  0  0  0  0
  -24.6367  -11.6890   20.8748 C   0  0  0  0  0  0
  -23.9038  -10.4284   21.0422 C   0  0  0  0  0  0
  -24.3596   -9.4196   21.9195 C   0  0  0  0  0  0
  -23.6284   -8.2231   22.0755 C   0  0  0  0  0  0
  -22.4262   -8.0269   21.3545 C   0  0  0  0  0  0
  -21.9905   -9.0237   20.4641 C   0  0  0  0  0  0
  -22.7225  -10.2125   20.3061 C   0  0  0  0  0  0
  -21.6855   -6.0736   22.5282 C   0  0  0  0  0  0
  -21.4007   -6.5643   23.8209 C   0  0  0  0  0  0
  -21.3662   -5.6794   24.9174 C   0  0  0  0  0  0
  -21.6040   -4.3054   24.7224 C   0  0  0  0  0  0
  -21.8822   -3.8149   23.4344 C   0  0  0  0  0  0
  -21.9188   -4.6965   22.3401 C   0  0  0  0  0  0
  -22.7820  -13.5225   21.1871 C   0  0  0  0  0  0
  -22.1664   -4.2158   21.0978 F   0  0  0  0  0  0
  -21.5629   -3.4540   25.7732 F   0  0  0  0  0  0
  -29.9802  -13.4670   20.3950 N   0  0  0  0  0  0
  -26.2917  -12.9306   20.3275 N   0  0  0  0  0  0
  -25.9281  -11.6471   20.5751 N   0  0  0  0  0  0
  -22.0460  -12.8215   22.0408 N   0  0  0  0  0  0
  -25.4261  -15.1886   20.4194 N   0  0  0  0  0  0
  -31.7561  -14.8709   20.2427 O   0  0  0  0  0  0
  -21.6636   -6.8870   21.4235 O   0  0  0  0  0  0
  -22.3519  -14.5541   20.6715 O   0  0  0  0  0  0
  -24.6308  -31.8541   23.1953 C   0  0  0  0  0  0
  -25.9132  -32.4748   23.8295 C   0  0  1  0  0  0
  -27.1928  -27.2397   20.1744 C   0  0  0  0  0  0
  -25.5938  -33.8537   24.2250 N   0  0  0  0  0  0
  -23.4267  -30.4802   21.5361 C   0  0  2  0  0  0
  -24.8726  -28.9237   20.1082 C   0  0  0  0  0  0
  -22.7523  -29.4607   22.4873 C   0  0  0  0  0  0
  -18.0308  -28.1405   22.8471 C   0  0  0  0  0  0
  -24.1493  -36.7263   23.2640 C   0  0  0  0  0  0
  -25.9710  -30.7740   21.3661 C   0  0  0  0  0  0
  -26.0437  -29.3888   20.7202 C   0  0  0  0  0  0
  -27.2143  -28.5605   20.7360 C   0  0  0  0  0  0
  -26.0088  -26.8507   19.5156 C   0  0  0  0  0  0
  -24.8607  -27.6651   19.4880 C   0  0  0  0  0  0
  -23.6465  -29.8150   20.1507 C   0  0  0  0  0  0
  -25.4102  -36.3043   24.0345 C   0  0  1  0  0  0
  -20.5924  -28.3710   23.1279 C   0  0  2  0  0  0
  -20.6804  -26.9431   22.5396 C   0  0  0  0  0  0
  -19.5770  -26.6395   21.5203 C   0  0  0  0  0  0
  -18.1950  -26.7940   22.1602 C   0  0  0  0  0  0
  -19.1568  -28.8878   23.2865 C   0  0  0  0  0  0
  -18.9495  -30.1474   23.8898 C   0  0  0  0  0  0
  -17.6503  -30.6611   24.0575 C   0  0  0  0  0  0
  -25.9055  -34.9430   23.5100 C   0  0  0  0  0  0
  -16.5384  -29.9123   23.6333 C   0  0  0  0  0  0
  -16.7293  -28.6540   23.0346 C   0  0  0  0  0  0
  -26.4512  -31.6531   25.0650 C   0  0  0  0  0  0
  -25.3723  -31.3662   26.1360 C   0  0  0  0  0  0
  -27.0345  -30.2981   24.6012 C   0  0  0  0  0  0
  -27.6088  -32.4232   25.7434 C   0  0  0  0  0  0
  -27.5576  -37.1766   24.8469 C   0  0  0  0  0  0
  -21.4227  -29.3065   22.3662 N   0  0  0  0  0  0
  -26.4266  -37.3755   23.9447 N   0  0  0  0  0  0
  -24.6955  -31.0558   22.0890 N   0  0  0  0  0  0
  -23.4255  -28.8117   23.2934 O   0  0  0  0  0  0
  -28.2543  -26.3108   20.2389 O   0  0  0  0  0  0
  -26.5620  -34.8920   22.4659 O   0  0  0  0  0  0
  -23.5457  -32.1343   23.7251 O   0  0  0  0  0  0
  -29.4243  -18.2979   23.2827 C   0  0  0  0  0  0
  -29.2860  -18.3462   20.5336 C   0  0  0  0  0  0
  -29.7828  -17.1313   22.5844 C   0  0  0  0  0  0
  -28.9467  -19.4754   22.6540 C   0  0  0  0  0  0
  -29.6585  -17.0923   21.1789 C   0  0  0  0  0  0
  -28.9942  -19.6034   21.2217 C   0  0  0  0  0  0
  -30.1620  -15.8991   23.3929 C   0  0  0  0  0  0
  -26.7372  -20.0865   23.6987 C   0  0  0  0  0  0
  -28.6300  -22.5928   17.6850 C   0  0  0  0  0  0
  -30.1165  -23.8349   19.9469 C   0  0  0  0  0  0
  -28.2346  -20.4254   23.6212 C   0  0  0  0  0  0
  -27.8957  -23.4228   18.7463 C   0  0  0  0  0  0
  -27.9757  -24.9204   20.7732 C   0  0  0  0  0  0
  -28.4770  -22.1819   20.9992 C   0  0  0  0  0  0
  -28.6074  -23.5642   20.1175 C   0  0  2  0  0  0
  -29.6681  -15.7734   20.5106 N   0  0  0  0  0  0
  -28.7443  -20.8049   20.4606 O   0  0  0  0  0  0
  -31.4782  -12.5900   19.1457 H   0  0  0  0  0  0
  -30.3988  -11.4483   19.9041 H   0  0  0  0  0  0
  -29.7808  -11.7421   17.4859 H   0  0  0  0  0  0
  -29.6251  -13.4657   17.7134 H   0  0  0  0  0  0
  -27.8822  -11.2737   18.8810 H   0  0  0  0  0  0
  -27.3643  -12.5328   17.7927 H   0  0  0  0  0  0
  -27.6413  -14.2359   19.4866 H   0  0  0  0  0  0
  -28.7265  -12.0739   21.3678 H   0  0  0  0  0  0
  -28.4148  -13.7272   21.8147 H   0  0  0  0  0  0
  -25.2742   -9.5686   22.4771 H   0  0  0  0  0  0
  -24.0002   -7.4622   22.7469 H   0  0  0  0  0  0
  -21.0850   -8.8746   19.8932 H   0  0  0  0  0  0
  -22.3688  -10.9659   19.6166 H   0  0  0  0  0  0
  -21.2003   -7.6149   23.9724 H   0  0  0  0  0  0
  -21.1482   -6.0520   25.9080 H   0  0  0  0  0  0
  -22.0599   -2.7612   23.2842 H   0  0  0  0  0  0
  -22.4074  -11.9863   22.4769 H   0  0  0  0  0  0
  -21.1069  -13.1224   22.2595 H   0  0  0  0  0  0
  -24.6607  -15.8397   20.5617 H   0  0  0  0  0  0
  -26.2752  -15.6417   20.1132 H   0  0  0  0  0  0
  -26.7208  -32.5429   23.1040 H   0  0  0  0  0  0
  -25.0140  -33.9670   25.0442 H   0  0  0  0  0  0
  -22.7205  -31.3008   21.3892 H   0  0  0  0  0  0
  -23.3764  -35.9594   23.3275 H   0  0  0  0  0  0
  -24.3602  -36.8867   22.2051 H   0  0  0  0  0  0
  -23.7210  -37.6450   23.6663 H   0  0  0  0  0  0
  -26.0873  -31.5256   20.5829 H   0  0  0  0  0  0
  -26.8602  -30.8494   21.9802 H   0  0  0  0  0  0
  -28.1124  -28.9046   21.2283 H   0  0  0  0  0  0
  -25.9522  -25.8795   19.0468 H   0  0  0  0  0  0
  -23.9651  -27.3126   18.9955 H   0  0  0  0  0  0
  -23.7794  -30.5931   19.3988 H   0  0  0  0  0  0
  -22.7629  -29.2559   19.8369 H   0  0  0  0  0  0
  -25.1275  -36.1898   25.0831 H   0  0  0  0  0  0
  -21.0010  -28.3282   24.1393 H   0  0  0  0  0  0
  -20.5720  -26.2303   23.3594 H   0  0  0  0  0  0
  -21.6681  -26.7448   22.1178 H   0  0  0  0  0  0
  -19.6956  -25.6304   21.1242 H   0  0  0  0  0  0
  -19.6745  -27.3210   20.6739 H   0  0  0  0  0  0
  -17.4220  -26.6697   21.4012 H   0  0  0  0  0  0
  -18.0358  -26.0095   22.8999 H   0  0  0  0  0  0
  -19.7979  -30.7286   24.2247 H   0  0  0  0  0  0
  -17.5071  -31.6289   24.5198 H   0  0  0  0  0  0
  -15.5392  -30.3040   23.7690 H   0  0  0  0  0  0
  -15.8670  -28.0889   22.7036 H   0  0  0  0  0  0
  -24.6029  -30.6860   25.7706 H   0  0  0  0  0  0
  -24.8775  -32.2813   26.4620 H   0  0  0  0  0  0
  -25.8052  -30.9006   27.0215 H   0  0  0  0  0  0
  -26.2915  -29.6752   24.1044 H   0  0  0  0  0  0
  -27.4132  -29.7184   25.4415 H   0  0  0  0  0  0
  -27.8725  -30.4303   23.9179 H   0  0  0  0  0  0
  -27.2788  -33.3624   26.1868 H   0  0  0  0  0  0
  -28.4014  -32.6569   25.0327 H   0  0  0  0  0  0
  -28.0623  -31.8393   26.5436 H   0  0  0  0  0  0
  -28.2550  -38.0100   24.7574 H   0  0  0  0  0  0
  -28.1123  -36.2631   24.6260 H   0  0  0  0  0  0
  -27.2325  -37.1355   25.8877 H   0  0  0  0  0  0
  -20.9402  -29.8815   21.6901 H   0  0  0  0  0  0
  -26.0151  -38.2834   24.1478 H   0  0  0  0  0  0
  -29.4194  -18.2436   24.3642 H   0  0  0  0  0  0
  -29.1731  -18.3373   19.4595 H   0  0  0  0  0  0
  -30.1553  -16.0914   24.4642 H   0  0  0  0  0  0
  -31.1628  -15.5529   23.1343 H   0  0  0  0  0  0
  -29.4557  -15.0899   23.2175 H   0  0  0  0  0  0
  -26.2151  -20.7273   24.4088 H   0  0  0  0  0  0
  -26.5959  -19.0566   24.0303 H   0  0  0  0  0  0
  -26.2438  -20.1875   22.7307 H   0  0  0  0  0  0
  -28.0496  -22.5519   16.7631 H   0  0  0  0  0  0
  -28.7929  -21.5730   18.0275 H   0  0  0  0  0  0
  -29.5989  -23.0227   17.4268 H   0  0  0  0  0  0
  -30.2976  -24.7241   19.3427 H   0  0  0  0  0  0
  -30.6380  -22.9973   19.4827 H   0  0  0  0  0  0
  -30.5931  -24.0003   20.9137 H   0  0  0  0  0  0
  -28.3815  -21.4803   23.4506 H   0  0  0  0  0  0
  -28.6489  -20.2824   24.6209 H   0  0  0  0  0  0
  -26.8986  -23.0073   18.9013 H   0  0  0  0  0  0
  -27.7313  -24.4145   18.3185 H   0  0  0  0  0  0
  -26.8957  -24.7688   20.8396 H   0  0  0  0  0  0
  -28.2950  -24.9400   21.8149 H   0  0  0  0  0  0
  -27.4819  -22.1492   21.4436 H   0  0  0  0  0  0
  -29.1908  -22.3284   21.8066 H   0  0  0  0  0  0
  -28.7398  -15.4532   20.2884 H   0  0  0  0  0  0
  1 25  1  0  0  0
  1 30  2  0  0  0
  1 86  1  0  0  0
  2  3  1  0  0  0
  2 25  1  0  0  0
  2 88  1  0  0  0
  2 89  1  0  0  0
  3  4  1  0  0  0
  3 90  1  0  0  0
  3 91  1  0  0  0
  4  5  1  0  0  0
  4 92  1  0  0  0
  4 93  1  0  0  0
  5  6  1  0  0  0
  5 26  1  0  0  0
  5 94  1  0  0  0
  6 25  1  0  0  0
  6 95  1  0  0  0
  6 96  1  0  0  0
  7  8  2  0  0  0
  7 26  1  0  0  0
  7 29  1  0  0  0
  8  9  1  0  0  0
  8 22  1  0  0  0
  9 10  1  0  0  0
  9 27  2  0  0  0
 10 11  2  0  0  0
 10 15  1  0  0  0
 11 12  1  0  0  0
 11 97  1  0  0  0
 12 13  2  0  0  0
 12 98  1  0  0  0
 13 14  1  0  0  0
 13 31  1  0  0  0
 14 15  2  0  0  0
 14 99  1  0  0  0
 15100  1  0  0  0
 16 17  2  0  0  0
 16 21  1  0  0  0
 16 31  1  0  0  0
 17 18  1  0  0  0
 17101  1  0  0  0
 18 19  2  0  0  0
 18102  1  0  0  0
 19 20  1  0  0  0
 19 24  1  0  0  0
 20 21  2  0  0  0
 20103  1  0  0  0
 21 23  1  0  0  0
 22 28  1  0  0  0
 22 32  2  0  0  0
 26 27  1  0  0  0
 28104  1  0  0  0
 28105  1  0  0  0
 29106  1  0  0  0
 29107  1  0  0  0
 33 34  1  0  0  0
 33 66  1  0  0  0
 33 70  2  0  0  0
 34 36  1  0  0  0
 34 59  1  0  0  0
 34108  1  0  0  0
 35 44  2  0  0  0
 35 45  1  0  0  0
 35 68  1  0  0  0
 36 56  1  0  0  0
 36109  1  0  0  0
 37 39  1  0  0  0
 37 47  1  0  0  0
 37 66  1  0  0  0
 37110  1  0  0  0
 38 43  2  0  0  0
 38 46  1  0  0  0
 38 47  1  0  0  0
 39 64  1  0  0  0
 39 67  2  0  0  0
 40 52  1  0  0  0
 40 53  2  0  0  0
 40 58  1  0  0  0
 41111  1  0  0  0
 41112  1  0  0  0
 41113  1  0  0  0
 41 48  1  0  0  0
 42 43  1  0  0  0
 42 66  1  0  0  0
 42114  1  0  0  0
 42115  1  0  0  0
 43 44  1  0  0  0
 44116  1  0  0  0
 45 46  2  0  0  0
 45117  1  0  0  0
 46118  1  0  0  0
 47119  1  0  0  0
 47120  1  0  0  0
 48 56  1  0  0  0
 48 65  1  0  0  0
 48121  1  0  0  0
 49 50  1  0  0  0
 49 53  1  0  0  0
 49 64  1  0  0  0
 49122  1  0  0  0
 50 51  1  0  0  0
 50123  1  0  0  0
 50124  1  0  0  0
 51 52  1  0  0  0
 51125  1  0  0  0
 51126  1  0  0  0
 52127  1  0  0  0
 52128  1  0  0  0
 53 54  1  0  0  0
 54 55  2  0  0  0
 54129  1  0  0  0
 55 57  1  0  0  0
 55130  1  0  0  0
 56 69  2  0  0  0
 57 58  2  0  0  0
 57131  1  0  0  0
 58132  1  0  0  0
 59 60  1  0  0  0
 59 61  1  0  0  0
 59 62  1  0  0  0
 60133  1  0  0  0
 60134  1  0  0  0
 60135  1  0  0  0
 61136  1  0  0  0
 61137  1  0  0  0
 61138  1  0  0  0
 62139  1  0  0  0
 62140  1  0  0  0
 62141  1  0  0  0
 63 65  1  0  0  0
 63142  1  0  0  0
 63143  1  0  0  0
 63144  1  0  0  0
 64145  1  0  0  0
 65146  1  0  0  0
 68 83  1  0  0  0
 71 73  2  0  0  0
 71 74  1  0  0  0
 71147  1  0  0  0
 72 75  2  0  0  0
 72 76  1  0  0  0
 72148  1  0  0  0
 73 75  1  0  0  0
 73 77  1  0  0  0
 74 76  2  0  0  0
 74 81  1  0  0  0
 75 86  1  0  0  0
 76 87  1  0  0  0
 77149  1  0  0  0
 77150  1  0  0  0
 77151  1  0  0  0
 78 81  1  0  0  0
 78152  1  0  0  0
 78153  1  0  0  0
 78154  1  0  0  0
 79 82  1  0  0  0
 79155  1  0  0  0
 79156  1  0  0  0
 79157  1  0  0  0
 80158  1  0  0  0
 80159  1  0  0  0
 80160  1  0  0  0
 80 85  1  0  0  0
 81161  1  0  0  0
 81162  1  0  0  0
 82 85  1  0  0  0
 82163  1  0  0  0
 82164  1  0  0  0
 83 85  1  0  0  0
 83165  1  0  0  0
 83166  1  0  0  0
 84 85  1  0  0  0
 84 87  1  0  0  0
 84167  1  0  0  0
 84168  1  0  0  0
 86169  1  0  0  0
M  ISO  4   1 100  68 101  83 101  86 100
M  END
> <chiral flag>
0

> <version>
0

> <s_m_source_file>
/data/baiqing/PycharmProjects/Reinvent-master-3.2/result/LINK_invent/BTK/process_docking_weight1_custom_product_contain_oxygen_bond_distance_aromatic_linkinvent_7_9_3/rearranged_h_0137.sdf

> <i_m_source_file_index>
80

> <r_mmod_Potential_Energy-OPLS-2005>
325.905700683594

> <r_mmod_Stretch_Energy-OPLS-2005>
140.873336791992

> <r_mmod_Bend_Energy-OPLS-2005>
208.736053466797

> <r_mmod_Torsional_Energy-OPLS-2005>
304.883575439453

> <r_mmod_Improper_Torsional_Energy-OPLS-2005>
12.7664098739624

> <r_mmod_Van_der_Waal_Energy-OPLS-2005>
144.446929931641

> <r_mmod_Electrostatic_Energy-OPLS-2005>
-377.972503662109

> <r_mmod_Solvation_Energy-OPLS-2005>
-199.319381713867

> <b_mmod_Minimization_Converged-OPLS-2005>
0

> <r_mmod_RMS_Derivative-OPLS-2005>
4.57472133636475

$$$$
80
                    3D
 Structure written by MMmdl.
155163  0  0  1  0            999 V2000
  -30.6484  -14.5481   20.5620 C   0  0  0  0  0  0
  -30.4344  -12.3547   19.4232 C   0  0  0  0  0  0
  -29.4952  -12.5039   18.2069 C   0  0  0  0  0  0
  -28.0187  -12.3467   18.6255 C   0  0  0  0  0  0
  -27.6549  -13.2039   19.8669 C   0  0  2  0  0  0
  -28.6992  -13.0086   20.9875 C   0  0  0  0  0  0
  -25.2570  -13.8147   20.5679 C   0  0  0  0  0  0
  -24.1822  -13.0428   20.9175 C   0  0  0  0  0  0
  -24.6373  -11.6891   20.8743 C   0  0  0  0  0  0
  -23.9043  -10.4283   21.0408 C   0  0  0  0  0  0
  -24.3598   -9.4199   21.9184 C   0  0  0  0  0  0
  -23.6279   -8.2234   22.0758 C   0  0  0  0  0  0
  -22.4265   -8.0268   21.3542 C   0  0  0  0  0  0
  -21.9892   -9.0242   20.4649 C   0  0  0  0  0  0
  -22.7219  -10.2125   20.3057 C   0  0  0  0  0  0
  -21.6850   -6.0721   22.5276 C   0  0  0  0  0  0
  -21.4011   -6.5631   23.8206 C   0  0  0  0  0  0
  -21.3656   -5.6788   24.9175 C   0  0  0  0  0  0
  -21.6046   -4.3052   24.7230 C   0  0  0  0  0  0
  -21.8819   -3.8140   23.4351 C   0  0  0  0  0  0
  -21.9193   -4.6950   22.3407 C   0  0  0  0  0  0
  -22.7850  -13.5229   21.1849 C   0  0  0  0  0  0
  -22.1661   -4.2133   21.0982 F   0  0  0  0  0  0
  -21.5633   -3.4541   25.7745 F   0  0  0  0  0  0
  -30.0167  -13.3471   20.4257 N   0  0  0  0  0  0
  -26.2987  -12.9306   20.3338 N   0  0  0  0  0  0
  -25.9297  -11.6471   20.5764 N   0  0  0  0  0  0
  -22.0499  -12.8217   22.0413 N   0  0  0  0  0  0
  -25.4310  -15.1862   20.4074 N   0  0  0  0  0  0
  -31.8049  -14.7369   20.1752 O   0  0  0  0  0  0
  -21.6634   -6.8860   21.4235 O   0  0  0  0  0  0
  -22.3539  -14.5536   20.6705 O   0  0  0  0  0  0
  -24.6189  -31.8648   23.2076 C   0  0  0  0  0  0
  -25.9061  -32.4802   23.8386 C   0  0  1  0  0  0
  -27.2325  -27.3877   20.1144 C   0  0  0  0  0  0
  -25.5908  -33.8601   24.2303 N   0  0  0  0  0  0
  -23.4099  -30.4866   21.5480 C   0  0  2  0  0  0
  -24.8587  -28.9439   20.1188 C   0  0  0  0  0  0
  -22.7435  -29.4645   22.4976 C   0  0  0  0  0  0
  -18.0273  -28.1365   22.8483 C   0  0  0  0  0  0
  -24.1492  -36.7306   23.2637 C   0  0  0  0  0  0
  -25.9416  -30.8179   21.3667 C   0  0  0  0  0  0
  -26.0214  -29.4467   20.7164 C   0  0  0  0  0  0
  -27.2145  -28.6786   20.7051 C   0  0  0  0  0  0
  -26.0524  -26.9086   19.5110 C   0  0  0  0  0  0
  -24.8705  -27.6762   19.5119 C   0  0  0  0  0  0
  -23.6230  -29.8180   20.1643 C   0  0  0  0  0  0
  -25.4112  -36.3098   24.0332 C   0  0  1  0  0  0
  -20.5872  -28.3664   23.1302 C   0  0  2  0  0  0
  -20.6769  -26.9401   22.5414 C   0  0  0  0  0  0
  -19.5745  -26.6378   21.5215 C   0  0  0  0  0  0
  -18.1920  -26.7910   22.1618 C   0  0  0  0  0  0
  -19.1528  -28.8834   23.2885 C   0  0  0  0  0  0
  -18.9456  -30.1434   23.8907 C   0  0  0  0  0  0
  -17.6461  -30.6581   24.0558 C   0  0  0  0  0  0
  -25.9044  -34.9459   23.5120 C   0  0  0  0  0  0
  -16.5350  -29.9079   23.6332 C   0  0  0  0  0  0
  -16.7268  -28.6489   23.0358 C   0  0  0  0  0  0
  -26.4485  -31.6587   25.0719 C   0  0  0  0  0  0
  -25.3740  -31.3690   26.1461 C   0  0  0  0  0  0
  -27.0322  -30.3029   24.6105 C   0  0  0  0  0  0
  -27.6063  -32.4313   25.7482 C   0  0  0  0  0  0
  -27.5577  -37.1806   24.8468 C   0  0  0  0  0  0
  -21.4160  -29.3032   22.3715 N   0  0  0  0  0  0
  -26.4298  -37.3778   23.9406 N   0  0  0  0  0  0
  -24.6749  -31.0714   22.0995 N   0  0  0  0  0  0
  -23.4183  -28.8189   23.3041 O   0  0  0  0  0  0
  -28.3817  -26.6167   20.0719 O   0  0  0  0  0  0
  -26.5612  -34.8906   22.4679 O   0  0  0  0  0  0
  -23.5375  -32.1427   23.7445 O   0  0  0  0  0  0
  -30.7475  -18.1480   19.3528 C   0  0  0  0  0  0
  -29.3903  -19.2987   21.0184 C   0  0  0  0  0  0
  -30.0638  -20.4761   18.9992 C   0  0  0  0  0  0
  -30.0900  -18.1250   20.5981 C   0  0  0  0  0  0
  -30.7380  -19.3147   18.5602 C   0  0  0  0  0  0
  -29.3798  -20.4923   20.2370 C   0  0  0  0  0  0
  -28.4185  -24.0697   20.1003 C   0  0  0  0  0  0
  -30.2569  -16.8975   21.5232 C   0  0  0  0  0  0
  -28.3966  -25.4142   20.8935 C   0  0  0  0  0  0
  -29.3302  -22.9141   20.6167 C   0  0  0  0  0  0
  -31.4141  -19.3206   17.3412 N   0  0  0  0  0  0
  -29.8714  -15.5560   21.0269 N   0  0  0  0  0  0
  -27.7316  -23.9200   19.0834 O   0  0  0  0  0  0
  -28.6719  -21.6175   20.6583 O   0  0  0  0  0  0
  -31.4740  -12.4871   19.1188 H   0  0  0  0  0  0
  -30.3704  -11.3489   19.8406 H   0  0  0  0  0  0
  -29.7463  -11.7654   17.4446 H   0  0  0  0  0  0
  -29.6415  -13.4824   17.7458 H   0  0  0  0  0  0
  -27.8496  -11.2917   18.8459 H   0  0  0  0  0  0
  -27.3597  -12.5926   17.7916 H   0  0  0  0  0  0
  -27.6888  -14.2462   19.5499 H   0  0  0  0  0  0
  -28.6999  -11.9733   21.3314 H   0  0  0  0  0  0
  -28.4529  -13.6072   21.8661 H   0  0  0  0  0  0
  -25.2744   -9.5677   22.4758 H   0  0  0  0  0  0
  -23.9988   -7.4624   22.7478 H   0  0  0  0  0  0
  -21.0825   -8.8753   19.8958 H   0  0  0  0  0  0
  -22.3673  -10.9655   19.6168 H   0  0  0  0  0  0
  -21.2000   -7.6138   23.9702 H   0  0  0  0  0  0
  -21.1481   -6.0523   25.9069 H   0  0  0  0  0  0
  -22.0603   -2.7602   23.2861 H   0  0  0  0  0  0
  -22.4120  -11.9860   22.4766 H   0  0  0  0  0  0
  -21.1129  -13.1253   22.2657 H   0  0  0  0  0  0
  -24.6671  -15.8438   20.5132 H   0  0  0  0  0  0
  -26.2804  -15.6213   20.0705 H   0  0  0  0  0  0
  -26.7111  -32.5513   23.1131 H   0  0  0  0  0  0
  -25.0093  -33.9760   25.0477 H   0  0  0  0  0  0
  -22.7020  -31.3054   21.4054 H   0  0  0  0  0  0
  -23.3741  -35.9652   23.3340 H   0  0  0  0  0  0
  -24.3579  -36.8899   22.2042 H   0  0  0  0  0  0
  -23.7262  -37.6523   23.6648 H   0  0  0  0  0  0
  -26.0547  -31.5831   20.5973 H   0  0  0  0  0  0
  -26.8275  -30.8739   21.9867 H   0  0  0  0  0  0
  -28.1144  -29.0649   21.1622 H   0  0  0  0  0  0
  -26.0469  -25.9420   19.0293 H   0  0  0  0  0  0
  -23.9778  -27.2880   19.0407 H   0  0  0  0  0  0
  -23.7349  -30.5937   19.4056 H   0  0  0  0  0  0
  -22.7451  -29.2429   19.8664 H   0  0  0  0  0  0
  -25.1281  -36.1964   25.0828 H   0  0  0  0  0  0
  -20.9947  -28.3236   24.1424 H   0  0  0  0  0  0
  -20.5681  -26.2275   23.3605 H   0  0  0  0  0  0
  -21.6635  -26.7449   22.1194 H   0  0  0  0  0  0
  -19.6927  -25.6292   21.1234 H   0  0  0  0  0  0
  -19.6691  -27.3198   20.6749 H   0  0  0  0  0  0
  -17.4195  -26.6673   21.4010 H   0  0  0  0  0  0
  -18.0310  -26.0045   22.9002 H   0  0  0  0  0  0
  -19.7944  -30.7228   24.2295 H   0  0  0  0  0  0
  -17.5027  -31.6265   24.5141 H   0  0  0  0  0  0
  -15.5349  -30.2975   23.7658 H   0  0  0  0  0  0
  -15.8669  -28.0803   22.7081 H   0  0  0  0  0  0
  -24.5935  -30.7015   25.7809 H   0  0  0  0  0  0
  -24.8892  -32.2825   26.4914 H   0  0  0  0  0  0
  -25.8077  -30.8876   27.0230 H   0  0  0  0  0  0
  -26.2857  -29.6774   24.1191 H   0  0  0  0  0  0
  -27.4131  -29.7284   25.4560 H   0  0  0  0  0  0
  -27.8681  -30.4356   23.9228 H   0  0  0  0  0  0
  -27.2697  -33.3621   26.2055 H   0  0  0  0  0  0
  -28.3864  -32.6857   25.0295 H   0  0  0  0  0  0
  -28.0722  -31.8424   26.5389 H   0  0  0  0  0  0
  -28.2604  -38.0091   24.7491 H   0  0  0  0  0  0
  -28.1056  -36.2618   24.6328 H   0  0  0  0  0  0
  -27.2288  -37.1503   25.8869 H   0  0  0  0  0  0
  -20.9345  -29.8760   21.6925 H   0  0  0  0  0  0
  -26.0193  -38.2865   24.1387 H   0  0  0  0  0  0
  -31.2904  -17.2707   19.0279 H   0  0  0  0  0  0
  -28.8819  -19.2976   21.9722 H   0  0  0  0  0  0
  -30.0533  -21.3566   18.3719 H   0  0  0  0  0  0
  -29.6773  -17.0755   22.4301 H   0  0  0  0  0  0
  -31.2975  -16.8689   21.8498 H   0  0  0  0  0  0
  -29.2820  -25.4526   21.5274 H   0  0  0  0  0  0
  -27.5397  -25.4062   21.5669 H   0  0  0  0  0  0
  -29.6642  -23.1568   21.6251 H   0  0  0  0  0  0
  -30.2242  -22.8877   19.9941 H   0  0  0  0  0  0
  -32.1326  -18.6210   17.1799 H   0  0  0  0  0  0
  -31.6334  -20.2131   16.9097 H   0  0  0  0  0  0
  -28.9199  -15.2884   21.2239 H   0  0  0  0  0  0
  1 25  1  0  0  0
  1 30  2  0  0  0
  1 82  1  0  0  0
  2  3  1  0  0  0
  2 25  1  0  0  0
  2 85  1  0  0  0
  2 86  1  0  0  0
  3  4  1  0  0  0
  3 87  1  0  0  0
  3 88  1  0  0  0
  4  5  1  0  0  0
  4 89  1  0  0  0
  4 90  1  0  0  0
  5  6  1  0  0  0
  5 26  1  0  0  0
  5 91  1  0  0  0
  6 25  1  0  0  0
  6 92  1  0  0  0
  6 93  1  0  0  0
  7  8  2  0  0  0
  7 26  1  0  0  0
  7 29  1  0  0  0
  8  9  1  0  0  0
  8 22  1  0  0  0
  9 10  1  0  0  0
  9 27  2  0  0  0
 10 11  2  0  0  0
 10 15  1  0  0  0
 11 12  1  0  0  0
 11 94  1  0  0  0
 12 13  2  0  0  0
 12 95  1  0  0  0
 13 14  1  0  0  0
 13 31  1  0  0  0
 14 15  2  0  0  0
 14 96  1  0  0  0
 15 97  1  0  0  0
 16 17  2  0  0  0
 16 21  1  0  0  0
 16 31  1  0  0  0
 17 18  1  0  0  0
 17 98  1  0  0  0
 18 19  2  0  0  0
 18 99  1  0  0  0
 19 20  1  0  0  0
 19 24  1  0  0  0
 20 21  2  0  0  0
 20100  1  0  0  0
 21 23  1  0  0  0
 22 28  1  0  0  0
 22 32  2  0  0  0
 26 27  1  0  0  0
 28101  1  0  0  0
 28102  1  0  0  0
 29103  1  0  0  0
 29104  1  0  0  0
 33 34  1  0  0  0
 33 66  1  0  0  0
 33 70  2  0  0  0
 34 36  1  0  0  0
 34 59  1  0  0  0
 34105  1  0  0  0
 35 44  2  0  0  0
 35 45  1  0  0  0
 35 68  1  0  0  0
 36 56  1  0  0  0
 36106  1  0  0  0
 37 39  1  0  0  0
 37 47  1  0  0  0
 37 66  1  0  0  0
 37107  1  0  0  0
 38 43  2  0  0  0
 38 46  1  0  0  0
 38 47  1  0  0  0
 39 64  1  0  0  0
 39 67  2  0  0  0
 40 52  1  0  0  0
 40 53  2  0  0  0
 40 58  1  0  0  0
 41108  1  0  0  0
 41109  1  0  0  0
 41110  1  0  0  0
 41 48  1  0  0  0
 42 43  1  0  0  0
 42 66  1  0  0  0
 42111  1  0  0  0
 42112  1  0  0  0
 43 44  1  0  0  0
 44113  1  0  0  0
 45 46  2  0  0  0
 45114  1  0  0  0
 46115  1  0  0  0
 47116  1  0  0  0
 47117  1  0  0  0
 48 56  1  0  0  0
 48 65  1  0  0  0
 48118  1  0  0  0
 49 50  1  0  0  0
 49 53  1  0  0  0
 49 64  1  0  0  0
 49119  1  0  0  0
 50 51  1  0  0  0
 50120  1  0  0  0
 50121  1  0  0  0
 51 52  1  0  0  0
 51122  1  0  0  0
 51123  1  0  0  0
 52124  1  0  0  0
 52125  1  0  0  0
 53 54  1  0  0  0
 54 55  2  0  0  0
 54126  1  0  0  0
 55 57  1  0  0  0
 55127  1  0  0  0
 56 69  2  0  0  0
 57 58  2  0  0  0
 57128  1  0  0  0
 58129  1  0  0  0
 59 60  1  0  0  0
 59 61  1  0  0  0
 59 62  1  0  0  0
 60130  1  0  0  0
 60131  1  0  0  0
 60132  1  0  0  0
 61133  1  0  0  0
 61134  1  0  0  0
 61135  1  0  0  0
 62136  1  0  0  0
 62137  1  0  0  0
 62138  1  0  0  0
 63 65  1  0  0  0
 63139  1  0  0  0
 63140  1  0  0  0
 63141  1  0  0  0
 64142  1  0  0  0
 65143  1  0  0  0
 68 79  1  0  0  0
 71 74  2  0  0  0
 71 75  1  0  0  0
 71144  1  0  0  0
 72 74  1  0  0  0
 72 76  2  0  0  0
 72145  1  0  0  0
 73 75  2  0  0  0
 73 76  1  0  0  0
 73146  1  0  0  0
 74 78  1  0  0  0
 75 81  1  0  0  0
 76 84  1  0  0  0
 77 79  1  0  0  0
 77 80  1  0  0  0
 77 83  2  0  0  0
 78 82  1  0  0  0
 78147  1  0  0  0
 78148  1  0  0  0
 79149  1  0  0  0
 79150  1  0  0  0
 80 84  1  0  0  0
 80151  1  0  0  0
 80152  1  0  0  0
 81153  1  0  0  0
 81154  1  0  0  0
 82155  1  0  0  0
M  ISO  4   1 100  68 101  79 101  82 100
M  END
> <chiral flag>
0

> <version>
0

> <s_m_source_file>
/data/baiqing/PycharmProjects/Reinvent-master-3.2/result/LINK_invent/BTK/process_docking_weight1_custom_product_contain_oxygen_bond_distance_aromatic_linkinvent_7_9_3/rearranged_h_0137.sdf

> <i_m_source_file_index>
81

> <r_mmod_Potential_Energy-OPLS-2005>
-46.4621276855469

> <r_mmod_Stretch_Energy-OPLS-2005>
50.7800445556641

> <r_mmod_Bend_Energy-OPLS-2005>
110.956298828125

> <r_mmod_Torsional_Energy-OPLS-2005>
254.918960571289

> <r_mmod_Improper_Torsional_Energy-OPLS-2005>
6.88043928146362

> <r_mmod_Van_der_Waal_Energy-OPLS-2005>
137.669448852539

> <r_mmod_Electrostatic_Energy-OPLS-2005>
-385.196380615234

> <r_mmod_Solvation_Energy-OPLS-2005>
-245.560821533203

> <b_mmod_Minimization_Converged-OPLS-2005>
0

> <r_mmod_RMS_Derivative-OPLS-2005>
1.74638438224792

$$$$
81
                    3D
 Structure written by MMmdl.
157165  0  0  1  0            999 V2000
  -30.6975  -14.5321   20.3856 C   0  0  0  0  0  0
  -30.4226  -12.2856   19.4428 C   0  0  0  0  0  0
  -29.4905  -12.3608   18.2137 C   0  0  0  0  0  0
  -28.0072  -12.2858   18.6317 C   0  0  0  0  0  0
  -27.6413  -13.1950   19.8364 C   0  0  2  0  0  0
  -28.6979  -13.1086   20.9587 C   0  0  0  0  0  0
  -25.2548  -13.8102   20.5764 C   0  0  0  0  0  0
  -24.1791  -13.0390   20.9211 C   0  0  0  0  0  0
  -24.6346  -11.6867   20.8763 C   0  0  0  0  0  0
  -23.9023  -10.4263   21.0420 C   0  0  0  0  0  0
  -24.3589   -9.4185   21.9193 C   0  0  0  0  0  0
  -23.6269   -8.2221   22.0758 C   0  0  0  0  0  0
  -22.4254   -8.0263   21.3545 C   0  0  0  0  0  0
  -21.9886   -9.0233   20.4646 C   0  0  0  0  0  0
  -22.7205  -10.2113   20.3057 C   0  0  0  0  0  0
  -21.6843   -6.0724   22.5277 C   0  0  0  0  0  0
  -21.4007   -6.5631   23.8210 C   0  0  0  0  0  0
  -21.3658   -5.6788   24.9174 C   0  0  0  0  0  0
  -21.6046   -4.3051   24.7227 C   0  0  0  0  0  0
  -21.8819   -3.8139   23.4348 C   0  0  0  0  0  0
  -21.9188   -4.6954   22.3402 C   0  0  0  0  0  0
  -22.7823  -13.5211   21.1861 C   0  0  0  0  0  0
  -22.1657   -4.2139   21.0979 F   0  0  0  0  0  0
  -21.5633   -3.4539   25.7743 F   0  0  0  0  0  0
  -30.0246  -13.3478   20.3749 N   0  0  0  0  0  0
  -26.2941  -12.9256   20.3297 N   0  0  0  0  0  0
  -25.9268  -11.6439   20.5803 N   0  0  0  0  0  0
  -22.0455  -12.8215   22.0417 N   0  0  0  0  0  0
  -25.4250  -15.1822   20.4350 N   0  0  0  0  0  0
  -31.9258  -14.6075   20.3183 O   0  0  0  0  0  0
  -21.6624   -6.8860   21.4236 O   0  0  0  0  0  0
  -22.3522  -14.5521   20.6705 O   0  0  0  0  0  0
  -24.6111  -31.8693   23.2114 C   0  0  0  0  0  0
  -25.9014  -32.4831   23.8406 C   0  0  1  0  0  0
  -27.2398  -27.4558   20.1079 C   0  0  0  0  0  0
  -25.5879  -33.8629   24.2338 N   0  0  0  0  0  0
  -23.3992  -30.4904   21.5510 C   0  0  2  0  0  0
  -24.8492  -28.9527   20.1202 C   0  0  0  0  0  0
  -22.7391  -29.4662   22.5008 C   0  0  0  0  0  0
  -18.0265  -28.1374   22.8497 C   0  0  0  0  0  0
  -24.1483  -36.7324   23.2641 C   0  0  0  0  0  0
  -25.9236  -30.8411   21.3610 C   0  0  0  0  0  0
  -26.0048  -29.4732   20.7177 C   0  0  0  0  0  0
  -27.2046  -28.7305   20.7118 C   0  0  0  0  0  0
  -26.0744  -26.9399   19.5069 C   0  0  0  0  0  0
  -24.8768  -27.6828   19.5139 C   0  0  0  0  0  0
  -23.6086  -29.8166   20.1673 C   0  0  0  0  0  0
  -25.4102  -36.3121   24.0342 C   0  0  1  0  0  0
  -20.5853  -28.3659   23.1327 C   0  0  2  0  0  0
  -20.6756  -26.9401   22.5418 C   0  0  0  0  0  0
  -19.5734  -26.6385   21.5213 C   0  0  0  0  0  0
  -18.1912  -26.7921   22.1625 C   0  0  0  0  0  0
  -19.1514  -28.8832   23.2910 C   0  0  0  0  0  0
  -18.9444  -30.1441   23.8919 C   0  0  0  0  0  0
  -17.6448  -30.6585   24.0568 C   0  0  0  0  0  0
  -25.9023  -34.9484   23.5139 C   0  0  0  0  0  0
  -16.5339  -29.9088   23.6328 C   0  0  0  0  0  0
  -16.7256  -28.6502   23.0355 C   0  0  0  0  0  0
  -26.4466  -31.6601   25.0719 C   0  0  0  0  0  0
  -25.3746  -31.3676   26.1474 C   0  0  0  0  0  0
  -27.0312  -30.3058   24.6068 C   0  0  0  0  0  0
  -27.6040  -32.4324   25.7481 C   0  0  0  0  0  0
  -27.5580  -37.1813   24.8467 C   0  0  0  0  0  0
  -21.4121  -29.3032   22.3744 N   0  0  0  0  0  0
  -26.4293  -37.3797   23.9410 N   0  0  0  0  0  0
  -24.6627  -31.0812   22.1002 N   0  0  0  0  0  0
  -23.4170  -28.8205   23.3047 O   0  0  0  0  0  0
  -28.4067  -26.7352   20.0650 O   0  0  0  0  0  0
  -26.5592  -34.8934   22.4704 O   0  0  0  0  0  0
  -23.5310  -32.1436   23.7520 O   0  0  0  0  0  0
  -30.4828  -17.4379   21.4608 C   0  0  0  0  0  0
  -30.3343  -18.7324   22.0085 C   0  0  0  0  0  0
  -28.4004  -19.0988   20.6116 C   0  0  0  0  0  0
  -29.6217  -16.9575   20.4408 C   0  0  0  0  0  0
  -28.5380  -17.8128   20.0500 C   0  0  0  0  0  0
  -29.3199  -19.5992   21.5574 C   0  0  0  0  0  0
  -29.9473  -15.6854   19.6963 C   0  0  0  0  0  0
  -28.7996  -23.2849   21.6814 C   0  0  0  0  0  0
  -27.5035  -17.4607   18.9835 C   0  0  0  0  0  0
  -28.3435  -24.3681   20.6889 C   0  0  0  0  0  0
  -28.4888  -21.8327   21.2917 C   0  0  0  0  0  0
  -28.5974  -25.8195   21.1473 C   0  0  0  0  0  0
  -29.7124  -15.6176   18.4520 N   0  0  0  0  0  0
  -29.3837  -23.5638   22.7349 O   0  0  0  0  0  0
  -29.2837  -20.8964   22.0351 O   0  0  0  0  0  0
  -31.4647  -12.3783   19.1305 H   0  0  0  0  0  0
  -30.3374  -11.3139   19.9315 H   0  0  0  0  0  0
  -29.7164  -11.5343   17.5389 H   0  0  0  0  0  0
  -29.6794  -13.2571   17.6297 H   0  0  0  0  0  0
  -27.8073  -11.2449   18.8879 H   0  0  0  0  0  0
  -27.3641  -12.5126   17.7808 H   0  0  0  0  0  0
  -27.6304  -14.2101   19.4530 H   0  0  0  0  0  0
  -28.6765  -12.1282   21.4370 H   0  0  0  0  0  0
  -28.4848  -13.8402   21.7400 H   0  0  0  0  0  0
  -25.2733   -9.5670   22.4770 H   0  0  0  0  0  0
  -23.9980   -7.4613   22.7477 H   0  0  0  0  0  0
  -21.0821   -8.8742   19.8952 H   0  0  0  0  0  0
  -22.3660  -10.9653   19.6169 H   0  0  0  0  0  0
  -21.1996   -7.6141   23.9707 H   0  0  0  0  0  0
  -21.1484   -6.0523   25.9076 H   0  0  0  0  0  0
  -22.0603   -2.7602   23.2851 H   0  0  0  0  0  0
  -22.4063  -11.9871   22.4803 H   0  0  0  0  0  0
  -21.1079  -13.1257   22.2626 H   0  0  0  0  0  0
  -24.6660  -15.8380   20.5836 H   0  0  0  0  0  0
  -26.3011  -15.6318   20.2089 H   0  0  0  0  0  0
  -26.7084  -32.5564   23.1179 H   0  0  0  0  0  0
  -25.0031  -33.9790   25.0485 H   0  0  0  0  0  0
  -22.6870  -31.3063   21.4097 H   0  0  0  0  0  0
  -23.3739  -35.9663   23.3315 H   0  0  0  0  0  0
  -24.3575  -36.8930   22.2054 H   0  0  0  0  0  0
  -23.7245  -37.6535   23.6650 H   0  0  0  0  0  0
  -26.0275  -31.6024   20.5865 H   0  0  0  0  0  0
  -26.8146  -30.9034   21.9739 H   0  0  0  0  0  0
  -28.1010  -29.1309   21.1654 H   0  0  0  0  0  0
  -26.0977  -25.9694   19.0318 H   0  0  0  0  0  0
  -23.9889  -27.2762   19.0494 H   0  0  0  0  0  0
  -23.7122  -30.5885   19.4034 H   0  0  0  0  0  0
  -22.7343  -29.2315   19.8761 H   0  0  0  0  0  0
  -25.1278  -36.1993   25.0836 H   0  0  0  0  0  0
  -20.9943  -28.3224   24.1447 H   0  0  0  0  0  0
  -20.5661  -26.2269   23.3600 H   0  0  0  0  0  0
  -21.6628  -26.7449   22.1211 H   0  0  0  0  0  0
  -19.6899  -25.6301   21.1231 H   0  0  0  0  0  0
  -19.6671  -27.3205   20.6752 H   0  0  0  0  0  0
  -17.4185  -26.6679   21.4023 H   0  0  0  0  0  0
  -18.0309  -26.0053   22.9010 H   0  0  0  0  0  0
  -19.7924  -30.7249   24.2299 H   0  0  0  0  0  0
  -17.5009  -31.6268   24.5166 H   0  0  0  0  0  0
  -15.5343  -30.3004   23.7636 H   0  0  0  0  0  0
  -15.8654  -28.0828   22.7066 H   0  0  0  0  0  0
  -24.5915  -30.7030   25.7805 H   0  0  0  0  0  0
  -24.8935  -32.2817   26.4965 H   0  0  0  0  0  0
  -25.8112  -30.8813   27.0208 H   0  0  0  0  0  0
  -26.2849  -29.6794   24.1163 H   0  0  0  0  0  0
  -27.4156  -29.7312   25.4507 H   0  0  0  0  0  0
  -27.8647  -30.4407   23.9170 H   0  0  0  0  0  0
  -27.2659  -33.3614   26.2086 H   0  0  0  0  0  0
  -28.3831  -32.6899   25.0293 H   0  0  0  0  0  0
  -28.0730  -31.8433   26.5371 H   0  0  0  0  0  0
  -28.2601  -38.0108   24.7522 H   0  0  0  0  0  0
  -28.1072  -36.2641   24.6285 H   0  0  0  0  0  0
  -27.2297  -37.1465   25.8870 H   0  0  0  0  0  0
  -20.9277  -29.8761   21.6973 H   0  0  0  0  0  0
  -26.0188  -38.2878   24.1405 H   0  0  0  0  0  0
  -31.3235  -16.8452   21.7918 H   0  0  0  0  0  0
  -31.0445  -19.0809   22.7453 H   0  0  0  0  0  0
  -27.5827  -19.7128   20.2633 H   0  0  0  0  0  0
  -26.5528  -17.9579   19.1804 H   0  0  0  0  0  0
  -27.2894  -16.3975   18.9285 H   0  0  0  0  0  0
  -27.8464  -17.7917   18.0026 H   0  0  0  0  0  0
  -27.2842  -24.2232   20.4779 H   0  0  0  0  0  0
  -28.8733  -24.1910   19.7532 H   0  0  0  0  0  0
  -28.6784  -21.7243   20.2232 H   0  0  0  0  0  0
  -27.4293  -21.6434   21.4666 H   0  0  0  0  0  0
  -29.6287  -25.9316   21.4847 H   0  0  0  0  0  0
  -27.9641  -26.0640   22.0033 H   0  0  0  0  0  0
  -29.2759  -16.4713   18.1298 H   0  0  0  0  0  0
  1 25  1  0  0  0
  1 30  2  0  0  0
  1 77  1  0  0  0
  2  3  1  0  0  0
  2 25  1  0  0  0
  2 86  1  0  0  0
  2 87  1  0  0  0
  3  4  1  0  0  0
  3 88  1  0  0  0
  3 89  1  0  0  0
  4  5  1  0  0  0
  4 90  1  0  0  0
  4 91  1  0  0  0
  5  6  1  0  0  0
  5 26  1  0  0  0
  5 92  1  0  0  0
  6 25  1  0  0  0
  6 93  1  0  0  0
  6 94  1  0  0  0
  7  8  2  0  0  0
  7 26  1  0  0  0
  7 29  1  0  0  0
  8  9  1  0  0  0
  8 22  1  0  0  0
  9 10  1  0  0  0
  9 27  2  0  0  0
 10 11  2  0  0  0
 10 15  1  0  0  0
 11 12  1  0  0  0
 11 95  1  0  0  0
 12 13  2  0  0  0
 12 96  1  0  0  0
 13 14  1  0  0  0
 13 31  1  0  0  0
 14 15  2  0  0  0
 14 97  1  0  0  0
 15 98  1  0  0  0
 16 17  2  0  0  0
 16 21  1  0  0  0
 16 31  1  0  0  0
 17 18  1  0  0  0
 17 99  1  0  0  0
 18 19  2  0  0  0
 18100  1  0  0  0
 19 20  1  0  0  0
 19 24  1  0  0  0
 20 21  2  0  0  0
 20101  1  0  0  0
 21 23  1  0  0  0
 22 28  1  0  0  0
 22 32  2  0  0  0
 26 27  1  0  0  0
 28102  1  0  0  0
 28103  1  0  0  0
 29104  1  0  0  0
 29105  1  0  0  0
 33 34  1  0  0  0
 33 66  1  0  0  0
 33 70  2  0  0  0
 34 36  1  0  0  0
 34 59  1  0  0  0
 34106  1  0  0  0
 35 44  2  0  0  0
 35 45  1  0  0  0
 35 68  1  0  0  0
 36 56  1  0  0  0
 36107  1  0  0  0
 37 39  1  0  0  0
 37 47  1  0  0  0
 37 66  1  0  0  0
 37108  1  0  0  0
 38 43  2  0  0  0
 38 46  1  0  0  0
 38 47  1  0  0  0
 39 64  1  0  0  0
 39 67  2  0  0  0
 40 52  1  0  0  0
 40 53  2  0  0  0
 40 58  1  0  0  0
 41109  1  0  0  0
 41110  1  0  0  0
 41111  1  0  0  0
 41 48  1  0  0  0
 42 43  1  0  0  0
 42 66  1  0  0  0
 42112  1  0  0  0
 42113  1  0  0  0
 43 44  1  0  0  0
 44114  1  0  0  0
 45 46  2  0  0  0
 45115  1  0  0  0
 46116  1  0  0  0
 47117  1  0  0  0
 47118  1  0  0  0
 48 56  1  0  0  0
 48 65  1  0  0  0
 48119  1  0  0  0
 49 50  1  0  0  0
 49 53  1  0  0  0
 49 64  1  0  0  0
 49120  1  0  0  0
 50 51  1  0  0  0
 50121  1  0  0  0
 50122  1  0  0  0
 51 52  1  0  0  0
 51123  1  0  0  0
 51124  1  0  0  0
 52125  1  0  0  0
 52126  1  0  0  0
 53 54  1  0  0  0
 54 55  2  0  0  0
 54127  1  0  0  0
 55 57  1  0  0  0
 55128  1  0  0  0
 56 69  2  0  0  0
 57 58  2  0  0  0
 57129  1  0  0  0
 58130  1  0  0  0
 59 60  1  0  0  0
 59 61  1  0  0  0
 59 62  1  0  0  0
 60131  1  0  0  0
 60132  1  0  0  0
 60133  1  0  0  0
 61134  1  0  0  0
 61135  1  0  0  0
 61136  1  0  0  0
 62137  1  0  0  0
 62138  1  0  0  0
 62139  1  0  0  0
 63 65  1  0  0  0
 63140  1  0  0  0
 63141  1  0  0  0
 63142  1  0  0  0
 64143  1  0  0  0
 65144  1  0  0  0
 68 82  1  0  0  0
 71 72  2  0  0  0
 71 74  1  0  0  0
 71145  1  0  0  0
 72 76  1  0  0  0
 72146  1  0  0  0
 73 75  1  0  0  0
 73 76  2  0  0  0
 73147  1  0  0  0
 74 75  2  0  0  0
 74 77  1  0  0  0
 75 79  1  0  0  0
 76 85  1  0  0  0
 77 83  2  0  0  0
 78 80  1  0  0  0
 78 81  1  0  0  0
 78 84  2  0  0  0
 79148  1  0  0  0
 79149  1  0  0  0
 79150  1  0  0  0
 80 82  1  0  0  0
 80151  1  0  0  0
 80152  1  0  0  0
 81 85  1  0  0  0
 81153  1  0  0  0
 81154  1  0  0  0
 82155  1  0  0  0
 82156  1  0  0  0
 83157  1  0  0  0
M  ISO  4   1 100  68 101  77 100  82 101
M  END
> <chiral flag>
0

> <version>
0

> <s_m_source_file>
/data/baiqing/PycharmProjects/Reinvent-master-3.2/result/LINK_invent/BTK/process_docking_weight1_custom_product_contain_oxygen_bond_distance_aromatic_linkinvent_7_9_3/rearranged_h_0137.sdf

> <i_m_source_file_index>
82

> <r_mmod_Potential_Energy-OPLS-2005>
230.357650756836

> <r_mmod_Stretch_Energy-OPLS-2005>
41.3760643005371

> <r_mmod_Bend_Energy-OPLS-2005>
104.24437713623

> <r_mmod_Torsional_Energy-OPLS-2005>
282.744567871094

> <r_mmod_Improper_Torsional_Energy-OPLS-2005>
26.7562198638916

> <r_mmod_Van_der_Waal_Energy-OPLS-2005>
161.6103515625

> <r_mmod_Electrostatic_Energy-OPLS-2005>
-199.375625610352

> <r_mmod_Solvation_Energy-OPLS-2005>
-224.230072021484

> <b_mmod_Minimization_Converged-OPLS-2005>
0

> <r_mmod_RMS_Derivative-OPLS-2005>
0.718499779701233

$$$$
82
                    3D
 Structure written by MMmdl.
165173  0  0  1  0            999 V2000
  -30.6871  -14.5381   20.5933 C   0  0  0  0  0  0
  -30.4343  -12.3616   19.4277 C   0  0  0  0  0  0
  -29.5020  -12.5224   18.2087 C   0  0  0  0  0  0
  -28.0254  -12.3607   18.6209 C   0  0  0  0  0  0
  -27.6578  -13.2133   19.8649 C   0  0  2  0  0  0
  -28.6992  -13.0225   20.9883 C   0  0  0  0  0  0
  -25.2548  -13.8148   20.5627 C   0  0  0  0  0  0
  -24.1839  -13.0422   20.9157 C   0  0  0  0  0  0
  -24.6411  -11.6898   20.8714 C   0  0  0  0  0  0
  -23.9103  -10.4277   21.0400 C   0  0  0  0  0  0
  -24.3650   -9.4174   21.9180 C   0  0  0  0  0  0
  -23.6299   -8.2224   22.0749 C   0  0  0  0  0  0
  -22.4275   -8.0280   21.3547 C   0  0  0  0  0  0
  -21.9930   -9.0258   20.4649 C   0  0  0  0  0  0
  -22.7282  -10.2117   20.3048 C   0  0  0  0  0  0
  -21.6851   -6.0738   22.5273 C   0  0  0  0  0  0
  -21.4021   -6.5635   23.8205 C   0  0  0  0  0  0
  -21.3658   -5.6788   24.9168 C   0  0  0  0  0  0
  -21.6036   -4.3046   24.7218 C   0  0  0  0  0  0
  -21.8829   -3.8145   23.4339 C   0  0  0  0  0  0
  -21.9187   -4.6967   22.3397 C   0  0  0  0  0  0
  -22.7843  -13.5179   21.1836 C   0  0  0  0  0  0
  -22.1655   -4.2146   21.0974 F   0  0  0  0  0  0
  -21.5630   -3.4534   25.7733 F   0  0  0  0  0  0
  -30.0246  -13.3546   20.4384 N   0  0  0  0  0  0
  -26.3009  -12.9357   20.3295 N   0  0  0  0  0  0
  -25.9337  -11.6509   20.5730 N   0  0  0  0  0  0
  -22.0537  -12.8168   22.0409 N   0  0  0  0  0  0
  -25.4205  -15.1888   20.4042 N   0  0  0  0  0  0
  -31.8250  -14.7171   20.1549 O   0  0  0  0  0  0
  -21.6634   -6.8888   21.4241 O   0  0  0  0  0  0
  -22.3514  -14.5500   20.6684 O   0  0  0  0  0  0
  -24.6203  -31.8616   23.2158 C   0  0  0  0  0  0
  -25.9080  -32.4820   23.8425 C   0  0  1  0  0  0
  -27.2322  -27.3714   20.1170 C   0  0  0  0  0  0
  -25.5906  -33.8623   24.2347 N   0  0  0  0  0  0
  -23.4142  -30.4857   21.5587 C   0  0  2  0  0  0
  -24.8632  -28.9508   20.1233 C   0  0  0  0  0  0
  -22.7459  -29.4622   22.5029 C   0  0  0  0  0  0
  -18.0294  -28.1367   22.8464 C   0  0  0  0  0  0
  -24.1484  -36.7277   23.2631 C   0  0  0  0  0  0
  -25.9504  -30.8032   21.3889 C   0  0  0  0  0  0
  -26.0277  -29.4344   20.7370 C   0  0  0  0  0  0
  -27.2135  -28.6476   20.7438 C   0  0  0  0  0  0
  -26.0572  -26.9385   19.4687 C   0  0  0  0  0  0
  -24.8756  -27.7003   19.4868 C   0  0  0  0  0  0
  -23.6280  -29.8237   20.1735 C   0  0  0  0  0  0
  -25.4098  -36.3099   24.0357 C   0  0  1  0  0  0
  -20.5884  -28.3641   23.1328 C   0  0  2  0  0  0
  -20.6787  -26.9382   22.5430 C   0  0  0  0  0  0
  -19.5764  -26.6355   21.5237 C   0  0  0  0  0  0
  -18.1930  -26.7908   22.1621 C   0  0  0  0  0  0
  -19.1545  -28.8829   23.2859 C   0  0  0  0  0  0
  -18.9456  -30.1420   23.8874 C   0  0  0  0  0  0
  -17.6460  -30.6570   24.0546 C   0  0  0  0  0  0
  -25.9012  -34.9485   23.5135 C   0  0  0  0  0  0
  -16.5344  -29.9041   23.6373 C   0  0  0  0  0  0
  -16.7279  -28.6472   23.0371 C   0  0  0  0  0  0
  -26.4492  -31.6619   25.0778 C   0  0  0  0  0  0
  -25.3715  -31.3758   26.1499 C   0  0  0  0  0  0
  -27.0392  -30.3075   24.6234 C   0  0  0  0  0  0
  -27.6084  -32.4323   25.7527 C   0  0  0  0  0  0
  -27.5592  -37.1774   24.8472 C   0  0  0  0  0  0
  -21.4174  -29.2994   22.3748 N   0  0  0  0  0  0
  -26.4296  -37.3776   23.9423 N   0  0  0  0  0  0
  -24.6810  -31.0625   22.1136 N   0  0  0  0  0  0
  -23.4193  -28.8156   23.3099 O   0  0  0  0  0  0
  -28.3628  -26.5675   20.0116 O   0  0  0  0  0  0
  -26.5548  -34.8944   22.4680 O   0  0  0  0  0  0
  -23.5391  -32.1415   23.7520 O   0  0  0  0  0  0
  -30.1406  -19.4456   21.1134 C   0  0  0  0  0  0
  -30.3298  -20.3529   18.8724 C   0  0  0  0  0  0
  -30.4171  -17.9309   19.2227 C   0  0  0  0  0  0
  -30.1368  -20.5915   20.2558 C   0  0  0  0  0  0
  -30.2972  -18.1100   20.6173 C   0  0  0  0  0  0
  -30.4494  -19.0430   18.3606 C   0  0  0  0  0  0
  -29.5745  -23.7852   18.9665 C   0  0  0  0  0  0
  -28.3803  -23.7590   22.6665 C   0  0  0  0  0  0
  -26.7483  -24.0810   20.8812 C   0  0  0  0  0  0
  -30.0377  -22.0427   20.8380 C   0  0  0  0  0  0
  -30.4295  -16.9015   21.5832 C   0  0  0  0  0  0
  -28.7298  -25.6908   21.1146 C   0  0  0  0  0  0
  -29.0009  -23.0840   20.2170 C   0  0  1  0  0  0
  -28.2619  -24.1590   21.1745 C   0  0  0  0  0  0
  -29.9778  -15.5508   21.1498 N   0  0  0  0  0  0
  -30.6131  -18.8551   17.0277 F   0  0  0  0  0  0
  -31.4755  -12.4839   19.1234 H   0  0  0  0  0  0
  -30.3636  -11.3536   19.8389 H   0  0  0  0  0  0
  -29.7584  -11.7939   17.4383 H   0  0  0  0  0  0
  -29.6480  -13.5065   17.7608 H   0  0  0  0  0  0
  -27.8536  -11.3048   18.8330 H   0  0  0  0  0  0
  -27.3708  -12.6112   17.7843 H   0  0  0  0  0  0
  -27.6917  -14.2571   19.5514 H   0  0  0  0  0  0
  -28.6917  -11.9879   21.3320 H   0  0  0  0  0  0
  -28.4449  -13.6222   21.8625 H   0  0  0  0  0  0
  -25.2822   -9.5610   22.4734 H   0  0  0  0  0  0
  -23.9996   -7.4604   22.7464 H   0  0  0  0  0  0
  -21.0859   -8.8801   19.8955 H   0  0  0  0  0  0
  -22.3785  -10.9654   19.6130 H   0  0  0  0  0  0
  -21.2032   -7.6145   23.9711 H   0  0  0  0  0  0
  -21.1467   -6.0518   25.9067 H   0  0  0  0  0  0
  -22.0615   -2.7609   23.2839 H   0  0  0  0  0  0
  -22.4191  -11.9818   22.4762 H   0  0  0  0  0  0
  -21.1143  -13.1145   22.2659 H   0  0  0  0  0  0
  -24.6456  -15.8356   20.5091 H   0  0  0  0  0  0
  -26.2663  -15.6383   20.0770 H   0  0  0  0  0  0
  -26.7124  -32.5529   23.1154 H   0  0  0  0  0  0
  -25.0180  -33.9786   25.0583 H   0  0  0  0  0  0
  -22.7013  -31.3022   21.4185 H   0  0  0  0  0  0
  -23.3771  -35.9565   23.3298 H   0  0  0  0  0  0
  -24.3552  -36.8911   22.2030 H   0  0  0  0  0  0
  -23.7250  -37.6498   23.6626 H   0  0  0  0  0  0
  -26.0637  -31.5688   20.6224 H   0  0  0  0  0  0
  -26.8397  -30.8578   22.0088 H   0  0  0  0  0  0
  -28.1089  -29.0180   21.2244 H   0  0  0  0  0  0
  -26.0461  -26.0022   18.9358 H   0  0  0  0  0  0
  -23.9879  -27.3215   18.9976 H   0  0  0  0  0  0
  -23.7414  -30.6036   19.4190 H   0  0  0  0  0  0
  -22.7508  -29.2431   19.8780 H   0  0  0  0  0  0
  -25.1269  -36.1931   25.0850 H   0  0  0  0  0  0
  -20.9914  -28.3191   24.1476 H   0  0  0  0  0  0
  -20.5784  -26.2219   23.3587 H   0  0  0  0  0  0
  -21.6633  -26.7483   22.1146 H   0  0  0  0  0  0
  -19.6949  -25.6268   21.1271 H   0  0  0  0  0  0
  -19.6755  -27.3171   20.6765 H   0  0  0  0  0  0
  -17.4226  -26.6699   21.3995 H   0  0  0  0  0  0
  -18.0253  -26.0055   22.9006 H   0  0  0  0  0  0
  -19.7938  -30.7212   24.2265 H   0  0  0  0  0  0
  -17.5037  -31.6299   24.5021 H   0  0  0  0  0  0
  -15.5339  -30.2905   23.7767 H   0  0  0  0  0  0
  -15.8675  -28.0784   22.7097 H   0  0  0  0  0  0
  -24.5868  -30.7147   25.7812 H   0  0  0  0  0  0
  -24.8930  -32.2941   26.4910 H   0  0  0  0  0  0
  -25.8009  -30.8932   27.0297 H   0  0  0  0  0  0
  -26.3034  -29.6753   24.1264 H   0  0  0  0  0  0
  -27.4162  -29.7379   25.4743 H   0  0  0  0  0  0
  -27.8835  -30.4438   23.9466 H   0  0  0  0  0  0
  -27.2765  -33.3659   26.2083 H   0  0  0  0  0  0
  -28.3901  -32.6834   25.0332 H   0  0  0  0  0  0
  -28.0726  -31.8444   26.5470 H   0  0  0  0  0  0
  -28.2583  -38.0101   24.7514 H   0  0  0  0  0  0
  -28.1151  -36.2627   24.6290 H   0  0  0  0  0  0
  -27.2305  -37.1391   25.8885 H   0  0  0  0  0  0
  -20.9343  -29.8628   21.6893 H   0  0  0  0  0  0
  -26.0203  -38.2873   24.1418 H   0  0  0  0  0  0
  -30.0551  -19.5978   22.1818 H   0  0  0  0  0  0
  -30.4192  -21.1568   18.1631 H   0  0  0  0  0  0
  -30.5289  -16.9457   18.7951 H   0  0  0  0  0  0
  -29.7618  -23.0957   18.1507 H   0  0  0  0  0  0
  -30.5194  -24.2842   19.1845 H   0  0  0  0  0  0
  -28.8803  -24.5219   18.5607 H   0  0  0  0  0  0
  -28.0379  -22.7397   22.8493 H   0  0  0  0  0  0
  -27.7583  -24.3894   23.3007 H   0  0  0  0  0  0
  -29.4009  -23.8626   23.0372 H   0  0  0  0  0  0
  -26.1997  -24.8843   21.3758 H   0  0  0  0  0  0
  -26.3128  -23.1396   21.2177 H   0  0  0  0  0  0
  -26.5523  -24.1367   19.8148 H   0  0  0  0  0  0
  -31.0367  -22.4793   20.8364 H   0  0  0  0  0  0
  -29.8195  -21.8875   21.8893 H   0  0  0  0  0  0
  -29.8721  -17.1409   22.4898 H   0  0  0  0  0  0
  -31.4708  -16.8425   21.9025 H   0  0  0  0  0  0
  -29.8204  -25.7133   21.1792 H   0  0  0  0  0  0
  -28.3879  -26.1981   22.0191 H   0  0  0  0  0  0
  -28.2079  -22.4325   19.8490 H   0  0  0  0  0  0
  -29.0502  -15.2902   21.4448 H   0  0  0  0  0  0
  1 25  1  0  0  0
  1 30  2  0  0  0
  1 85  1  0  0  0
  2  3  1  0  0  0
  2 25  1  0  0  0
  2 87  1  0  0  0
  2 88  1  0  0  0
  3  4  1  0  0  0
  3 89  1  0  0  0
  3 90  1  0  0  0
  4  5  1  0  0  0
  4 91  1  0  0  0
  4 92  1  0  0  0
  5  6  1  0  0  0
  5 26  1  0  0  0
  5 93  1  0  0  0
  6 25  1  0  0  0
  6 94  1  0  0  0
  6 95  1  0  0  0
  7  8  2  0  0  0
  7 26  1  0  0  0
  7 29  1  0  0  0
  8  9  1  0  0  0
  8 22  1  0  0  0
  9 10  1  0  0  0
  9 27  2  0  0  0
 10 11  2  0  0  0
 10 15  1  0  0  0
 11 12  1  0  0  0
 11 96  1  0  0  0
 12 13  2  0  0  0
 12 97  1  0  0  0
 13 14  1  0  0  0
 13 31  1  0  0  0
 14 15  2  0  0  0
 14 98  1  0  0  0
 15 99  1  0  0  0
 16 17  2  0  0  0
 16 21  1  0  0  0
 16 31  1  0  0  0
 17 18  1  0  0  0
 17100  1  0  0  0
 18 19  2  0  0  0
 18101  1  0  0  0
 19 20  1  0  0  0
 19 24  1  0  0  0
 20 21  2  0  0  0
 20102  1  0  0  0
 21 23  1  0  0  0
 22 28  1  0  0  0
 22 32  2  0  0  0
 26 27  1  0  0  0
 28103  1  0  0  0
 28104  1  0  0  0
 29105  1  0  0  0
 29106  1  0  0  0
 33 34  1  0  0  0
 33 66  1  0  0  0
 33 70  2  0  0  0
 34 36  1  0  0  0
 34 59  1  0  0  0
 34107  1  0  0  0
 35 44  2  0  0  0
 35 45  1  0  0  0
 35 68  1  0  0  0
 36 56  1  0  0  0
 36108  1  0  0  0
 37 39  1  0  0  0
 37 47  1  0  0  0
 37 66  1  0  0  0
 37109  1  0  0  0
 38 43  2  0  0  0
 38 46  1  0  0  0
 38 47  1  0  0  0
 39 64  1  0  0  0
 39 67  2  0  0  0
 40 52  1  0  0  0
 40 53  2  0  0  0
 40 58  1  0  0  0
 41110  1  0  0  0
 41111  1  0  0  0
 41112  1  0  0  0
 41 48  1  0  0  0
 42 43  1  0  0  0
 42 66  1  0  0  0
 42113  1  0  0  0
 42114  1  0  0  0
 43 44  1  0  0  0
 44115  1  0  0  0
 45 46  2  0  0  0
 45116  1  0  0  0
 46117  1  0  0  0
 47118  1  0  0  0
 47119  1  0  0  0
 48 56  1  0  0  0
 48 65  1  0  0  0
 48120  1  0  0  0
 49 50  1  0  0  0
 49 53  1  0  0  0
 49 64  1  0  0  0
 49121  1  0  0  0
 50 51  1  0  0  0
 50122  1  0  0  0
 50123  1  0  0  0
 51 52  1  0  0  0
 51124  1  0  0  0
 51125  1  0  0  0
 52126  1  0  0  0
 52127  1  0  0  0
 53 54  1  0  0  0
 54 55  2  0  0  0
 54128  1  0  0  0
 55 57  1  0  0  0
 55129  1  0  0  0
 56 69  2  0  0  0
 57 58  2  0  0  0
 57130  1  0  0  0
 58131  1  0  0  0
 59 60  1  0  0  0
 59 61  1  0  0  0
 59 62  1  0  0  0
 60132  1  0  0  0
 60133  1  0  0  0
 60134  1  0  0  0
 61135  1  0  0  0
 61136  1  0  0  0
 61137  1  0  0  0
 62138  1  0  0  0
 62139  1  0  0  0
 62140  1  0  0  0
 63 65  1  0  0  0
 63141  1  0  0  0
 63142  1  0  0  0
 63143  1  0  0  0
 64144  1  0  0  0
 65145  1  0  0  0
 68 82  1  0  0  0
 71 74  2  0  0  0
 71 75  1  0  0  0
 71146  1  0  0  0
 72 74  1  0  0  0
 72 76  2  0  0  0
 72147  1  0  0  0
 73 75  2  0  0  0
 73 76  1  0  0  0
 73148  1  0  0  0
 74 80  1  0  0  0
 75 81  1  0  0  0
 76 86  1  0  0  0
 77149  1  0  0  0
 77150  1  0  0  0
 77151  1  0  0  0
 77 83  1  0  0  0
 78152  1  0  0  0
 78153  1  0  0  0
 78154  1  0  0  0
 78 84  1  0  0  0
 79 84  1  0  0  0
 79155  1  0  0  0
 79156  1  0  0  0
 79157  1  0  0  0
 80 83  1  0  0  0
 80158  1  0  0  0
 80159  1  0  0  0
 81 85  1  0  0  0
 81160  1  0  0  0
 81161  1  0  0  0
 82 84  1  0  0  0
 82162  1  0  0  0
 82163  1  0  0  0
 83 84  1  0  0  0
 83164  1  0  0  0
 85165  1  0  0  0
M  ISO  4   1 100  68 101  82 101  85 100
M  END
> <chiral flag>
0

> <version>
0

> <s_m_source_file>
/data/baiqing/PycharmProjects/Reinvent-master-3.2/result/LINK_invent/BTK/process_docking_weight1_custom_product_contain_oxygen_bond_distance_aromatic_linkinvent_7_9_3/rearranged_h_0137.sdf

> <i_m_source_file_index>
83

> <r_mmod_Potential_Energy-OPLS-2005>
50.4318046569824

> <r_mmod_Stretch_Energy-OPLS-2005>
71.2756881713867

> <r_mmod_Bend_Energy-OPLS-2005>
150.304962158203

> <r_mmod_Torsional_Energy-OPLS-2005>
252.434158325195

> <r_mmod_Improper_Torsional_Energy-OPLS-2005>
3.70015120506287

> <r_mmod_Van_der_Waal_Energy-OPLS-2005>
150.929809570312

> <r_mmod_Electrostatic_Energy-OPLS-2005>
-408.62060546875

> <r_mmod_Solvation_Energy-OPLS-2005>
-193.756149291992

> <b_mmod_Minimization_Converged-OPLS-2005>
0

> <r_mmod_RMS_Derivative-OPLS-2005>
5.03138732910156

$$$$
83
                    3D
 Structure written by MMmdl.
165173  0  0  1  0            999 V2000
  -30.7010  -14.5086   20.5341 C   0  0  0  0  0  0
  -30.4022  -12.2984   19.4324 C   0  0  0  0  0  0
  -29.4504  -12.3718   18.2170 C   0  0  0  0  0  0
  -27.9693  -12.3248   18.6338 C   0  0  0  0  0  0
  -27.6399  -13.2060   19.8607 C   0  0  2  0  0  0
  -28.6952  -13.0474   20.9813 C   0  0  0  0  0  0
  -25.2494  -13.8124   20.5831 C   0  0  0  0  0  0
  -24.1717  -13.0482   20.9273 C   0  0  0  0  0  0
  -24.6198  -11.6910   20.8697 C   0  0  0  0  0  0
  -23.8800  -10.4350   21.0338 C   0  0  0  0  0  0
  -24.3381   -9.4301   21.9120 C   0  0  0  0  0  0
  -23.6170   -8.2289   22.0677 C   0  0  0  0  0  0
  -22.4185   -8.0217   21.3466 C   0  0  0  0  0  0
  -21.9725   -9.0164   20.4586 C   0  0  0  0  0  0
  -22.6934  -10.2128   20.3032 C   0  0  0  0  0  0
  -21.6892   -6.0633   22.5245 C   0  0  0  0  0  0
  -21.4045   -6.5563   23.8156 C   0  0  0  0  0  0
  -21.3676   -5.6745   24.9138 C   0  0  0  0  0  0
  -21.6065   -4.2997   24.7251 C   0  0  0  0  0  0
  -21.8804   -3.8062   23.4381 C   0  0  0  0  0  0
  -21.9182   -4.6843   22.3409 C   0  0  0  0  0  0
  -22.7730  -13.5264   21.2000 C   0  0  0  0  0  0
  -22.1645   -4.1988   21.1009 F   0  0  0  0  0  0
  -21.5649   -3.4515   25.7785 F   0  0  0  0  0  0
  -30.0163  -13.3322   20.4124 N   0  0  0  0  0  0
  -26.2897  -12.9301   20.3457 N   0  0  0  0  0  0
  -25.9143  -11.6449   20.5836 N   0  0  0  0  0  0
  -22.0374  -12.8296   22.0564 N   0  0  0  0  0  0
  -25.4415  -15.1830   20.4165 N   0  0  0  0  0  0
  -31.8756  -14.6189   20.1733 O   0  0  0  0  0  0
  -21.6654   -6.8732   21.4175 O   0  0  0  0  0  0
  -22.3390  -14.5578   20.6829 O   0  0  0  0  0  0
  -24.6171  -31.8729   23.2010 C   0  0  0  0  0  0
  -25.9062  -32.4849   23.8367 C   0  0  1  0  0  0
  -27.2673  -27.3795   20.1905 C   0  0  0  0  0  0
  -25.5940  -33.8651   24.2340 N   0  0  0  0  0  0
  -23.4166  -30.4914   21.5325 C   0  0  2  0  0  0
  -24.8792  -28.9344   20.1195 C   0  0  0  0  0  0
  -22.7390  -29.4796   22.4892 C   0  0  0  0  0  0
  -18.0335  -28.1447   22.8601 C   0  0  0  0  0  0
  -24.1453  -36.7221   23.2635 C   0  0  0  0  0  0
  -25.9406  -30.8293   21.3656 C   0  0  0  0  0  0
  -26.0271  -29.4460   20.7352 C   0  0  0  0  0  0
  -27.2226  -28.6785   20.7644 C   0  0  0  0  0  0
  -26.1074  -26.8962   19.5539 C   0  0  0  0  0  0
  -24.9205  -27.6616   19.5124 C   0  0  0  0  0  0
  -23.6433  -29.8122   20.1478 C   0  0  0  0  0  0
  -25.4127  -36.3191   24.0387 C   0  0  1  0  0  0
  -20.5912  -28.3787   23.1347 C   0  0  2  0  0  0
  -20.6805  -26.9511   22.5481 C   0  0  0  0  0  0
  -19.5737  -26.6472   21.5318 C   0  0  0  0  0  0
  -18.1925  -26.8018   22.1716 C   0  0  0  0  0  0
  -19.1590  -28.8922   23.2982 C   0  0  0  0  0  0
  -18.9517  -30.1521   23.8995 C   0  0  0  0  0  0
  -17.6525  -30.6655   24.0641 C   0  0  0  0  0  0
  -25.9077  -34.9549   23.5185 C   0  0  0  0  0  0
  -16.5413  -29.9178   23.6350 C   0  0  0  0  0  0
  -16.7338  -28.6578   23.0406 C   0  0  0  0  0  0
  -26.4529  -31.6583   25.0668 C   0  0  0  0  0  0
  -25.3734  -31.3709   26.1321 C   0  0  0  0  0  0
  -27.0342  -30.2982   24.6076 C   0  0  0  0  0  0
  -27.6101  -32.4265   25.7491 C   0  0  0  0  0  0
  -27.5596  -37.1801   24.8502 C   0  0  0  0  0  0
  -21.4123  -29.3124   22.3638 N   0  0  0  0  0  0
  -26.4314  -37.3905   23.9440 N   0  0  0  0  0  0
  -24.6731  -31.0791   22.0932 N   0  0  0  0  0  0
  -23.4076  -28.8451   23.3097 O   0  0  0  0  0  0
  -28.4574  -26.6676   20.0650 O   0  0  0  0  0  0
  -26.5641  -34.9041   22.4727 O   0  0  0  0  0  0
  -23.5371  -32.1529   23.7331 O   0  0  0  0  0  0
  -29.7619  -19.5630   19.2655 C   0  0  0  0  0  0
  -30.0277  -18.4609   18.4262 C   0  0  0  0  0  0
  -29.6875  -18.0543   21.1587 C   0  0  0  0  0  0
  -29.5701  -19.3851   20.6483 C   0  0  0  0  0  0
  -30.0981  -17.1433   18.9201 C   0  0  0  0  0  0
  -29.9692  -16.9209   20.3272 C   0  0  0  0  0  0
  -30.2432  -16.0246   17.8803 C   0  0  0  0  0  0
  -30.3461  -25.3619   20.4848 C   0  0  0  0  0  0
  -29.0083  -26.1453   22.4077 C   0  0  0  0  0  0
  -29.2140  -20.6014   21.5560 C   0  0  0  0  0  0
  -29.6954  -22.0445   21.1568 C   0  0  0  0  0  0
  -28.7131  -22.9317   20.3039 C   0  0  0  0  0  0
  -28.0860  -24.2373   20.9492 C   0  0  0  0  0  0
  -28.9019  -25.5996   20.9687 C   0  0  0  0  0  0
  -29.9815  -15.5941   20.9163 N   0  0  0  0  0  0
  -31.4314  -12.4021   19.0835 H   0  0  0  0  0  0
  -30.3387  -11.3116   19.8967 H   0  0  0  0  0  0
  -29.6434  -11.5194   17.5645 H   0  0  0  0  0  0
  -29.6503  -13.2561   17.6242 H   0  0  0  0  0  0
  -27.7320  -11.2848   18.8520 H   0  0  0  0  0  0
  -27.3188  -12.5993   17.7997 H   0  0  0  0  0  0
  -27.6650  -14.2359   19.5020 H   0  0  0  0  0  0
  -28.6894  -12.0364   21.3857 H   0  0  0  0  0  0
  -28.4676  -13.7093   21.8153 H   0  0  0  0  0  0
  -25.2495   -9.5890   22.4645 H   0  0  0  0  0  0
  -23.9925   -7.4733   22.7419 H   0  0  0  0  0  0
  -21.0646   -8.8584   19.8893 H   0  0  0  0  0  0
  -22.3265  -10.9608   19.6136 H   0  0  0  0  0  0
  -21.2073   -7.6084   23.9580 H   0  0  0  0  0  0
  -21.1512   -6.0533   25.9013 H   0  0  0  0  0  0
  -22.0569   -2.7515   23.2977 H   0  0  0  0  0  0
  -22.3953  -11.9977   22.5013 H   0  0  0  0  0  0
  -21.0937  -13.1207   22.2684 H   0  0  0  0  0  0
  -24.6751  -15.8444   20.4534 H   0  0  0  0  0  0
  -26.3178  -15.5904   20.1152 H   0  0  0  0  0  0
  -26.7172  -32.5600   23.1175 H   0  0  0  0  0  0
  -25.0236  -33.9806   25.0595 H   0  0  0  0  0  0
  -22.7185  -31.3122   21.3727 H   0  0  0  0  0  0
  -23.3852  -35.9414   23.3401 H   0  0  0  0  0  0
  -24.3487  -36.8679   22.2012 H   0  0  0  0  0  0
  -23.7064  -37.6425   23.6505 H   0  0  0  0  0  0
  -26.0541  -31.5982   20.5974 H   0  0  0  0  0  0
  -26.8193  -30.8830   21.9971 H   0  0  0  0  0  0
  -28.1092  -29.0923   21.2228 H   0  0  0  0  0  0
  -26.1359  -25.9322   19.0630 H   0  0  0  0  0  0
  -24.0583  -27.2699   18.9883 H   0  0  0  0  0  0
  -23.7698  -30.5790   19.3829 H   0  0  0  0  0  0
  -22.7726  -29.2330   19.8427 H   0  0  0  0  0  0
  -25.1303  -36.2136   25.0906 H   0  0  0  0  0  0
  -21.0095  -28.3367   24.1424 H   0  0  0  0  0  0
  -20.5783  -26.2393   23.3688 H   0  0  0  0  0  0
  -21.6677  -26.7596   22.1224 H   0  0  0  0  0  0
  -19.6859  -25.6381   21.1324 H   0  0  0  0  0  0
  -19.6610  -27.3303   20.6855 H   0  0  0  0  0  0
  -17.4223  -26.6941   21.4045 H   0  0  0  0  0  0
  -18.0202  -26.0115   22.9045 H   0  0  0  0  0  0
  -19.8012  -30.7361   24.2326 H   0  0  0  0  0  0
  -17.5106  -31.6343   24.5230 H   0  0  0  0  0  0
  -15.5415  -30.3131   23.7640 H   0  0  0  0  0  0
  -15.8743  -28.0936   22.7068 H   0  0  0  0  0  0
  -24.6074  -30.6882   25.7618 H   0  0  0  0  0  0
  -24.8751  -32.2861   26.4498 H   0  0  0  0  0  0
  -25.8063  -30.9125   27.0205 H   0  0  0  0  0  0
  -26.2916  -29.6752   24.1063 H   0  0  0  0  0  0
  -27.4023  -29.7214   25.4565 H   0  0  0  0  0  0
  -27.8792  -30.4256   23.9297 H   0  0  0  0  0  0
  -27.2780  -33.3623   26.1990 H   0  0  0  0  0  0
  -28.4038  -32.6645   25.0397 H   0  0  0  0  0  0
  -28.0580  -31.8353   26.5495 H   0  0  0  0  0  0
  -28.2758  -37.9987   24.7692 H   0  0  0  0  0  0
  -28.0982  -36.2579   24.6265 H   0  0  0  0  0  0
  -27.2256  -37.1378   25.8882 H   0  0  0  0  0  0
  -20.9236  -29.8677   21.6741 H   0  0  0  0  0  0
  -26.0237  -38.2999   24.1457 H   0  0  0  0  0  0
  -29.6824  -20.5468   18.8178 H   0  0  0  0  0  0
  -30.1392  -18.6236   17.3643 H   0  0  0  0  0  0
  -29.5519  -17.8903   22.2207 H   0  0  0  0  0  0
  -29.4226  -15.3130   17.9652 H   0  0  0  0  0  0
  -31.2013  -15.5117   17.9527 H   0  0  0  0  0  0
  -30.2330  -16.3987   16.8564 H   0  0  0  0  0  0
  -30.9698  -26.2284   20.6989 H   0  0  0  0  0  0
  -30.3866  -25.1885   19.4056 H   0  0  0  0  0  0
  -30.8297  -24.5256   20.9914 H   0  0  0  0  0  0
  -29.5818  -25.4605   23.0400 H   0  0  0  0  0  0
  -28.0348  -26.2950   22.8738 H   0  0  0  0  0  0
  -29.5348  -27.1020   22.4185 H   0  0  0  0  0  0
  -29.6597  -20.3753   22.5291 H   0  0  0  0  0  0
  -28.1325  -20.6369   21.7219 H   0  0  0  0  0  0
  -30.6846  -21.9957   20.6938 H   0  0  0  0  0  0
  -29.8803  -22.5851   22.0853 H   0  0  0  0  0  0
  -27.8879  -22.2839   20.0136 H   0  0  0  0  0  0
  -29.1773  -23.1911   19.3497 H   0  0  0  0  0  0
  -27.1476  -24.4174   20.4233 H   0  0  0  0  0  0
  -27.7688  -23.9836   21.9682 H   0  0  0  0  0  0
  -29.2136  -15.4060   21.5447 H   0  0  0  0  0  0
  1 25  1  0  0  0
  1 30  2  0  0  0
  1 85  1  0  0  0
  2  3  1  0  0  0
  2 25  1  0  0  0
  2 86  1  0  0  0
  2 87  1  0  0  0
  3  4  1  0  0  0
  3 88  1  0  0  0
  3 89  1  0  0  0
  4  5  1  0  0  0
  4 90  1  0  0  0
  4 91  1  0  0  0
  5  6  1  0  0  0
  5 26  1  0  0  0
  5 92  1  0  0  0
  6 25  1  0  0  0
  6 93  1  0  0  0
  6 94  1  0  0  0
  7  8  2  0  0  0
  7 26  1  0  0  0
  7 29  1  0  0  0
  8  9  1  0  0  0
  8 22  1  0  0  0
  9 10  1  0  0  0
  9 27  2  0  0  0
 10 11  2  0  0  0
 10 15  1  0  0  0
 11 12  1  0  0  0
 11 95  1  0  0  0
 12 13  2  0  0  0
 12 96  1  0  0  0
 13 14  1  0  0  0
 13 31  1  0  0  0
 14 15  2  0  0  0
 14 97  1  0  0  0
 15 98  1  0  0  0
 16 17  2  0  0  0
 16 21  1  0  0  0
 16 31  1  0  0  0
 17 18  1  0  0  0
 17 99  1  0  0  0
 18 19  2  0  0  0
 18100  1  0  0  0
 19 20  1  0  0  0
 19 24  1  0  0  0
 20 21  2  0  0  0
 20101  1  0  0  0
 21 23  1  0  0  0
 22 28  1  0  0  0
 22 32  2  0  0  0
 26 27  1  0  0  0
 28102  1  0  0  0
 28103  1  0  0  0
 29104  1  0  0  0
 29105  1  0  0  0
 33 34  1  0  0  0
 33 66  1  0  0  0
 33 70  2  0  0  0
 34 36  1  0  0  0
 34 59  1  0  0  0
 34106  1  0  0  0
 35 44  2  0  0  0
 35 45  1  0  0  0
 35 68  1  0  0  0
 36 56  1  0  0  0
 36107  1  0  0  0
 37 39  1  0  0  0
 37 47  1  0  0  0
 37 66  1  0  0  0
 37108  1  0  0  0
 38 43  2  0  0  0
 38 46  1  0  0  0
 38 47  1  0  0  0
 39 64  1  0  0  0
 39 67  2  0  0  0
 40 52  1  0  0  0
 40 53  2  0  0  0
 40 58  1  0  0  0
 41109  1  0  0  0
 41110  1  0  0  0
 41111  1  0  0  0
 41 48  1  0  0  0
 42 43  1  0  0  0
 42 66  1  0  0  0
 42112  1  0  0  0
 42113  1  0  0  0
 43 44  1  0  0  0
 44114  1  0  0  0
 45 46  2  0  0  0
 45115  1  0  0  0
 46116  1  0  0  0
 47117  1  0  0  0
 47118  1  0  0  0
 48 56  1  0  0  0
 48 65  1  0  0  0
 48119  1  0  0  0
 49 50  1  0  0  0
 49 53  1  0  0  0
 49 64  1  0  0  0
 49120  1  0  0  0
 50 51  1  0  0  0
 50121  1  0  0  0
 50122  1  0  0  0
 51 52  1  0  0  0
 51123  1  0  0  0
 51124  1  0  0  0
 52125  1  0  0  0
 52126  1  0  0  0
 53 54  1  0  0  0
 54 55  2  0  0  0
 54127  1  0  0  0
 55 57  1  0  0  0
 55128  1  0  0  0
 56 69  2  0  0  0
 57 58  2  0  0  0
 57129  1  0  0  0
 58130  1  0  0  0
 59 60  1  0  0  0
 59 61  1  0  0  0
 59 62  1  0  0  0
 60131  1  0  0  0
 60132  1  0  0  0
 60133  1  0  0  0
 61134  1  0  0  0
 61135  1  0  0  0
 61136  1  0  0  0
 62137  1  0  0  0
 62138  1  0  0  0
 62139  1  0  0  0
 63 65  1  0  0  0
 63140  1  0  0  0
 63141  1  0  0  0
 63142  1  0  0  0
 64143  1  0  0  0
 65144  1  0  0  0
 68 84  1  0  0  0
 71 72  2  0  0  0
 71 74  1  0  0  0
 71145  1  0  0  0
 72 75  1  0  0  0
 72146  1  0  0  0
 73 74  2  0  0  0
 73 76  1  0  0  0
 73147  1  0  0  0
 74 80  1  0  0  0
 75 76  2  0  0  0
 75 77  1  0  0  0
 76 85  1  0  0  0
 77148  1  0  0  0
 77149  1  0  0  0
 77150  1  0  0  0
 78151  1  0  0  0
 78152  1  0  0  0
 78153  1  0  0  0
 78 84  1  0  0  0
 79 84  1  0  0  0
 79154  1  0  0  0
 79155  1  0  0  0
 79156  1  0  0  0
 80 81  1  0  0  0
 80157  1  0  0  0
 80158  1  0  0  0
 81 82  1  0  0  0
 81159  1  0  0  0
 81160  1  0  0  0
 82 83  1  0  0  0
 82161  1  0  0  0
 82162  1  0  0  0
 83 84  1  0  0  0
 83163  1  0  0  0
 83164  1  0  0  0
 85165  1  0  0  0
M  ISO  4   1 100  68 101  84 101  85 100
M  END
> <chiral flag>
0

> <version>
0

> <s_m_source_file>
/data/baiqing/PycharmProjects/Reinvent-master-3.2/result/LINK_invent/BTK/process_docking_weight1_custom_product_contain_oxygen_bond_distance_aromatic_linkinvent_7_9_3/rearranged_h_0137.sdf

> <i_m_source_file_index>
84

> <r_mmod_Potential_Energy-OPLS-2005>
95.1008071899414

> <r_mmod_Stretch_Energy-OPLS-2005>
65.228141784668

> <r_mmod_Bend_Energy-OPLS-2005>
147.444290161133

> <r_mmod_Torsional_Energy-OPLS-2005>
305.305145263672

> <r_mmod_Improper_Torsional_Energy-OPLS-2005>
5.51442766189575

> <r_mmod_Van_der_Waal_Energy-OPLS-2005>
145.615219116211

> <r_mmod_Electrostatic_Energy-OPLS-2005>
-406.812957763672

> <r_mmod_Solvation_Energy-OPLS-2005>
-194.327239990234

> <b_mmod_Minimization_Converged-OPLS-2005>
0

> <r_mmod_RMS_Derivative-OPLS-2005>
11.1588468551636

$$$$
84
                    3D
 Structure written by MMmdl.
160168  0  0  1  0            999 V2000
  -30.6445  -14.5324   20.5652 C   0  0  0  0  0  0
  -30.4439  -12.3420   19.4138 C   0  0  0  0  0  0
  -29.5011  -12.5204   18.2021 C   0  0  0  0  0  0
  -28.0234  -12.3626   18.6182 C   0  0  0  0  0  0
  -27.6662  -13.1987   19.8748 C   0  0  2  0  0  0
  -28.7115  -12.9621   20.9892 C   0  0  0  0  0  0
  -25.2626  -13.8131   20.5675 C   0  0  0  0  0  0
  -24.1853  -13.0430   20.9156 C   0  0  0  0  0  0
  -24.6385  -11.6889   20.8704 C   0  0  0  0  0  0
  -23.9041  -10.4286   21.0389 C   0  0  0  0  0  0
  -24.3591   -9.4204   21.9173 C   0  0  0  0  0  0
  -23.6268   -8.2241   22.0754 C   0  0  0  0  0  0
  -22.4249   -8.0272   21.3550 C   0  0  0  0  0  0
  -21.9879   -9.0246   20.4658 C   0  0  0  0  0  0
  -22.7203  -10.2126   20.3050 C   0  0  0  0  0  0
  -21.6855   -6.0723   22.5275 C   0  0  0  0  0  0
  -21.4018   -6.5626   23.8208 C   0  0  0  0  0  0
  -21.3655   -5.6784   24.9174 C   0  0  0  0  0  0
  -21.6038   -4.3047   24.7225 C   0  0  0  0  0  0
  -21.8818   -3.8136   23.4350 C   0  0  0  0  0  0
  -21.9194   -4.6952   22.3406 C   0  0  0  0  0  0
  -22.7880  -13.5253   21.1822 C   0  0  0  0  0  0
  -22.1665   -4.2142   21.0984 F   0  0  0  0  0  0
  -21.5627   -3.4527   25.7737 F   0  0  0  0  0  0
  -30.0397  -13.3120   20.4460 N   0  0  0  0  0  0
  -26.3054  -12.9281   20.3352 N   0  0  0  0  0  0
  -25.9308  -11.6450   20.5721 N   0  0  0  0  0  0
  -22.0507  -12.8268   22.0388 N   0  0  0  0  0  0
  -25.4376  -15.1841   20.4101 N   0  0  0  0  0  0
  -31.7573  -14.7768   20.0870 O   0  0  0  0  0  0
  -21.6630   -6.8858   21.4237 O   0  0  0  0  0  0
  -22.3570  -14.5561   20.6669 O   0  0  0  0  0  0
  -24.6182  -31.8649   23.2071 C   0  0  0  0  0  0
  -25.9060  -32.4810   23.8379 C   0  0  1  0  0  0
  -27.2324  -27.3943   20.1101 C   0  0  0  0  0  0
  -25.5898  -33.8611   24.2308 N   0  0  0  0  0  0
  -23.4083  -30.4878   21.5483 C   0  0  2  0  0  0
  -24.8550  -28.9462   20.1163 C   0  0  0  0  0  0
  -22.7429  -29.4643   22.4973 C   0  0  0  0  0  0
  -18.0273  -28.1378   22.8487 C   0  0  0  0  0  0
  -24.1482  -36.7305   23.2636 C   0  0  0  0  0  0
  -25.9409  -30.8195   21.3651 C   0  0  0  0  0  0
  -26.0180  -29.4509   20.7113 C   0  0  0  0  0  0
  -27.2114  -28.6861   20.6963 C   0  0  0  0  0  0
  -26.0522  -26.9146   19.5024 C   0  0  0  0  0  0
  -24.8692  -27.6800   19.5053 C   0  0  0  0  0  0
  -23.6190  -29.8185   20.1640 C   0  0  0  0  0  0
  -25.4103  -36.3105   24.0338 C   0  0  1  0  0  0
  -20.5864  -28.3671   23.1307 C   0  0  2  0  0  0
  -20.6762  -26.9401   22.5421 C   0  0  0  0  0  0
  -19.5745  -26.6382   21.5213 C   0  0  0  0  0  0
  -18.1921  -26.7924   22.1617 C   0  0  0  0  0  0
  -19.1525  -28.8841   23.2892 C   0  0  0  0  0  0
  -18.9452  -30.1445   23.8909 C   0  0  0  0  0  0
  -17.6454  -30.6586   24.0565 C   0  0  0  0  0  0
  -25.9035  -34.9472   23.5121 C   0  0  0  0  0  0
  -16.5346  -29.9086   23.6328 C   0  0  0  0  0  0
  -16.7262  -28.6502   23.0352 C   0  0  0  0  0  0
  -26.4472  -31.6604   25.0724 C   0  0  0  0  0  0
  -25.3727  -31.3737   26.1472 C   0  0  0  0  0  0
  -27.0299  -30.3036   24.6132 C   0  0  0  0  0  0
  -27.6050  -32.4330   25.7475 C   0  0  0  0  0  0
  -27.5583  -37.1796   24.8457 C   0  0  0  0  0  0
  -21.4152  -29.3034   22.3712 N   0  0  0  0  0  0
  -26.4285  -37.3795   23.9417 N   0  0  0  0  0  0
  -24.6743  -31.0726   22.0984 N   0  0  0  0  0  0
  -23.4182  -28.8193   23.3038 O   0  0  0  0  0  0
  -28.3915  -26.6347   20.0995 O   0  0  0  0  0  0
  -26.5605  -34.8929   22.4687 O   0  0  0  0  0  0
  -23.5365  -32.1412   23.7446 O   0  0  0  0  0  0
  -30.6721  -17.8682   20.5218 C   0  0  0  0  0  0
  -28.7242  -17.5531   21.6414 C   0  0  0  0  0  0
  -29.7904  -16.8911   21.0996 C   0  0  0  0  0  0
  -30.1195  -19.1235   20.7366 C   0  0  0  0  0  0
  -30.6771  -23.5984   21.4997 C   0  0  0  0  0  0
  -31.2751  -23.1887   19.1220 C   0  0  0  0  0  0
  -30.6060  -20.5422   20.4556 C   0  0  0  0  0  0
  -29.5457  -21.6936   20.2305 C   0  0  0  0  0  0
  -29.0521  -24.2472   19.5928 C   0  0  0  0  0  0
  -28.3085  -25.2517   20.5449 C   0  0  0  0  0  0
  -30.1027  -23.1754   20.1310 C   0  0  0  0  0  0
  -28.9384  -18.8989   21.4192 N   0  0  0  0  0  0
  -29.8755  -15.4590   21.1834 N   0  0  0  0  0  0
  -31.4839  -12.4707   19.1084 H   0  0  0  0  0  0
  -30.3723  -11.3255   19.8045 H   0  0  0  0  0  0
  -29.7482  -11.7978   17.4230 H   0  0  0  0  0  0
  -29.6508  -13.5071   17.7602 H   0  0  0  0  0  0
  -27.8470  -11.3046   18.8187 H   0  0  0  0  0  0
  -27.3674  -12.6282   17.7879 H   0  0  0  0  0  0
  -27.7147  -14.2478   19.5817 H   0  0  0  0  0  0
  -28.7044  -11.9139   21.2935 H   0  0  0  0  0  0
  -28.4568  -13.5166   21.8917 H   0  0  0  0  0  0
  -25.2737   -9.5686   22.4741 H   0  0  0  0  0  0
  -23.9986   -7.4634   22.7467 H   0  0  0  0  0  0
  -21.0815   -8.8751   19.8971 H   0  0  0  0  0  0
  -22.3652  -10.9652   19.6158 H   0  0  0  0  0  0
  -21.2013   -7.6134   23.9707 H   0  0  0  0  0  0
  -21.1480   -6.0517   25.9075 H   0  0  0  0  0  0
  -22.0604   -2.7602   23.2850 H   0  0  0  0  0  0
  -22.4107  -11.9936   22.4798 H   0  0  0  0  0  0
  -21.1131  -13.1323   22.2582 H   0  0  0  0  0  0
  -24.6739  -15.8423   20.5172 H   0  0  0  0  0  0
  -26.2939  -15.6206   20.0915 H   0  0  0  0  0  0
  -26.7131  -32.5505   23.1140 H   0  0  0  0  0  0
  -25.0043  -33.9770   25.0451 H   0  0  0  0  0  0
  -22.6982  -31.3054   21.4077 H   0  0  0  0  0  0
  -23.3754  -35.9626   23.3291 H   0  0  0  0  0  0
  -24.3584  -36.8930   22.2053 H   0  0  0  0  0  0
  -23.7225  -37.6502   23.6658 H   0  0  0  0  0  0
  -26.0596  -31.5857   20.5980 H   0  0  0  0  0  0
  -26.8259  -30.8712   21.9874 H   0  0  0  0  0  0
  -28.1115  -29.0757   21.1508 H   0  0  0  0  0  0
  -26.0451  -25.9478   19.0191 H   0  0  0  0  0  0
  -23.9767  -27.2887   19.0365 H   0  0  0  0  0  0
  -23.7320  -30.5930   19.4046 H   0  0  0  0  0  0
  -22.7413  -29.2418   19.8666 H   0  0  0  0  0  0
  -25.1277  -36.1960   25.0831 H   0  0  0  0  0  0
  -20.9954  -28.3245   24.1429 H   0  0  0  0  0  0
  -20.5656  -26.2281   23.3613 H   0  0  0  0  0  0
  -21.6636  -26.7438   22.1227 H   0  0  0  0  0  0
  -19.6910  -25.6294   21.1244 H   0  0  0  0  0  0
  -19.6691  -27.3192   20.6742 H   0  0  0  0  0  0
  -17.4193  -26.6674   21.4013 H   0  0  0  0  0  0
  -18.0317  -26.0064   22.9010 H   0  0  0  0  0  0
  -19.7930  -30.7252   24.2287 H   0  0  0  0  0  0
  -17.5014  -31.6268   24.5163 H   0  0  0  0  0  0
  -15.5347  -30.2994   23.7650 H   0  0  0  0  0  0
  -15.8658  -28.0827   22.7066 H   0  0  0  0  0  0
  -24.5893  -30.7089   25.7818 H   0  0  0  0  0  0
  -24.8921  -32.2901   26.4906 H   0  0  0  0  0  0
  -25.8066  -30.8917   27.0241 H   0  0  0  0  0  0
  -26.2852  -29.6807   24.1164 H   0  0  0  0  0  0
  -27.4025  -29.7275   25.4612 H   0  0  0  0  0  0
  -27.8709  -30.4345   23.9320 H   0  0  0  0  0  0
  -27.2672  -33.3618   26.2086 H   0  0  0  0  0  0
  -28.3825  -32.6915   25.0276 H   0  0  0  0  0  0
  -28.0758  -31.8440   26.5355 H   0  0  0  0  0  0
  -28.2590  -38.0106   24.7536 H   0  0  0  0  0  0
  -28.1089  -36.2642   24.6229 H   0  0  0  0  0  0
  -27.2316  -37.1392   25.8864 H   0  0  0  0  0  0
  -20.9320  -29.8735   21.6914 H   0  0  0  0  0  0
  -26.0171  -38.2867   24.1446 H   0  0  0  0  0  0
  -31.6178  -17.6799   20.0288 H   0  0  0  0  0  0
  -27.8416  -17.2086   22.1652 H   0  0  0  0  0  0
  -31.5355  -22.9935   21.7884 H   0  0  0  0  0  0
  -29.9396  -23.4975   22.2970 H   0  0  0  0  0  0
  -31.0177  -24.6346   21.4859 H   0  0  0  0  0  0
  -32.1094  -22.5646   19.4415 H   0  0  0  0  0  0
  -31.6857  -24.1923   19.0002 H   0  0  0  0  0  0
  -30.9574  -22.8413   18.1374 H   0  0  0  0  0  0
  -31.2553  -20.4926   19.5813 H   0  0  0  0  0  0
  -31.2605  -20.8240   21.2803 H   0  0  0  0  0  0
  -28.8131  -21.6676   21.0379 H   0  0  0  0  0  0
  -28.9861  -21.4556   19.3251 H   0  0  0  0  0  0
  -29.5617  -24.8917   18.8767 H   0  0  0  0  0  0
  -28.3085  -23.7433   18.9744 H   0  0  0  0  0  0
  -28.7254  -25.2464   21.5487 H   0  0  0  0  0  0
  -27.2804  -24.9159   20.6829 H   0  0  0  0  0  0
  -28.3090  -19.6321   21.7298 H   0  0  0  0  0  0
  -29.0691  -15.0318   21.6124 H   0  0  0  0  0  0
  1 25  1  0  0  0
  1 30  2  0  0  0
  1 83  1  0  0  0
  2  3  1  0  0  0
  2 25  1  0  0  0
  2 84  1  0  0  0
  2 85  1  0  0  0
  3  4  1  0  0  0
  3 86  1  0  0  0
  3 87  1  0  0  0
  4  5  1  0  0  0
  4 88  1  0  0  0
  4 89  1  0  0  0
  5  6  1  0  0  0
  5 26  1  0  0  0
  5 90  1  0  0  0
  6 25  1  0  0  0
  6 91  1  0  0  0
  6 92  1  0  0  0
  7  8  2  0  0  0
  7 26  1  0  0  0
  7 29  1  0  0  0
  8  9  1  0  0  0
  8 22  1  0  0  0
  9 10  1  0  0  0
  9 27  2  0  0  0
 10 11  2  0  0  0
 10 15  1  0  0  0
 11 12  1  0  0  0
 11 93  1  0  0  0
 12 13  2  0  0  0
 12 94  1  0  0  0
 13 14  1  0  0  0
 13 31  1  0  0  0
 14 15  2  0  0  0
 14 95  1  0  0  0
 15 96  1  0  0  0
 16 17  2  0  0  0
 16 21  1  0  0  0
 16 31  1  0  0  0
 17 18  1  0  0  0
 17 97  1  0  0  0
 18 19  2  0  0  0
 18 98  1  0  0  0
 19 20  1  0  0  0
 19 24  1  0  0  0
 20 21  2  0  0  0
 20 99  1  0  0  0
 21 23  1  0  0  0
 22 28  1  0  0  0
 22 32  2  0  0  0
 26 27  1  0  0  0
 28100  1  0  0  0
 28101  1  0  0  0
 29102  1  0  0  0
 29103  1  0  0  0
 33 34  1  0  0  0
 33 66  1  0  0  0
 33 70  2  0  0  0
 34 36  1  0  0  0
 34 59  1  0  0  0
 34104  1  0  0  0
 35 44  2  0  0  0
 35 45  1  0  0  0
 35 68  1  0  0  0
 36 56  1  0  0  0
 36105  1  0  0  0
 37 39  1  0  0  0
 37 47  1  0  0  0
 37 66  1  0  0  0
 37106  1  0  0  0
 38 43  2  0  0  0
 38 46  1  0  0  0
 38 47  1  0  0  0
 39 64  1  0  0  0
 39 67  2  0  0  0
 40 52  1  0  0  0
 40 53  2  0  0  0
 40 58  1  0  0  0
 41107  1  0  0  0
 41108  1  0  0  0
 41109  1  0  0  0
 41 48  1  0  0  0
 42 43  1  0  0  0
 42 66  1  0  0  0
 42110  1  0  0  0
 42111  1  0  0  0
 43 44  1  0  0  0
 44112  1  0  0  0
 45 46  2  0  0  0
 45113  1  0  0  0
 46114  1  0  0  0
 47115  1  0  0  0
 47116  1  0  0  0
 48 56  1  0  0  0
 48 65  1  0  0  0
 48117  1  0  0  0
 49 50  1  0  0  0
 49 53  1  0  0  0
 49 64  1  0  0  0
 49118  1  0  0  0
 50 51  1  0  0  0
 50119  1  0  0  0
 50120  1  0  0  0
 51 52  1  0  0  0
 51121  1  0  0  0
 51122  1  0  0  0
 52123  1  0  0  0
 52124  1  0  0  0
 53 54  1  0  0  0
 54 55  2  0  0  0
 54125  1  0  0  0
 55 57  1  0  0  0
 55126  1  0  0  0
 56 69  2  0  0  0
 57 58  2  0  0  0
 57127  1  0  0  0
 58128  1  0  0  0
 59 60  1  0  0  0
 59 61  1  0  0  0
 59 62  1  0  0  0
 60129  1  0  0  0
 60130  1  0  0  0
 60131  1  0  0  0
 61132  1  0  0  0
 61133  1  0  0  0
 61134  1  0  0  0
 62135  1  0  0  0
 62136  1  0  0  0
 62137  1  0  0  0
 63 65  1  0  0  0
 63138  1  0  0  0
 63139  1  0  0  0
 63140  1  0  0  0
 64141  1  0  0  0
 65142  1  0  0  0
 68 80  1  0  0  0
 71 73  1  0  0  0
 71 74  2  0  0  0
 71143  1  0  0  0
 72 73  2  0  0  0
 72 82  1  0  0  0
 72144  1  0  0  0
 73 83  1  0  0  0
 74 77  1  0  0  0
 74 82  1  0  0  0
 75145  1  0  0  0
 75146  1  0  0  0
 75147  1  0  0  0
 75 81  1  0  0  0
 76 81  1  0  0  0
 76148  1  0  0  0
 76149  1  0  0  0
 76150  1  0  0  0
 77 78  1  0  0  0
 77151  1  0  0  0
 77152  1  0  0  0
 78 81  1  0  0  0
 78153  1  0  0  0
 78154  1  0  0  0
 79 80  1  0  0  0
 79 81  1  0  0  0
 79155  1  0  0  0
 79156  1  0  0  0
 80157  1  0  0  0
 80158  1  0  0  0
 82159  1  0  0  0
 83160  1  0  0  0
M  ISO  4   1 100  68 101  80 101  83 100
M  END
> <chiral flag>
0

> <version>
0

> <s_m_source_file>
/data/baiqing/PycharmProjects/Reinvent-master-3.2/result/LINK_invent/BTK/process_docking_weight1_custom_product_contain_oxygen_bond_distance_aromatic_linkinvent_7_9_3/rearranged_h_0137.sdf

> <i_m_source_file_index>
85

> <r_mmod_Potential_Energy-OPLS-2005>
53.7040977478027

> <r_mmod_Stretch_Energy-OPLS-2005>
54.7980995178223

> <r_mmod_Bend_Energy-OPLS-2005>
144.16242980957

> <r_mmod_Torsional_Energy-OPLS-2005>
259.037017822266

> <r_mmod_Improper_Torsional_Energy-OPLS-2005>
3.41431403160095

> <r_mmod_Van_der_Waal_Energy-OPLS-2005>
133.073333740234

> <r_mmod_Electrostatic_Energy-OPLS-2005>
-350.957550048828

> <r_mmod_Solvation_Energy-OPLS-2005>
-209.810638427734

> <b_mmod_Minimization_Converged-OPLS-2005>
0

> <r_mmod_RMS_Derivative-OPLS-2005>
1.40435910224915

$$$$
85
                    3D
 Structure written by MMmdl.
159167  0  0  1  0            999 V2000
  -30.6598  -14.5047   20.5394 C   0  0  0  0  0  0
  -30.4366  -12.3048   19.4357 C   0  0  0  0  0  0
  -29.5031  -12.4545   18.2134 C   0  0  0  0  0  0
  -28.0176  -12.3510   18.6181 C   0  0  0  0  0  0
  -27.6624  -13.1978   19.8709 C   0  0  2  0  0  0
  -28.7031  -12.9784   20.9918 C   0  0  0  0  0  0
  -25.2594  -13.8140   20.5622 C   0  0  0  0  0  0
  -24.1838  -13.0439   20.9152 C   0  0  0  0  0  0
  -24.6387  -11.6902   20.8737 C   0  0  0  0  0  0
  -23.9048  -10.4298   21.0420 C   0  0  0  0  0  0
  -24.3608   -9.4209   21.9196 C   0  0  0  0  0  0
  -23.6284   -8.2244   22.0766 C   0  0  0  0  0  0
  -22.4262   -8.0285   21.3555 C   0  0  0  0  0  0
  -21.9896   -9.0256   20.4655 C   0  0  0  0  0  0
  -22.7223  -10.2138   20.3064 C   0  0  0  0  0  0
  -21.6853   -6.0736   22.5284 C   0  0  0  0  0  0
  -21.4018   -6.5645   23.8221 C   0  0  0  0  0  0
  -21.3658   -5.6792   24.9179 C   0  0  0  0  0  0
  -21.6041   -4.3055   24.7231 C   0  0  0  0  0  0
  -21.8820   -3.8148   23.4354 C   0  0  0  0  0  0
  -21.9194   -4.6964   22.3406 C   0  0  0  0  0  0
  -22.7872  -13.5257   21.1821 C   0  0  0  0  0  0
  -22.1661   -4.2153   21.0983 F   0  0  0  0  0  0
  -21.5618   -3.4536   25.7743 F   0  0  0  0  0  0
  -30.0338  -13.2979   20.4429 N   0  0  0  0  0  0
  -26.3029  -12.9295   20.3336 N   0  0  0  0  0  0
  -25.9310  -11.6472   20.5780 N   0  0  0  0  0  0
  -22.0491  -12.8272   22.0384 N   0  0  0  0  0  0
  -25.4302  -15.1858   20.3985 N   0  0  0  0  0  0
  -31.7933  -14.7159   20.0971 O   0  0  0  0  0  0
  -21.6630   -6.8876   21.4250 O   0  0  0  0  0  0
  -22.3574  -14.5560   20.6658 O   0  0  0  0  0  0
  -24.6150  -31.8669   23.2098 C   0  0  0  0  0  0
  -25.9039  -32.4820   23.8401 C   0  0  1  0  0  0
  -27.2483  -27.4343   20.0802 C   0  0  0  0  0  0
  -25.5883  -33.8618   24.2327 N   0  0  0  0  0  0
  -23.4040  -30.4898   21.5492 C   0  0  2  0  0  0
  -24.8520  -28.9561   20.1127 C   0  0  0  0  0  0
  -22.7411  -29.4647   22.4978 C   0  0  0  0  0  0
  -18.0273  -28.1365   22.8498 C   0  0  0  0  0  0
  -24.1482  -36.7318   23.2641 C   0  0  0  0  0  0
  -25.9332  -30.8307   21.3644 C   0  0  0  0  0  0
  -26.0107  -29.4651   20.7096 C   0  0  0  0  0  0
  -27.2048  -28.7077   20.6978 C   0  0  0  0  0  0
  -26.0602  -26.9337   19.4953 C   0  0  0  0  0  0
  -24.8707  -27.6881   19.5077 C   0  0  0  0  0  0
  -23.6136  -29.8229   20.1635 C   0  0  0  0  0  0
  -25.4103  -36.3111   24.0342 C   0  0  1  0  0  0
  -20.5865  -28.3654   23.1311 C   0  0  2  0  0  0
  -20.6759  -26.9388   22.5411 C   0  0  0  0  0  0
  -19.5735  -26.6374   21.5208 C   0  0  0  0  0  0
  -18.1918  -26.7911   22.1627 C   0  0  0  0  0  0
  -19.1523  -28.8827   23.2903 C   0  0  0  0  0  0
  -18.9455  -30.1431   23.8918 C   0  0  0  0  0  0
  -17.6458  -30.6575   24.0562 C   0  0  0  0  0  0
  -25.9029  -34.9475   23.5134 C   0  0  0  0  0  0
  -16.5347  -29.9080   23.6316 C   0  0  0  0  0  0
  -16.7265  -28.6489   23.0356 C   0  0  0  0  0  0
  -26.4467  -31.6605   25.0731 C   0  0  0  0  0  0
  -25.3743  -31.3726   26.1490 C   0  0  0  0  0  0
  -27.0293  -30.3047   24.6109 C   0  0  0  0  0  0
  -27.6043  -32.4329   25.7487 C   0  0  0  0  0  0
  -27.5577  -37.1813   24.8464 C   0  0  0  0  0  0
  -21.4141  -29.3025   22.3718 N   0  0  0  0  0  0
  -26.4290  -37.3793   23.9407 N   0  0  0  0  0  0
  -24.6688  -31.0765   22.0999 N   0  0  0  0  0  0
  -23.4179  -28.8188   23.3023 O   0  0  0  0  0  0
  -28.4351  -26.7228   20.1312 O   0  0  0  0  0  0
  -26.5596  -34.8923   22.4699 O   0  0  0  0  0  0
  -23.5340  -32.1418   23.7487 O   0  0  0  0  0  0
  -29.9043  -19.1845   21.6794 C   0  0  0  0  0  0
  -30.1269  -17.7930   21.8155 C   0  0  0  0  0  0
  -29.1685  -18.8273   19.4010 C   0  0  0  0  0  0
  -29.3905  -17.4334   19.5187 C   0  0  0  0  0  0
  -29.3991  -19.7148   20.4699 C   0  0  0  0  0  0
  -29.8721  -16.8926   20.7524 C   0  0  0  0  0  0
  -29.1122  -16.6330   18.2971 C   0  0  0  0  0  0
  -29.4332  -22.2050   20.8913 C   0  0  0  0  0  0
  -27.7406  -16.8163   17.6579 C   0  0  0  0  0  0
  -28.6837  -23.5083   20.5407 C   0  0  0  0  0  0
  -29.5396  -24.5357   19.7606 C   0  0  0  0  0  0
  -28.7435  -25.7185   19.1533 C   0  0  0  0  0  0
  -29.0128  -21.0801   20.2801 N   0  0  0  0  0  0
  -29.8923  -15.4874   21.0580 N   0  0  0  0  0  0
  -29.9233  -15.8677   17.7783 O   0  0  0  0  0  0
  -30.3748  -22.2389   21.6865 O   0  0  0  0  0  0
  -31.4787  -12.4226   19.1320 H   0  0  0  0  0  0
  -30.3601  -11.2995   19.8547 H   0  0  0  0  0  0
  -29.7357  -11.6864   17.4737 H   0  0  0  0  0  0
  -29.6876  -13.4037   17.7175 H   0  0  0  0  0  0
  -27.8053  -11.2989   18.8103 H   0  0  0  0  0  0
  -27.3810  -12.6359   17.7795 H   0  0  0  0  0  0
  -27.7032  -14.2436   19.5709 H   0  0  0  0  0  0
  -28.6842  -11.9395   21.3242 H   0  0  0  0  0  0
  -28.4587  -13.5666   21.8775 H   0  0  0  0  0  0
  -25.2767   -9.5679   22.4752 H   0  0  0  0  0  0
  -23.9998   -7.4636   22.7485 H   0  0  0  0  0  0
  -21.0829   -8.8779   19.8958 H   0  0  0  0  0  0
  -22.3700  -10.9671   19.6160 H   0  0  0  0  0  0
  -21.2016   -7.6153   23.9728 H   0  0  0  0  0  0
  -21.1469   -6.0521   25.9080 H   0  0  0  0  0  0
  -22.0595   -2.7608   23.2854 H   0  0  0  0  0  0
  -22.4078  -11.9924   22.4771 H   0  0  0  0  0  0
  -21.1115  -13.1331   22.2570 H   0  0  0  0  0  0
  -24.6576  -15.8362   20.4900 H   0  0  0  0  0  0
  -26.2862  -15.6296   20.0970 H   0  0  0  0  0  0
  -26.7111  -32.5534   23.1169 H   0  0  0  0  0  0
  -25.0027  -33.9778   25.0466 H   0  0  0  0  0  0
  -22.6936  -31.3072   21.4098 H   0  0  0  0  0  0
  -23.3729  -35.9667   23.3320 H   0  0  0  0  0  0
  -24.3570  -36.8914   22.2050 H   0  0  0  0  0  0
  -23.7246  -37.6536   23.6639 H   0  0  0  0  0  0
  -26.0475  -31.5987   20.5975 H   0  0  0  0  0  0
  -26.8202  -30.8831   21.9844 H   0  0  0  0  0  0
  -28.0988  -29.0991   21.1638 H   0  0  0  0  0  0
  -26.0098  -25.9531   19.0495 H   0  0  0  0  0  0
  -23.9755  -27.2821   19.0575 H   0  0  0  0  0  0
  -23.7235  -30.5992   19.4054 H   0  0  0  0  0  0
  -22.7379  -29.2440   19.8652 H   0  0  0  0  0  0
  -25.1274  -36.1987   25.0835 H   0  0  0  0  0  0
  -20.9962  -28.3218   24.1429 H   0  0  0  0  0  0
  -20.5644  -26.2267   23.3601 H   0  0  0  0  0  0
  -21.6633  -26.7412   22.1215 H   0  0  0  0  0  0
  -19.6895  -25.6289   21.1221 H   0  0  0  0  0  0
  -19.6668  -27.3194   20.6746 H   0  0  0  0  0  0
  -17.4183  -26.6665   21.4034 H   0  0  0  0  0  0
  -18.0321  -26.0045   22.9014 H   0  0  0  0  0  0
  -19.7933  -30.7236   24.2307 H   0  0  0  0  0  0
  -17.5015  -31.6259   24.5155 H   0  0  0  0  0  0
  -15.5351  -30.2996   23.7616 H   0  0  0  0  0  0
  -15.8665  -28.0805   22.7076 H   0  0  0  0  0  0
  -24.5886  -30.7105   25.7836 H   0  0  0  0  0  0
  -24.8980  -32.2896   26.4975 H   0  0  0  0  0  0
  -25.8105  -30.8862   27.0223 H   0  0  0  0  0  0
  -26.2838  -29.6815   24.1157 H   0  0  0  0  0  0
  -27.4053  -29.7281   25.4567 H   0  0  0  0  0  0
  -27.8676  -30.4361   23.9266 H   0  0  0  0  0  0
  -27.2658  -33.3620   26.2089 H   0  0  0  0  0  0
  -28.3842  -32.6906   25.0307 H   0  0  0  0  0  0
  -28.0721  -31.8441   26.5386 H   0  0  0  0  0  0
  -28.2607  -38.0099   24.7489 H   0  0  0  0  0  0
  -28.1056  -36.2627   24.6303 H   0  0  0  0  0  0
  -27.2291  -37.1485   25.8868 H   0  0  0  0  0  0
  -20.9299  -29.8777   21.6967 H   0  0  0  0  0  0
  -26.0179  -38.2874   24.1397 H   0  0  0  0  0  0
  -30.0774  -19.8238   22.5334 H   0  0  0  0  0  0
  -30.4579  -17.4161   22.7730 H   0  0  0  0  0  0
  -28.7938  -19.2259   18.4679 H   0  0  0  0  0  0
  -27.0402  -17.2620   18.3633 H   0  0  0  0  0  0
  -27.3392  -15.8553   17.3396 H   0  0  0  0  0  0
  -27.8171  -17.4658   16.7865 H   0  0  0  0  0  0
  -28.3276  -23.9609   21.4671 H   0  0  0  0  0  0
  -27.7900  -23.2635   19.9653 H   0  0  0  0  0  0
  -30.0326  -24.0133   18.9391 H   0  0  0  0  0  0
  -30.3430  -24.9155   20.3930 H   0  0  0  0  0  0
  -27.8977  -25.3273   18.5957 H   0  0  0  0  0  0
  -29.3715  -26.2078   18.4076 H   0  0  0  0  0  0
  -28.3153  -21.2343   19.5647 H   0  0  0  0  0  0
  -29.0666  -15.1437   21.5258 H   0  0  0  0  0  0
  1 25  1  0  0  0
  1 30  2  0  0  0
  1 84  1  0  0  0
  2  3  1  0  0  0
  2 25  1  0  0  0
  2 87  1  0  0  0
  2 88  1  0  0  0
  3  4  1  0  0  0
  3 89  1  0  0  0
  3 90  1  0  0  0
  4  5  1  0  0  0
  4 91  1  0  0  0
  4 92  1  0  0  0
  5  6  1  0  0  0
  5 26  1  0  0  0
  5 93  1  0  0  0
  6 25  1  0  0  0
  6 94  1  0  0  0
  6 95  1  0  0  0
  7  8  2  0  0  0
  7 26  1  0  0  0
  7 29  1  0  0  0
  8  9  1  0  0  0
  8 22  1  0  0  0
  9 10  1  0  0  0
  9 27  2  0  0  0
 10 11  2  0  0  0
 10 15  1  0  0  0
 11 12  1  0  0  0
 11 96  1  0  0  0
 12 13  2  0  0  0
 12 97  1  0  0  0
 13 14  1  0  0  0
 13 31  1  0  0  0
 14 15  2  0  0  0
 14 98  1  0  0  0
 15 99  1  0  0  0
 16 17  2  0  0  0
 16 21  1  0  0  0
 16 31  1  0  0  0
 17 18  1  0  0  0
 17100  1  0  0  0
 18 19  2  0  0  0
 18101  1  0  0  0
 19 20  1  0  0  0
 19 24  1  0  0  0
 20 21  2  0  0  0
 20102  1  0  0  0
 21 23  1  0  0  0
 22 28  1  0  0  0
 22 32  2  0  0  0
 26 27  1  0  0  0
 28103  1  0  0  0
 28104  1  0  0  0
 29105  1  0  0  0
 29106  1  0  0  0
 33 34  1  0  0  0
 33 66  1  0  0  0
 33 70  2  0  0  0
 34 36  1  0  0  0
 34 59  1  0  0  0
 34107  1  0  0  0
 35 44  2  0  0  0
 35 45  1  0  0  0
 35 68  1  0  0  0
 36 56  1  0  0  0
 36108  1  0  0  0
 37 39  1  0  0  0
 37 47  1  0  0  0
 37 66  1  0  0  0
 37109  1  0  0  0
 38 43  2  0  0  0
 38 46  1  0  0  0
 38 47  1  0  0  0
 39 64  1  0  0  0
 39 67  2  0  0  0
 40 52  1  0  0  0
 40 53  2  0  0  0
 40 58  1  0  0  0
 41110  1  0  0  0
 41111  1  0  0  0
 41112  1  0  0  0
 41 48  1  0  0  0
 42 43  1  0  0  0
 42 66  1  0  0  0
 42113  1  0  0  0
 42114  1  0  0  0
 43 44  1  0  0  0
 44115  1  0  0  0
 45 46  2  0  0  0
 45116  1  0  0  0
 46117  1  0  0  0
 47118  1  0  0  0
 47119  1  0  0  0
 48 56  1  0  0  0
 48 65  1  0  0  0
 48120  1  0  0  0
 49 50  1  0  0  0
 49 53  1  0  0  0
 49 64  1  0  0  0
 49121  1  0  0  0
 50 51  1  0  0  0
 50122  1  0  0  0
 50123  1  0  0  0
 51 52  1  0  0  0
 51124  1  0  0  0
 51125  1  0  0  0
 52126  1  0  0  0
 52127  1  0  0  0
 53 54  1  0  0  0
 54 55  2  0  0  0
 54128  1  0  0  0
 55 57  1  0  0  0
 55129  1  0  0  0
 56 69  2  0  0  0
 57 58  2  0  0  0
 57130  1  0  0  0
 58131  1  0  0  0
 59 60  1  0  0  0
 59 61  1  0  0  0
 59 62  1  0  0  0
 60132  1  0  0  0
 60133  1  0  0  0
 60134  1  0  0  0
 61135  1  0  0  0
 61136  1  0  0  0
 61137  1  0  0  0
 62138  1  0  0  0
 62139  1  0  0  0
 62140  1  0  0  0
 63 65  1  0  0  0
 63141  1  0  0  0
 63142  1  0  0  0
 63143  1  0  0  0
 64144  1  0  0  0
 65145  1  0  0  0
 68 82  1  0  0  0
 71 72  2  0  0  0
 71 75  1  0  0  0
 71146  1  0  0  0
 72 76  1  0  0  0
 72147  1  0  0  0
 73 74  1  0  0  0
 73 75  2  0  0  0
 73148  1  0  0  0
 74 76  2  0  0  0
 74 77  1  0  0  0
 75 83  1  0  0  0
 76 84  1  0  0  0
 77 79  1  0  0  0
 77 85  2  0  0  0
 78 80  1  0  0  0
 78 83  1  0  0  0
 78 86  2  0  0  0
 79149  1  0  0  0
 79150  1  0  0  0
 79151  1  0  0  0
 80 81  1  0  0  0
 80152  1  0  0  0
 80153  1  0  0  0
 81 82  1  0  0  0
 81154  1  0  0  0
 81155  1  0  0  0
 82156  1  0  0  0
 82157  1  0  0  0
 83158  1  0  0  0
 84159  1  0  0  0
M  ISO  4   1 100  68 101  82 101  84 100
M  END
> <chiral flag>
0

> <version>
0

> <s_m_source_file>
/data/baiqing/PycharmProjects/Reinvent-master-3.2/result/LINK_invent/BTK/process_docking_weight1_custom_product_contain_oxygen_bond_distance_aromatic_linkinvent_7_9_3/rearranged_h_0137.sdf

> <i_m_source_file_index>
86

> <r_mmod_Potential_Energy-OPLS-2005>
-38.924201965332

> <r_mmod_Stretch_Energy-OPLS-2005>
41.3108444213867

> <r_mmod_Bend_Energy-OPLS-2005>
119.286964416504

> <r_mmod_Torsional_Energy-OPLS-2005>
304.242431640625

> <r_mmod_Improper_Torsional_Energy-OPLS-2005>
5.34700298309326

> <r_mmod_Van_der_Waal_Energy-OPLS-2005>
142.543899536133

> <r_mmod_Electrostatic_Energy-OPLS-2005>
-406.675170898438

> <r_mmod_Solvation_Energy-OPLS-2005>
-261.433959960938

> <b_mmod_Minimization_Converged-OPLS-2005>
0

> <r_mmod_RMS_Derivative-OPLS-2005>
1.3572678565979

$$$$
86
                    3D
 Structure written by MMmdl.
161169  0  0  1  0            999 V2000
  -30.6708  -14.5727   20.6219 C   0  0  0  0  0  0
  -30.4325  -12.3911   19.4335 C   0  0  0  0  0  0
  -29.4987  -12.5479   18.2155 C   0  0  0  0  0  0
  -28.0236  -12.3710   18.6241 C   0  0  0  0  0  0
  -27.6593  -13.2136   19.8742 C   0  0  2  0  0  0
  -28.6994  -13.0176   20.9989 C   0  0  0  0  0  0
  -25.2594  -13.8168   20.5669 C   0  0  0  0  0  0
  -24.1851  -13.0431   20.9149 C   0  0  0  0  0  0
  -24.6405  -11.6899   20.8713 C   0  0  0  0  0  0
  -23.9077  -10.4285   21.0380 C   0  0  0  0  0  0
  -24.3629   -9.4205   21.9169 C   0  0  0  0  0  0
  -23.6303   -8.2239   22.0747 C   0  0  0  0  0  0
  -22.4292   -8.0275   21.3537 C   0  0  0  0  0  0
  -21.9922   -9.0246   20.4637 C   0  0  0  0  0  0
  -22.7236  -10.2127   20.3036 C   0  0  0  0  0  0
  -21.6855   -6.0730   22.5282 C   0  0  0  0  0  0
  -21.4000   -6.5638   23.8210 C   0  0  0  0  0  0
  -21.3673   -5.6797   24.9177 C   0  0  0  0  0  0
  -21.6043   -4.3054   24.7218 C   0  0  0  0  0  0
  -21.8834   -3.8146   23.4348 C   0  0  0  0  0  0
  -21.9184   -4.6961   22.3401 C   0  0  0  0  0  0
  -22.7875  -13.5222   21.1826 C   0  0  0  0  0  0
  -22.1662   -4.2156   21.0975 F   0  0  0  0  0  0
  -21.5636   -3.4538   25.7729 F   0  0  0  0  0  0
  -30.0238  -13.3741   20.4601 N   0  0  0  0  0  0
  -26.3021  -12.9339   20.3346 N   0  0  0  0  0  0
  -25.9332  -11.6494   20.5746 N   0  0  0  0  0  0
  -22.0532  -12.8221   22.0404 N   0  0  0  0  0  0
  -25.4338  -15.1883   20.4111 N   0  0  0  0  0  0
  -31.7287  -14.8038   20.0247 O   0  0  0  0  0  0
  -21.6644   -6.8878   21.4250 O   0  0  0  0  0  0
  -22.3553  -14.5519   20.6665 O   0  0  0  0  0  0
  -24.6247  -31.8593   23.2017 C   0  0  0  0  0  0
  -25.9093  -32.4782   23.8350 C   0  0  1  0  0  0
  -27.2400  -27.3420   20.1013 C   0  0  0  0  0  0
  -25.5930  -33.8593   24.2292 N   0  0  0  0  0  0
  -23.4199  -30.4804   21.5431 C   0  0  2  0  0  0
  -24.8697  -28.9370   20.1048 C   0  0  0  0  0  0
  -22.7461  -29.4609   22.4929 C   0  0  0  0  0  0
  -18.0291  -28.1365   22.8479 C   0  0  0  0  0  0
  -24.1475  -36.7271   23.2644 C   0  0  0  0  0  0
  -25.9574  -30.7900   21.3781 C   0  0  0  0  0  0
  -26.0313  -29.4197   20.7184 C   0  0  0  0  0  0
  -27.2114  -28.6245   20.7259 C   0  0  0  0  0  0
  -26.0611  -26.9071   19.4613 C   0  0  0  0  0  0
  -24.8827  -27.6808   19.4729 C   0  0  0  0  0  0
  -23.6349  -29.8127   20.1584 C   0  0  0  0  0  0
  -25.4114  -36.3083   24.0331 C   0  0  1  0  0  0
  -20.5877  -28.3682   23.1268 C   0  0  2  0  0  0
  -20.6777  -26.9412   22.5410 C   0  0  0  0  0  0
  -19.5761  -26.6378   21.5208 C   0  0  0  0  0  0
  -18.1936  -26.7916   22.1613 C   0  0  0  0  0  0
  -19.1535  -28.8844   23.2860 C   0  0  0  0  0  0
  -18.9470  -30.1447   23.8886 C   0  0  0  0  0  0
  -17.6478  -30.6580   24.0556 C   0  0  0  0  0  0
  -25.9047  -34.9458   23.5101 C   0  0  0  0  0  0
  -16.5361  -29.9081   23.6323 C   0  0  0  0  0  0
  -16.7278  -28.6486   23.0368 C   0  0  0  0  0  0
  -26.4488  -31.6588   25.0710 C   0  0  0  0  0  0
  -25.3737  -31.3719   26.1448 C   0  0  0  0  0  0
  -27.0355  -30.3019   24.6166 C   0  0  0  0  0  0
  -27.6055  -32.4338   25.7470 C   0  0  0  0  0  0
  -27.5576  -37.1795   24.8466 C   0  0  0  0  0  0
  -21.4177  -29.3017   22.3652 N   0  0  0  0  0  0
  -26.4288  -37.3787   23.9404 N   0  0  0  0  0  0
  -24.6853  -31.0593   22.0979 N   0  0  0  0  0  0
  -23.4178  -28.8182   23.3037 O   0  0  0  0  0  0
  -28.3594  -26.5086   20.2138 O   0  0  0  0  0  0
  -26.5616  -34.8924   22.4663 O   0  0  0  0  0  0
  -23.5417  -32.1386   23.7358 O   0  0  0  0  0  0
  -29.6994  -18.5968   18.1438 C   0  0  0  0  0  0
  -29.7316  -17.5927   19.1279 C   0  0  0  0  0  0
  -29.8059  -19.9595   18.4905 C   0  0  0  0  0  0
  -29.9390  -19.3337   20.8223 C   0  0  0  0  0  0
  -29.8461  -17.9336   20.4879 C   0  0  0  0  0  0
  -29.9189  -20.3799   19.8338 C   0  0  0  0  0  0
  -29.8338  -16.8620   21.5448 C   0  0  0  0  0  0
  -30.0965  -15.5127   21.6086 C   0  0  0  0  0  0
  -27.1771  -23.5839   18.9119 C   0  0  0  0  0  0
  -29.3983  -23.6182   17.8136 C   0  0  0  0  0  0
  -30.2717  -21.8821   20.1487 C   0  0  0  0  0  0
  -29.2196  -23.0886   20.3189 C   0  0  0  0  0  0
  -28.7767  -25.5940   19.1530 C   0  0  0  0  0  0
  -28.6504  -23.9830   19.1137 C   0  0  0  0  0  0
  -31.4711  -12.5194   19.1242 H   0  0  0  0  0  0
  -30.3729  -11.3782   19.8328 H   0  0  0  0  0  0
  -29.7645  -11.8318   17.4369 H   0  0  0  0  0  0
  -29.6414  -13.5379   17.7792 H   0  0  0  0  0  0
  -27.8556  -11.3134   18.8242 H   0  0  0  0  0  0
  -27.3680  -12.6295   17.7903 H   0  0  0  0  0  0
  -27.6976  -14.2610   19.5737 H   0  0  0  0  0  0
  -28.7081  -11.9805   21.3351 H   0  0  0  0  0  0
  -28.4174  -13.6013   21.8725 H   0  0  0  0  0  0
  -25.2775   -9.5687   22.4748 H   0  0  0  0  0  0
  -24.0008   -7.4642   22.7477 H   0  0  0  0  0  0
  -21.0843   -8.8751   19.8965 H   0  0  0  0  0  0
  -22.3674  -10.9662   19.6152 H   0  0  0  0  0  0
  -21.2000   -7.6149   23.9715 H   0  0  0  0  0  0
  -21.1484   -6.0522   25.9080 H   0  0  0  0  0  0
  -22.0603   -2.7609   23.2836 H   0  0  0  0  0  0
  -22.4111  -11.9847   22.4758 H   0  0  0  0  0  0
  -21.1164  -13.1261   22.2618 H   0  0  0  0  0  0
  -24.6752  -15.8513   20.5264 H   0  0  0  0  0  0
  -26.3048  -15.6259   20.1394 H   0  0  0  0  0  0
  -26.7174  -32.5442   23.1117 H   0  0  0  0  0  0
  -25.0124  -33.9753   25.0472 H   0  0  0  0  0  0
  -22.7137  -31.3003   21.3972 H   0  0  0  0  0  0
  -23.3755  -35.9584   23.3319 H   0  0  0  0  0  0
  -24.3577  -36.8888   22.2058 H   0  0  0  0  0  0
  -23.7213  -37.6477   23.6646 H   0  0  0  0  0  0
  -26.0926  -31.5585   20.6164 H   0  0  0  0  0  0
  -26.8372  -30.8331   22.0079 H   0  0  0  0  0  0
  -28.0956  -28.9830   21.2365 H   0  0  0  0  0  0
  -26.0229  -25.9441   18.9817 H   0  0  0  0  0  0
  -23.9901  -27.2991   18.9947 H   0  0  0  0  0  0
  -23.7444  -30.5861   19.3980 H   0  0  0  0  0  0
  -22.7572  -29.2342   19.8629 H   0  0  0  0  0  0
  -25.1299  -36.1949   25.0830 H   0  0  0  0  0  0
  -20.9969  -28.3267   24.1382 H   0  0  0  0  0  0
  -20.5670  -26.2306   23.3615 H   0  0  0  0  0  0
  -21.6656  -26.7436   22.1212 H   0  0  0  0  0  0
  -19.6926  -25.6287   21.1244 H   0  0  0  0  0  0
  -19.6699  -27.3186   20.6732 H   0  0  0  0  0  0
  -17.4211  -26.6669   21.4004 H   0  0  0  0  0  0
  -18.0321  -26.0049   22.8994 H   0  0  0  0  0  0
  -19.7955  -30.7242   24.2262 H   0  0  0  0  0  0
  -17.5037  -31.6262   24.5157 H   0  0  0  0  0  0
  -15.5365  -30.2994   23.7631 H   0  0  0  0  0  0
  -15.8668  -28.0791   22.7115 H   0  0  0  0  0  0
  -24.5919  -30.7054   25.7780 H   0  0  0  0  0  0
  -24.8897  -32.2873   26.4851 H   0  0  0  0  0  0
  -25.8070  -30.8923   27.0231 H   0  0  0  0  0  0
  -26.2935  -29.6753   24.1197 H   0  0  0  0  0  0
  -27.4087  -29.7279   25.4657 H   0  0  0  0  0  0
  -27.8773  -30.4318   23.9368 H   0  0  0  0  0  0
  -27.2674  -33.3661   26.2004 H   0  0  0  0  0  0
  -28.3862  -32.6891   25.0288 H   0  0  0  0  0  0
  -28.0704  -31.8490   26.5415 H   0  0  0  0  0  0
  -28.2606  -38.0084   24.7533 H   0  0  0  0  0  0
  -28.1068  -36.2624   24.6271 H   0  0  0  0  0  0
  -27.2280  -37.1419   25.8867 H   0  0  0  0  0  0
  -20.9369  -29.8743   21.6858 H   0  0  0  0  0  0
  -26.0163  -38.2852   24.1451 H   0  0  0  0  0  0
  -29.6202  -18.3180   17.1025 H   0  0  0  0  0  0
  -29.6470  -16.5565   18.8291 H   0  0  0  0  0  0
  -29.8656  -20.6677   17.6834 H   0  0  0  0  0  0
  -30.0735  -19.6071   21.8596 H   0  0  0  0  0  0
  -29.4751  -17.2571   22.4858 H   0  0  0  0  0  0
  -29.8961  -15.0689   22.5722 H   0  0  0  0  0  0
  -27.0692  -22.5051   18.8004 H   0  0  0  0  0  0
  -26.7548  -24.0361   18.0140 H   0  0  0  0  0  0
  -26.5689  -23.8824   19.7663 H   0  0  0  0  0  0
  -29.2419  -22.5859   17.5333 H   0  0  0  0  0  0
  -30.4703  -23.8032   17.8982 H   0  0  0  0  0  0
  -29.0455  -24.2051   16.9663 H   0  0  0  0  0  0
  -31.0529  -22.1815   19.4506 H   0  0  0  0  0  0
  -30.8089  -21.8283   21.0968 H   0  0  0  0  0  0
  -29.7353  -23.8092   20.9554 H   0  0  0  0  0  0
  -28.4011  -22.7416   20.9514 H   0  0  0  0  0  0
  -28.3611  -25.9894   18.2241 H   0  0  0  0  0  0
  -29.8405  -25.8162   19.0604 H   0  0  0  0  0  0
  1 25  1  0  0  0
  1 30  2  0  0  0
  1 78  1  0  0  0
  2  3  1  0  0  0
  2 25  1  0  0  0
  2 85  1  0  0  0
  2 86  1  0  0  0
  3  4  1  0  0  0
  3 87  1  0  0  0
  3 88  1  0  0  0
  4  5  1  0  0  0
  4 89  1  0  0  0
  4 90  1  0  0  0
  5  6  1  0  0  0
  5 26  1  0  0  0
  5 91  1  0  0  0
  6 25  1  0  0  0
  6 92  1  0  0  0
  6 93  1  0  0  0
  7  8  2  0  0  0
  7 26  1  0  0  0
  7 29  1  0  0  0
  8  9  1  0  0  0
  8 22  1  0  0  0
  9 10  1  0  0  0
  9 27  2  0  0  0
 10 11  2  0  0  0
 10 15  1  0  0  0
 11 12  1  0  0  0
 11 94  1  0  0  0
 12 13  2  0  0  0
 12 95  1  0  0  0
 13 14  1  0  0  0
 13 31  1  0  0  0
 14 15  2  0  0  0
 14 96  1  0  0  0
 15 97  1  0  0  0
 16 17  2  0  0  0
 16 21  1  0  0  0
 16 31  1  0  0  0
 17 18  1  0  0  0
 17 98  1  0  0  0
 18 19  2  0  0  0
 18 99  1  0  0  0
 19 20  1  0  0  0
 19 24  1  0  0  0
 20 21  2  0  0  0
 20100  1  0  0  0
 21 23  1  0  0  0
 22 28  1  0  0  0
 22 32  2  0  0  0
 26 27  1  0  0  0
 28101  1  0  0  0
 28102  1  0  0  0
 29103  1  0  0  0
 29104  1  0  0  0
 33 34  1  0  0  0
 33 66  1  0  0  0
 33 70  2  0  0  0
 34 36  1  0  0  0
 34 59  1  0  0  0
 34105  1  0  0  0
 35 44  2  0  0  0
 35 45  1  0  0  0
 35 68  1  0  0  0
 36 56  1  0  0  0
 36106  1  0  0  0
 37 39  1  0  0  0
 37 47  1  0  0  0
 37 66  1  0  0  0
 37107  1  0  0  0
 38 43  2  0  0  0
 38 46  1  0  0  0
 38 47  1  0  0  0
 39 64  1  0  0  0
 39 67  2  0  0  0
 40 52  1  0  0  0
 40 53  2  0  0  0
 40 58  1  0  0  0
 41108  1  0  0  0
 41109  1  0  0  0
 41110  1  0  0  0
 41 48  1  0  0  0
 42 43  1  0  0  0
 42 66  1  0  0  0
 42111  1  0  0  0
 42112  1  0  0  0
 43 44  1  0  0  0
 44113  1  0  0  0
 45 46  2  0  0  0
 45114  1  0  0  0
 46115  1  0  0  0
 47116  1  0  0  0
 47117  1  0  0  0
 48 56  1  0  0  0
 48 65  1  0  0  0
 48118  1  0  0  0
 49 50  1  0  0  0
 49 53  1  0  0  0
 49 64  1  0  0  0
 49119  1  0  0  0
 50 51  1  0  0  0
 50120  1  0  0  0
 50121  1  0  0  0
 51 52  1  0  0  0
 51122  1  0  0  0
 51123  1  0  0  0
 52124  1  0  0  0
 52125  1  0  0  0
 53 54  1  0  0  0
 54 55  2  0  0  0
 54126  1  0  0  0
 55 57  1  0  0  0
 55127  1  0  0  0
 56 69  2  0  0  0
 57 58  2  0  0  0
 57128  1  0  0  0
 58129  1  0  0  0
 59 60  1  0  0  0
 59 61  1  0  0  0
 59 62  1  0  0  0
 60130  1  0  0  0
 60131  1  0  0  0
 60132  1  0  0  0
 61133  1  0  0  0
 61134  1  0  0  0
 61135  1  0  0  0
 62136  1  0  0  0
 62137  1  0  0  0
 62138  1  0  0  0
 63 65  1  0  0  0
 63139  1  0  0  0
 63140  1  0  0  0
 63141  1  0  0  0
 64142  1  0  0  0
 65143  1  0  0  0
 68 83  1  0  0  0
 71 72  2  0  0  0
 71 73  1  0  0  0
 71144  1  0  0  0
 72 75  1  0  0  0
 72145  1  0  0  0
 73 76  2  0  0  0
 73146  1  0  0  0
 74 75  2  0  0  0
 74 76  1  0  0  0
 74147  1  0  0  0
 75 77  1  0  0  0
 76 81  1  0  0  0
 77 78  2  0  0  0
 77148  1  0  0  0
 78149  1  0  0  0
 79150  1  0  0  0
 79151  1  0  0  0
 79152  1  0  0  0
 79 84  1  0  0  0
 80 84  1  0  0  0
 80153  1  0  0  0
 80154  1  0  0  0
 80155  1  0  0  0
 81 82  1  0  0  0
 81156  1  0  0  0
 81157  1  0  0  0
 82 84  1  0  0  0
 82158  1  0  0  0
 82159  1  0  0  0
 83 84  1  0  0  0
 83160  1  0  0  0
 83161  1  0  0  0
M  ISO  4   1 100  68 101  78 100  83 101
M  END
> <chiral flag>
0

> <version>
0

> <s_m_source_file>
/data/baiqing/PycharmProjects/Reinvent-master-3.2/result/LINK_invent/BTK/process_docking_weight1_custom_product_contain_oxygen_bond_distance_aromatic_linkinvent_7_9_3/rearranged_h_0137.sdf

> <i_m_source_file_index>
87

> <r_mmod_Potential_Energy-OPLS-2005>
197.043487548828

> <r_mmod_Stretch_Energy-OPLS-2005>
83.1510925292969

> <r_mmod_Bend_Energy-OPLS-2005>
221.371459960938

> <r_mmod_Torsional_Energy-OPLS-2005>
222.391174316406

> <r_mmod_Improper_Torsional_Energy-OPLS-2005>
4.65550231933594

> <r_mmod_Van_der_Waal_Energy-OPLS-2005>
143.827575683594

> <r_mmod_Electrostatic_Energy-OPLS-2005>
-327.979461669922

> <r_mmod_Solvation_Energy-OPLS-2005>
-187.0576171875

> <b_mmod_Minimization_Converged-OPLS-2005>
0

> <r_mmod_RMS_Derivative-OPLS-2005>
3.15227937698364

$$$$
87
                    3D
 Structure written by MMmdl.
160168  0  0  1  0            999 V2000
  -30.6143  -14.6065   20.5334 C   0  0  0  0  0  0
  -30.4462  -12.3787   19.4398 C   0  0  0  0  0  0
  -29.5119  -12.5169   18.2163 C   0  0  0  0  0  0
  -28.0331  -12.3551   18.6265 C   0  0  0  0  0  0
  -27.6598  -13.2091   19.8684 C   0  0  2  0  0  0
  -28.7032  -13.0191   20.9919 C   0  0  0  0  0  0
  -25.2594  -13.8156   20.5693 C   0  0  0  0  0  0
  -24.1859  -13.0434   20.9212 C   0  0  0  0  0  0
  -24.6409  -11.6897   20.8735 C   0  0  0  0  0  0
  -23.9073  -10.4279   21.0394 C   0  0  0  0  0  0
  -24.3621   -9.4196   21.9175 C   0  0  0  0  0  0
  -23.6293   -8.2232   22.0752 C   0  0  0  0  0  0
  -22.4270   -8.0274   21.3548 C   0  0  0  0  0  0
  -21.9909   -9.0247   20.4649 C   0  0  0  0  0  0
  -22.7241  -10.2120   20.3049 C   0  0  0  0  0  0
  -21.6843   -6.0747   22.5292 C   0  0  0  0  0  0
  -21.4009   -6.5651   23.8227 C   0  0  0  0  0  0
  -21.3661   -5.6797   24.9185 C   0  0  0  0  0  0
  -21.6046   -4.3061   24.7228 C   0  0  0  0  0  0
  -21.8819   -3.8155   23.4346 C   0  0  0  0  0  0
  -21.9194   -4.6976   22.3406 C   0  0  0  0  0  0
  -22.7875  -13.5223   21.1881 C   0  0  0  0  0  0
  -22.1660   -4.2169   21.0979 F   0  0  0  0  0  0
  -21.5625   -3.4542   25.7730 F   0  0  0  0  0  0
  -30.0234  -13.3747   20.4413 N   0  0  0  0  0  0
  -26.3024  -12.9328   20.3324 N   0  0  0  0  0  0
  -25.9340  -11.6492   20.5753 N   0  0  0  0  0  0
  -22.0495  -12.8224   22.0419 N   0  0  0  0  0  0
  -25.4298  -15.1877   20.4119 N   0  0  0  0  0  0
  -31.7594  -14.8154   20.1174 O   0  0  0  0  0  0
  -21.6630   -6.8877   21.4245 O   0  0  0  0  0  0
  -22.3571  -14.5538   20.6730 O   0  0  0  0  0  0
  -24.6241  -31.8630   23.2039 C   0  0  0  0  0  0
  -25.9094  -32.4807   23.8351 C   0  0  1  0  0  0
  -27.2210  -27.3512   20.1046 C   0  0  0  0  0  0
  -25.5925  -33.8599   24.2294 N   0  0  0  0  0  0
  -23.4138  -30.4901   21.5470 C   0  0  2  0  0  0
  -24.8568  -28.9492   20.1127 C   0  0  0  0  0  0
  -22.7458  -29.4651   22.4940 C   0  0  0  0  0  0
  -18.0293  -28.1385   22.8516 C   0  0  0  0  0  0
  -24.1488  -36.7291   23.2635 C   0  0  0  0  0  0
  -25.9522  -30.8067   21.3667 C   0  0  0  0  0  0
  -26.0260  -29.4356   20.7106 C   0  0  0  0  0  0
  -27.2119  -28.6485   20.6966 C   0  0  0  0  0  0
  -26.0233  -26.9057   19.4950 C   0  0  0  0  0  0
  -24.8550  -27.6882   19.4985 C   0  0  0  0  0  0
  -23.6259  -29.8285   20.1612 C   0  0  0  0  0  0
  -25.4108  -36.3097   24.0338 C   0  0  1  0  0  0
  -20.5890  -28.3687   23.1296 C   0  0  2  0  0  0
  -20.6786  -26.9414   22.5418 C   0  0  0  0  0  0
  -19.5753  -26.6390   21.5229 C   0  0  0  0  0  0
  -18.1932  -26.7936   22.1639 C   0  0  0  0  0  0
  -19.1545  -28.8851   23.2910 C   0  0  0  0  0  0
  -18.9470  -30.1457   23.8924 C   0  0  0  0  0  0
  -17.6471  -30.6592   24.0578 C   0  0  0  0  0  0
  -25.9052  -34.9471   23.5118 C   0  0  0  0  0  0
  -16.5362  -29.9100   23.6329 C   0  0  0  0  0  0
  -16.7285  -28.6510   23.0364 C   0  0  0  0  0  0
  -26.4488  -31.6601   25.0705 C   0  0  0  0  0  0
  -25.3737  -31.3732   26.1447 C   0  0  0  0  0  0
  -27.0318  -30.3043   24.6096 C   0  0  0  0  0  0
  -27.6051  -32.4325   25.7471 C   0  0  0  0  0  0
  -27.5583  -37.1797   24.8473 C   0  0  0  0  0  0
  -21.4176  -29.3049   22.3691 N   0  0  0  0  0  0
  -26.4289  -37.3793   23.9427 N   0  0  0  0  0  0
  -24.6826  -31.0684   22.0965 N   0  0  0  0  0  0
  -23.4212  -28.8175   23.2987 O   0  0  0  0  0  0
  -28.3584  -26.5360   20.1387 O   0  0  0  0  0  0
  -26.5608  -34.8932   22.4679 O   0  0  0  0  0  0
  -23.5416  -32.1399   23.7402 O   0  0  0  0  0  0
  -30.7362  -17.8765   20.5027 C   0  0  0  0  0  0
  -30.2108  -19.2059   20.7682 C   0  0  0  0  0  0
  -28.9683  -19.0035   21.3161 C   0  0  0  0  0  0
  -29.7938  -16.9731   20.9431 C   0  0  0  0  0  0
  -30.5596  -21.8175   20.4046 C   0  0  0  0  0  0
  -30.9712  -20.5083   20.5645 C   0  0  0  0  0  0
  -27.9067  -19.8833   21.8832 C   0  0  0  0  0  0
  -33.4212  -21.3956   20.9674 C   0  0  0  0  0  0
  -29.2203  -22.5957   20.3283 C   0  0  0  0  0  0
  -32.4839  -20.2282   20.6047 C   0  0  0  0  0  0
  -29.4203  -24.1734   20.2902 C   0  0  0  0  0  0
  -28.1629  -25.0831   20.0350 C   0  0  0  0  0  0
  -29.7872  -15.5918   20.9874 N   0  0  0  0  0  0
  -28.7115  -17.6562   21.4161 O   0  0  0  0  0  0
  -31.4866  -12.5172   19.1412 H   0  0  0  0  0  0
  -30.3876  -11.3725   19.8574 H   0  0  0  0  0  0
  -29.7743  -11.7781   17.4577 H   0  0  0  0  0  0
  -29.6592  -13.4925   17.7502 H   0  0  0  0  0  0
  -27.8663  -11.2985   18.8433 H   0  0  0  0  0  0
  -27.3812  -12.6004   17.7873 H   0  0  0  0  0  0
  -27.6908  -14.2526   19.5533 H   0  0  0  0  0  0
  -28.7081  -11.9822   21.3316 H   0  0  0  0  0  0
  -28.4478  -13.6091   21.8739 H   0  0  0  0  0  0
  -25.2760   -9.5681   22.4767 H   0  0  0  0  0  0
  -24.0018   -7.4615   22.7470 H   0  0  0  0  0  0
  -21.0849   -8.8763   19.8948 H   0  0  0  0  0  0
  -22.3697  -10.9667   19.6167 H   0  0  0  0  0  0
  -21.1989   -7.6157   23.9739 H   0  0  0  0  0  0
  -21.1491   -6.0524   25.9097 H   0  0  0  0  0  0
  -22.0594   -2.7622   23.2839 H   0  0  0  0  0  0
  -22.4090  -11.9876   22.4815 H   0  0  0  0  0  0
  -21.1103  -13.1253   22.2597 H   0  0  0  0  0  0
  -24.6597  -15.8371   20.5298 H   0  0  0  0  0  0
  -26.2814  -15.6354   20.0975 H   0  0  0  0  0  0
  -26.7156  -32.5516   23.1097 H   0  0  0  0  0  0
  -25.0112  -33.9737   25.0467 H   0  0  0  0  0  0
  -22.7083  -31.3120   21.4078 H   0  0  0  0  0  0
  -23.3763  -35.9619   23.3308 H   0  0  0  0  0  0
  -24.3579  -36.8893   22.2049 H   0  0  0  0  0  0
  -23.7227  -37.6489   23.6645 H   0  0  0  0  0  0
  -26.0744  -31.5707   20.5970 H   0  0  0  0  0  0
  -26.8363  -30.8585   21.9910 H   0  0  0  0  0  0
  -28.1122  -29.0178   21.1673 H   0  0  0  0  0  0
  -25.9566  -25.9430   19.0109 H   0  0  0  0  0  0
  -23.9549  -27.3119   19.0317 H   0  0  0  0  0  0
  -23.7472  -30.6076   19.4073 H   0  0  0  0  0  0
  -22.7472  -29.2584   19.8554 H   0  0  0  0  0  0
  -25.1285  -36.1948   25.0831 H   0  0  0  0  0  0
  -20.9999  -28.3259   24.1409 H   0  0  0  0  0  0
  -20.5706  -26.2293   23.3613 H   0  0  0  0  0  0
  -21.6649  -26.7457   22.1195 H   0  0  0  0  0  0
  -19.6910  -25.6305   21.1245 H   0  0  0  0  0  0
  -19.6681  -27.3219   20.6772 H   0  0  0  0  0  0
  -17.4206  -26.6717   21.4030 H   0  0  0  0  0  0
  -18.0315  -26.0060   22.9014 H   0  0  0  0  0  0
  -19.7948  -30.7266   24.2299 H   0  0  0  0  0  0
  -17.5031  -31.6276   24.5171 H   0  0  0  0  0  0
  -15.5366  -30.3018   23.7619 H   0  0  0  0  0  0
  -15.8687  -28.0828   22.7068 H   0  0  0  0  0  0
  -24.5923  -30.7062   25.7780 H   0  0  0  0  0  0
  -24.8914  -32.2904   26.4846 H   0  0  0  0  0  0
  -25.8070  -30.8937   27.0237 H   0  0  0  0  0  0
  -26.2860  -29.6810   24.1146 H   0  0  0  0  0  0
  -27.4090  -29.7265   25.4539 H   0  0  0  0  0  0
  -27.8702  -30.4347   23.9246 H   0  0  0  0  0  0
  -27.2659  -33.3628   26.2032 H   0  0  0  0  0  0
  -28.3859  -32.6875   25.0296 H   0  0  0  0  0  0
  -28.0720  -31.8468   26.5397 H   0  0  0  0  0  0
  -28.2601  -38.0093   24.7529 H   0  0  0  0  0  0
  -28.1072  -36.2625   24.6284 H   0  0  0  0  0  0
  -27.2308  -37.1429   25.8876 H   0  0  0  0  0  0
  -20.9346  -29.8790   21.6923 H   0  0  0  0  0  0
  -26.0180  -38.2877   24.1432 H   0  0  0  0  0  0
  -31.7002  -17.6201   20.0866 H   0  0  0  0  0  0
  -31.3529  -22.5353   20.2762 H   0  0  0  0  0  0
  -27.1857  -19.3114   22.4678 H   0  0  0  0  0  0
  -27.3604  -20.3926   21.0892 H   0  0  0  0  0  0
  -28.3384  -20.6272   22.5538 H   0  0  0  0  0  0
  -34.4356  -21.0301   21.1237 H   0  0  0  0  0  0
  -33.1034  -21.8852   21.8882 H   0  0  0  0  0  0
  -33.4780  -22.1437   20.1768 H   0  0  0  0  0  0
  -28.6030  -22.3583   21.1886 H   0  0  0  0  0  0
  -28.6750  -22.2688   19.4422 H   0  0  0  0  0  0
  -32.7912  -19.7690   19.6643 H   0  0  0  0  0  0
  -32.6607  -19.4860   21.3848 H   0  0  0  0  0  0
  -30.1534  -24.4178   19.5203 H   0  0  0  0  0  0
  -29.8705  -24.4804   21.2351 H   0  0  0  0  0  0
  -27.3812  -24.7844   20.7356 H   0  0  0  0  0  0
  -27.8005  -24.8463   19.0343 H   0  0  0  0  0  0
  -28.9178  -15.2123   21.3274 H   0  0  0  0  0  0
  1 25  1  0  0  0
  1 30  2  0  0  0
  1 83  1  0  0  0
  2  3  1  0  0  0
  2 25  1  0  0  0
  2 85  1  0  0  0
  2 86  1  0  0  0
  3  4  1  0  0  0
  3 87  1  0  0  0
  3 88  1  0  0  0
  4  5  1  0  0  0
  4 89  1  0  0  0
  4 90  1  0  0  0
  5  6  1  0  0  0
  5 26  1  0  0  0
  5 91  1  0  0  0
  6 25  1  0  0  0
  6 92  1  0  0  0
  6 93  1  0  0  0
  7  8  2  0  0  0
  7 26  1  0  0  0
  7 29  1  0  0  0
  8  9  1  0  0  0
  8 22  1  0  0  0
  9 10  1  0  0  0
  9 27  2  0  0  0
 10 11  2  0  0  0
 10 15  1  0  0  0
 11 12  1  0  0  0
 11 94  1  0  0  0
 12 13  2  0  0  0
 12 95  1  0  0  0
 13 14  1  0  0  0
 13 31  1  0  0  0
 14 15  2  0  0  0
 14 96  1  0  0  0
 15 97  1  0  0  0
 16 17  2  0  0  0
 16 21  1  0  0  0
 16 31  1  0  0  0
 17 18  1  0  0  0
 17 98  1  0  0  0
 18 19  2  0  0  0
 18 99  1  0  0  0
 19 20  1  0  0  0
 19 24  1  0  0  0
 20 21  2  0  0  0
 20100  1  0  0  0
 21 23  1  0  0  0
 22 28  1  0  0  0
 22 32  2  0  0  0
 26 27  1  0  0  0
 28101  1  0  0  0
 28102  1  0  0  0
 29103  1  0  0  0
 29104  1  0  0  0
 33 34  1  0  0  0
 33 66  1  0  0  0
 33 70  2  0  0  0
 34 36  1  0  0  0
 34 59  1  0  0  0
 34105  1  0  0  0
 35 44  2  0  0  0
 35 45  1  0  0  0
 35 68  1  0  0  0
 36 56  1  0  0  0
 36106  1  0  0  0
 37 39  1  0  0  0
 37 47  1  0  0  0
 37 66  1  0  0  0
 37107  1  0  0  0
 38 43  2  0  0  0
 38 46  1  0  0  0
 38 47  1  0  0  0
 39 64  1  0  0  0
 39 67  2  0  0  0
 40 52  1  0  0  0
 40 53  2  0  0  0
 40 58  1  0  0  0
 41108  1  0  0  0
 41109  1  0  0  0
 41110  1  0  0  0
 41 48  1  0  0  0
 42 43  1  0  0  0
 42 66  1  0  0  0
 42111  1  0  0  0
 42112  1  0  0  0
 43 44  1  0  0  0
 44113  1  0  0  0
 45 46  2  0  0  0
 45114  1  0  0  0
 46115  1  0  0  0
 47116  1  0  0  0
 47117  1  0  0  0
 48 56  1  0  0  0
 48 65  1  0  0  0
 48118  1  0  0  0
 49 50  1  0  0  0
 49 53  1  0  0  0
 49 64  1  0  0  0
 49119  1  0  0  0
 50 51  1  0  0  0
 50120  1  0  0  0
 50121  1  0  0  0
 51 52  1  0  0  0
 51122  1  0  0  0
 51123  1  0  0  0
 52124  1  0  0  0
 52125  1  0  0  0
 53 54  1  0  0  0
 54 55  2  0  0  0
 54126  1  0  0  0
 55 57  1  0  0  0
 55127  1  0  0  0
 56 69  2  0  0  0
 57 58  2  0  0  0
 57128  1  0  0  0
 58129  1  0  0  0
 59 60  1  0  0  0
 59 61  1  0  0  0
 59 62  1  0  0  0
 60130  1  0  0  0
 60131  1  0  0  0
 60132  1  0  0  0
 61133  1  0  0  0
 61134  1  0  0  0
 61135  1  0  0  0
 62136  1  0  0  0
 62137  1  0  0  0
 62138  1  0  0  0
 63 65  1  0  0  0
 63139  1  0  0  0
 63140  1  0  0  0
 63141  1  0  0  0
 64142  1  0  0  0
 65143  1  0  0  0
 68 82  1  0  0  0
 71 72  1  0  0  0
 71 74  2  0  0  0
 71144  1  0  0  0
 72 73  2  0  0  0
 72 76  1  0  0  0
 73 77  1  0  0  0
 73 84  1  0  0  0
 74 83  1  0  0  0
 74 84  1  0  0  0
 75 76  2  0  0  0
 75 79  1  0  0  0
 75145  1  0  0  0
 76 80  1  0  0  0
 77146  1  0  0  0
 77147  1  0  0  0
 77148  1  0  0  0
 78 80  1  0  0  0
 78149  1  0  0  0
 78150  1  0  0  0
 78151  1  0  0  0
 79 81  1  0  0  0
 79152  1  0  0  0
 79153  1  0  0  0
 80154  1  0  0  0
 80155  1  0  0  0
 81 82  1  0  0  0
 81156  1  0  0  0
 81157  1  0  0  0
 82158  1  0  0  0
 82159  1  0  0  0
 83160  1  0  0  0
M  ISO  4   1 100  68 101  82 101  83 100
M  END
> <chiral flag>
0

> <version>
0

> <s_m_source_file>
/data/baiqing/PycharmProjects/Reinvent-master-3.2/result/LINK_invent/BTK/process_docking_weight1_custom_product_contain_oxygen_bond_distance_aromatic_linkinvent_7_9_3/rearranged_h_0137.sdf

> <i_m_source_file_index>
88

> <r_mmod_Potential_Energy-OPLS-2005>
46.5359077453613

> <r_mmod_Stretch_Energy-OPLS-2005>
66.2913208007812

> <r_mmod_Bend_Energy-OPLS-2005>
177.948715209961

> <r_mmod_Torsional_Energy-OPLS-2005>
210.705413818359

> <r_mmod_Improper_Torsional_Energy-OPLS-2005>
4.08268547058105

> <r_mmod_Van_der_Waal_Energy-OPLS-2005>
137.150726318359

> <r_mmod_Electrostatic_Energy-OPLS-2005>
-390.614990234375

> <r_mmod_Solvation_Energy-OPLS-2005>
-195.569198608398

> <b_mmod_Minimization_Converged-OPLS-2005>
0

> <r_mmod_RMS_Derivative-OPLS-2005>
2.24039626121521

$$$$
88
                    3D
 Structure written by MMmdl.
163171  0  0  1  0            999 V2000
  -30.5982  -14.7411   20.4573 C   0  0  0  0  0  0
  -30.4397  -12.4573   19.4509 C   0  0  0  0  0  0
  -29.5041  -12.4973   18.2231 C   0  0  0  0  0  0
  -28.0328  -12.3183   18.6470 C   0  0  0  0  0  0
  -27.6400  -13.2225   19.8460 C   0  0  2  0  0  0
  -28.6919  -13.1589   20.9732 C   0  0  0  0  0  0
  -25.2523  -13.8171   20.5710 C   0  0  0  0  0  0
  -24.1808  -13.0426   20.9202 C   0  0  0  0  0  0
  -24.6388  -11.6897   20.8761 C   0  0  0  0  0  0
  -23.9065  -10.4279   21.0414 C   0  0  0  0  0  0
  -24.3613   -9.4197   21.9194 C   0  0  0  0  0  0
  -23.6284   -8.2240   22.0759 C   0  0  0  0  0  0
  -22.4273   -8.0276   21.3545 C   0  0  0  0  0  0
  -21.9909   -9.0251   20.4653 C   0  0  0  0  0  0
  -22.7237  -10.2129   20.3064 C   0  0  0  0  0  0
  -21.6850   -6.0731   22.5278 C   0  0  0  0  0  0
  -21.4013   -6.5639   23.8205 C   0  0  0  0  0  0
  -21.3660   -5.6796   24.9171 C   0  0  0  0  0  0
  -21.6044   -4.3053   24.7223 C   0  0  0  0  0  0
  -21.8823   -3.8146   23.4340 C   0  0  0  0  0  0
  -21.9190   -4.6963   22.3397 C   0  0  0  0  0  0
  -22.7835  -13.5224   21.1854 C   0  0  0  0  0  0
  -22.1664   -4.2150   21.0974 F   0  0  0  0  0  0
  -21.5627   -3.4535   25.7733 F   0  0  0  0  0  0
  -29.9831  -13.5152   20.3738 N   0  0  0  0  0  0
  -26.2937  -12.9356   20.3293 N   0  0  0  0  0  0
  -25.9311  -11.6505   20.5768 N   0  0  0  0  0  0
  -22.0479  -12.8222   22.0409 N   0  0  0  0  0  0
  -25.4210  -15.1902   20.4135 N   0  0  0  0  0  0
  -31.8076  -14.8464   20.2345 O   0  0  0  0  0  0
  -21.6638   -6.8876   21.4240 O   0  0  0  0  0  0
  -22.3529  -14.5535   20.6695 O   0  0  0  0  0  0
  -24.6306  -31.8559   23.2011 C   0  0  0  0  0  0
  -25.9140  -32.4762   23.8335 C   0  0  1  0  0  0
  -27.2085  -27.2549   20.1286 C   0  0  0  0  0  0
  -25.5928  -33.8552   24.2252 N   0  0  0  0  0  0
  -23.4270  -30.4826   21.5442 C   0  0  2  0  0  0
  -24.8712  -28.9299   20.1154 C   0  0  0  0  0  0
  -22.7501  -29.4612   22.4906 C   0  0  0  0  0  0
  -18.0302  -28.1378   22.8482 C   0  0  0  0  0  0
  -24.1488  -36.7288   23.2634 C   0  0  0  0  0  0
  -25.9742  -30.7688   21.3811 C   0  0  0  0  0  0
  -26.0453  -29.3902   20.7246 C   0  0  0  0  0  0
  -27.2183  -28.5646   20.7218 C   0  0  0  0  0  0
  -26.0118  -26.8751   19.4800 C   0  0  0  0  0  0
  -24.8585  -27.6800   19.4839 C   0  0  0  0  0  0
  -23.6459  -29.8206   20.1599 C   0  0  0  0  0  0
  -25.4118  -36.3069   24.0321 C   0  0  1  0  0  0
  -20.5905  -28.3698   23.1264 C   0  0  2  0  0  0
  -20.6795  -26.9418   22.5394 C   0  0  0  0  0  0
  -19.5773  -26.6378   21.5196 C   0  0  0  0  0  0
  -18.1951  -26.7924   22.1607 C   0  0  0  0  0  0
  -19.1553  -28.8854   23.2867 C   0  0  0  0  0  0
  -18.9474  -30.1452   23.8897 C   0  0  0  0  0  0
  -17.6470  -30.6585   24.0560 C   0  0  0  0  0  0
  -25.9058  -34.9439   23.5099 C   0  0  0  0  0  0
  -16.5365  -29.9083   23.6316 C   0  0  0  0  0  0
  -16.7286  -28.6494   23.0355 C   0  0  0  0  0  0
  -26.4509  -31.6581   25.0723 C   0  0  0  0  0  0
  -25.3716  -31.3737   26.1439 C   0  0  0  0  0  0
  -27.0355  -30.2995   24.6204 C   0  0  0  0  0  0
  -27.6063  -32.4316   25.7503 C   0  0  0  0  0  0
  -27.5587  -37.1800   24.8470 C   0  0  0  0  0  0
  -21.4209  -29.3057   22.3663 N   0  0  0  0  0  0
  -26.4294  -37.3766   23.9414 N   0  0  0  0  0  0
  -24.6966  -31.0537   22.0988 N   0  0  0  0  0  0
  -23.4208  -28.8125   23.2981 O   0  0  0  0  0  0
  -28.2958  -26.3461   20.1617 O   0  0  0  0  0  0
  -26.5626  -34.8917   22.4666 O   0  0  0  0  0  0
  -23.5457  -32.1357   23.7326 O   0  0  0  0  0  0
  -30.4749  -18.5925   22.9131 C   0  0  0  0  0  0
  -29.6378  -18.4729   20.2768 C   0  0  0  0  0  0
  -30.1890  -19.8098   22.2448 C   0  0  0  0  0  0
  -29.9713  -17.2246   20.9520 C   0  0  0  0  0  0
  -29.7305  -19.7950   20.8910 C   0  0  0  0  0  0
  -30.3764  -17.3362   22.2937 C   0  0  0  0  0  0
  -31.6763  -22.4882   24.7348 C   0  0  0  0  0  0
  -30.3693  -24.1373   21.0106 C   0  0  0  0  0  0
  -30.4179  -21.1173   22.9999 C   0  0  0  0  0  0
  -31.4497  -21.0915   24.1440 C   0  0  0  0  0  0
  -28.0039  -24.8745   20.3499 C   0  0  0  0  0  0
  -28.6927  -22.1780   20.5730 C   0  0  0  0  0  0
  -29.1257  -23.7130   20.2170 C   0  0  2  0  0  0
  -29.7747  -15.8558   20.4257 N   0  0  0  0  0  0
  -29.5163  -20.9995   20.1439 O   0  0  0  0  0  0
  -30.6309  -16.2238   23.0252 F   0  0  0  0  0  0
  -31.4746  -12.6075   19.1388 H   0  0  0  0  0  0
  -30.4052  -11.4817   19.9394 H   0  0  0  0  0  0
  -29.7845  -11.7215   17.5090 H   0  0  0  0  0  0
  -29.6204  -13.4480   17.6987 H   0  0  0  0  0  0
  -27.8968  -11.2718   18.9192 H   0  0  0  0  0  0
  -27.3680  -12.5012   17.8021 H   0  0  0  0  0  0
  -27.6288  -14.2408   19.4582 H   0  0  0  0  0  0
  -28.7349  -12.1630   21.4149 H   0  0  0  0  0  0
  -28.4345  -13.8443   21.7827 H   0  0  0  0  0  0
  -25.2754   -9.5674   22.4773 H   0  0  0  0  0  0
  -23.9991   -7.4633   22.7479 H   0  0  0  0  0  0
  -21.0838   -8.8767   19.8958 H   0  0  0  0  0  0
  -22.3692  -10.9668   19.6177 H   0  0  0  0  0  0
  -21.2012   -7.6148   23.9708 H   0  0  0  0  0  0
  -21.1481   -6.0526   25.9075 H   0  0  0  0  0  0
  -22.0603   -2.7608   23.2836 H   0  0  0  0  0  0
  -22.4090  -11.9877   22.4784 H   0  0  0  0  0  0
  -21.1107  -13.1271   22.2637 H   0  0  0  0  0  0
  -24.6483  -15.8382   20.5195 H   0  0  0  0  0  0
  -26.2687  -15.6375   20.0929 H   0  0  0  0  0  0
  -26.7209  -32.5416   23.1074 H   0  0  0  0  0  0
  -25.0080  -33.9673   25.0407 H   0  0  0  0  0  0
  -22.7222  -31.3048   21.4014 H   0  0  0  0  0  0
  -23.3745  -35.9622   23.3285 H   0  0  0  0  0  0
  -24.3585  -36.8921   22.2050 H   0  0  0  0  0  0
  -23.7234  -37.6483   23.6673 H   0  0  0  0  0  0
  -26.1125  -31.5280   20.6099 H   0  0  0  0  0  0
  -26.8515  -30.8216   22.0116 H   0  0  0  0  0  0
  -28.1160  -28.9104   21.2161 H   0  0  0  0  0  0
  -25.9282  -25.9395   18.9529 H   0  0  0  0  0  0
  -23.9604  -27.3275   18.9946 H   0  0  0  0  0  0
  -23.7784  -30.5987   19.4072 H   0  0  0  0  0  0
  -22.7615  -29.2617   19.8504 H   0  0  0  0  0  0
  -25.1297  -36.1905   25.0806 H   0  0  0  0  0  0
  -21.0008  -28.3279   24.1376 H   0  0  0  0  0  0
  -20.5698  -26.2306   23.3600 H   0  0  0  0  0  0
  -21.6664  -26.7440   22.1189 H   0  0  0  0  0  0
  -19.6940  -25.6280   21.1244 H   0  0  0  0  0  0
  -19.6709  -27.3173   20.6720 H   0  0  0  0  0  0
  -17.4217  -26.6654   21.4017 H   0  0  0  0  0  0
  -18.0360  -26.0058   22.8999 H   0  0  0  0  0  0
  -19.7947  -30.7253   24.2271 H   0  0  0  0  0  0
  -17.5034  -31.6266   24.5156 H   0  0  0  0  0  0
  -15.5371  -30.2990   23.7646 H   0  0  0  0  0  0
  -15.8683  -28.0815   22.7083 H   0  0  0  0  0  0
  -24.5924  -30.7043   25.7787 H   0  0  0  0  0  0
  -24.8863  -32.2902   26.4796 H   0  0  0  0  0  0
  -25.8018  -30.8983   27.0256 H   0  0  0  0  0  0
  -26.2939  -29.6732   24.1231 H   0  0  0  0  0  0
  -27.4046  -29.7269   25.4718 H   0  0  0  0  0  0
  -27.8817  -30.4275   23.9448 H   0  0  0  0  0  0
  -27.2697  -33.3659   26.2004 H   0  0  0  0  0  0
  -28.3926  -32.6779   25.0358 H   0  0  0  0  0  0
  -28.0666  -31.8466   26.5471 H   0  0  0  0  0  0
  -28.2593  -38.0110   24.7537 H   0  0  0  0  0  0
  -28.1093  -36.2637   24.6277 H   0  0  0  0  0  0
  -27.2315  -37.1438   25.8877 H   0  0  0  0  0  0
  -20.9388  -29.8790   21.6883 H   0  0  0  0  0  0
  -26.0167  -38.2834   24.1419 H   0  0  0  0  0  0
  -30.7898  -18.5867   23.9434 H   0  0  0  0  0  0
  -29.3061  -18.4203   19.2501 H   0  0  0  0  0  0
  -32.3984  -22.4548   25.5518 H   0  0  0  0  0  0
  -30.7485  -22.9016   25.1310 H   0  0  0  0  0  0
  -32.0554  -23.1829   23.9851 H   0  0  0  0  0  0
  -30.6655  -25.1572   20.7608 H   0  0  0  0  0  0
  -31.2211  -23.4947   20.7856 H   0  0  0  0  0  0
  -30.1855  -24.1055   22.0864 H   0  0  0  0  0  0
  -29.4632  -21.4510   23.4045 H   0  0  0  0  0  0
  -30.7585  -21.8536   22.2798 H   0  0  0  0  0  0
  -31.1171  -20.4389   24.9513 H   0  0  0  0  0  0
  -32.4001  -20.6937   23.7845 H   0  0  0  0  0  0
  -27.2352  -24.5552   19.6497 H   0  0  0  0  0  0
  -27.5479  -24.7825   21.3368 H   0  0  0  0  0  0
  -27.7361  -22.0199   20.0734 H   0  0  0  0  0  0
  -28.4302  -22.1153   21.6250 H   0  0  0  0  0  0
  -29.4135  -23.7064   19.1649 H   0  0  0  0  0  0
  -28.8133  -15.6310   20.2304 H   0  0  0  0  0  0
  1 25  1  0  0  0
  1 30  2  0  0  0
  1 84  1  0  0  0
  2  3  1  0  0  0
  2 25  1  0  0  0
  2 87  1  0  0  0
  2 88  1  0  0  0
  3  4  1  0  0  0
  3 89  1  0  0  0
  3 90  1  0  0  0
  4  5  1  0  0  0
  4 91  1  0  0  0
  4 92  1  0  0  0
  5  6  1  0  0  0
  5 26  1  0  0  0
  5 93  1  0  0  0
  6 25  1  0  0  0
  6 94  1  0  0  0
  6 95  1  0  0  0
  7  8  2  0  0  0
  7 26  1  0  0  0
  7 29  1  0  0  0
  8  9  1  0  0  0
  8 22  1  0  0  0
  9 10  1  0  0  0
  9 27  2  0  0  0
 10 11  2  0  0  0
 10 15  1  0  0  0
 11 12  1  0  0  0
 11 96  1  0  0  0
 12 13  2  0  0  0
 12 97  1  0  0  0
 13 14  1  0  0  0
 13 31  1  0  0  0
 14 15  2  0  0  0
 14 98  1  0  0  0
 15 99  1  0  0  0
 16 17  2  0  0  0
 16 21  1  0  0  0
 16 31  1  0  0  0
 17 18  1  0  0  0
 17100  1  0  0  0
 18 19  2  0  0  0
 18101  1  0  0  0
 19 20  1  0  0  0
 19 24  1  0  0  0
 20 21  2  0  0  0
 20102  1  0  0  0
 21 23  1  0  0  0
 22 28  1  0  0  0
 22 32  2  0  0  0
 26 27  1  0  0  0
 28103  1  0  0  0
 28104  1  0  0  0
 29105  1  0  0  0
 29106  1  0  0  0
 33 34  1  0  0  0
 33 66  1  0  0  0
 33 70  2  0  0  0
 34 36  1  0  0  0
 34 59  1  0  0  0
 34107  1  0  0  0
 35 44  2  0  0  0
 35 45  1  0  0  0
 35 68  1  0  0  0
 36 56  1  0  0  0
 36108  1  0  0  0
 37 39  1  0  0  0
 37 47  1  0  0  0
 37 66  1  0  0  0
 37109  1  0  0  0
 38 43  2  0  0  0
 38 46  1  0  0  0
 38 47  1  0  0  0
 39 64  1  0  0  0
 39 67  2  0  0  0
 40 52  1  0  0  0
 40 53  2  0  0  0
 40 58  1  0  0  0
 41110  1  0  0  0
 41111  1  0  0  0
 41112  1  0  0  0
 41 48  1  0  0  0
 42 43  1  0  0  0
 42 66  1  0  0  0
 42113  1  0  0  0
 42114  1  0  0  0
 43 44  1  0  0  0
 44115  1  0  0  0
 45 46  2  0  0  0
 45116  1  0  0  0
 46117  1  0  0  0
 47118  1  0  0  0
 47119  1  0  0  0
 48 56  1  0  0  0
 48 65  1  0  0  0
 48120  1  0  0  0
 49 50  1  0  0  0
 49 53  1  0  0  0
 49 64  1  0  0  0
 49121  1  0  0  0
 50 51  1  0  0  0
 50122  1  0  0  0
 50123  1  0  0  0
 51 52  1  0  0  0
 51124  1  0  0  0
 51125  1  0  0  0
 52126  1  0  0  0
 52127  1  0  0  0
 53 54  1  0  0  0
 54 55  2  0  0  0
 54128  1  0  0  0
 55 57  1  0  0  0
 55129  1  0  0  0
 56 69  2  0  0  0
 57 58  2  0  0  0
 57130  1  0  0  0
 58131  1  0  0  0
 59 60  1  0  0  0
 59 61  1  0  0  0
 59 62  1  0  0  0
 60132  1  0  0  0
 60133  1  0  0  0
 60134  1  0  0  0
 61135  1  0  0  0
 61136  1  0  0  0
 61137  1  0  0  0
 62138  1  0  0  0
 62139  1  0  0  0
 62140  1  0  0  0
 63 65  1  0  0  0
 63141  1  0  0  0
 63142  1  0  0  0
 63143  1  0  0  0
 64144  1  0  0  0
 65145  1  0  0  0
 68 81  1  0  0  0
 71 73  2  0  0  0
 71 76  1  0  0  0
 71146  1  0  0  0
 72 74  1  0  0  0
 72 75  2  0  0  0
 72147  1  0  0  0
 73 75  1  0  0  0
 73 79  1  0  0  0
 74 76  2  0  0  0
 74 84  1  0  0  0
 75 85  1  0  0  0
 76 86  1  0  0  0
 77 80  1  0  0  0
 77148  1  0  0  0
 77149  1  0  0  0
 77150  1  0  0  0
 78151  1  0  0  0
 78152  1  0  0  0
 78153  1  0  0  0
 78 83  1  0  0  0
 79 80  1  0  0  0
 79154  1  0  0  0
 79155  1  0  0  0
 80156  1  0  0  0
 80157  1  0  0  0
 81 83  1  0  0  0
 81158  1  0  0  0
 81159  1  0  0  0
 82 83  1  0  0  0
 82 85  1  0  0  0
 82160  1  0  0  0
 82161  1  0  0  0
 83162  1  0  0  0
 84163  1  0  0  0
M  ISO  4   1 100  68 101  81 101  84 100
M  END
> <chiral flag>
0

> <version>
0

> <s_m_source_file>
/data/baiqing/PycharmProjects/Reinvent-master-3.2/result/LINK_invent/BTK/process_docking_weight1_custom_product_contain_oxygen_bond_distance_aromatic_linkinvent_7_9_3/rearranged_h_0137.sdf

> <i_m_source_file_index>
89

> <r_mmod_Potential_Energy-OPLS-2005>
223.263824462891

> <r_mmod_Stretch_Energy-OPLS-2005>
129.060440063477

> <r_mmod_Bend_Energy-OPLS-2005>
178.151123046875

> <r_mmod_Torsional_Energy-OPLS-2005>
273.453338623047

> <r_mmod_Improper_Torsional_Energy-OPLS-2005>
11.4272813796997

> <r_mmod_Van_der_Waal_Energy-OPLS-2005>
144.918991088867

> <r_mmod_Electrostatic_Energy-OPLS-2005>
-398.294677734375

> <r_mmod_Solvation_Energy-OPLS-2005>
-205.400802612305

> <b_mmod_Minimization_Converged-OPLS-2005>
0

> <r_mmod_RMS_Derivative-OPLS-2005>
2.0089213848114

$$$$
89
                    3D
 Structure written by MMmdl.
161169  0  0  1  0            999 V2000
  -30.5919  -14.6206   20.5175 C   0  0  0  0  0  0
  -30.4442  -12.3816   19.4469 C   0  0  0  0  0  0
  -29.5113  -12.5157   18.2222 C   0  0  0  0  0  0
  -28.0302  -12.3594   18.6283 C   0  0  0  0  0  0
  -27.6568  -13.2079   19.8735 C   0  0  2  0  0  0
  -28.7001  -13.0196   20.9976 C   0  0  0  0  0  0
  -25.2573  -13.8152   20.5690 C   0  0  0  0  0  0
  -24.1833  -13.0421   20.9183 C   0  0  0  0  0  0
  -24.6391  -11.6890   20.8722 C   0  0  0  0  0  0
  -23.9055  -10.4284   21.0387 C   0  0  0  0  0  0
  -24.3609   -9.4208   21.9172 C   0  0  0  0  0  0
  -23.6292   -8.2244   22.0746 C   0  0  0  0  0  0
  -22.4269   -8.0282   21.3547 C   0  0  0  0  0  0
  -21.9899   -9.0243   20.4644 C   0  0  0  0  0  0
  -22.7222  -10.2121   20.3045 C   0  0  0  0  0  0
  -21.6857   -6.0737   22.5281 C   0  0  0  0  0  0
  -21.4022   -6.5640   23.8214 C   0  0  0  0  0  0
  -21.3661   -5.6792   24.9173 C   0  0  0  0  0  0
  -21.6044   -4.3054   24.7225 C   0  0  0  0  0  0
  -21.8819   -3.8150   23.4344 C   0  0  0  0  0  0
  -21.9197   -4.6968   22.3405 C   0  0  0  0  0  0
  -22.7859  -13.5219   21.1848 C   0  0  0  0  0  0
  -22.1660   -4.2151   21.0978 F   0  0  0  0  0  0
  -21.5624   -3.4537   25.7739 F   0  0  0  0  0  0
  -30.0163  -13.3802   20.4444 N   0  0  0  0  0  0
  -26.3001  -12.9314   20.3351 N   0  0  0  0  0  0
  -25.9316  -11.6469   20.5749 N   0  0  0  0  0  0
  -22.0510  -12.8211   22.0409 N   0  0  0  0  0  0
  -25.4295  -15.1879   20.4128 N   0  0  0  0  0  0
  -31.7318  -14.8352   20.0928 O   0  0  0  0  0  0
  -21.6643   -6.8871   21.4239 O   0  0  0  0  0  0
  -22.3543  -14.5525   20.6695 O   0  0  0  0  0  0
  -24.6226  -31.8585   23.1985 C   0  0  0  0  0  0
  -25.9080  -32.4770   23.8311 C   0  0  1  0  0  0
  -27.2371  -27.3441   20.0965 C   0  0  0  0  0  0
  -25.5902  -33.8569   24.2249 N   0  0  0  0  0  0
  -23.4144  -30.4790   21.5412 C   0  0  2  0  0  0
  -24.8588  -28.9263   20.1101 C   0  0  0  0  0  0
  -22.7450  -29.4613   22.4941 C   0  0  0  0  0  0
  -18.0281  -28.1383   22.8485 C   0  0  0  0  0  0
  -24.1489  -36.7285   23.2644 C   0  0  0  0  0  0
  -25.9492  -30.7965   21.3614 C   0  0  0  0  0  0
  -26.0222  -29.4233   20.7067 C   0  0  0  0  0  0
  -27.2079  -28.6417   20.6894 C   0  0  0  0  0  0
  -26.0420  -26.8705   19.5152 C   0  0  0  0  0  0
  -24.8679  -27.6543   19.5101 C   0  0  0  0  0  0
  -23.6246  -29.8040   20.1584 C   0  0  0  0  0  0
  -25.4115  -36.3079   24.0328 C   0  0  1  0  0  0
  -20.5876  -28.3677   23.1296 C   0  0  2  0  0  0
  -20.6771  -26.9403   22.5415 C   0  0  0  0  0  0
  -19.5751  -26.6383   21.5211 C   0  0  0  0  0  0
  -18.1928  -26.7925   22.1623 C   0  0  0  0  0  0
  -19.1533  -28.8846   23.2889 C   0  0  0  0  0  0
  -18.9465  -30.1451   23.8902 C   0  0  0  0  0  0
  -17.6467  -30.6590   24.0566 C   0  0  0  0  0  0
  -25.9050  -34.9453   23.5094 C   0  0  0  0  0  0
  -16.5355  -29.9094   23.6330 C   0  0  0  0  0  0
  -16.7271  -28.6511   23.0346 C   0  0  0  0  0  0
  -26.4480  -31.6584   25.0679 C   0  0  0  0  0  0
  -25.3723  -31.3720   26.1418 C   0  0  0  0  0  0
  -27.0326  -30.3021   24.6107 C   0  0  0  0  0  0
  -27.6047  -32.4322   25.7448 C   0  0  0  0  0  0
  -27.5582  -37.1795   24.8468 C   0  0  0  0  0  0
  -21.4169  -29.3032   22.3693 N   0  0  0  0  0  0
  -26.4296  -37.3772   23.9414 N   0  0  0  0  0  0
  -24.6811  -31.0616   22.0916 N   0  0  0  0  0  0
  -23.4186  -28.8172   23.3027 O   0  0  0  0  0  0
  -28.4267  -26.6112   20.1490 O   0  0  0  0  0  0
  -26.5633  -34.8928   22.4673 O   0  0  0  0  0  0
  -23.5400  -32.1368   23.7342 O   0  0  0  0  0  0
  -29.5032  -19.2570   21.9381 C   0  0  0  0  0  0
  -29.8294  -17.8734   21.9613 C   0  0  0  0  0  0
  -28.9795  -19.0998   19.5972 C   0  0  0  0  0  0
  -29.0324  -19.9037   20.7671 C   0  0  0  0  0  0
  -29.3068  -17.7050   19.6085 C   0  0  0  0  0  0
  -29.7237  -17.0528   20.8109 C   0  0  0  0  0  0
  -28.8048  -22.5500   19.9613 C   0  0  0  0  0  0
  -29.1232  -16.9304   18.3138 C   0  0  0  0  0  0
  -30.2793  -25.3843   19.7068 C   0  0  0  0  0  0
  -28.4422  -25.2868   18.0337 C   0  0  0  0  0  0
  -28.4078  -21.3447   20.8834 C   0  0  0  0  0  0
  -28.2246  -23.9895   20.3050 C   0  0  0  0  0  0
  -28.7464  -25.2993   19.5494 C   0  0  0  0  0  0
  -29.7674  -15.6057   20.9851 N   0  0  0  0  0  0
  -29.5282  -22.3601   18.9796 O   0  0  0  0  0  0
  -31.4856  -12.5192   19.1493 H   0  0  0  0  0  0
  -30.3845  -11.3769   19.8693 H   0  0  0  0  0  0
  -29.7715  -11.7699   17.4698 H   0  0  0  0  0  0
  -29.6635  -13.4885   17.7517 H   0  0  0  0  0  0
  -27.8551  -11.3034   18.8373 H   0  0  0  0  0  0
  -27.3808  -12.6140   17.7902 H   0  0  0  0  0  0
  -27.6827  -14.2507   19.5616 H   0  0  0  0  0  0
  -28.7117  -11.9825   21.3363 H   0  0  0  0  0  0
  -28.4429  -13.6070   21.8803 H   0  0  0  0  0  0
  -25.2755   -9.5696   22.4739 H   0  0  0  0  0  0
  -24.0016   -7.4635   22.7452 H   0  0  0  0  0  0
  -21.0837   -8.8744   19.8941 H   0  0  0  0  0  0
  -22.3677  -10.9651   19.6146 H   0  0  0  0  0  0
  -21.2017   -7.6150   23.9723 H   0  0  0  0  0  0
  -21.1478   -6.0518   25.9075 H   0  0  0  0  0  0
  -22.0601   -2.7615   23.2842 H   0  0  0  0  0  0
  -22.4139  -11.9880   22.4798 H   0  0  0  0  0  0
  -21.1117  -13.1212   22.2598 H   0  0  0  0  0  0
  -24.6650  -15.8435   20.5348 H   0  0  0  0  0  0
  -26.2848  -15.6325   20.1038 H   0  0  0  0  0  0
  -26.7142  -32.5443   23.1053 H   0  0  0  0  0  0
  -25.0032  -33.9707   25.0384 H   0  0  0  0  0  0
  -22.7073  -31.2986   21.3955 H   0  0  0  0  0  0
  -23.3758  -35.9613   23.3306 H   0  0  0  0  0  0
  -24.3577  -36.8903   22.2059 H   0  0  0  0  0  0
  -23.7239  -37.6485   23.6665 H   0  0  0  0  0  0
  -26.0731  -31.5590   20.5907 H   0  0  0  0  0  0
  -26.8331  -30.8477   21.9858 H   0  0  0  0  0  0
  -28.1082  -29.0246   21.1490 H   0  0  0  0  0  0
  -25.9858  -25.8836   19.0868 H   0  0  0  0  0  0
  -23.9686  -27.2605   19.0567 H   0  0  0  0  0  0
  -23.7368  -30.5743   19.3944 H   0  0  0  0  0  0
  -22.7454  -29.2264   19.8651 H   0  0  0  0  0  0
  -25.1301  -36.1919   25.0819 H   0  0  0  0  0  0
  -20.9972  -28.3252   24.1415 H   0  0  0  0  0  0
  -20.5663  -26.2291   23.3613 H   0  0  0  0  0  0
  -21.6644  -26.7428   22.1218 H   0  0  0  0  0  0
  -19.6915  -25.6296   21.1242 H   0  0  0  0  0  0
  -19.6697  -27.3201   20.6748 H   0  0  0  0  0  0
  -17.4199  -26.6672   21.4022 H   0  0  0  0  0  0
  -18.0329  -26.0063   22.9016 H   0  0  0  0  0  0
  -19.7944  -30.7262   24.2272 H   0  0  0  0  0  0
  -17.5028  -31.6271   24.5168 H   0  0  0  0  0  0
  -15.5361  -30.3005   23.7645 H   0  0  0  0  0  0
  -15.8669  -28.0839   22.7049 H   0  0  0  0  0  0
  -24.5893  -30.7071   25.7750 H   0  0  0  0  0  0
  -24.8919  -32.2885   26.4849 H   0  0  0  0  0  0
  -25.8050  -30.8892   27.0186 H   0  0  0  0  0  0
  -26.2881  -29.6764   24.1165 H   0  0  0  0  0  0
  -27.4090  -29.7280   25.4584 H   0  0  0  0  0  0
  -27.8714  -30.4337   23.9268 H   0  0  0  0  0  0
  -27.2654  -33.3618   26.2031 H   0  0  0  0  0  0
  -28.3841  -32.6887   25.0259 H   0  0  0  0  0  0
  -28.0726  -31.8441   26.5350 H   0  0  0  0  0  0
  -28.2601  -38.0093   24.7518 H   0  0  0  0  0  0
  -28.1073  -36.2621   24.6285 H   0  0  0  0  0  0
  -27.2299  -37.1434   25.8873 H   0  0  0  0  0  0
  -20.9342  -29.8742   21.6895 H   0  0  0  0  0  0
  -26.0170  -38.2845   24.1427 H   0  0  0  0  0  0
  -29.5437  -19.8091   22.8677 H   0  0  0  0  0  0
  -30.1009  -17.4273   22.9083 H   0  0  0  0  0  0
  -28.6099  -19.5425   18.6825 H   0  0  0  0  0  0
  -29.9927  -17.0655   17.6695 H   0  0  0  0  0  0
  -28.2459  -17.2883   17.7738 H   0  0  0  0  0  0
  -28.9857  -15.8633   18.4757 H   0  0  0  0  0  0
  -30.7982  -24.5453   19.2474 H   0  0  0  0  0  0
  -30.5676  -25.4104   20.7583 H   0  0  0  0  0  0
  -30.6763  -26.2862   19.2391 H   0  0  0  0  0  0
  -29.0389  -24.5349   17.5168 H   0  0  0  0  0  0
  -28.6791  -26.2466   17.5737 H   0  0  0  0  0  0
  -27.4062  -25.0496   17.8046 H   0  0  0  0  0  0
  -28.5570  -21.6842   21.9078 H   0  0  0  0  0  0
  -27.3298  -21.2253   20.7780 H   0  0  0  0  0  0
  -28.3977  -24.1334   21.3710 H   0  0  0  0  0  0
  -27.1426  -23.9306   20.1930 H   0  0  0  0  0  0
  -28.9392  -15.2266   21.4185 H   0  0  0  0  0  0
  1 25  1  0  0  0
  1 30  2  0  0  0
  1 84  1  0  0  0
  2  3  1  0  0  0
  2 25  1  0  0  0
  2 86  1  0  0  0
  2 87  1  0  0  0
  3  4  1  0  0  0
  3 88  1  0  0  0
  3 89  1  0  0  0
  4  5  1  0  0  0
  4 90  1  0  0  0
  4 91  1  0  0  0
  5  6  1  0  0  0
  5 26  1  0  0  0
  5 92  1  0  0  0
  6 25  1  0  0  0
  6 93  1  0  0  0
  6 94  1  0  0  0
  7  8  2  0  0  0
  7 26  1  0  0  0
  7 29  1  0  0  0
  8  9  1  0  0  0
  8 22  1  0  0  0
  9 10  1  0  0  0
  9 27  2  0  0  0
 10 11  2  0  0  0
 10 15  1  0  0  0
 11 12  1  0  0  0
 11 95  1  0  0  0
 12 13  2  0  0  0
 12 96  1  0  0  0
 13 14  1  0  0  0
 13 31  1  0  0  0
 14 15  2  0  0  0
 14 97  1  0  0  0
 15 98  1  0  0  0
 16 17  2  0  0  0
 16 21  1  0  0  0
 16 31  1  0  0  0
 17 18  1  0  0  0
 17 99  1  0  0  0
 18 19  2  0  0  0
 18100  1  0  0  0
 19 20  1  0  0  0
 19 24  1  0  0  0
 20 21  2  0  0  0
 20101  1  0  0  0
 21 23  1  0  0  0
 22 28  1  0  0  0
 22 32  2  0  0  0
 26 27  1  0  0  0
 28102  1  0  0  0
 28103  1  0  0  0
 29104  1  0  0  0
 29105  1  0  0  0
 33 34  1  0  0  0
 33 66  1  0  0  0
 33 70  2  0  0  0
 34 36  1  0  0  0
 34 59  1  0  0  0
 34106  1  0  0  0
 35 44  2  0  0  0
 35 45  1  0  0  0
 35 68  1  0  0  0
 36 56  1  0  0  0
 36107  1  0  0  0
 37 39  1  0  0  0
 37 47  1  0  0  0
 37 66  1  0  0  0
 37108  1  0  0  0
 38 43  2  0  0  0
 38 46  1  0  0  0
 38 47  1  0  0  0
 39 64  1  0  0  0
 39 67  2  0  0  0
 40 52  1  0  0  0
 40 53  2  0  0  0
 40 58  1  0  0  0
 41109  1  0  0  0
 41110  1  0  0  0
 41111  1  0  0  0
 41 48  1  0  0  0
 42 43  1  0  0  0
 42 66  1  0  0  0
 42112  1  0  0  0
 42113  1  0  0  0
 43 44  1  0  0  0
 44114  1  0  0  0
 45 46  2  0  0  0
 45115  1  0  0  0
 46116  1  0  0  0
 47117  1  0  0  0
 47118  1  0  0  0
 48 56  1  0  0  0
 48 65  1  0  0  0
 48119  1  0  0  0
 49 50  1  0  0  0
 49 53  1  0  0  0
 49 64  1  0  0  0
 49120  1  0  0  0
 50 51  1  0  0  0
 50121  1  0  0  0
 50122  1  0  0  0
 51 52  1  0  0  0
 51123  1  0  0  0
 51124  1  0  0  0
 52125  1  0  0  0
 52126  1  0  0  0
 53 54  1  0  0  0
 54 55  2  0  0  0
 54127  1  0  0  0
 55 57  1  0  0  0
 55128  1  0  0  0
 56 69  2  0  0  0
 57 58  2  0  0  0
 57129  1  0  0  0
 58130  1  0  0  0
 59 60  1  0  0  0
 59 61  1  0  0  0
 59 62  1  0  0  0
 60131  1  0  0  0
 60132  1  0  0  0
 60133  1  0  0  0
 61134  1  0  0  0
 61135  1  0  0  0
 61136  1  0  0  0
 62137  1  0  0  0
 62138  1  0  0  0
 62139  1  0  0  0
 63 65  1  0  0  0
 63140  1  0  0  0
 63141  1  0  0  0
 63142  1  0  0  0
 64143  1  0  0  0
 65144  1  0  0  0
 68 83  1  0  0  0
 71 72  2  0  0  0
 71 74  1  0  0  0
 71145  1  0  0  0
 72 76  1  0  0  0
 72146  1  0  0  0
 73 74  2  0  0  0
 73 75  1  0  0  0
 73147  1  0  0  0
 74 81  1  0  0  0
 75 76  2  0  0  0
 75 78  1  0  0  0
 76 84  1  0  0  0
 77 81  1  0  0  0
 77 82  1  0  0  0
 77 85  2  0  0  0
 78148  1  0  0  0
 78149  1  0  0  0
 78150  1  0  0  0
 79151  1  0  0  0
 79152  1  0  0  0
 79153  1  0  0  0
 79 83  1  0  0  0
 80 83  1  0  0  0
 80154  1  0  0  0
 80155  1  0  0  0
 80156  1  0  0  0
 81157  1  0  0  0
 81158  1  0  0  0
 82 83  1  0  0  0
 82159  1  0  0  0
 82160  1  0  0  0
 84161  1  0  0  0
M  ISO  4   1 100  68 101  83 101  84 100
M  END
> <chiral flag>
0

> <version>
0

> <s_m_source_file>
/data/baiqing/PycharmProjects/Reinvent-master-3.2/result/LINK_invent/BTK/process_docking_weight1_custom_product_contain_oxygen_bond_distance_aromatic_linkinvent_7_9_3/rearranged_h_0137.sdf

> <i_m_source_file_index>
90

> <r_mmod_Potential_Energy-OPLS-2005>
71.560173034668

> <r_mmod_Stretch_Energy-OPLS-2005>
75.7269973754883

> <r_mmod_Bend_Energy-OPLS-2005>
183.409652709961

> <r_mmod_Torsional_Energy-OPLS-2005>
220.038970947266

> <r_mmod_Improper_Torsional_Energy-OPLS-2005>
6.48364448547363

> <r_mmod_Van_der_Waal_Energy-OPLS-2005>
135.452178955078

> <r_mmod_Electrostatic_Energy-OPLS-2005>
-369.752227783203

> <r_mmod_Solvation_Energy-OPLS-2005>
-218.003387451172

> <b_mmod_Minimization_Converged-OPLS-2005>
0

> <r_mmod_RMS_Derivative-OPLS-2005>
1.43237006664276

$$$$
90
                    3D
 Structure written by MMmdl.
162170  0  0  1  0            999 V2000
  -30.7514  -14.4572   20.5820 C   0  0  0  0  0  0
  -30.4046  -12.2976   19.4379 C   0  0  0  0  0  0
  -29.4906  -12.5038   18.2127 C   0  0  0  0  0  0
  -28.0126  -12.3683   18.6207 C   0  0  0  0  0  0
  -27.6598  -13.2162   19.8726 C   0  0  2  0  0  0
  -28.7003  -13.0240   21.0015 C   0  0  0  0  0  0
  -25.2575  -13.8196   20.5701 C   0  0  0  0  0  0
  -24.1834  -13.0472   20.9181 C   0  0  0  0  0  0
  -24.6392  -11.6936   20.8732 C   0  0  0  0  0  0
  -23.9060  -10.4324   21.0401 C   0  0  0  0  0  0
  -24.3602   -9.4235   21.9181 C   0  0  0  0  0  0
  -23.6282   -8.2261   22.0748 C   0  0  0  0  0  0
  -22.4270   -8.0287   21.3532 C   0  0  0  0  0  0
  -21.9908   -9.0268   20.4647 C   0  0  0  0  0  0
  -22.7229  -10.2150   20.3063 C   0  0  0  0  0  0
  -21.6855   -6.0743   22.5277 C   0  0  0  0  0  0
  -21.4021   -6.5641   23.8215 C   0  0  0  0  0  0
  -21.3660   -5.6785   24.9171 C   0  0  0  0  0  0
  -21.6039   -4.3048   24.7213 C   0  0  0  0  0  0
  -21.8816   -3.8147   23.4332 C   0  0  0  0  0  0
  -21.9197   -4.6973   22.3396 C   0  0  0  0  0  0
  -22.7850  -13.5257   21.1817 C   0  0  0  0  0  0
  -22.1658   -4.2165   21.0970 F   0  0  0  0  0  0
  -21.5629   -3.4527   25.7723 F   0  0  0  0  0  0
  -30.0363  -13.3046   20.4512 N   0  0  0  0  0  0
  -26.3023  -12.9382   20.3363 N   0  0  0  0  0  0
  -25.9321  -11.6539   20.5752 N   0  0  0  0  0  0
  -22.0485  -12.8285   22.0377 N   0  0  0  0  0  0
  -25.4315  -15.1926   20.4125 N   0  0  0  0  0  0
  -31.8499  -14.5914   20.0401 O   0  0  0  0  0  0
  -21.6628   -6.8881   21.4233 O   0  0  0  0  0  0
  -22.3547  -14.5569   20.6656 O   0  0  0  0  0  0
  -24.6160  -31.8673   23.2057 C   0  0  0  0  0  0
  -25.9043  -32.4817   23.8401 C   0  0  1  0  0  0
  -27.2387  -27.4054   20.1319 C   0  0  0  0  0  0
  -25.5908  -33.8617   24.2345 N   0  0  0  0  0  0
  -23.4074  -30.4855   21.5461 C   0  0  2  0  0  0
  -24.8592  -28.9452   20.1218 C   0  0  0  0  0  0
  -22.7440  -29.4624   22.4960 C   0  0  0  0  0  0
  -18.0279  -28.1339   22.8451 C   0  0  0  0  0  0
  -24.1490  -36.7301   23.2641 C   0  0  0  0  0  0
  -25.9411  -30.8249   21.3668 C   0  0  0  0  0  0
  -26.0194  -29.4558   20.7190 C   0  0  0  0  0  0
  -27.2146  -28.6951   20.7160 C   0  0  0  0  0  0
  -26.0684  -26.9245   19.5119 C   0  0  0  0  0  0
  -24.8791  -27.6780   19.5139 C   0  0  0  0  0  0
  -23.6220  -29.8133   20.1636 C   0  0  0  0  0  0
  -25.4110  -36.3101   24.0337 C   0  0  1  0  0  0
  -20.5869  -28.3623   23.1304 C   0  0  2  0  0  0
  -20.6767  -26.9369   22.5372 C   0  0  0  0  0  0
  -19.5777  -26.6397   21.5138 C   0  0  0  0  0  0
  -18.1936  -26.7899   22.1526 C   0  0  0  0  0  0
  -19.1524  -28.8788   23.2887 C   0  0  0  0  0  0
  -18.9440  -30.1397   23.8892 C   0  0  0  0  0  0
  -17.6440  -30.6536   24.0538 C   0  0  0  0  0  0
  -25.9035  -34.9463   23.5130 C   0  0  0  0  0  0
  -16.5340  -29.9032   23.6292 C   0  0  0  0  0  0
  -16.7259  -28.6442   23.0329 C   0  0  0  0  0  0
  -26.4490  -31.6589   25.0727 C   0  0  0  0  0  0
  -25.3766  -31.3696   26.1481 C   0  0  0  0  0  0
  -27.0356  -30.3030   24.6123 C   0  0  0  0  0  0
  -27.6063  -32.4320   25.7483 C   0  0  0  0  0  0
  -27.5584  -37.1811   24.8466 C   0  0  0  0  0  0
  -21.4157  -29.3026   22.3741 N   0  0  0  0  0  0
  -26.4301  -37.3779   23.9401 N   0  0  0  0  0  0
  -24.6725  -31.0759   22.0968 N   0  0  0  0  0  0
  -23.4218  -28.8181   23.3018 O   0  0  0  0  0  0
  -28.3903  -26.6425   20.1160 O   0  0  0  0  0  0
  -26.5587  -34.8901   22.4687 O   0  0  0  0  0  0
  -23.5327  -32.1452   23.7409 O   0  0  0  0  0  0
  -29.7225  -17.9279   21.3497 C   0  0  0  0  0  0
  -31.5555  -19.5330   21.4482 C   0  0  0  0  0  0
  -32.0268  -17.1449   21.3932 C   0  0  0  0  0  0
  -30.1697  -19.2808   21.3864 C   0  0  0  0  0  0
  -30.6430  -16.8436   21.3219 C   0  0  0  0  0  0
  -32.4780  -18.4751   21.4531 C   0  0  0  0  0  0
  -29.2185  -20.4308   21.3748 C   0  0  0  0  0  0
  -28.9823  -24.2627   18.7910 C   0  0  0  0  0  0
  -27.0552  -23.4356   20.2149 C   0  0  0  0  0  0
  -29.4838  -21.5928   20.3968 C   0  0  0  0  0  0
  -29.4060  -23.0465   20.9868 C   0  0  0  0  0  0
  -28.4229  -25.4623   20.9612 C   0  0  0  0  0  0
  -28.4704  -24.0614   20.2332 C   0  0  0  0  0  0
  -28.1827  -20.4390   22.1010 N   0  0  0  0  0  0
  -30.1628  -15.4853   21.2370 N   0  0  0  0  0  0
  -33.8048  -18.7402   21.5068 F   0  0  0  0  0  0
  -31.4535  -12.3540   19.1434 H   0  0  0  0  0  0
  -30.2668  -11.2931   19.8468 H   0  0  0  0  0  0
  -29.7295  -11.7824   17.4314 H   0  0  0  0  0  0
  -29.6640  -13.4898   17.7770 H   0  0  0  0  0  0
  -27.8193  -11.3131   18.8177 H   0  0  0  0  0  0
  -27.3656  -12.6404   17.7865 H   0  0  0  0  0  0
  -27.6975  -14.2608   19.5610 H   0  0  0  0  0  0
  -28.6678  -11.9986   21.3755 H   0  0  0  0  0  0
  -28.4602  -13.6563   21.8557 H   0  0  0  0  0  0
  -25.2749   -9.5704   22.4756 H   0  0  0  0  0  0
  -24.0000   -7.4647   22.7474 H   0  0  0  0  0  0
  -21.0839   -8.8784   19.8952 H   0  0  0  0  0  0
  -22.3688  -10.9680   19.6174 H   0  0  0  0  0  0
  -21.2015   -7.6149   23.9724 H   0  0  0  0  0  0
  -21.1479   -6.0509   25.9072 H   0  0  0  0  0  0
  -22.0596   -2.7614   23.2820 H   0  0  0  0  0  0
  -22.4078  -11.9945   22.4789 H   0  0  0  0  0  0
  -21.1103  -13.1334   22.2562 H   0  0  0  0  0  0
  -24.6692  -15.8512   20.5263 H   0  0  0  0  0  0
  -26.2863  -15.6276   20.0903 H   0  0  0  0  0  0
  -26.7133  -32.5554   23.1186 H   0  0  0  0  0  0
  -25.0109  -33.9794   25.0523 H   0  0  0  0  0  0
  -22.6931  -31.2998   21.4014 H   0  0  0  0  0  0
  -23.3740  -35.9652   23.3329 H   0  0  0  0  0  0
  -24.3585  -36.8873   22.2052 H   0  0  0  0  0  0
  -23.7246  -37.6512   23.6641 H   0  0  0  0  0  0
  -26.0646  -31.5916   20.6001 H   0  0  0  0  0  0
  -26.8247  -30.8777   21.9922 H   0  0  0  0  0  0
  -28.1145  -29.0867   21.1730 H   0  0  0  0  0  0
  -26.0771  -25.9712   19.0110 H   0  0  0  0  0  0
  -23.9912  -27.2754   19.0459 H   0  0  0  0  0  0
  -23.7399  -30.5891   19.4051 H   0  0  0  0  0  0
  -22.7489  -29.2332   19.8593 H   0  0  0  0  0  0
  -25.1286  -36.1975   25.0833 H   0  0  0  0  0  0
  -20.9947  -28.3152   24.1426 H   0  0  0  0  0  0
  -20.5624  -26.2227   23.3528 H   0  0  0  0  0  0
  -21.6658  -26.7408   22.1207 H   0  0  0  0  0  0
  -19.6969  -25.6330   21.1107 H   0  0  0  0  0  0
  -19.6715  -27.3261   20.6712 H   0  0  0  0  0  0
  -17.4244  -26.6671   21.3874 H   0  0  0  0  0  0
  -18.0294  -25.9999   22.8869 H   0  0  0  0  0  0
  -19.7924  -30.7184   24.2301 H   0  0  0  0  0  0
  -17.4987  -31.6201   24.5164 H   0  0  0  0  0  0
  -15.5332  -30.2928   23.7591 H   0  0  0  0  0  0
  -15.8655  -28.0747   22.7041 H   0  0  0  0  0  0
  -24.5874  -30.7135   25.7802 H   0  0  0  0  0  0
  -24.9075  -32.2874   26.5032 H   0  0  0  0  0  0
  -25.8116  -30.8769   27.0182 H   0  0  0  0  0  0
  -26.2940  -29.6744   24.1186 H   0  0  0  0  0  0
  -27.4142  -29.7292   25.4592 H   0  0  0  0  0  0
  -27.8753  -30.4351   23.9292 H   0  0  0  0  0  0
  -27.2662  -33.3548   26.2176 H   0  0  0  0  0  0
  -28.3802  -32.6982   25.0282 H   0  0  0  0  0  0
  -28.0830  -31.8405   26.5301 H   0  0  0  0  0  0
  -28.2610  -38.0101   24.7490 H   0  0  0  0  0  0
  -28.1068  -36.2620   24.6322 H   0  0  0  0  0  0
  -27.2308  -37.1489   25.8875 H   0  0  0  0  0  0
  -20.9300  -29.8835   21.7044 H   0  0  0  0  0  0
  -26.0181  -38.2857   24.1392 H   0  0  0  0  0  0
  -28.6603  -17.7275   21.3071 H   0  0  0  0  0  0
  -31.9251  -20.5463   21.5000 H   0  0  0  0  0  0
  -32.7740  -16.3653   21.3979 H   0  0  0  0  0  0
  -29.0717  -23.3234   18.2459 H   0  0  0  0  0  0
  -29.9657  -24.7322   18.7739 H   0  0  0  0  0  0
  -28.3058  -24.8984   18.2185 H   0  0  0  0  0  0
  -26.8067  -22.9953   21.1807 H   0  0  0  0  0  0
  -26.9682  -22.6461   19.4703 H   0  0  0  0  0  0
  -26.2711  -24.1498   19.9978 H   0  0  0  0  0  0
  -28.7927  -21.4617   19.5682 H   0  0  0  0  0  0
  -30.4615  -21.4627   19.9336 H   0  0  0  0  0  0
  -30.4192  -23.4517   21.0028 H   0  0  0  0  0  0
  -29.1165  -23.0022   22.0382 H   0  0  0  0  0  0
  -27.6137  -25.4837   21.6923 H   0  0  0  0  0  0
  -29.3234  -25.5715   21.5670 H   0  0  0  0  0  0
  -28.1286  -19.6087   22.6791 H   0  0  0  0  0  0
  -29.2319  -15.3027   21.5830 H   0  0  0  0  0  0
  1 25  1  0  0  0
  1 30  2  0  0  0
  1 85  1  0  0  0
  2  3  1  0  0  0
  2 25  1  0  0  0
  2 87  1  0  0  0
  2 88  1  0  0  0
  3  4  1  0  0  0
  3 89  1  0  0  0
  3 90  1  0  0  0
  4  5  1  0  0  0
  4 91  1  0  0  0
  4 92  1  0  0  0
  5  6  1  0  0  0
  5 26  1  0  0  0
  5 93  1  0  0  0
  6 25  1  0  0  0
  6 94  1  0  0  0
  6 95  1  0  0  0
  7  8  2  0  0  0
  7 26  1  0  0  0
  7 29  1  0  0  0
  8  9  1  0  0  0
  8 22  1  0  0  0
  9 10  1  0  0  0
  9 27  2  0  0  0
 10 11  2  0  0  0
 10 15  1  0  0  0
 11 12  1  0  0  0
 11 96  1  0  0  0
 12 13  2  0  0  0
 12 97  1  0  0  0
 13 14  1  0  0  0
 13 31  1  0  0  0
 14 15  2  0  0  0
 14 98  1  0  0  0
 15 99  1  0  0  0
 16 17  2  0  0  0
 16 21  1  0  0  0
 16 31  1  0  0  0
 17 18  1  0  0  0
 17100  1  0  0  0
 18 19  2  0  0  0
 18101  1  0  0  0
 19 20  1  0  0  0
 19 24  1  0  0  0
 20 21  2  0  0  0
 20102  1  0  0  0
 21 23  1  0  0  0
 22 28  1  0  0  0
 22 32  2  0  0  0
 26 27  1  0  0  0
 28103  1  0  0  0
 28104  1  0  0  0
 29105  1  0  0  0
 29106  1  0  0  0
 33 34  1  0  0  0
 33 66  1  0  0  0
 33 70  2  0  0  0
 34 36  1  0  0  0
 34 59  1  0  0  0
 34107  1  0  0  0
 35 44  2  0  0  0
 35 45  1  0  0  0
 35 68  1  0  0  0
 36 56  1  0  0  0
 36108  1  0  0  0
 37 39  1  0  0  0
 37 47  1  0  0  0
 37 66  1  0  0  0
 37109  1  0  0  0
 38 43  2  0  0  0
 38 46  1  0  0  0
 38 47  1  0  0  0
 39 64  1  0  0  0
 39 67  2  0  0  0
 40 52  1  0  0  0
 40 53  2  0  0  0
 40 58  1  0  0  0
 41110  1  0  0  0
 41111  1  0  0  0
 41112  1  0  0  0
 41 48  1  0  0  0
 42 43  1  0  0  0
 42 66  1  0  0  0
 42113  1  0  0  0
 42114  1  0  0  0
 43 44  1  0  0  0
 44115  1  0  0  0
 45 46  2  0  0  0
 45116  1  0  0  0
 46117  1  0  0  0
 47118  1  0  0  0
 47119  1  0  0  0
 48 56  1  0  0  0
 48 65  1  0  0  0
 48120  1  0  0  0
 49 50  1  0  0  0
 49 53  1  0  0  0
 49 64  1  0  0  0
 49121  1  0  0  0
 50 51  1  0  0  0
 50122  1  0  0  0
 50123  1  0  0  0
 51 52  1  0  0  0
 51124  1  0  0  0
 51125  1  0  0  0
 52126  1  0  0  0
 52127  1  0  0  0
 53 54  1  0  0  0
 54 55  2  0  0  0
 54128  1  0  0  0
 55 57  1  0  0  0
 55129  1  0  0  0
 56 69  2  0  0  0
 57 58  2  0  0  0
 57130  1  0  0  0
 58131  1  0  0  0
 59 60  1  0  0  0
 59 61  1  0  0  0
 59 62  1  0  0  0
 60132  1  0  0  0
 60133  1  0  0  0
 60134  1  0  0  0
 61135  1  0  0  0
 61136  1  0  0  0
 61137  1  0  0  0
 62138  1  0  0  0
 62139  1  0  0  0
 62140  1  0  0  0
 63 65  1  0  0  0
 63141  1  0  0  0
 63142  1  0  0  0
 63143  1  0  0  0
 64144  1  0  0  0
 65145  1  0  0  0
 68 82  1  0  0  0
 71 74  2  0  0  0
 71 75  1  0  0  0
 71146  1  0  0  0
 72 74  1  0  0  0
 72 76  2  0  0  0
 72147  1  0  0  0
 73 75  2  0  0  0
 73 76  1  0  0  0
 73148  1  0  0  0
 74 77  1  0  0  0
 75 85  1  0  0  0
 76 86  1  0  0  0
 77 80  1  0  0  0
 77 84  2  0  0  0
 78149  1  0  0  0
 78150  1  0  0  0
 78151  1  0  0  0
 78 83  1  0  0  0
 79 83  1  0  0  0
 79152  1  0  0  0
 79153  1  0  0  0
 79154  1  0  0  0
 80 81  1  0  0  0
 80155  1  0  0  0
 80156  1  0  0  0
 81 83  1  0  0  0
 81157  1  0  0  0
 81158  1  0  0  0
 82 83  1  0  0  0
 82159  1  0  0  0
 82160  1  0  0  0
 84161  1  0  0  0
 85162  1  0  0  0
M  ISO  4   1 100  68 101  82 101  85 100
M  END
> <chiral flag>
0

> <version>
0

> <s_m_source_file>
/data/baiqing/PycharmProjects/Reinvent-master-3.2/result/LINK_invent/BTK/process_docking_weight1_custom_product_contain_oxygen_bond_distance_aromatic_linkinvent_7_9_3/rearranged_h_0137.sdf

> <i_m_source_file_index>
91

> <r_mmod_Potential_Energy-OPLS-2005>
-8.52656269073486

> <r_mmod_Stretch_Energy-OPLS-2005>
49.8617935180664

> <r_mmod_Bend_Energy-OPLS-2005>
108.581474304199

> <r_mmod_Torsional_Energy-OPLS-2005>
270.2275390625

> <r_mmod_Improper_Torsional_Energy-OPLS-2005>
3.07738661766052

> <r_mmod_Van_der_Waal_Energy-OPLS-2005>
159.30827331543

> <r_mmod_Electrostatic_Energy-OPLS-2005>
-409.779113769531

> <r_mmod_Solvation_Energy-OPLS-2005>
-204.756790161133

> <b_mmod_Minimization_Converged-OPLS-2005>
0

> <r_mmod_RMS_Derivative-OPLS-2005>
3.9890468120575

$$$$
91
                    3D
 Structure written by MMmdl.
162170  0  0  1  0            999 V2000
  -30.6774  -14.4925   20.5337 C   0  0  0  0  0  0
  -30.4304  -12.3075   19.4310 C   0  0  0  0  0  0
  -29.5017  -12.5024   18.2136 C   0  0  0  0  0  0
  -28.0210  -12.3677   18.6237 C   0  0  0  0  0  0
  -27.6648  -13.2032   19.8826 C   0  0  2  0  0  0
  -28.7077  -12.9882   21.0042 C   0  0  0  0  0  0
  -25.2611  -13.8157   20.5697 C   0  0  0  0  0  0
  -24.1850  -13.0442   20.9172 C   0  0  0  0  0  0
  -24.6402  -11.6902   20.8745 C   0  0  0  0  0  0
  -23.9062  -10.4290   21.0416 C   0  0  0  0  0  0
  -24.3612   -9.4206   21.9199 C   0  0  0  0  0  0
  -23.6276   -8.2246   22.0775 C   0  0  0  0  0  0
  -22.4257   -8.0288   21.3555 C   0  0  0  0  0  0
  -21.9891   -9.0271   20.4665 C   0  0  0  0  0  0
  -22.7230  -10.2147   20.3069 C   0  0  0  0  0  0
  -21.6851   -6.0738   22.5284 C   0  0  0  0  0  0
  -21.4020   -6.5648   23.8221 C   0  0  0  0  0  0
  -21.3653   -5.6800   24.9182 C   0  0  0  0  0  0
  -21.6042   -4.3062   24.7233 C   0  0  0  0  0  0
  -21.8814   -3.8149   23.4354 C   0  0  0  0  0  0
  -21.9196   -4.6964   22.3406 C   0  0  0  0  0  0
  -22.7876  -13.5254   21.1826 C   0  0  0  0  0  0
  -22.1660   -4.2157   21.0981 F   0  0  0  0  0  0
  -21.5620   -3.4542   25.7742 F   0  0  0  0  0  0
  -30.0391  -13.2925   20.4531 N   0  0  0  0  0  0
  -26.3046  -12.9313   20.3402 N   0  0  0  0  0  0
  -25.9330  -11.6479   20.5789 N   0  0  0  0  0  0
  -22.0490  -12.8273   22.0383 N   0  0  0  0  0  0
  -25.4323  -15.1880   20.4114 N   0  0  0  0  0  0
  -31.8073  -14.6855   20.0758 O   0  0  0  0  0  0
  -21.6633   -6.8876   21.4238 O   0  0  0  0  0  0
  -22.3569  -14.5556   20.6666 O   0  0  0  0  0  0
  -24.6150  -31.8664   23.2098 C   0  0  0  0  0  0
  -25.9047  -32.4805   23.8389 C   0  0  1  0  0  0
  -27.2323  -27.4159   20.0862 C   0  0  0  0  0  0
  -25.5899  -33.8606   24.2309 N   0  0  0  0  0  0
  -23.4020  -30.4897   21.5521 C   0  0  2  0  0  0
  -24.8450  -28.9541   20.1126 C   0  0  0  0  0  0
  -22.7400  -29.4644   22.5010 C   0  0  0  0  0  0
  -18.0265  -28.1373   22.8503 C   0  0  0  0  0  0
  -24.1480  -36.7308   23.2636 C   0  0  0  0  0  0
  -25.9325  -30.8245   21.3665 C   0  0  0  0  0  0
  -26.0059  -29.4589   20.7092 C   0  0  0  0  0  0
  -27.1972  -28.6961   20.6929 C   0  0  0  0  0  0
  -26.0461  -26.9270   19.4903 C   0  0  0  0  0  0
  -24.8613  -27.6880   19.5037 C   0  0  0  0  0  0
  -23.6072  -29.8218   20.1659 C   0  0  0  0  0  0
  -25.4101  -36.3094   24.0327 C   0  0  1  0  0  0
  -20.5855  -28.3646   23.1337 C   0  0  2  0  0  0
  -20.6748  -26.9383   22.5424 C   0  0  0  0  0  0
  -19.5725  -26.6379   21.5219 C   0  0  0  0  0  0
  -18.1910  -26.7921   22.1638 C   0  0  0  0  0  0
  -19.1518  -28.8831   23.2914 C   0  0  0  0  0  0
  -18.9444  -30.1446   23.8905 C   0  0  0  0  0  0
  -17.6444  -30.6582   24.0563 C   0  0  0  0  0  0
  -25.9032  -34.9462   23.5116 C   0  0  0  0  0  0
  -16.5335  -29.9078   23.6331 C   0  0  0  0  0  0
  -16.7254  -28.6498   23.0348 C   0  0  0  0  0  0
  -26.4461  -31.6607   25.0742 C   0  0  0  0  0  0
  -25.3727  -31.3737   26.1499 C   0  0  0  0  0  0
  -27.0277  -30.3034   24.6157 C   0  0  0  0  0  0
  -27.6028  -32.4326   25.7517 C   0  0  0  0  0  0
  -27.5568  -37.1810   24.8460 C   0  0  0  0  0  0
  -21.4129  -29.3011   22.3751 N   0  0  0  0  0  0
  -26.4280  -37.3784   23.9405 N   0  0  0  0  0  0
  -24.6683  -31.0746   22.1007 N   0  0  0  0  0  0
  -23.4178  -28.8178   23.3045 O   0  0  0  0  0  0
  -28.4259  -26.7132   20.1059 O   0  0  0  0  0  0
  -26.5594  -34.8917   22.4678 O   0  0  0  0  0  0
  -23.5341  -32.1435   23.7473 O   0  0  0  0  0  0
  -28.8529  -17.9048   18.3338 C   0  0  0  0  0  0
  -29.0412  -19.1454   18.9691 C   0  0  0  0  0  0
  -29.1912  -16.7091   18.9964 C   0  0  0  0  0  0
  -29.8943  -17.9960   20.9430 C   0  0  0  0  0  0
  -29.5744  -19.2113   20.2732 C   0  0  0  0  0  0
  -29.7085  -16.7381   20.3123 C   0  0  0  0  0  0
  -29.8331  -20.5427   20.8911 C   0  0  0  0  0  0
  -26.9408  -24.0661   21.0916 C   0  0  0  0  0  0
  -29.2824  -24.6114   21.8803 C   0  0  0  0  0  0
  -28.7062  -21.5835   20.9276 C   0  0  0  0  0  0
  -28.9399  -22.8724   20.0710 C   0  0  0  0  0  0
  -28.5440  -25.3665   19.5945 C   0  0  0  0  0  0
  -28.4142  -24.2266   20.6627 C   0  0  0  0  0  0
  -30.9429  -20.8167   21.4347 N   0  0  0  0  0  0
  -29.9381  -15.5126   21.0159 N   0  0  0  0  0  0
  -31.4747  -12.4114   19.1289 H   0  0  0  0  0  0
  -30.3368  -11.2960   19.8285 H   0  0  0  0  0  0
  -29.7406  -11.7756   17.4359 H   0  0  0  0  0  0
  -29.6760  -13.4853   17.7743 H   0  0  0  0  0  0
  -27.8283  -11.3119   18.8169 H   0  0  0  0  0  0
  -27.3732  -12.6473   17.7919 H   0  0  0  0  0  0
  -27.7015  -14.2507   19.5887 H   0  0  0  0  0  0
  -28.6857  -11.9540   21.3519 H   0  0  0  0  0  0
  -28.4714  -13.5951   21.8790 H   0  0  0  0  0  0
  -25.2760   -9.5690   22.4775 H   0  0  0  0  0  0
  -24.0000   -7.4635   22.7495 H   0  0  0  0  0  0
  -21.0824   -8.8793   19.8971 H   0  0  0  0  0  0
  -22.3693  -10.9691   19.6183 H   0  0  0  0  0  0
  -21.2020   -7.6160   23.9724 H   0  0  0  0  0  0
  -21.1471   -6.0533   25.9087 H   0  0  0  0  0  0
  -22.0595   -2.7611   23.2854 H   0  0  0  0  0  0
  -22.4066  -11.9939   22.4805 H   0  0  0  0  0  0
  -21.1122  -13.1356   22.2570 H   0  0  0  0  0  0
  -24.6666  -15.8417   20.5294 H   0  0  0  0  0  0
  -26.2874  -15.6315   20.1008 H   0  0  0  0  0  0
  -26.7116  -32.5500   23.1148 H   0  0  0  0  0  0
  -25.0040  -33.9771   25.0448 H   0  0  0  0  0  0
  -22.6908  -31.3061   21.4144 H   0  0  0  0  0  0
  -23.3725  -35.9662   23.3316 H   0  0  0  0  0  0
  -24.3560  -36.8910   22.2044 H   0  0  0  0  0  0
  -23.7260  -37.6528   23.6645 H   0  0  0  0  0  0
  -26.0532  -31.5936   20.6021 H   0  0  0  0  0  0
  -26.8159  -30.8698   21.9916 H   0  0  0  0  0  0
  -28.0942  -29.0839   21.1561 H   0  0  0  0  0  0
  -26.0014  -25.9572   19.0199 H   0  0  0  0  0  0
  -23.9669  -27.2902   19.0448 H   0  0  0  0  0  0
  -23.7092  -30.5969   19.4051 H   0  0  0  0  0  0
  -22.7304  -29.2404   19.8755 H   0  0  0  0  0  0
  -25.1283  -36.1948   25.0820 H   0  0  0  0  0  0
  -20.9947  -28.3193   24.1458 H   0  0  0  0  0  0
  -20.5650  -26.2239   23.3599 H   0  0  0  0  0  0
  -21.6620  -26.7421   22.1217 H   0  0  0  0  0  0
  -19.6877  -25.6296   21.1229 H   0  0  0  0  0  0
  -19.6669  -27.3207   20.6761 H   0  0  0  0  0  0
  -17.4174  -26.6670   21.4043 H   0  0  0  0  0  0
  -18.0311  -26.0067   22.9039 H   0  0  0  0  0  0
  -19.7921  -30.7271   24.2265 H   0  0  0  0  0  0
  -17.4995  -31.6265   24.5157 H   0  0  0  0  0  0
  -15.5336  -30.2972   23.7660 H   0  0  0  0  0  0
  -15.8655  -28.0819   22.7047 H   0  0  0  0  0  0
  -24.5893  -30.7083   25.7864 H   0  0  0  0  0  0
  -24.8932  -32.2903   26.4948 H   0  0  0  0  0  0
  -25.8089  -30.8925   27.0263 H   0  0  0  0  0  0
  -26.2846  -29.6833   24.1138 H   0  0  0  0  0  0
  -27.3927  -29.7242   25.4651 H   0  0  0  0  0  0
  -27.8733  -30.4315   23.9394 H   0  0  0  0  0  0
  -27.2632  -33.3596   26.2151 H   0  0  0  0  0  0
  -28.3829  -32.6938   25.0356 H   0  0  0  0  0  0
  -28.0716  -31.8426   26.5406 H   0  0  0  0  0  0
  -28.2595  -38.0094   24.7479 H   0  0  0  0  0  0
  -28.1051  -36.2623   24.6316 H   0  0  0  0  0  0
  -27.2282  -37.1504   25.8863 H   0  0  0  0  0  0
  -20.9277  -29.8737   21.6992 H   0  0  0  0  0  0
  -26.0160  -38.2858   24.1407 H   0  0  0  0  0  0
  -28.4492  -17.8708   17.3313 H   0  0  0  0  0  0
  -28.7916  -20.0563   18.4402 H   0  0  0  0  0  0
  -29.0293  -15.7736   18.4806 H   0  0  0  0  0  0
  -30.2864  -18.0374   21.9496 H   0  0  0  0  0  0
  -26.8218  -23.3406   21.8965 H   0  0  0  0  0  0
  -26.3180  -23.7344   20.2593 H   0  0  0  0  0  0
  -26.5269  -25.0037   21.4600 H   0  0  0  0  0  0
  -29.2925  -23.8390   22.6483 H   0  0  0  0  0  0
  -28.9273  -25.5281   22.3522 H   0  0  0  0  0  0
  -30.3180  -24.7833   21.5822 H   0  0  0  0  0  0
  -28.5649  -21.8442   21.9756 H   0  0  0  0  0  0
  -27.7685  -21.1116   20.6308 H   0  0  0  0  0  0
  -28.4727  -22.7044   19.0997 H   0  0  0  0  0  0
  -30.0025  -22.9816   19.8509 H   0  0  0  0  0  0
  -29.5571  -25.3223   19.1942 H   0  0  0  0  0  0
  -27.9206  -25.1794   18.7214 H   0  0  0  0  0  0
  -31.5946  -20.0424   21.3619 H   0  0  0  0  0  0
  -29.1562  -15.2057   21.5741 H   0  0  0  0  0  0
  1 25  1  0  0  0
  1 30  2  0  0  0
  1 85  1  0  0  0
  2  3  1  0  0  0
  2 25  1  0  0  0
  2 86  1  0  0  0
  2 87  1  0  0  0
  3  4  1  0  0  0
  3 88  1  0  0  0
  3 89  1  0  0  0
  4  5  1  0  0  0
  4 90  1  0  0  0
  4 91  1  0  0  0
  5  6  1  0  0  0
  5 26  1  0  0  0
  5 92  1  0  0  0
  6 25  1  0  0  0
  6 93  1  0  0  0
  6 94  1  0  0  0
  7  8  2  0  0  0
  7 26  1  0  0  0
  7 29  1  0  0  0
  8  9  1  0  0  0
  8 22  1  0  0  0
  9 10  1  0  0  0
  9 27  2  0  0  0
 10 11  2  0  0  0
 10 15  1  0  0  0
 11 12  1  0  0  0
 11 95  1  0  0  0
 12 13  2  0  0  0
 12 96  1  0  0  0
 13 14  1  0  0  0
 13 31  1  0  0  0
 14 15  2  0  0  0
 14 97  1  0  0  0
 15 98  1  0  0  0
 16 17  2  0  0  0
 16 21  1  0  0  0
 16 31  1  0  0  0
 17 18  1  0  0  0
 17 99  1  0  0  0
 18 19  2  0  0  0
 18100  1  0  0  0
 19 20  1  0  0  0
 19 24  1  0  0  0
 20 21  2  0  0  0
 20101  1  0  0  0
 21 23  1  0  0  0
 22 28  1  0  0  0
 22 32  2  0  0  0
 26 27  1  0  0  0
 28102  1  0  0  0
 28103  1  0  0  0
 29104  1  0  0  0
 29105  1  0  0  0
 33 34  1  0  0  0
 33 66  1  0  0  0
 33 70  2  0  0  0
 34 36  1  0  0  0
 34 59  1  0  0  0
 34106  1  0  0  0
 35 44  2  0  0  0
 35 45  1  0  0  0
 35 68  1  0  0  0
 36 56  1  0  0  0
 36107  1  0  0  0
 37 39  1  0  0  0
 37 47  1  0  0  0
 37 66  1  0  0  0
 37108  1  0  0  0
 38 43  2  0  0  0
 38 46  1  0  0  0
 38 47  1  0  0  0
 39 64  1  0  0  0
 39 67  2  0  0  0
 40 52  1  0  0  0
 40 53  2  0  0  0
 40 58  1  0  0  0
 41109  1  0  0  0
 41110  1  0  0  0
 41111  1  0  0  0
 41 48  1  0  0  0
 42 43  1  0  0  0
 42 66  1  0  0  0
 42112  1  0  0  0
 42113  1  0  0  0
 43 44  1  0  0  0
 44114  1  0  0  0
 45 46  2  0  0  0
 45115  1  0  0  0
 46116  1  0  0  0
 47117  1  0  0  0
 47118  1  0  0  0
 48 56  1  0  0  0
 48 65  1  0  0  0
 48119  1  0  0  0
 49 50  1  0  0  0
 49 53  1  0  0  0
 49 64  1  0  0  0
 49120  1  0  0  0
 50 51  1  0  0  0
 50121  1  0  0  0
 50122  1  0  0  0
 51 52  1  0  0  0
 51123  1  0  0  0
 51124  1  0  0  0
 52125  1  0  0  0
 52126  1  0  0  0
 53 54  1  0  0  0
 54 55  2  0  0  0
 54127  1  0  0  0
 55 57  1  0  0  0
 55128  1  0  0  0
 56 69  2  0  0  0
 57 58  2  0  0  0
 57129  1  0  0  0
 58130  1  0  0  0
 59 60  1  0  0  0
 59 61  1  0  0  0
 59 62  1  0  0  0
 60131  1  0  0  0
 60132  1  0  0  0
 60133  1  0  0  0
 61134  1  0  0  0
 61135  1  0  0  0
 61136  1  0  0  0
 62137  1  0  0  0
 62138  1  0  0  0
 62139  1  0  0  0
 63 65  1  0  0  0
 63140  1  0  0  0
 63141  1  0  0  0
 63142  1  0  0  0
 64143  1  0  0  0
 65144  1  0  0  0
 68 82  1  0  0  0
 71 72  2  0  0  0
 71 73  1  0  0  0
 71145  1  0  0  0
 72 75  1  0  0  0
 72146  1  0  0  0
 73 76  2  0  0  0
 73147  1  0  0  0
 74 75  2  0  0  0
 74 76  1  0  0  0
 74148  1  0  0  0
 75 77  1  0  0  0
 76 85  1  0  0  0
 77 80  1  0  0  0
 77 84  2  0  0  0
 78149  1  0  0  0
 78150  1  0  0  0
 78151  1  0  0  0
 78 83  1  0  0  0
 79 83  1  0  0  0
 79152  1  0  0  0
 79153  1  0  0  0
 79154  1  0  0  0
 80 81  1  0  0  0
 80155  1  0  0  0
 80156  1  0  0  0
 81 83  1  0  0  0
 81157  1  0  0  0
 81158  1  0  0  0
 82 83  1  0  0  0
 82159  1  0  0  0
 82160  1  0  0  0
 84161  1  0  0  0
 85162  1  0  0  0
M  ISO  4   1 100  68 101  82 101  85 100
M  END
> <chiral flag>
0

> <version>
0

> <s_m_source_file>
/data/baiqing/PycharmProjects/Reinvent-master-3.2/result/LINK_invent/BTK/process_docking_weight1_custom_product_contain_oxygen_bond_distance_aromatic_linkinvent_7_9_3/rearranged_h_0137.sdf

> <i_m_source_file_index>
92

> <r_mmod_Potential_Energy-OPLS-2005>
-13.9387130737305

> <r_mmod_Stretch_Energy-OPLS-2005>
43.7425918579102

> <r_mmod_Bend_Energy-OPLS-2005>
113.970497131348

> <r_mmod_Torsional_Energy-OPLS-2005>
262.397979736328

> <r_mmod_Improper_Torsional_Energy-OPLS-2005>
6.64469766616821

> <r_mmod_Van_der_Waal_Energy-OPLS-2005>
146.042617797852

> <r_mmod_Electrostatic_Energy-OPLS-2005>
-390.515411376953

> <r_mmod_Solvation_Energy-OPLS-2005>
-211.445190429688

> <b_mmod_Minimization_Converged-OPLS-2005>
0

> <r_mmod_RMS_Derivative-OPLS-2005>
1.91762864589691

$$$$
92
                    3D
 Structure written by MMmdl.
162170  0  0  1  0            999 V2000
  -30.6378  -14.6958   20.5148 C   0  0  0  0  0  0
  -30.4371  -12.4324   19.4789 C   0  0  0  0  0  0
  -29.5162  -12.5268   18.2403 C   0  0  0  0  0  0
  -28.0376  -12.3545   18.6400 C   0  0  0  0  0  0
  -27.6521  -13.2246   19.8653 C   0  0  2  0  0  0
  -28.6911  -13.0847   20.9974 C   0  0  0  0  0  0
  -25.2549  -13.8182   20.5687 C   0  0  0  0  0  0
  -24.1820  -13.0438   20.9171 C   0  0  0  0  0  0
  -24.6398  -11.6911   20.8720 C   0  0  0  0  0  0
  -23.9068  -10.4293   21.0393 C   0  0  0  0  0  0
  -24.3619   -9.4210   21.9175 C   0  0  0  0  0  0
  -23.6291   -8.2248   22.0752 C   0  0  0  0  0  0
  -22.4273   -8.0281   21.3542 C   0  0  0  0  0  0
  -21.9909   -9.0255   20.4644 C   0  0  0  0  0  0
  -22.7239  -10.2131   20.3049 C   0  0  0  0  0  0
  -21.6855   -6.0735   22.5279 C   0  0  0  0  0  0
  -21.4015   -6.5639   23.8210 C   0  0  0  0  0  0
  -21.3659   -5.6792   24.9173 C   0  0  0  0  0  0
  -21.6046   -4.3055   24.7224 C   0  0  0  0  0  0
  -21.8820   -3.8145   23.4346 C   0  0  0  0  0  0
  -21.9191   -4.6963   22.3400 C   0  0  0  0  0  0
  -22.7843  -13.5225   21.1847 C   0  0  0  0  0  0
  -22.1661   -4.2149   21.0978 F   0  0  0  0  0  0
  -21.5629   -3.4537   25.7736 F   0  0  0  0  0  0
  -30.0064  -13.4656   20.4535 N   0  0  0  0  0  0
  -26.2982  -12.9379   20.3315 N   0  0  0  0  0  0
  -25.9329  -11.6521   20.5730 N   0  0  0  0  0  0
  -22.0491  -12.8213   22.0404 N   0  0  0  0  0  0
  -25.4254  -15.1907   20.4134 N   0  0  0  0  0  0
  -31.7634  -14.8378   20.0248 O   0  0  0  0  0  0
  -21.6638   -6.8878   21.4239 O   0  0  0  0  0  0
  -22.3524  -14.5532   20.6700 O   0  0  0  0  0  0
  -24.6299  -31.8572   23.2013 C   0  0  0  0  0  0
  -25.9131  -32.4764   23.8344 C   0  0  1  0  0  0
  -27.2180  -27.2773   20.1166 C   0  0  0  0  0  0
  -25.5936  -33.8566   24.2268 N   0  0  0  0  0  0
  -23.4250  -30.4816   21.5452 C   0  0  2  0  0  0
  -24.8716  -28.9375   20.1077 C   0  0  0  0  0  0
  -22.7494  -29.4603   22.4922 C   0  0  0  0  0  0
  -18.0294  -28.1384   22.8477 C   0  0  0  0  0  0
  -24.1489  -36.7285   23.2636 C   0  0  0  0  0  0
  -25.9710  -30.7735   21.3813 C   0  0  0  0  0  0
  -26.0432  -29.3990   20.7203 C   0  0  0  0  0  0
  -27.2176  -28.5801   20.7188 C   0  0  0  0  0  0
  -26.0246  -26.8939   19.4578 C   0  0  0  0  0  0
  -24.8667  -27.6913   19.4671 C   0  0  0  0  0  0
  -23.6420  -29.8218   20.1591 C   0  0  0  0  0  0
  -25.4113  -36.3074   24.0329 C   0  0  1  0  0  0
  -20.5893  -28.3691   23.1270 C   0  0  2  0  0  0
  -20.6778  -26.9409   22.5408 C   0  0  0  0  0  0
  -19.5757  -26.6382   21.5205 C   0  0  0  0  0  0
  -18.1936  -26.7925   22.1615 C   0  0  0  0  0  0
  -19.1547  -28.8854   23.2865 C   0  0  0  0  0  0
  -18.9470  -30.1453   23.8884 C   0  0  0  0  0  0
  -17.6470  -30.6586   24.0559 C   0  0  0  0  0  0
  -25.9057  -34.9445   23.5100 C   0  0  0  0  0  0
  -16.5360  -29.9084   23.6329 C   0  0  0  0  0  0
  -16.7280  -28.6501   23.0348 C   0  0  0  0  0  0
  -26.4503  -31.6588   25.0729 C   0  0  0  0  0  0
  -25.3725  -31.3744   26.1450 C   0  0  0  0  0  0
  -27.0346  -30.3002   24.6213 C   0  0  0  0  0  0
  -27.6064  -32.4326   25.7496 C   0  0  0  0  0  0
  -27.5588  -37.1782   24.8455 C   0  0  0  0  0  0
  -21.4201  -29.3043   22.3662 N   0  0  0  0  0  0
  -26.4285  -37.3777   23.9424 N   0  0  0  0  0  0
  -24.6943  -31.0546   22.0987 N   0  0  0  0  0  0
  -23.4199  -28.8132   23.3011 O   0  0  0  0  0  0
  -28.3091  -26.3787   20.1937 O   0  0  0  0  0  0
  -26.5631  -34.8917   22.4669 O   0  0  0  0  0  0
  -23.5453  -32.1399   23.7314 O   0  0  0  0  0  0
  -29.3407  -17.1784   19.0233 C   0  0  0  0  0  0
  -29.0005  -19.5956   18.7834 C   0  0  0  0  0  0
  -29.7372  -17.3003   20.3733 C   0  0  0  0  0  0
  -29.7992  -18.6739   20.8936 C   0  0  0  0  0  0
  -29.4104  -19.8443   20.1130 C   0  0  0  0  0  0
  -28.9848  -18.2952   18.2473 C   0  0  0  0  0  0
  -29.8942  -24.0695   21.4173 C   0  0  0  0  0  0
  -29.9096  -15.9610   21.1612 C   0  0  0  0  0  0
  -29.0053  -23.7962   20.4485 C   0  0  0  0  0  0
  -32.4323  -19.1338   23.7499 C   0  0  0  0  0  0
  -30.3310  -18.9391   22.3008 C   0  0  0  0  0  0
  -28.0741  -24.9333   19.8658 C   0  0  0  0  0  0
  -28.8613  -22.3270   19.8678 C   0  0  0  0  0  0
  -31.8579  -18.7686   22.3763 C   0  0  0  0  0  0
  -29.4596  -15.8866   22.3425 N   0  0  0  0  0  0
  -29.4417  -21.1798   20.6215 O   0  0  0  0  0  0
  -28.5976  -18.1118   16.9628 F   0  0  0  0  0  0
  -31.4804  -12.5485   19.1809 H   0  0  0  0  0  0
  -30.3741  -11.4392   19.9266 H   0  0  0  0  0  0
  -29.7951  -11.7708   17.5052 H   0  0  0  0  0  0
  -29.6554  -13.4928   17.7529 H   0  0  0  0  0  0
  -27.8794  -11.3007   18.8711 H   0  0  0  0  0  0
  -27.3872  -12.5801   17.7945 H   0  0  0  0  0  0
  -27.6687  -14.2612   19.5287 H   0  0  0  0  0  0
  -28.7195  -12.0556   21.3587 H   0  0  0  0  0  0
  -28.3966  -13.6746   21.8620 H   0  0  0  0  0  0
  -25.2767   -9.5686   22.4745 H   0  0  0  0  0  0
  -24.0001   -7.4642   22.7475 H   0  0  0  0  0  0
  -21.0841   -8.8772   19.8952 H   0  0  0  0  0  0
  -22.3698  -10.9666   19.6154 H   0  0  0  0  0  0
  -21.2008   -7.6147   23.9713 H   0  0  0  0  0  0
  -21.1482   -6.0521   25.9075 H   0  0  0  0  0  0
  -22.0598   -2.7607   23.2843 H   0  0  0  0  0  0
  -22.4112  -11.9872   22.4787 H   0  0  0  0  0  0
  -21.1112  -13.1238   22.2621 H   0  0  0  0  0  0
  -24.6631  -15.8478   20.5373 H   0  0  0  0  0  0
  -26.2895  -15.6351   20.1315 H   0  0  0  0  0  0
  -26.7192  -32.5418   23.1082 H   0  0  0  0  0  0
  -25.0065  -33.9707   25.0397 H   0  0  0  0  0  0
  -22.7206  -31.3037   21.4029 H   0  0  0  0  0  0
  -23.3765  -35.9602   23.3275 H   0  0  0  0  0  0
  -24.3581  -36.8933   22.2056 H   0  0  0  0  0  0
  -23.7225  -37.6470   23.6674 H   0  0  0  0  0  0
  -26.1101  -31.5373   20.6151 H   0  0  0  0  0  0
  -26.8477  -30.8180   22.0154 H   0  0  0  0  0  0
  -28.1118  -28.9242   21.2198 H   0  0  0  0  0  0
  -25.9444  -25.9548   18.9323 H   0  0  0  0  0  0
  -23.9722  -27.3361   18.9732 H   0  0  0  0  0  0
  -23.7645  -30.6015   19.4064 H   0  0  0  0  0  0
  -22.7600  -29.2563   19.8523 H   0  0  0  0  0  0
  -25.1286  -36.1918   25.0820 H   0  0  0  0  0  0
  -20.9982  -28.3275   24.1391 H   0  0  0  0  0  0
  -20.5672  -26.2300   23.3610 H   0  0  0  0  0  0
  -21.6648  -26.7429   22.1208 H   0  0  0  0  0  0
  -19.6918  -25.6291   21.1240 H   0  0  0  0  0  0
  -19.6705  -27.3188   20.6730 H   0  0  0  0  0  0
  -17.4205  -26.6673   21.4020 H   0  0  0  0  0  0
  -18.0334  -26.0067   22.9011 H   0  0  0  0  0  0
  -19.7950  -30.7261   24.2258 H   0  0  0  0  0  0
  -17.5032  -31.6266   24.5162 H   0  0  0  0  0  0
  -15.5360  -30.2983   23.7666 H   0  0  0  0  0  0
  -15.8677  -28.0819   22.7068 H   0  0  0  0  0  0
  -24.5913  -30.7072   25.7789 H   0  0  0  0  0  0
  -24.8898  -32.2913   26.4840 H   0  0  0  0  0  0
  -25.8042  -30.8957   27.0248 H   0  0  0  0  0  0
  -26.2926  -29.6750   24.1234 H   0  0  0  0  0  0
  -27.4021  -29.7266   25.4732 H   0  0  0  0  0  0
  -27.8810  -30.4273   23.9460 H   0  0  0  0  0  0
  -27.2678  -33.3639   26.2050 H   0  0  0  0  0  0
  -28.3882  -32.6867   25.0325 H   0  0  0  0  0  0
  -28.0718  -31.8463   26.5428 H   0  0  0  0  0  0
  -28.2567  -38.0119   24.7559 H   0  0  0  0  0  0
  -28.1122  -36.2650   24.6202 H   0  0  0  0  0  0
  -27.2312  -37.1335   25.8857 H   0  0  0  0  0  0
  -20.9382  -29.8774   21.6879 H   0  0  0  0  0  0
  -26.0165  -38.2841   24.1472 H   0  0  0  0  0  0
  -29.2643  -16.2045   18.5622 H   0  0  0  0  0  0
  -28.6972  -20.3971   18.1289 H   0  0  0  0  0  0
  -30.5344  -23.3001   21.8248 H   0  0  0  0  0  0
  -29.9959  -25.0678   21.8188 H   0  0  0  0  0  0
  -33.5165  -19.0172   23.7603 H   0  0  0  0  0  0
  -32.0230  -18.4952   24.5331 H   0  0  0  0  0  0
  -32.2098  -20.1692   24.0093 H   0  0  0  0  0  0
  -29.8341  -18.3069   23.0333 H   0  0  0  0  0  0
  -30.0747  -19.9526   22.6082 H   0  0  0  0  0  0
  -27.0790  -24.6398   20.2008 H   0  0  0  0  0  0
  -28.0825  -24.8374   18.7794 H   0  0  0  0  0  0
  -29.2971  -22.3599   18.8690 H   0  0  0  0  0  0
  -27.7959  -22.1297   19.7405 H   0  0  0  0  0  0
  -32.1334  -17.7414   22.1333 H   0  0  0  0  0  0
  -32.3274  -19.3977   21.6184 H   0  0  0  0  0  0
  -29.0196  -16.7556   22.6162 H   0  0  0  0  0  0
  1 25  1  0  0  0
  1 30  2  0  0  0
  1 78  1  0  0  0
  2  3  1  0  0  0
  2 25  1  0  0  0
  2 88  1  0  0  0
  2 89  1  0  0  0
  3  4  1  0  0  0
  3 90  1  0  0  0
  3 91  1  0  0  0
  4  5  1  0  0  0
  4 92  1  0  0  0
  4 93  1  0  0  0
  5  6  1  0  0  0
  5 26  1  0  0  0
  5 94  1  0  0  0
  6 25  1  0  0  0
  6 95  1  0  0  0
  6 96  1  0  0  0
  7  8  2  0  0  0
  7 26  1  0  0  0
  7 29  1  0  0  0
  8  9  1  0  0  0
  8 22  1  0  0  0
  9 10  1  0  0  0
  9 27  2  0  0  0
 10 11  2  0  0  0
 10 15  1  0  0  0
 11 12  1  0  0  0
 11 97  1  0  0  0
 12 13  2  0  0  0
 12 98  1  0  0  0
 13 14  1  0  0  0
 13 31  1  0  0  0
 14 15  2  0  0  0
 14 99  1  0  0  0
 15100  1  0  0  0
 16 17  2  0  0  0
 16 21  1  0  0  0
 16 31  1  0  0  0
 17 18  1  0  0  0
 17101  1  0  0  0
 18 19  2  0  0  0
 18102  1  0  0  0
 19 20  1  0  0  0
 19 24  1  0  0  0
 20 21  2  0  0  0
 20103  1  0  0  0
 21 23  1  0  0  0
 22 28  1  0  0  0
 22 32  2  0  0  0
 26 27  1  0  0  0
 28104  1  0  0  0
 28105  1  0  0  0
 29106  1  0  0  0
 29107  1  0  0  0
 33 34  1  0  0  0
 33 66  1  0  0  0
 33 70  2  0  0  0
 34 36  1  0  0  0
 34 59  1  0  0  0
 34108  1  0  0  0
 35 44  2  0  0  0
 35 45  1  0  0  0
 35 68  1  0  0  0
 36 56  1  0  0  0
 36109  1  0  0  0
 37 39  1  0  0  0
 37 47  1  0  0  0
 37 66  1  0  0  0
 37110  1  0  0  0
 38 43  2  0  0  0
 38 46  1  0  0  0
 38 47  1  0  0  0
 39 64  1  0  0  0
 39 67  2  0  0  0
 40 52  1  0  0  0
 40 53  2  0  0  0
 40 58  1  0  0  0
 41111  1  0  0  0
 41112  1  0  0  0
 41113  1  0  0  0
 41 48  1  0  0  0
 42 43  1  0  0  0
 42 66  1  0  0  0
 42114  1  0  0  0
 42115  1  0  0  0
 43 44  1  0  0  0
 44116  1  0  0  0
 45 46  2  0  0  0
 45117  1  0  0  0
 46118  1  0  0  0
 47119  1  0  0  0
 47120  1  0  0  0
 48 56  1  0  0  0
 48 65  1  0  0  0
 48121  1  0  0  0
 49 50  1  0  0  0
 49 53  1  0  0  0
 49 64  1  0  0  0
 49122  1  0  0  0
 50 51  1  0  0  0
 50123  1  0  0  0
 50124  1  0  0  0
 51 52  1  0  0  0
 51125  1  0  0  0
 51126  1  0  0  0
 52127  1  0  0  0
 52128  1  0  0  0
 53 54  1  0  0  0
 54 55  2  0  0  0
 54129  1  0  0  0
 55 57  1  0  0  0
 55130  1  0  0  0
 56 69  2  0  0  0
 57 58  2  0  0  0
 57131  1  0  0  0
 58132  1  0  0  0
 59 60  1  0  0  0
 59 61  1  0  0  0
 59 62  1  0  0  0
 60133  1  0  0  0
 60134  1  0  0  0
 60135  1  0  0  0
 61136  1  0  0  0
 61137  1  0  0  0
 61138  1  0  0  0
 62139  1  0  0  0
 62140  1  0  0  0
 62141  1  0  0  0
 63 65  1  0  0  0
 63142  1  0  0  0
 63143  1  0  0  0
 63144  1  0  0  0
 64145  1  0  0  0
 65146  1  0  0  0
 68 82  1  0  0  0
 71 73  2  0  0  0
 71 76  1  0  0  0
 71147  1  0  0  0
 72 75  1  0  0  0
 72 76  2  0  0  0
 72148  1  0  0  0
 73 74  1  0  0  0
 73 78  1  0  0  0
 74 75  2  0  0  0
 74 81  1  0  0  0
 75 86  1  0  0  0
 76 87  1  0  0  0
 77 79  2  0  0  0
 77149  1  0  0  0
 77150  1  0  0  0
 78 85  2  0  0  0
 79 82  1  0  0  0
 79 83  1  0  0  0
 80 84  1  0  0  0
 80151  1  0  0  0
 80152  1  0  0  0
 80153  1  0  0  0
 81 84  1  0  0  0
 81154  1  0  0  0
 81155  1  0  0  0
 82156  1  0  0  0
 82157  1  0  0  0
 83 86  1  0  0  0
 83158  1  0  0  0
 83159  1  0  0  0
 84160  1  0  0  0
 84161  1  0  0  0
 85162  1  0  0  0
M  ISO  4   1 100  68 101  78 100  82 101
M  END
> <chiral flag>
0

> <version>
0

> <s_m_source_file>
/data/baiqing/PycharmProjects/Reinvent-master-3.2/result/LINK_invent/BTK/process_docking_weight1_custom_product_contain_oxygen_bond_distance_aromatic_linkinvent_7_9_3/rearranged_h_0137.sdf

> <i_m_source_file_index>
93

> <r_mmod_Potential_Energy-OPLS-2005>
286.746948242188

> <r_mmod_Stretch_Energy-OPLS-2005>
130.289627075195

> <r_mmod_Bend_Energy-OPLS-2005>
162.615707397461

> <r_mmod_Torsional_Energy-OPLS-2005>
205.282318115234

> <r_mmod_Improper_Torsional_Energy-OPLS-2005>
2.60248756408691

> <r_mmod_Van_der_Waal_Energy-OPLS-2005>
147.566299438477

> <r_mmod_Electrostatic_Energy-OPLS-2005>
-238.818664550781

> <r_mmod_Solvation_Energy-OPLS-2005>
-191.488571166992

> <b_mmod_Minimization_Converged-OPLS-2005>
0

> <r_mmod_RMS_Derivative-OPLS-2005>
0.74987930059433

$$$$
93
                    3D
 Structure written by MMmdl.
177185  0  0  1  0            999 V2000
  -30.6820  -14.4712   20.4579 C   0  0  0  0  0  0
  -30.4293  -12.2481   19.4565 C   0  0  0  0  0  0
  -29.5108  -12.3558   18.2215 C   0  0  0  0  0  0
  -28.0145  -12.3301   18.6159 C   0  0  0  0  0  0
  -27.6566  -13.1913   19.8618 C   0  0  2  0  0  0
  -28.7023  -13.0047   20.9863 C   0  0  0  0  0  0
  -25.2588  -13.8119   20.5673 C   0  0  0  0  0  0
  -24.1845  -13.0414   20.9199 C   0  0  0  0  0  0
  -24.6370  -11.6880   20.8756 C   0  0  0  0  0  0
  -23.9023  -10.4269   21.0398 C   0  0  0  0  0  0
  -24.3574   -9.4179   21.9156 C   0  0  0  0  0  0
  -23.6252   -8.2218   22.0732 C   0  0  0  0  0  0
  -22.4240   -8.0253   21.3524 C   0  0  0  0  0  0
  -21.9868   -9.0232   20.4632 C   0  0  0  0  0  0
  -22.7196  -10.2113   20.3041 C   0  0  0  0  0  0
  -21.6862   -6.0711   22.5294 C   0  0  0  0  0  0
  -21.4022   -6.5615   23.8224 C   0  0  0  0  0  0
  -21.3660   -5.6763   24.9191 C   0  0  0  0  0  0
  -21.6039   -4.3027   24.7248 C   0  0  0  0  0  0
  -21.8812   -3.8123   23.4377 C   0  0  0  0  0  0
  -21.9198   -4.6935   22.3427 C   0  0  0  0  0  0
  -22.7860  -13.5231   21.1862 C   0  0  0  0  0  0
  -22.1655   -4.2107   21.1009 F   0  0  0  0  0  0
  -21.5624   -3.4511   25.7766 F   0  0  0  0  0  0
  -30.0305  -13.2801   20.4203 N   0  0  0  0  0  0
  -26.2997  -12.9248   20.3316 N   0  0  0  0  0  0
  -25.9289  -11.6436   20.5793 N   0  0  0  0  0  0
  -22.0477  -12.8245   22.0412 N   0  0  0  0  0  0
  -25.4298  -15.1840   20.4071 N   0  0  0  0  0  0
  -31.8675  -14.6120   20.1471 O   0  0  0  0  0  0
  -21.6615   -6.8849   21.4248 O   0  0  0  0  0  0
  -22.3557  -14.5531   20.6701 O   0  0  0  0  0  0
  -24.6107  -31.8704   23.2152 C   0  0  0  0  0  0
  -25.9022  -32.4836   23.8421 C   0  0  1  0  0  0
  -27.2431  -27.4735   20.0879 C   0  0  0  0  0  0
  -25.5896  -33.8635   24.2348 N   0  0  0  0  0  0
  -23.3955  -30.4968   21.5548 C   0  0  2  0  0  0
  -24.8404  -28.9668   20.1205 C   0  0  0  0  0  0
  -22.7384  -29.4675   22.5009 C   0  0  0  0  0  0
  -18.0271  -28.1365   22.8494 C   0  0  0  0  0  0
  -24.1484  -36.7323   23.2634 C   0  0  0  0  0  0
  -25.9205  -30.8489   21.3622 C   0  0  0  0  0  0
  -25.9981  -29.4858   20.7112 C   0  0  0  0  0  0
  -27.1975  -28.7454   20.6937 C   0  0  0  0  0  0
  -26.0551  -26.9524   19.5134 C   0  0  0  0  0  0
  -24.8612  -27.6956   19.5246 C   0  0  0  0  0  0
  -23.6014  -29.8299   20.1686 C   0  0  0  0  0  0
  -25.4102  -36.3120   24.0337 C   0  0  1  0  0  0
  -20.5858  -28.3659   23.1320 C   0  0  2  0  0  0
  -20.6755  -26.9398   22.5416 C   0  0  0  0  0  0
  -19.5739  -26.6385   21.5204 C   0  0  0  0  0  0
  -18.1918  -26.7915   22.1620 C   0  0  0  0  0  0
  -19.1520  -28.8830   23.2904 C   0  0  0  0  0  0
  -18.9445  -30.1433   23.8916 C   0  0  0  0  0  0
  -17.6450  -30.6580   24.0572 C   0  0  0  0  0  0
  -25.9033  -34.9483   23.5136 C   0  0  0  0  0  0
  -16.5343  -29.9088   23.6317 C   0  0  0  0  0  0
  -16.7263  -28.6502   23.0348 C   0  0  0  0  0  0
  -26.4472  -31.6606   25.0732 C   0  0  0  0  0  0
  -25.3752  -31.3708   26.1489 C   0  0  0  0  0  0
  -27.0300  -30.3057   24.6083 C   0  0  0  0  0  0
  -27.6058  -32.4316   25.7485 C   0  0  0  0  0  0
  -27.5580  -37.1816   24.8456 C   0  0  0  0  0  0
  -21.4122  -29.3034   22.3732 N   0  0  0  0  0  0
  -26.4288  -37.3801   23.9410 N   0  0  0  0  0  0
  -24.6605  -31.0849   22.1030 N   0  0  0  0  0  0
  -23.4171  -28.8208   23.3036 O   0  0  0  0  0  0
  -28.4532  -26.8117   20.0755 O   0  0  0  0  0  0
  -26.5591  -34.8924   22.4694 O   0  0  0  0  0  0
  -23.5314  -32.1428   23.7581 O   0  0  0  0  0  0
  -29.3844  -16.0621   18.2162 C   0  0  0  0  0  0
  -30.1351  -17.8474   19.6736 C   0  0  0  0  0  0
  -29.4211  -16.9143   17.1036 C   0  0  0  0  0  0
  -30.1204  -18.7422   18.5733 C   0  0  0  0  0  0
  -29.8354  -18.2537   17.2646 C   0  0  0  0  0  0
  -29.8115  -16.4871   19.4908 C   0  0  0  0  0  0
  -29.0139  -16.3559   15.7470 C   0  0  0  0  0  0
  -29.9412  -19.1445   16.0302 C   0  0  0  0  0  0
  -29.9676  -22.6658   16.8897 C   0  0  0  0  0  0
  -27.7107  -22.9794   17.9012 C   0  0  0  0  0  0
  -30.6586  -25.5349   18.3322 C   0  0  0  0  0  0
  -30.6551  -25.1912   20.8000 C   0  0  0  0  0  0
  -30.3601  -20.2306   18.8178 C   0  0  0  0  0  0
  -29.0533  -21.0391   18.6154 C   0  0  0  0  0  0
  -29.8308  -23.3124   19.3882 C   0  0  0  0  0  0
  -28.4688  -25.4786   19.5865 C   0  0  0  0  0  0
  -29.1617  -22.5367   18.2012 C   0  0  0  0  0  0
  -29.8882  -24.8752   19.4949 C   0  0  0  0  0  0
  -29.8735  -15.5420   20.5555 N   0  0  0  0  0  0
  -31.4775  -12.3307   19.1598 H   0  0  0  0  0  0
  -30.3285  -11.2639   19.9147 H   0  0  0  0  0  0
  -29.7099  -11.5115   17.5605 H   0  0  0  0  0  0
  -29.7706  -13.2261   17.6277 H   0  0  0  0  0  0
  -27.7655  -11.2882   18.8185 H   0  0  0  0  0  0
  -27.3970  -12.6192   17.7641 H   0  0  0  0  0  0
  -27.6734  -14.2309   19.5471 H   0  0  0  0  0  0
  -28.6738  -11.9827   21.3713 H   0  0  0  0  0  0
  -28.4869  -13.6530   21.8369 H   0  0  0  0  0  0
  -25.2728   -9.5647   22.4711 H   0  0  0  0  0  0
  -23.9952   -7.4614   22.7458 H   0  0  0  0  0  0
  -21.0780   -8.8768   19.8954 H   0  0  0  0  0  0
  -22.3658  -10.9637   19.6137 H   0  0  0  0  0  0
  -21.2008   -7.6123   23.9733 H   0  0  0  0  0  0
  -21.1485   -6.0489   25.9088 H   0  0  0  0  0  0
  -22.0587   -2.7579   23.2914 H   0  0  0  0  0  0
  -22.4050  -11.9925   22.4860 H   0  0  0  0  0  0
  -21.1088  -13.1279   22.2580 H   0  0  0  0  0  0
  -24.6563  -15.8317   20.5145 H   0  0  0  0  0  0
  -26.2731  -15.6316   20.0709 H   0  0  0  0  0  0
  -26.7087  -32.5562   23.1188 H   0  0  0  0  0  0
  -25.0063  -33.9793   25.0505 H   0  0  0  0  0  0
  -22.6819  -31.3125   21.4201 H   0  0  0  0  0  0
  -23.3733  -35.9669   23.3302 H   0  0  0  0  0  0
  -24.3575  -36.8930   22.2046 H   0  0  0  0  0  0
  -23.7246  -37.6537   23.6637 H   0  0  0  0  0  0
  -26.0249  -31.6167   20.5946 H   0  0  0  0  0  0
  -26.8110  -30.9014   21.9767 H   0  0  0  0  0  0
  -28.0946  -29.1519   21.1399 H   0  0  0  0  0  0
  -26.0198  -25.9804   19.0463 H   0  0  0  0  0  0
  -23.9688  -27.2828   19.0751 H   0  0  0  0  0  0
  -23.7084  -30.6064   19.4102 H   0  0  0  0  0  0
  -22.7254  -29.2497   19.8723 H   0  0  0  0  0  0
  -25.1279  -36.1990   25.0831 H   0  0  0  0  0  0
  -20.9949  -28.3225   24.1439 H   0  0  0  0  0  0
  -20.5651  -26.2272   23.3604 H   0  0  0  0  0  0
  -21.6625  -26.7436   22.1213 H   0  0  0  0  0  0
  -19.6905  -25.6305   21.1211 H   0  0  0  0  0  0
  -19.6681  -27.3212   20.6747 H   0  0  0  0  0  0
  -17.4189  -26.6672   21.4019 H   0  0  0  0  0  0
  -18.0329  -26.0049   22.9013 H   0  0  0  0  0  0
  -19.7924  -30.7238   24.2296 H   0  0  0  0  0  0
  -17.5011  -31.6254   24.5184 H   0  0  0  0  0  0
  -15.5347  -30.3002   23.7625 H   0  0  0  0  0  0
  -15.8663  -28.0831   22.7048 H   0  0  0  0  0  0
  -24.5910  -30.7071   25.7828 H   0  0  0  0  0  0
  -24.8962  -32.2866   26.4964 H   0  0  0  0  0  0
  -25.8113  -30.8852   27.0227 H   0  0  0  0  0  0
  -26.2838  -29.6821   24.1141 H   0  0  0  0  0  0
  -27.4089  -29.7291   25.4533 H   0  0  0  0  0  0
  -27.8662  -30.4391   23.9213 H   0  0  0  0  0  0
  -27.2687  -33.3599   26.2107 H   0  0  0  0  0  0
  -28.3846  -32.6898   25.0297 H   0  0  0  0  0  0
  -28.0745  -31.8406   26.5363 H   0  0  0  0  0  0
  -28.2597  -38.0114   24.7500 H   0  0  0  0  0  0
  -28.1073  -36.2644   24.6276 H   0  0  0  0  0  0
  -27.2297  -37.1458   25.8859 H   0  0  0  0  0  0
  -20.9275  -29.8768   21.6966 H   0  0  0  0  0  0
  -26.0178  -38.2878   24.1414 H   0  0  0  0  0  0
  -29.0425  -15.0577   18.0681 H   0  0  0  0  0  0
  -30.3951  -18.2092   20.6585 H   0  0  0  0  0  0
  -28.5384  -15.3786   15.8424 H   0  0  0  0  0  0
  -29.8865  -16.2367   15.1047 H   0  0  0  0  0  0
  -28.3054  -17.0174   15.2492 H   0  0  0  0  0  0
  -30.3155  -18.5876   15.1724 H   0  0  0  0  0  0
  -30.6407  -19.9641   16.1665 H   0  0  0  0  0  0
  -28.9693  -19.5569   15.7596 H   0  0  0  0  0  0
  -29.5974  -21.9772   16.1310 H   0  0  0  0  0  0
  -31.0296  -22.4698   17.0337 H   0  0  0  0  0  0
  -29.8833  -23.6540   16.4458 H   0  0  0  0  0  0
  -27.1859  -22.2551   17.2758 H   0  0  0  0  0  0
  -27.6707  -23.9065   17.3340 H   0  0  0  0  0  0
  -27.1200  -23.0916   18.8107 H   0  0  0  0  0  0
  -31.6049  -25.0306   18.1342 H   0  0  0  0  0  0
  -30.8840  -26.5794   18.5511 H   0  0  0  0  0  0
  -30.0785  -25.5470   17.4113 H   0  0  0  0  0  0
  -31.6536  -24.7519   20.7934 H   0  0  0  0  0  0
  -30.1320  -24.8033   21.6752 H   0  0  0  0  0  0
  -30.7831  -26.2643   20.9492 H   0  0  0  0  0  0
  -31.1669  -20.5686   18.1719 H   0  0  0  0  0  0
  -30.7295  -20.3886   19.8320 H   0  0  0  0  0  0
  -28.4515  -20.9394   19.5200 H   0  0  0  0  0  0
  -28.4612  -20.5360   17.8527 H   0  0  0  0  0  0
  -30.8536  -22.9428   19.4704 H   0  0  0  0  0  0
  -29.3477  -22.9653   20.3034 H   0  0  0  0  0  0
  -27.8348  -24.8642   20.2275 H   0  0  0  0  0  0
  -28.0457  -25.5063   18.5884 H   0  0  0  0  0  0
  -28.9783  -15.3153   20.9614 H   0  0  0  0  0  0
  1 25  1  0  0  0
  1 30  2  0  0  0
  1 89  1  0  0  0
  2  3  1  0  0  0
  2 25  1  0  0  0
  2 90  1  0  0  0
  2 91  1  0  0  0
  3  4  1  0  0  0
  3 92  1  0  0  0
  3 93  1  0  0  0
  4  5  1  0  0  0
  4 94  1  0  0  0
  4 95  1  0  0  0
  5  6  1  0  0  0
  5 26  1  0  0  0
  5 96  1  0  0  0
  6 25  1  0  0  0
  6 97  1  0  0  0
  6 98  1  0  0  0
  7  8  2  0  0  0
  7 26  1  0  0  0
  7 29  1  0  0  0
  8  9  1  0  0  0
  8 22  1  0  0  0
  9 10  1  0  0  0
  9 27  2  0  0  0
 10 11  2  0  0  0
 10 15  1  0  0  0
 11 12  1  0  0  0
 11 99  1  0  0  0
 12 13  2  0  0  0
 12100  1  0  0  0
 13 14  1  0  0  0
 13 31  1  0  0  0
 14 15  2  0  0  0
 14101  1  0  0  0
 15102  1  0  0  0
 16 17  2  0  0  0
 16 21  1  0  0  0
 16 31  1  0  0  0
 17 18  1  0  0  0
 17103  1  0  0  0
 18 19  2  0  0  0
 18104  1  0  0  0
 19 20  1  0  0  0
 19 24  1  0  0  0
 20 21  2  0  0  0
 20105  1  0  0  0
 21 23  1  0  0  0
 22 28  1  0  0  0
 22 32  2  0  0  0
 26 27  1  0  0  0
 28106  1  0  0  0
 28107  1  0  0  0
 29108  1  0  0  0
 29109  1  0  0  0
 33 34  1  0  0  0
 33 66  1  0  0  0
 33 70  2  0  0  0
 34 36  1  0  0  0
 34 59  1  0  0  0
 34110  1  0  0  0
 35 44  2  0  0  0
 35 45  1  0  0  0
 35 68  1  0  0  0
 36 56  1  0  0  0
 36111  1  0  0  0
 37 39  1  0  0  0
 37 47  1  0  0  0
 37 66  1  0  0  0
 37112  1  0  0  0
 38 43  2  0  0  0
 38 46  1  0  0  0
 38 47  1  0  0  0
 39 64  1  0  0  0
 39 67  2  0  0  0
 40 52  1  0  0  0
 40 53  2  0  0  0
 40 58  1  0  0  0
 41113  1  0  0  0
 41114  1  0  0  0
 41115  1  0  0  0
 41 48  1  0  0  0
 42 43  1  0  0  0
 42 66  1  0  0  0
 42116  1  0  0  0
 42117  1  0  0  0
 43 44  1  0  0  0
 44118  1  0  0  0
 45 46  2  0  0  0
 45119  1  0  0  0
 46120  1  0  0  0
 47121  1  0  0  0
 47122  1  0  0  0
 48 56  1  0  0  0
 48 65  1  0  0  0
 48123  1  0  0  0
 49 50  1  0  0  0
 49 53  1  0  0  0
 49 64  1  0  0  0
 49124  1  0  0  0
 50 51  1  0  0  0
 50125  1  0  0  0
 50126  1  0  0  0
 51 52  1  0  0  0
 51127  1  0  0  0
 51128  1  0  0  0
 52129  1  0  0  0
 52130  1  0  0  0
 53 54  1  0  0  0
 54 55  2  0  0  0
 54131  1  0  0  0
 55 57  1  0  0  0
 55132  1  0  0  0
 56 69  2  0  0  0
 57 58  2  0  0  0
 57133  1  0  0  0
 58134  1  0  0  0
 59 60  1  0  0  0
 59 61  1  0  0  0
 59 62  1  0  0  0
 60135  1  0  0  0
 60136  1  0  0  0
 60137  1  0  0  0
 61138  1  0  0  0
 61139  1  0  0  0
 61140  1  0  0  0
 62141  1  0  0  0
 62142  1  0  0  0
 62143  1  0  0  0
 63 65  1  0  0  0
 63144  1  0  0  0
 63145  1  0  0  0
 63146  1  0  0  0
 64147  1  0  0  0
 65148  1  0  0  0
 68 86  1  0  0  0
 71 73  2  0  0  0
 71 76  1  0  0  0
 71149  1  0  0  0
 72 74  1  0  0  0
 72 76  2  0  0  0
 72150  1  0  0  0
 73 75  1  0  0  0
 73 77  1  0  0  0
 74 75  2  0  0  0
 74 83  1  0  0  0
 75 78  1  0  0  0
 76 89  1  0  0  0
 77151  1  0  0  0
 77152  1  0  0  0
 77153  1  0  0  0
 78154  1  0  0  0
 78155  1  0  0  0
 78156  1  0  0  0
 79157  1  0  0  0
 79158  1  0  0  0
 79159  1  0  0  0
 79 87  1  0  0  0
 80 87  1  0  0  0
 80160  1  0  0  0
 80161  1  0  0  0
 80162  1  0  0  0
 81163  1  0  0  0
 81164  1  0  0  0
 81165  1  0  0  0
 81 88  1  0  0  0
 82 88  1  0  0  0
 82166  1  0  0  0
 82167  1  0  0  0
 82168  1  0  0  0
 83 84  1  0  0  0
 83169  1  0  0  0
 83170  1  0  0  0
 84 87  1  0  0  0
 84171  1  0  0  0
 84172  1  0  0  0
 85 87  1  0  0  0
 85 88  1  0  0  0
 85173  1  0  0  0
 85174  1  0  0  0
 86 88  1  0  0  0
 86175  1  0  0  0
 86176  1  0  0  0
 89177  1  0  0  0
M  ISO  4   1 100  68 101  86 101  89 100
M  END
> <chiral flag>
0

> <version>
0

> <s_m_source_file>
/data/baiqing/PycharmProjects/Reinvent-master-3.2/result/LINK_invent/BTK/process_docking_weight1_custom_product_contain_oxygen_bond_distance_aromatic_linkinvent_7_9_3/rearranged_h_0137.sdf

> <i_m_source_file_index>
94

> <r_mmod_Potential_Energy-OPLS-2005>
79.742057800293

> <r_mmod_Stretch_Energy-OPLS-2005>
39.7507400512695

> <r_mmod_Bend_Energy-OPLS-2005>
128.553298950195

> <r_mmod_Torsional_Energy-OPLS-2005>
288.532257080078

> <r_mmod_Improper_Torsional_Energy-OPLS-2005>
11.2030954360962

> <r_mmod_Van_der_Waal_Energy-OPLS-2005>
177.186233520508

> <r_mmod_Electrostatic_Energy-OPLS-2005>
-394.045440673828

> <r_mmod_Solvation_Energy-OPLS-2005>
-192.105041503906

> <b_mmod_Minimization_Converged-OPLS-2005>
0

> <r_mmod_RMS_Derivative-OPLS-2005>
2.41104650497437

$$$$
94
                    3D
 Structure written by MMmdl.
170178  0  0  1  0            999 V2000
  -30.6921  -14.4333   20.6125 C   0  0  0  0  0  0
  -30.4294  -12.2939   19.4099 C   0  0  0  0  0  0
  -29.4968  -12.5178   18.2008 C   0  0  0  0  0  0
  -28.0161  -12.3796   18.6106 C   0  0  0  0  0  0
  -27.6695  -13.1983   19.8825 C   0  0  2  0  0  0
  -28.7062  -12.9296   20.9961 C   0  0  0  0  0  0
  -25.2633  -13.8144   20.5672 C   0  0  0  0  0  0
  -24.1862  -13.0441   20.9157 C   0  0  0  0  0  0
  -24.6396  -11.6904   20.8720 C   0  0  0  0  0  0
  -23.9052  -10.4296   21.0398 C   0  0  0  0  0  0
  -24.3603   -9.4216   21.9181 C   0  0  0  0  0  0
  -23.6284   -8.2250   22.0758 C   0  0  0  0  0  0
  -22.4264   -8.0284   21.3547 C   0  0  0  0  0  0
  -21.9898   -9.0258   20.4653 C   0  0  0  0  0  0
  -22.7225  -10.2139   20.3053 C   0  0  0  0  0  0
  -21.6855   -6.0734   22.5281 C   0  0  0  0  0  0
  -21.4017   -6.5639   23.8214 C   0  0  0  0  0  0
  -21.3655   -5.6789   24.9176 C   0  0  0  0  0  0
  -21.6040   -4.3051   24.7224 C   0  0  0  0  0  0
  -21.8817   -3.8147   23.4348 C   0  0  0  0  0  0
  -21.9197   -4.6965   22.3405 C   0  0  0  0  0  0
  -22.7889  -13.5258   21.1815 C   0  0  0  0  0  0
  -22.1664   -4.2153   21.0985 F   0  0  0  0  0  0
  -21.5624   -3.4531   25.7734 F   0  0  0  0  0  0
  -30.0458  -13.2460   20.4634 N   0  0  0  0  0  0
  -26.3066  -12.9298   20.3375 N   0  0  0  0  0  0
  -25.9319  -11.6466   20.5749 N   0  0  0  0  0  0
  -22.0511  -12.8271   22.0374 N   0  0  0  0  0  0
  -25.4388  -15.1852   20.4101 N   0  0  0  0  0  0
  -31.7762  -14.6823   20.0733 O   0  0  0  0  0  0
  -21.6640   -6.8875   21.4241 O   0  0  0  0  0  0
  -22.3588  -14.5574   20.6670 O   0  0  0  0  0  0
  -24.6099  -31.8699   23.2115 C   0  0  0  0  0  0
  -25.8999  -32.4835   23.8407 C   0  0  1  0  0  0
  -27.2492  -27.4592   20.1065 C   0  0  0  0  0  0
  -25.5859  -33.8632   24.2333 N   0  0  0  0  0  0
  -23.3975  -30.4919   21.5503 C   0  0  2  0  0  0
  -24.8499  -28.9598   20.1160 C   0  0  0  0  0  0
  -22.7387  -29.4666   22.5004 C   0  0  0  0  0  0
  -18.0264  -28.1387   22.8501 C   0  0  0  0  0  0
  -24.1482  -36.7330   23.2640 C   0  0  0  0  0  0
  -25.9216  -30.8452   21.3611 C   0  0  0  0  0  0
  -26.0036  -29.4794   20.7156 C   0  0  0  0  0  0
  -27.2039  -28.7382   20.7148 C   0  0  0  0  0  0
  -26.0827  -26.9563   19.4970 C   0  0  0  0  0  0
  -24.8825  -27.6948   19.5032 C   0  0  0  0  0  0
  -23.6075  -29.8209   20.1653 C   0  0  0  0  0  0
  -25.4100  -36.3118   24.0339 C   0  0  1  0  0  0
  -20.5850  -28.3665   23.1333 C   0  0  2  0  0  0
  -20.6751  -26.9404   22.5428 C   0  0  0  0  0  0
  -19.5731  -26.6397   21.5220 C   0  0  0  0  0  0
  -18.1907  -26.7935   22.1629 C   0  0  0  0  0  0
  -19.1511  -28.8844   23.2911 C   0  0  0  0  0  0
  -18.9445  -30.1452   23.8920 C   0  0  0  0  0  0
  -17.6449  -30.6596   24.0574 C   0  0  0  0  0  0
  -25.9019  -34.9483   23.5137 C   0  0  0  0  0  0
  -16.5341  -29.9101   23.6333 C   0  0  0  0  0  0
  -16.7256  -28.6517   23.0354 C   0  0  0  0  0  0
  -26.4447  -31.6608   25.0725 C   0  0  0  0  0  0
  -25.3722  -31.3708   26.1484 C   0  0  0  0  0  0
  -27.0283  -30.3053   24.6083 C   0  0  0  0  0  0
  -27.6034  -32.4326   25.7472 C   0  0  0  0  0  0
  -27.5579  -37.1814   24.8457 C   0  0  0  0  0  0
  -21.4119  -29.3031   22.3738 N   0  0  0  0  0  0
  -26.4290  -37.3797   23.9407 N   0  0  0  0  0  0
  -24.6607  -31.0830   22.1002 N   0  0  0  0  0  0
  -23.4172  -28.8212   23.3039 O   0  0  0  0  0  0
  -28.3711  -26.6575   20.0707 O   0  0  0  0  0  0
  -26.5597  -34.8933   22.4706 O   0  0  0  0  0  0
  -23.5296  -32.1444   23.7522 O   0  0  0  0  0  0
  -30.1531  -18.8278   19.9532 C   0  0  0  0  0  0
  -30.5056  -17.4802   20.1759 C   0  0  0  0  0  0
  -28.7976  -17.3360   21.8958 C   0  0  0  0  0  0
  -29.1123  -19.4412   20.6849 C   0  0  0  0  0  0
  -28.4383  -18.6859   21.6796 C   0  0  0  0  0  0
  -29.8144  -16.7120   21.1428 C   0  0  0  0  0  0
  -29.0182  -23.3826   21.0047 C   0  0  0  0  0  0
  -25.9281  -18.8771   21.9688 C   0  0  0  0  0  0
  -31.0458  -25.3748   19.8832 C   0  0  0  0  0  0
  -31.4536  -26.1682   22.2039 C   0  0  0  0  0  0
  -28.7282  -20.8855   20.3549 C   0  0  0  0  0  0
  -27.3061  -19.2659   22.5167 C   0  0  0  0  0  0
  -29.4158  -21.9210   21.2691 C   0  0  0  0  0  0
  -29.7031  -24.4347   21.8928 C   0  0  0  0  0  0
  -29.3618  -26.8756   21.0687 C   0  0  0  0  0  0
  -30.3555  -25.6918   21.2290 C   0  0  0  0  0  0
  -30.0399  -15.3232   21.3810 N   0  0  0  0  0  0
  -28.1766  -23.6860   20.1557 O   0  0  0  0  0  0
  -31.4725  -12.4049   19.1083 H   0  0  0  0  0  0
  -30.3362  -11.2719   19.7801 H   0  0  0  0  0  0
  -29.7318  -11.8073   17.4069 H   0  0  0  0  0  0
  -29.6690  -13.5105   17.7819 H   0  0  0  0  0  0
  -27.8148  -11.3221   18.7855 H   0  0  0  0  0  0
  -27.3682  -12.6780   17.7855 H   0  0  0  0  0  0
  -27.7300  -14.2533   19.6141 H   0  0  0  0  0  0
  -28.6766  -11.8790   21.2892 H   0  0  0  0  0  0
  -28.4546  -13.4806   21.9025 H   0  0  0  0  0  0
  -25.2744   -9.5697   22.4758 H   0  0  0  0  0  0
  -23.9994   -7.4644   22.7476 H   0  0  0  0  0  0
  -21.0829   -8.8778   19.8961 H   0  0  0  0  0  0
  -22.3680  -10.9678   19.6162 H   0  0  0  0  0  0
  -21.2015   -7.6147   23.9716 H   0  0  0  0  0  0
  -21.1471   -6.0522   25.9076 H   0  0  0  0  0  0
  -22.0602   -2.7612   23.2847 H   0  0  0  0  0  0
  -22.4104  -11.9930   22.4775 H   0  0  0  0  0  0
  -21.1137  -13.1332   22.2561 H   0  0  0  0  0  0
  -24.6775  -15.8444   20.5252 H   0  0  0  0  0  0
  -26.3031  -15.6241   20.1184 H   0  0  0  0  0  0
  -26.7070  -32.5580   23.1180 H   0  0  0  0  0  0
  -24.9967  -33.9796   25.0447 H   0  0  0  0  0  0
  -22.6838  -31.3066   21.4095 H   0  0  0  0  0  0
  -23.3730  -35.9676   23.3315 H   0  0  0  0  0  0
  -24.3570  -36.8936   22.2050 H   0  0  0  0  0  0
  -23.7257  -37.6547   23.6653 H   0  0  0  0  0  0
  -26.0249  -31.6092   20.5895 H   0  0  0  0  0  0
  -26.8114  -30.9058   21.9753 H   0  0  0  0  0  0
  -28.0832  -29.1623   21.1774 H   0  0  0  0  0  0
  -26.1049  -25.9818   19.0292 H   0  0  0  0  0  0
  -23.9957  -27.2879   19.0374 H   0  0  0  0  0  0
  -23.7085  -30.5940   19.4025 H   0  0  0  0  0  0
  -22.7352  -29.2328   19.8747 H   0  0  0  0  0  0
  -25.1273  -36.1975   25.0831 H   0  0  0  0  0  0
  -20.9945  -28.3230   24.1452 H   0  0  0  0  0  0
  -20.5662  -26.2267   23.3610 H   0  0  0  0  0  0
  -21.6621  -26.7455   22.1213 H   0  0  0  0  0  0
  -19.6887  -25.6311   21.1239 H   0  0  0  0  0  0
  -19.6674  -27.3219   20.6757 H   0  0  0  0  0  0
  -17.4180  -26.6703   21.4024 H   0  0  0  0  0  0
  -18.0300  -26.0071   22.9019 H   0  0  0  0  0  0
  -19.7920  -30.7261   24.2299 H   0  0  0  0  0  0
  -17.5009  -31.6279   24.5171 H   0  0  0  0  0  0
  -15.5345  -30.3013   23.7646 H   0  0  0  0  0  0
  -15.8655  -28.0850   22.7057 H   0  0  0  0  0  0
  -24.5868  -30.7085   25.7822 H   0  0  0  0  0  0
  -24.8941  -32.2867   26.4970 H   0  0  0  0  0  0
  -25.8080  -30.8844   27.0219 H   0  0  0  0  0  0
  -26.2832  -29.6817   24.1127 H   0  0  0  0  0  0
  -27.4047  -29.7277   25.4536 H   0  0  0  0  0  0
  -27.8664  -30.4380   23.9237 H   0  0  0  0  0  0
  -27.2655  -33.3602   26.2102 H   0  0  0  0  0  0
  -28.3804  -32.6930   25.0274 H   0  0  0  0  0  0
  -28.0748  -31.8424   26.5338 H   0  0  0  0  0  0
  -28.2598  -38.0110   24.7502 H   0  0  0  0  0  0
  -28.1075  -36.2643   24.6277 H   0  0  0  0  0  0
  -27.2300  -37.1458   25.8862 H   0  0  0  0  0  0
  -20.9274  -29.8751   21.6962 H   0  0  0  0  0  0
  -26.0177  -38.2877   24.1405 H   0  0  0  0  0  0
  -30.6784  -19.3873   19.1911 H   0  0  0  0  0  0
  -31.2937  -17.0538   19.5730 H   0  0  0  0  0  0
  -28.2570  -16.7663   22.6394 H   0  0  0  0  0  0
  -25.1331  -19.3104   22.5752 H   0  0  0  0  0  0
  -25.7934  -17.7950   21.9744 H   0  0  0  0  0  0
  -25.7953  -19.2263   20.9445 H   0  0  0  0  0  0
  -31.7623  -24.5584   19.9823 H   0  0  0  0  0  0
  -31.5889  -26.2405   19.5024 H   0  0  0  0  0  0
  -30.3276  -25.0918   19.1133 H   0  0  0  0  0  0
  -32.2190  -25.4056   22.3545 H   0  0  0  0  0  0
  -31.0383  -26.4088   23.1840 H   0  0  0  0  0  0
  -31.9603  -27.0627   21.8396 H   0  0  0  0  0  0
  -27.6435  -20.9941   20.3945 H   0  0  0  0  0  0
  -28.9954  -21.0911   19.3173 H   0  0  0  0  0  0
  -27.3833  -20.3499   22.5917 H   0  0  0  0  0  0
  -27.4047  -18.9012   23.5403 H   0  0  0  0  0  0
  -29.1918  -21.7008   22.3120 H   0  0  0  0  0  0
  -30.4973  -21.8390   21.1612 H   0  0  0  0  0  0
  -30.4728  -23.8944   22.4436 H   0  0  0  0  0  0
  -28.9845  -24.7514   22.6489 H   0  0  0  0  0  0
  -29.9116  -27.7783   20.7976 H   0  0  0  0  0  0
  -28.8887  -27.0698   22.0342 H   0  0  0  0  0  0
  -29.3349  -14.8887   21.9563 H   0  0  0  0  0  0
  1 25  1  0  0  0
  1 30  2  0  0  0
  1 87  1  0  0  0
  2  3  1  0  0  0
  2 25  1  0  0  0
  2 89  1  0  0  0
  2 90  1  0  0  0
  3  4  1  0  0  0
  3 91  1  0  0  0
  3 92  1  0  0  0
  4  5  1  0  0  0
  4 93  1  0  0  0
  4 94  1  0  0  0
  5  6  1  0  0  0
  5 26  1  0  0  0
  5 95  1  0  0  0
  6 25  1  0  0  0
  6 96  1  0  0  0
  6 97  1  0  0  0
  7  8  2  0  0  0
  7 26  1  0  0  0
  7 29  1  0  0  0
  8  9  1  0  0  0
  8 22  1  0  0  0
  9 10  1  0  0  0
  9 27  2  0  0  0
 10 11  2  0  0  0
 10 15  1  0  0  0
 11 12  1  0  0  0
 11 98  1  0  0  0
 12 13  2  0  0  0
 12 99  1  0  0  0
 13 14  1  0  0  0
 13 31  1  0  0  0
 14 15  2  0  0  0
 14100  1  0  0  0
 15101  1  0  0  0
 16 17  2  0  0  0
 16 21  1  0  0  0
 16 31  1  0  0  0
 17 18  1  0  0  0
 17102  1  0  0  0
 18 19  2  0  0  0
 18103  1  0  0  0
 19 20  1  0  0  0
 19 24  1  0  0  0
 20 21  2  0  0  0
 20104  1  0  0  0
 21 23  1  0  0  0
 22 28  1  0  0  0
 22 32  2  0  0  0
 26 27  1  0  0  0
 28105  1  0  0  0
 28106  1  0  0  0
 29107  1  0  0  0
 29108  1  0  0  0
 33 34  1  0  0  0
 33 66  1  0  0  0
 33 70  2  0  0  0
 34 36  1  0  0  0
 34 59  1  0  0  0
 34109  1  0  0  0
 35 44  2  0  0  0
 35 45  1  0  0  0
 35 68  1  0  0  0
 36 56  1  0  0  0
 36110  1  0  0  0
 37 39  1  0  0  0
 37 47  1  0  0  0
 37 66  1  0  0  0
 37111  1  0  0  0
 38 43  2  0  0  0
 38 46  1  0  0  0
 38 47  1  0  0  0
 39 64  1  0  0  0
 39 67  2  0  0  0
 40 52  1  0  0  0
 40 53  2  0  0  0
 40 58  1  0  0  0
 41112  1  0  0  0
 41113  1  0  0  0
 41114  1  0  0  0
 41 48  1  0  0  0
 42 43  1  0  0  0
 42 66  1  0  0  0
 42115  1  0  0  0
 42116  1  0  0  0
 43 44  1  0  0  0
 44117  1  0  0  0
 45 46  2  0  0  0
 45118  1  0  0  0
 46119  1  0  0  0
 47120  1  0  0  0
 47121  1  0  0  0
 48 56  1  0  0  0
 48 65  1  0  0  0
 48122  1  0  0  0
 49 50  1  0  0  0
 49 53  1  0  0  0
 49 64  1  0  0  0
 49123  1  0  0  0
 50 51  1  0  0  0
 50124  1  0  0  0
 50125  1  0  0  0
 51 52  1  0  0  0
 51126  1  0  0  0
 51127  1  0  0  0
 52128  1  0  0  0
 52129  1  0  0  0
 53 54  1  0  0  0
 54 55  2  0  0  0
 54130  1  0  0  0
 55 57  1  0  0  0
 55131  1  0  0  0
 56 69  2  0  0  0
 57 58  2  0  0  0
 57132  1  0  0  0
 58133  1  0  0  0
 59 60  1  0  0  0
 59 61  1  0  0  0
 59 62  1  0  0  0
 60134  1  0  0  0
 60135  1  0  0  0
 60136  1  0  0  0
 61137  1  0  0  0
 61138  1  0  0  0
 61139  1  0  0  0
 62140  1  0  0  0
 62141  1  0  0  0
 62142  1  0  0  0
 63 65  1  0  0  0
 63143  1  0  0  0
 63144  1  0  0  0
 63145  1  0  0  0
 64146  1  0  0  0
 65147  1  0  0  0
 68 85  1  0  0  0
 71 72  2  0  0  0
 71 74  1  0  0  0
 71148  1  0  0  0
 72 76  1  0  0  0
 72149  1  0  0  0
 73 75  1  0  0  0
 73 76  2  0  0  0
 73150  1  0  0  0
 74 75  2  0  0  0
 74 81  1  0  0  0
 75 82  1  0  0  0
 76 87  1  0  0  0
 77 83  1  0  0  0
 77 84  1  0  0  0
 77 88  2  0  0  0
 78 82  1  0  0  0
 78151  1  0  0  0
 78152  1  0  0  0
 78153  1  0  0  0
 79154  1  0  0  0
 79155  1  0  0  0
 79156  1  0  0  0
 79 86  1  0  0  0
 80 86  1  0  0  0
 80157  1  0  0  0
 80158  1  0  0  0
 80159  1  0  0  0
 81 83  1  0  0  0
 81160  1  0  0  0
 81161  1  0  0  0
 82162  1  0  0  0
 82163  1  0  0  0
 83164  1  0  0  0
 83165  1  0  0  0
 84 86  1  0  0  0
 84166  1  0  0  0
 84167  1  0  0  0
 85 86  1  0  0  0
 85168  1  0  0  0
 85169  1  0  0  0
 87170  1  0  0  0
M  ISO  4   1 100  68 101  85 101  87 100
M  END
> <chiral flag>
0

> <version>
0

> <s_m_source_file>
/data/baiqing/PycharmProjects/Reinvent-master-3.2/result/LINK_invent/BTK/process_docking_weight1_custom_product_contain_oxygen_bond_distance_aromatic_linkinvent_7_9_3/rearranged_h_0137.sdf

> <i_m_source_file_index>
95

> <r_mmod_Potential_Energy-OPLS-2005>
-73.6294860839844

> <r_mmod_Stretch_Energy-OPLS-2005>
37.2775497436523

> <r_mmod_Bend_Energy-OPLS-2005>
114.83122253418

> <r_mmod_Torsional_Energy-OPLS-2005>
213.197692871094

> <r_mmod_Improper_Torsional_Energy-OPLS-2005>
4.03695821762085

> <r_mmod_Van_der_Waal_Energy-OPLS-2005>
150.693237304688

> <r_mmod_Electrostatic_Energy-OPLS-2005>
-393.34228515625

> <r_mmod_Solvation_Energy-OPLS-2005>
-208.943450927734

> <b_mmod_Minimization_Converged-OPLS-2005>
0

> <r_mmod_RMS_Derivative-OPLS-2005>
1.08232688903809

$$$$
95
                    3D
 Structure written by MMmdl.
169177  0  0  1  0            999 V2000
  -30.6380  -14.5493   20.6200 C   0  0  0  0  0  0
  -30.4435  -12.3765   19.4124 C   0  0  0  0  0  0
  -29.4959  -12.5486   18.2037 C   0  0  0  0  0  0
  -28.0209  -12.3828   18.6182 C   0  0  0  0  0  0
  -27.6646  -13.2084   19.8807 C   0  0  2  0  0  0
  -28.7063  -12.9678   20.9952 C   0  0  0  0  0  0
  -25.2604  -13.8157   20.5709 C   0  0  0  0  0  0
  -24.1843  -13.0439   20.9177 C   0  0  0  0  0  0
  -24.6400  -11.6904   20.8728 C   0  0  0  0  0  0
  -23.9064  -10.4296   21.0400 C   0  0  0  0  0  0
  -24.3617   -9.4209   21.9176 C   0  0  0  0  0  0
  -23.6296   -8.2249   22.0745 C   0  0  0  0  0  0
  -22.4280   -8.0290   21.3538 C   0  0  0  0  0  0
  -21.9913   -9.0261   20.4647 C   0  0  0  0  0  0
  -22.7238  -10.2138   20.3057 C   0  0  0  0  0  0
  -21.6860   -6.0749   22.5285 C   0  0  0  0  0  0
  -21.4013   -6.5649   23.8220 C   0  0  0  0  0  0
  -21.3656   -5.6796   24.9179 C   0  0  0  0  0  0
  -21.6041   -4.3059   24.7228 C   0  0  0  0  0  0
  -21.8817   -3.8160   23.4347 C   0  0  0  0  0  0
  -21.9194   -4.6978   22.3404 C   0  0  0  0  0  0
  -22.7880  -13.5245   21.1855 C   0  0  0  0  0  0
  -22.1664   -4.2161   21.0988 F   0  0  0  0  0  0
  -21.5626   -3.4544   25.7738 F   0  0  0  0  0  0
  -30.0380  -13.3295   20.4637 N   0  0  0  0  0  0
  -26.3045  -12.9330   20.3410 N   0  0  0  0  0  0
  -25.9324  -11.6485   20.5769 N   0  0  0  0  0  0
  -22.0524  -12.8229   22.0421 N   0  0  0  0  0  0
  -25.4326  -15.1880   20.4160 N   0  0  0  0  0  0
  -31.6796  -14.8617   20.0312 O   0  0  0  0  0  0
  -21.6640   -6.8891   21.4246 O   0  0  0  0  0  0
  -22.3562  -14.5554   20.6719 O   0  0  0  0  0  0
  -24.6217  -31.8593   23.2047 C   0  0  0  0  0  0
  -25.9082  -32.4780   23.8376 C   0  0  1  0  0  0
  -27.2368  -27.3558   20.1122 C   0  0  0  0  0  0
  -25.5906  -33.8578   24.2302 N   0  0  0  0  0  0
  -23.4136  -30.4796   21.5484 C   0  0  2  0  0  0
  -24.8606  -28.9306   20.1209 C   0  0  0  0  0  0
  -22.7443  -29.4606   22.4997 C   0  0  0  0  0  0
  -18.0256  -28.1370   22.8482 C   0  0  0  0  0  0
  -24.1468  -36.7298   23.2638 C   0  0  0  0  0  0
  -25.9496  -30.8038   21.3659 C   0  0  0  0  0  0
  -26.0274  -29.4300   20.7154 C   0  0  0  0  0  0
  -27.2190  -28.6530   20.6971 C   0  0  0  0  0  0
  -26.0498  -26.8914   19.5061 C   0  0  0  0  0  0
  -24.8706  -27.6645   19.5111 C   0  0  0  0  0  0
  -23.6257  -29.8065   20.1668 C   0  0  0  0  0  0
  -25.4091  -36.3071   24.0328 C   0  0  1  0  0  0
  -20.5854  -28.3664   23.1306 C   0  0  2  0  0  0
  -20.6731  -26.9391   22.5420 C   0  0  0  0  0  0
  -19.5721  -26.6377   21.5196 C   0  0  0  0  0  0
  -18.1902  -26.7913   22.1615 C   0  0  0  0  0  0
  -19.1509  -28.8836   23.2885 C   0  0  0  0  0  0
  -18.9442  -30.1440   23.8899 C   0  0  0  0  0  0
  -17.6445  -30.6585   24.0553 C   0  0  0  0  0  0
  -25.9037  -34.9444   23.5121 C   0  0  0  0  0  0
  -16.5334  -29.9087   23.6321 C   0  0  0  0  0  0
  -16.7242  -28.6495   23.0358 C   0  0  0  0  0  0
  -26.4485  -31.6568   25.0734 C   0  0  0  0  0  0
  -25.3752  -31.3679   26.1488 C   0  0  0  0  0  0
  -27.0321  -30.2992   24.6156 C   0  0  0  0  0  0
  -27.6058  -32.4271   25.7512 C   0  0  0  0  0  0
  -27.5557  -37.1797   24.8465 C   0  0  0  0  0  0
  -21.4168  -29.3021   22.3720 N   0  0  0  0  0  0
  -26.4262  -37.3776   23.9420 N   0  0  0  0  0  0
  -24.6808  -31.0640   22.0967 N   0  0  0  0  0  0
  -23.4175  -28.8131   23.3058 O   0  0  0  0  0  0
  -28.3948  -26.5808   20.0887 O   0  0  0  0  0  0
  -26.5607  -34.8912   22.4686 O   0  0  0  0  0  0
  -23.5399  -32.1365   23.7407 O   0  0  0  0  0  0
  -28.3572  -16.7567   22.3984 C   0  0  0  0  0  0
  -28.1117  -19.1334   21.9445 C   0  0  0  0  0  0
  -29.9131  -17.8621   20.8838 C   0  0  0  0  0  0
  -27.6821  -17.9692   22.6103 C   0  0  0  0  0  0
  -29.4739  -16.6638   21.5448 C   0  0  0  0  0  0
  -29.2316  -19.1208   21.0758 C   0  0  0  0  0  0
  -25.6789  -17.6697   25.9698 C   0  0  0  0  0  0
  -30.4835  -24.9483   19.1396 C   0  0  0  0  0  0
  -28.4312  -23.8400   18.2566 C   0  0  0  0  0  0
  -26.5018  -18.0227   23.5719 C   0  0  0  0  0  0
  -26.8584  -17.5561   24.9959 C   0  0  0  0  0  0
  -29.7347  -22.8206   20.2222 C   0  0  0  0  0  0
  -28.8743  -21.5078   20.3385 C   0  0  0  0  0  0
  -28.3344  -25.1525   20.4402 C   0  0  0  0  0  0
  -29.2078  -24.1732   19.5441 C   0  0  0  0  0  0
  -30.0521  -15.3365   21.5511 N   0  0  0  0  0  0
  -29.7027  -20.3007   20.4752 O   0  0  0  0  0  0
  -31.4804  -12.5257   19.1045 H   0  0  0  0  0  0
  -30.3926  -11.3544   19.7898 H   0  0  0  0  0  0
  -29.7448  -11.8336   17.4166 H   0  0  0  0  0  0
  -29.6384  -13.5407   17.7724 H   0  0  0  0  0  0
  -27.8434  -11.3240   18.8062 H   0  0  0  0  0  0
  -27.3644  -12.6539   17.7910 H   0  0  0  0  0  0
  -27.7113  -14.2623   19.6005 H   0  0  0  0  0  0
  -28.7042  -11.9174   21.2886 H   0  0  0  0  0  0
  -28.4271  -13.5100   21.8989 H   0  0  0  0  0  0
  -25.2761   -9.5693   22.4749 H   0  0  0  0  0  0
  -24.0014   -7.4643   22.7452 H   0  0  0  0  0  0
  -21.0852   -8.8773   19.8962 H   0  0  0  0  0  0
  -22.3688  -10.9672   19.6175 H   0  0  0  0  0  0
  -21.2001   -7.6156   23.9724 H   0  0  0  0  0  0
  -21.1479   -6.0528   25.9077 H   0  0  0  0  0  0
  -22.0597   -2.7623   23.2844 H   0  0  0  0  0  0
  -22.4138  -11.9891   22.4808 H   0  0  0  0  0  0
  -21.1138  -13.1237   22.2632 H   0  0  0  0  0  0
  -24.6672  -15.8430   20.5297 H   0  0  0  0  0  0
  -26.3038  -15.6330   20.1556 H   0  0  0  0  0  0
  -26.7172  -32.5475   23.1158 H   0  0  0  0  0  0
  -25.0038  -33.9726   25.0435 H   0  0  0  0  0  0
  -22.7064  -31.2987   21.4032 H   0  0  0  0  0  0
  -23.3709  -35.9656   23.3301 H   0  0  0  0  0  0
  -24.3547  -36.8914   22.2051 H   0  0  0  0  0  0
  -23.7241  -37.6513   23.6659 H   0  0  0  0  0  0
  -26.0726  -31.5635   20.5934 H   0  0  0  0  0  0
  -26.8314  -30.8605   21.9914 H   0  0  0  0  0  0
  -28.1232  -29.0351   21.1513 H   0  0  0  0  0  0
  -26.0328  -25.9269   19.0203 H   0  0  0  0  0  0
  -23.9747  -27.2781   19.0441 H   0  0  0  0  0  0
  -23.7468  -30.5789   19.4073 H   0  0  0  0  0  0
  -22.7467  -29.2329   19.8646 H   0  0  0  0  0  0
  -25.1257  -36.1927   25.0820 H   0  0  0  0  0  0
  -20.9933  -28.3216   24.1432 H   0  0  0  0  0  0
  -20.5582  -26.2274   23.3606 H   0  0  0  0  0  0
  -21.6613  -26.7399   22.1247 H   0  0  0  0  0  0
  -19.6897  -25.6286   21.1216 H   0  0  0  0  0  0
  -19.6665  -27.3190   20.6719 H   0  0  0  0  0  0
  -17.4163  -26.6637   21.4026 H   0  0  0  0  0  0
  -18.0341  -26.0046   22.9009 H   0  0  0  0  0  0
  -19.7923  -30.7243   24.2279 H   0  0  0  0  0  0
  -17.5008  -31.6270   24.5157 H   0  0  0  0  0  0
  -15.5340  -30.3002   23.7655 H   0  0  0  0  0  0
  -15.8628  -28.0817   22.7107 H   0  0  0  0  0  0
  -24.5963  -30.6979   25.7828 H   0  0  0  0  0  0
  -24.8925  -32.2839   26.4902 H   0  0  0  0  0  0
  -25.8125  -30.8888   27.0265 H   0  0  0  0  0  0
  -26.2901  -29.6754   24.1170 H   0  0  0  0  0  0
  -27.4014  -29.7214   25.4639 H   0  0  0  0  0  0
  -27.8759  -30.4251   23.9371 H   0  0  0  0  0  0
  -27.2686  -33.3566   26.2107 H   0  0  0  0  0  0
  -28.3888  -32.6820   25.0358 H   0  0  0  0  0  0
  -28.0721  -31.8385   26.5424 H   0  0  0  0  0  0
  -28.2577  -38.0086   24.7473 H   0  0  0  0  0  0
  -28.1037  -36.2610   24.6315 H   0  0  0  0  0  0
  -27.2278  -37.1487   25.8870 H   0  0  0  0  0  0
  -20.9346  -29.8757   21.6943 H   0  0  0  0  0  0
  -26.0130  -38.2846   24.1435 H   0  0  0  0  0  0
  -28.0143  -15.8781   22.9264 H   0  0  0  0  0  0
  -27.5664  -20.0383   22.1569 H   0  0  0  0  0  0
  -30.7830  -17.8268   20.2418 H   0  0  0  0  0  0
  -25.9465  -17.2767   26.9519 H   0  0  0  0  0  0
  -24.8139  -17.1088   25.6148 H   0  0  0  0  0  0
  -25.3731  -18.7078   26.1001 H   0  0  0  0  0  0
  -31.1434  -24.3502   18.5089 H   0  0  0  0  0  0
  -31.0517  -25.2546   20.0192 H   0  0  0  0  0  0
  -30.2517  -25.8498   18.5707 H   0  0  0  0  0  0
  -29.0100  -23.1892   17.5999 H   0  0  0  0  0  0
  -28.1812  -24.7417   17.6960 H   0  0  0  0  0  0
  -27.4916  -23.3345   18.4767 H   0  0  0  0  0  0
  -25.7013  -17.4021   23.1678 H   0  0  0  0  0  0
  -26.1107  -19.0400   23.6152 H   0  0  0  0  0  0
  -27.1959  -16.5191   24.9782 H   0  0  0  0  0  0
  -27.6945  -18.1458   25.3759 H   0  0  0  0  0  0
  -30.6134  -22.5012   19.6599 H   0  0  0  0  0  0
  -30.1233  -23.0575   21.2134 H   0  0  0  0  0  0
  -28.2693  -21.3632   19.4433 H   0  0  0  0  0  0
  -28.1783  -21.6722   21.1556 H   0  0  0  0  0  0
  -27.3096  -24.7872   20.4893 H   0  0  0  0  0  0
  -28.6960  -25.0927   21.4668 H   0  0  0  0  0  0
  -29.5216  -14.7307   22.1596 H   0  0  0  0  0  0
  1 25  1  0  0  0
  1 30  2  0  0  0
  1 86  1  0  0  0
  2  3  1  0  0  0
  2 25  1  0  0  0
  2 88  1  0  0  0
  2 89  1  0  0  0
  3  4  1  0  0  0
  3 90  1  0  0  0
  3 91  1  0  0  0
  4  5  1  0  0  0
  4 92  1  0  0  0
  4 93  1  0  0  0
  5  6  1  0  0  0
  5 26  1  0  0  0
  5 94  1  0  0  0
  6 25  1  0  0  0
  6 95  1  0  0  0
  6 96  1  0  0  0
  7  8  2  0  0  0
  7 26  1  0  0  0
  7 29  1  0  0  0
  8  9  1  0  0  0
  8 22  1  0  0  0
  9 10  1  0  0  0
  9 27  2  0  0  0
 10 11  2  0  0  0
 10 15  1  0  0  0
 11 12  1  0  0  0
 11 97  1  0  0  0
 12 13  2  0  0  0
 12 98  1  0  0  0
 13 14  1  0  0  0
 13 31  1  0  0  0
 14 15  2  0  0  0
 14 99  1  0  0  0
 15100  1  0  0  0
 16 17  2  0  0  0
 16 21  1  0  0  0
 16 31  1  0  0  0
 17 18  1  0  0  0
 17101  1  0  0  0
 18 19  2  0  0  0
 18102  1  0  0  0
 19 20  1  0  0  0
 19 24  1  0  0  0
 20 21  2  0  0  0
 20103  1  0  0  0
 21 23  1  0  0  0
 22 28  1  0  0  0
 22 32  2  0  0  0
 26 27  1  0  0  0
 28104  1  0  0  0
 28105  1  0  0  0
 29106  1  0  0  0
 29107  1  0  0  0
 33 34  1  0  0  0
 33 66  1  0  0  0
 33 70  2  0  0  0
 34 36  1  0  0  0
 34 59  1  0  0  0
 34108  1  0  0  0
 35 44  2  0  0  0
 35 45  1  0  0  0
 35 68  1  0  0  0
 36 56  1  0  0  0
 36109  1  0  0  0
 37 39  1  0  0  0
 37 47  1  0  0  0
 37 66  1  0  0  0
 37110  1  0  0  0
 38 43  2  0  0  0
 38 46  1  0  0  0
 38 47  1  0  0  0
 39 64  1  0  0  0
 39 67  2  0  0  0
 40 52  1  0  0  0
 40 53  2  0  0  0
 40 58  1  0  0  0
 41111  1  0  0  0
 41112  1  0  0  0
 41113  1  0  0  0
 41 48  1  0  0  0
 42 43  1  0  0  0
 42 66  1  0  0  0
 42114  1  0  0  0
 42115  1  0  0  0
 43 44  1  0  0  0
 44116  1  0  0  0
 45 46  2  0  0  0
 45117  1  0  0  0
 46118  1  0  0  0
 47119  1  0  0  0
 47120  1  0  0  0
 48 56  1  0  0  0
 48 65  1  0  0  0
 48121  1  0  0  0
 49 50  1  0  0  0
 49 53  1  0  0  0
 49 64  1  0  0  0
 49122  1  0  0  0
 50 51  1  0  0  0
 50123  1  0  0  0
 50124  1  0  0  0
 51 52  1  0  0  0
 51125  1  0  0  0
 51126  1  0  0  0
 52127  1  0  0  0
 52128  1  0  0  0
 53 54  1  0  0  0
 54 55  2  0  0  0
 54129  1  0  0  0
 55 57  1  0  0  0
 55130  1  0  0  0
 56 69  2  0  0  0
 57 58  2  0  0  0
 57131  1  0  0  0
 58132  1  0  0  0
 59 60  1  0  0  0
 59 61  1  0  0  0
 59 62  1  0  0  0
 60133  1  0  0  0
 60134  1  0  0  0
 60135  1  0  0  0
 61136  1  0  0  0
 61137  1  0  0  0
 61138  1  0  0  0
 62139  1  0  0  0
 62140  1  0  0  0
 62141  1  0  0  0
 63 65  1  0  0  0
 63142  1  0  0  0
 63143  1  0  0  0
 63144  1  0  0  0
 64145  1  0  0  0
 65146  1  0  0  0
 68 84  1  0  0  0
 71 74  2  0  0  0
 71 75  1  0  0  0
 71147  1  0  0  0
 72 74  1  0  0  0
 72 76  2  0  0  0
 72148  1  0  0  0
 73 75  2  0  0  0
 73 76  1  0  0  0
 73149  1  0  0  0
 74 80  1  0  0  0
 75 86  1  0  0  0
 76 87  1  0  0  0
 77 81  1  0  0  0
 77150  1  0  0  0
 77151  1  0  0  0
 77152  1  0  0  0
 78153  1  0  0  0
 78154  1  0  0  0
 78155  1  0  0  0
 78 85  1  0  0  0
 79 85  1  0  0  0
 79156  1  0  0  0
 79157  1  0  0  0
 79158  1  0  0  0
 80 81  1  0  0  0
 80159  1  0  0  0
 80160  1  0  0  0
 81161  1  0  0  0
 81162  1  0  0  0
 82 83  1  0  0  0
 82 85  1  0  0  0
 82163  1  0  0  0
 82164  1  0  0  0
 83 87  1  0  0  0
 83165  1  0  0  0
 83166  1  0  0  0
 84 85  1  0  0  0
 84167  1  0  0  0
 84168  1  0  0  0
 86169  1  0  0  0
M  ISO  4   1 100  68 101  84 101  86 100
M  END
> <chiral flag>
0

> <version>
0

> <s_m_source_file>
/data/baiqing/PycharmProjects/Reinvent-master-3.2/result/LINK_invent/BTK/process_docking_weight1_custom_product_contain_oxygen_bond_distance_aromatic_linkinvent_7_9_3/rearranged_h_0137.sdf

> <i_m_source_file_index>
96

> <r_mmod_Potential_Energy-OPLS-2005>
127.148719787598

> <r_mmod_Stretch_Energy-OPLS-2005>
72.4044036865234

> <r_mmod_Bend_Energy-OPLS-2005>
174.53938293457

> <r_mmod_Torsional_Energy-OPLS-2005>
258.648284912109

> <r_mmod_Improper_Torsional_Energy-OPLS-2005>
5.93825149536133

> <r_mmod_Van_der_Waal_Energy-OPLS-2005>
142.368743896484

> <r_mmod_Electrostatic_Energy-OPLS-2005>
-355.238006591797

> <r_mmod_Solvation_Energy-OPLS-2005>
-199.829879760742

> <b_mmod_Minimization_Converged-OPLS-2005>
0

> <r_mmod_RMS_Derivative-OPLS-2005>
2.59867358207703

$$$$
96
                    3D
 Structure written by MMmdl.
163172  0  0  1  0            999 V2000
  -30.6697  -14.4934   20.5866 C   0  0  0  0  0  0
  -30.4378  -12.3241   19.4187 C   0  0  0  0  0  0
  -29.5011  -12.5161   18.2061 C   0  0  0  0  0  0
  -28.0205  -12.3713   18.6158 C   0  0  0  0  0  0
  -27.6661  -13.2009   19.8784 C   0  0  2  0  0  0
  -28.7071  -12.9584   20.9948 C   0  0  0  0  0  0
  -25.2617  -13.8154   20.5670 C   0  0  0  0  0  0
  -24.1856  -13.0442   20.9163 C   0  0  0  0  0  0
  -24.6393  -11.6901   20.8728 C   0  0  0  0  0  0
  -23.9042  -10.4295   21.0406 C   0  0  0  0  0  0
  -24.3604   -9.4213   21.9183 C   0  0  0  0  0  0
  -23.6283   -8.2247   22.0758 C   0  0  0  0  0  0
  -22.4267   -8.0283   21.3539 C   0  0  0  0  0  0
  -21.9893   -9.0254   20.4646 C   0  0  0  0  0  0
  -22.7213  -10.2138   20.3054 C   0  0  0  0  0  0
  -21.6854   -6.0729   22.5270 C   0  0  0  0  0  0
  -21.4017   -6.5632   23.8202 C   0  0  0  0  0  0
  -21.3658   -5.6787   24.9166 C   0  0  0  0  0  0
  -21.6047   -4.3051   24.7213 C   0  0  0  0  0  0
  -21.8823   -3.8139   23.4336 C   0  0  0  0  0  0
  -21.9195   -4.6956   22.3393 C   0  0  0  0  0  0
  -22.7880  -13.5252   21.1828 C   0  0  0  0  0  0
  -22.1665   -4.2142   21.0969 F   0  0  0  0  0  0
  -21.5626   -3.4531   25.7723 F   0  0  0  0  0  0
  -30.0413  -13.2893   20.4560 N   0  0  0  0  0  0
  -26.3044  -12.9305   20.3364 N   0  0  0  0  0  0
  -25.9317  -11.6467   20.5758 N   0  0  0  0  0  0
  -22.0509  -12.8259   22.0388 N   0  0  0  0  0  0
  -25.4360  -15.1872   20.4074 N   0  0  0  0  0  0
  -31.7681  -14.7352   20.0765 O   0  0  0  0  0  0
  -21.6642   -6.8875   21.4234 O   0  0  0  0  0  0
  -22.3564  -14.5559   20.6678 O   0  0  0  0  0  0
  -24.6168  -31.8658   23.2092 C   0  0  0  0  0  0
  -25.9052  -32.4814   23.8395 C   0  0  1  0  0  0
  -27.2427  -27.4187   20.0823 C   0  0  0  0  0  0
  -25.5897  -33.8614   24.2322 N   0  0  0  0  0  0
  -23.4062  -30.4895   21.5482 C   0  0  2  0  0  0
  -24.8535  -28.9523   20.1128 C   0  0  0  0  0  0
  -22.7422  -29.4645   22.4957 C   0  0  0  0  0  0
  -18.0279  -28.1376   22.8490 C   0  0  0  0  0  0
  -24.1483  -36.7314   23.2639 C   0  0  0  0  0  0
  -25.9375  -30.8235   21.3671 C   0  0  0  0  0  0
  -26.0136  -29.4562   20.7128 C   0  0  0  0  0  0
  -27.2051  -28.6921   20.7033 C   0  0  0  0  0  0
  -26.0532  -26.9237   19.4988 C   0  0  0  0  0  0
  -24.8676  -27.6839   19.5076 C   0  0  0  0  0  0
  -23.6176  -29.8233   20.1620 C   0  0  0  0  0  0
  -25.4106  -36.3110   24.0338 C   0  0  1  0  0  0
  -20.5872  -28.3667   23.1304 C   0  0  2  0  0  0
  -20.6767  -26.9399   22.5408 C   0  0  0  0  0  0
  -19.5744  -26.6380   21.5207 C   0  0  0  0  0  0
  -18.1927  -26.7922   22.1624 C   0  0  0  0  0  0
  -19.1531  -28.8837   23.2897 C   0  0  0  0  0  0
  -18.9459  -30.1442   23.8913 C   0  0  0  0  0  0
  -17.6460  -30.6579   24.0568 C   0  0  0  0  0  0
  -25.9034  -34.9472   23.5128 C   0  0  0  0  0  0
  -16.5349  -29.9086   23.6322 C   0  0  0  0  0  0
  -16.7269  -28.6501   23.0345 C   0  0  0  0  0  0
  -26.4474  -31.6604   25.0730 C   0  0  0  0  0  0
  -25.3741  -31.3726   26.1484 C   0  0  0  0  0  0
  -27.0307  -30.3044   24.6127 C   0  0  0  0  0  0
  -27.6055  -32.4324   25.7480 C   0  0  0  0  0  0
  -27.5582  -37.1811   24.8464 C   0  0  0  0  0  0
  -21.4147  -29.3031   22.3703 N   0  0  0  0  0  0
  -26.4292  -37.3794   23.9411 N   0  0  0  0  0  0
  -24.6715  -31.0741   22.1002 N   0  0  0  0  0  0
  -23.4182  -28.8186   23.3009 O   0  0  0  0  0  0
  -28.4173  -26.6841   20.1168 O   0  0  0  0  0  0
  -26.5595  -34.8925   22.4689 O   0  0  0  0  0  0
  -23.5354  -32.1418   23.7472 O   0  0  0  0  0  0
  -30.4684  -19.0663   20.2996 C   0  0  0  0  0  0
  -28.4147  -18.7946   21.5556 C   0  0  0  0  0  0
  -30.7245  -17.6714   20.4193 C   0  0  0  0  0  0
  -28.6690  -17.4119   21.6790 C   0  0  0  0  0  0
  -29.3005  -19.6463   20.8567 C   0  0  0  0  0  0
  -29.8188  -16.8226   21.1080 C   0  0  0  0  0  0
  -28.9570  -21.0949   20.7660 C   0  0  0  0  0  0
  -28.7026  -22.1675   17.2433 C   0  0  0  0  0  0
  -27.6363  -22.9626   17.9941 C   0  0  0  0  0  0
  -29.2522  -21.2104   18.3012 C   0  0  0  0  0  0
  -28.2382  -23.1443   19.3992 C   0  0  2  0  0  0
  -29.2304  -24.3498   19.4951 C   0  0  0  0  0  0
  -28.7309  -25.7679   19.0501 C   0  0  0  0  0  0
  -28.8899  -21.8068   19.6059 N   0  0  0  0  0  0
  -29.9611  -15.4065   21.2818 N   0  0  0  0  0  0
  -28.6329  -21.7196   21.8951 N   0  3  0  0  0  0
  -31.4790  -12.4474   19.1153 H   0  0  0  0  0  0
  -30.3613  -11.3072   19.8067 H   0  0  0  0  0  0
  -29.7425  -11.7914   17.4266 H   0  0  0  0  0  0
  -29.6650  -13.5021   17.7687 H   0  0  0  0  0  0
  -27.8289  -11.3144   18.8012 H   0  0  0  0  0  0
  -27.3728  -12.6558   17.7856 H   0  0  0  0  0  0
  -27.7154  -14.2519   19.5938 H   0  0  0  0  0  0
  -28.6906  -11.9122   21.3037 H   0  0  0  0  0  0
  -28.4515  -13.5203   21.8940 H   0  0  0  0  0  0
  -25.2760   -9.5686   22.4741 H   0  0  0  0  0  0
  -23.9989   -7.4643   22.7482 H   0  0  0  0  0  0
  -21.0818   -8.8774   19.8954 H   0  0  0  0  0  0
  -22.3680  -10.9675   19.6157 H   0  0  0  0  0  0
  -21.2016   -7.6143   23.9700 H   0  0  0  0  0  0
  -21.1475   -6.0519   25.9066 H   0  0  0  0  0  0
  -22.0607   -2.7599   23.2841 H   0  0  0  0  0  0
  -22.4110  -11.9914   22.4776 H   0  0  0  0  0  0
  -21.1127  -13.1296   22.2579 H   0  0  0  0  0  0
  -24.6686  -15.8437   20.5032 H   0  0  0  0  0  0
  -26.2784  -15.6161   20.0458 H   0  0  0  0  0  0
  -26.7123  -32.5526   23.1159 H   0  0  0  0  0  0
  -25.0055  -33.9770   25.0472 H   0  0  0  0  0  0
  -22.6963  -31.3074   21.4079 H   0  0  0  0  0  0
  -23.3738  -35.9653   23.3307 H   0  0  0  0  0  0
  -24.3577  -36.8924   22.2053 H   0  0  0  0  0  0
  -23.7237  -37.6522   23.6647 H   0  0  0  0  0  0
  -26.0546  -31.5893   20.5990 H   0  0  0  0  0  0
  -26.8237  -30.8759   21.9879 H   0  0  0  0  0  0
  -28.0996  -29.0767   21.1733 H   0  0  0  0  0  0
  -26.0139  -25.9394   19.0569 H   0  0  0  0  0  0
  -23.9707  -27.2832   19.0548 H   0  0  0  0  0  0
  -23.7334  -30.6004   19.4055 H   0  0  0  0  0  0
  -22.7404  -29.2482   19.8597 H   0  0  0  0  0  0
  -25.1281  -36.1977   25.0830 H   0  0  0  0  0  0
  -20.9973  -28.3238   24.1422 H   0  0  0  0  0  0
  -20.5666  -26.2278   23.3600 H   0  0  0  0  0  0
  -21.6639  -26.7435   22.1206 H   0  0  0  0  0  0
  -19.6905  -25.6295   21.1226 H   0  0  0  0  0  0
  -19.6681  -27.3199   20.6745 H   0  0  0  0  0  0
  -17.4195  -26.6671   21.4031 H   0  0  0  0  0  0
  -18.0331  -26.0059   22.9016 H   0  0  0  0  0  0
  -19.7937  -30.7253   24.2292 H   0  0  0  0  0  0
  -17.5016  -31.6261   24.5167 H   0  0  0  0  0  0
  -15.5352  -30.2996   23.7630 H   0  0  0  0  0  0
  -15.8672  -28.0824   22.7050 H   0  0  0  0  0  0
  -24.5883  -30.7111   25.7821 H   0  0  0  0  0  0
  -24.8975  -32.2895   26.4963 H   0  0  0  0  0  0
  -25.8087  -30.8859   27.0223 H   0  0  0  0  0  0
  -26.2860  -29.6797   24.1181 H   0  0  0  0  0  0
  -27.4071  -29.7291   25.4595 H   0  0  0  0  0  0
  -27.8697  -30.4358   23.9290 H   0  0  0  0  0  0
  -27.2683  -33.3614   26.2089 H   0  0  0  0  0  0
  -28.3842  -32.6903   25.0287 H   0  0  0  0  0  0
  -28.0751  -31.8434   26.5367 H   0  0  0  0  0  0
  -28.2605  -38.0105   24.7507 H   0  0  0  0  0  0
  -28.1071  -36.2635   24.6284 H   0  0  0  0  0  0
  -27.2302  -37.1463   25.8868 H   0  0  0  0  0  0
  -20.9307  -29.8767   21.6937 H   0  0  0  0  0  0
  -26.0180  -38.2873   24.1408 H   0  0  0  0  0  0
  -31.1867  -19.6885   19.7843 H   0  0  0  0  0  0
  -27.5133  -19.1980   21.9954 H   0  0  0  0  0  0
  -31.6263  -17.2707   19.9794 H   0  0  0  0  0  0
  -27.9538  -16.8035   22.2148 H   0  0  0  0  0  0
  -29.4956  -22.8221   16.8787 H   0  0  0  0  0  0
  -28.2897  -21.6400   16.3835 H   0  0  0  0  0  0
  -26.7163  -22.3805   18.0678 H   0  0  0  0  0  0
  -27.3792  -23.8791   17.4697 H   0  0  0  0  0  0
  -30.3300  -21.0843   18.1929 H   0  0  0  0  0  0
  -28.7849  -20.2300   18.1913 H   0  0  0  0  0  0
  -27.4203  -23.2983   20.1068 H   0  0  0  0  0  0
  -30.1057  -24.1072   18.8924 H   0  0  0  0  0  0
  -29.6106  -24.4234   20.5140 H   0  0  0  0  0  0
  -27.9781  -25.7274   18.2698 H   0  0  0  0  0  0
  -29.5715  -26.2420   18.5426 H   0  0  0  0  0  0
  -29.1949  -14.9788   21.7766 H   0  0  0  0  0  0
  -28.7068  -21.2156   22.7660 H   0  0  0  0  0  0
  -28.4351  -22.7041   21.9239 H   0  0  0  0  0  0
  1 25  1  0  0  0
  1 30  2  0  0  0
  1 85  1  0  0  0
  2  3  1  0  0  0
  2 25  1  0  0  0
  2 87  1  0  0  0
  2 88  1  0  0  0
  3  4  1  0  0  0
  3 89  1  0  0  0
  3 90  1  0  0  0
  4  5  1  0  0  0
  4 91  1  0  0  0
  4 92  1  0  0  0
  5  6  1  0  0  0
  5 26  1  0  0  0
  5 93  1  0  0  0
  6 25  1  0  0  0
  6 94  1  0  0  0
  6 95  1  0  0  0
  7  8  2  0  0  0
  7 26  1  0  0  0
  7 29  1  0  0  0
  8  9  1  0  0  0
  8 22  1  0  0  0
  9 10  1  0  0  0
  9 27  2  0  0  0
 10 11  2  0  0  0
 10 15  1  0  0  0
 11 12  1  0  0  0
 11 96  1  0  0  0
 12 13  2  0  0  0
 12 97  1  0  0  0
 13 14  1  0  0  0
 13 31  1  0  0  0
 14 15  2  0  0  0
 14 98  1  0  0  0
 15 99  1  0  0  0
 16 17  2  0  0  0
 16 21  1  0  0  0
 16 31  1  0  0  0
 17 18  1  0  0  0
 17100  1  0  0  0
 18 19  2  0  0  0
 18101  1  0  0  0
 19 20  1  0  0  0
 19 24  1  0  0  0
 20 21  2  0  0  0
 20102  1  0  0  0
 21 23  1  0  0  0
 22 28  1  0  0  0
 22 32  2  0  0  0
 26 27  1  0  0  0
 28103  1  0  0  0
 28104  1  0  0  0
 29105  1  0  0  0
 29106  1  0  0  0
 33 34  1  0  0  0
 33 66  1  0  0  0
 33 70  2  0  0  0
 34 36  1  0  0  0
 34 59  1  0  0  0
 34107  1  0  0  0
 35 44  2  0  0  0
 35 45  1  0  0  0
 35 68  1  0  0  0
 36 56  1  0  0  0
 36108  1  0  0  0
 37 39  1  0  0  0
 37 47  1  0  0  0
 37 66  1  0  0  0
 37109  1  0  0  0
 38 43  2  0  0  0
 38 46  1  0  0  0
 38 47  1  0  0  0
 39 64  1  0  0  0
 39 67  2  0  0  0
 40 52  1  0  0  0
 40 53  2  0  0  0
 40 58  1  0  0  0
 41110  1  0  0  0
 41111  1  0  0  0
 41112  1  0  0  0
 41 48  1  0  0  0
 42 43  1  0  0  0
 42 66  1  0  0  0
 42113  1  0  0  0
 42114  1  0  0  0
 43 44  1  0  0  0
 44115  1  0  0  0
 45 46  2  0  0  0
 45116  1  0  0  0
 46117  1  0  0  0
 47118  1  0  0  0
 47119  1  0  0  0
 48 56  1  0  0  0
 48 65  1  0  0  0
 48120  1  0  0  0
 49 50  1  0  0  0
 49 53  1  0  0  0
 49 64  1  0  0  0
 49121  1  0  0  0
 50 51  1  0  0  0
 50122  1  0  0  0
 50123  1  0  0  0
 51 52  1  0  0  0
 51124  1  0  0  0
 51125  1  0  0  0
 52126  1  0  0  0
 52127  1  0  0  0
 53 54  1  0  0  0
 54 55  2  0  0  0
 54128  1  0  0  0
 55 57  1  0  0  0
 55129  1  0  0  0
 56 69  2  0  0  0
 57 58  2  0  0  0
 57130  1  0  0  0
 58131  1  0  0  0
 59 60  1  0  0  0
 59 61  1  0  0  0
 59 62  1  0  0  0
 60132  1  0  0  0
 60133  1  0  0  0
 60134  1  0  0  0
 61135  1  0  0  0
 61136  1  0  0  0
 61137  1  0  0  0
 62138  1  0  0  0
 62139  1  0  0  0
 62140  1  0  0  0
 63 65  1  0  0  0
 63141  1  0  0  0
 63142  1  0  0  0
 63143  1  0  0  0
 64144  1  0  0  0
 65145  1  0  0  0
 68 83  1  0  0  0
 71 73  2  0  0  0
 71 75  1  0  0  0
 71146  1  0  0  0
 72 74  1  0  0  0
 72 75  2  0  0  0
 72147  1  0  0  0
 73 76  1  0  0  0
 73148  1  0  0  0
 74 76  2  0  0  0
 74149  1  0  0  0
 75 77  1  0  0  0
 76 85  1  0  0  0
 77 84  1  0  0  0
 77 86  2  0  0  0
 78 79  1  0  0  0
 78 80  1  0  0  0
 78150  1  0  0  0
 78151  1  0  0  0
 79 81  1  0  0  0
 79152  1  0  0  0
 79153  1  0  0  0
 80 84  1  0  0  0
 80154  1  0  0  0
 80155  1  0  0  0
 81 82  1  0  0  0
 81 84  1  0  0  0
 81156  1  0  0  0
 82 83  1  0  0  0
 82157  1  0  0  0
 82158  1  0  0  0
 83159  1  0  0  0
 83160  1  0  0  0
 85161  1  0  0  0
 86162  1  0  0  0
 86163  1  0  0  0
M  CHG  1  86   1
M  ISO  4   1 100  68 101  83 101  85 100
M  END
> <chiral flag>
0

> <version>
0

> <s_m_source_file>
/data/baiqing/PycharmProjects/Reinvent-master-3.2/result/LINK_invent/BTK/process_docking_weight1_custom_product_contain_oxygen_bond_distance_aromatic_linkinvent_7_9_3/rearranged_h_0137.sdf

> <i_m_source_file_index>
97

> <r_mmod_Potential_Energy-OPLS-2005>
-68.4007263183594

> <r_mmod_Stretch_Energy-OPLS-2005>
47.2682151794434

> <r_mmod_Bend_Energy-OPLS-2005>
158.475509643555

> <r_mmod_Torsional_Energy-OPLS-2005>
305.419586181641

> <r_mmod_Improper_Torsional_Energy-OPLS-2005>
4.56943464279175

> <r_mmod_Van_der_Waal_Energy-OPLS-2005>
153.554473876953

> <r_mmod_Electrostatic_Energy-OPLS-2005>
-357.584625244141

> <r_mmod_Solvation_Energy-OPLS-2005>
-394.978393554688

> <b_mmod_Minimization_Converged-OPLS-2005>
0

> <r_mmod_RMS_Derivative-OPLS-2005>
1.33390295505524

$$$$
97
                    3D
 Structure written by MMmdl.
167175  0  0  1  0            999 V2000
  -30.6197  -14.6408   20.5007 C   0  0  0  0  0  0
  -30.4451  -12.3928   19.4548 C   0  0  0  0  0  0
  -29.5175  -12.5071   18.2243 C   0  0  0  0  0  0
  -28.0390  -12.3434   18.6330 C   0  0  0  0  0  0
  -27.6559  -13.2162   19.8587 C   0  0  2  0  0  0
  -28.6982  -13.0696   20.9912 C   0  0  0  0  0  0
  -25.2579  -13.8162   20.5640 C   0  0  0  0  0  0
  -24.1848  -13.0442   20.9173 C   0  0  0  0  0  0
  -24.6416  -11.6909   20.8717 C   0  0  0  0  0  0
  -23.9083  -10.4294   21.0399 C   0  0  0  0  0  0
  -24.3622   -9.4201   21.9179 C   0  0  0  0  0  0
  -23.6279   -8.2249   22.0760 C   0  0  0  0  0  0
  -22.4254   -8.0293   21.3560 C   0  0  0  0  0  0
  -21.9902   -9.0277   20.4666 C   0  0  0  0  0  0
  -22.7252  -10.2141   20.3057 C   0  0  0  0  0  0
  -21.6857   -6.0727   22.5269 C   0  0  0  0  0  0
  -21.4025   -6.5625   23.8208 C   0  0  0  0  0  0
  -21.3656   -5.6776   24.9168 C   0  0  0  0  0  0
  -21.6033   -4.3042   24.7218 C   0  0  0  0  0  0
  -21.8825   -3.8136   23.4339 C   0  0  0  0  0  0
  -21.9197   -4.6959   22.3398 C   0  0  0  0  0  0
  -22.7867  -13.5254   21.1807 C   0  0  0  0  0  0
  -22.1664   -4.2144   21.0975 F   0  0  0  0  0  0
  -21.5622   -3.4524   25.7732 F   0  0  0  0  0  0
  -30.0166  -13.4123   20.4337 N   0  0  0  0  0  0
  -26.3009  -12.9347   20.3264 N   0  0  0  0  0  0
  -25.9338  -11.6504   20.5709 N   0  0  0  0  0  0
  -22.0484  -12.8286   22.0379 N   0  0  0  0  0  0
  -25.4270  -15.1882   20.3999 N   0  0  0  0  0  0
  -31.7818  -14.8024   20.1162 O   0  0  0  0  0  0
  -21.6634   -6.8876   21.4238 O   0  0  0  0  0  0
  -22.3573  -14.5553   20.6632 O   0  0  0  0  0  0
  -24.6274  -31.8606   23.2048 C   0  0  0  0  0  0
  -25.9125  -32.4783   23.8368 C   0  0  1  0  0  0
  -27.2202  -27.3194   20.1070 C   0  0  0  0  0  0
  -25.5933  -33.8585   24.2289 N   0  0  0  0  0  0
  -23.4206  -30.4855   21.5486 C   0  0  2  0  0  0
  -24.8645  -28.9436   20.1147 C   0  0  0  0  0  0
  -22.7488  -29.4621   22.4953 C   0  0  0  0  0  0
  -18.0280  -28.1391   22.8476 C   0  0  0  0  0  0
  -24.1486  -36.7296   23.2637 C   0  0  0  0  0  0
  -25.9635  -30.7886   21.3797 C   0  0  0  0  0  0
  -26.0350  -29.4176   20.7195 C   0  0  0  0  0  0
  -27.2174  -28.6178   20.7046 C   0  0  0  0  0  0
  -26.0244  -26.9042   19.4757 C   0  0  0  0  0  0
  -24.8609  -27.6925   19.4845 C   0  0  0  0  0  0
  -23.6353  -29.8249   20.1628 C   0  0  0  0  0  0
  -25.4106  -36.3088   24.0332 C   0  0  1  0  0  0
  -20.5882  -28.3694   23.1289 C   0  0  2  0  0  0
  -20.6775  -26.9418   22.5422 C   0  0  0  0  0  0
  -19.5761  -26.6387   21.5213 C   0  0  0  0  0  0
  -18.1929  -26.7937   22.1604 C   0  0  0  0  0  0
  -19.1534  -28.8856   23.2873 C   0  0  0  0  0  0
  -18.9458  -30.1455   23.8899 C   0  0  0  0  0  0
  -17.6460  -30.6594   24.0563 C   0  0  0  0  0  0
  -25.9048  -34.9457   23.5109 C   0  0  0  0  0  0
  -16.5347  -29.9094   23.6327 C   0  0  0  0  0  0
  -16.7268  -28.6507   23.0349 C   0  0  0  0  0  0
  -26.4495  -31.6601   25.0748 C   0  0  0  0  0  0
  -25.3713  -31.3777   26.1470 C   0  0  0  0  0  0
  -27.0326  -30.3008   24.6237 C   0  0  0  0  0  0
  -27.6062  -32.4337   25.7506 C   0  0  0  0  0  0
  -27.5583  -37.1796   24.8449 C   0  0  0  0  0  0
  -21.4202  -29.3043   22.3691 N   0  0  0  0  0  0
  -26.4281  -37.3785   23.9415 N   0  0  0  0  0  0
  -24.6890  -31.0616   22.1005 N   0  0  0  0  0  0
  -23.4203  -28.8157   23.3035 O   0  0  0  0  0  0
  -28.3414  -26.4728   20.1235 O   0  0  0  0  0  0
  -26.5617  -34.8923   22.4677 O   0  0  0  0  0  0
  -23.5434  -32.1403   23.7367 O   0  0  0  0  0  0
  -31.0043  -17.8516   20.2278 C   0  0  0  0  0  0
  -28.7159  -17.9241   20.9438 C   0  0  0  0  0  0
  -30.9884  -19.2712   20.0737 C   0  0  0  0  0  0
  -29.8680  -17.1352   20.6742 C   0  0  0  0  0  0
  -28.6674  -19.3515   20.7672 C   0  0  0  0  0  0
  -29.8316  -20.0634   20.3420 C   0  0  0  0  0  0
  -32.2625  -20.1980   18.0843 C   0  0  0  0  0  0
  -29.7946  -24.0694   18.6664 C   0  0  0  0  0  0
  -30.4420  -24.3850   21.0749 C   0  0  0  0  0  0
  -26.3259  -19.4240   21.3710 C   0  0  0  0  0  0
  -32.2642  -19.9509   19.5980 C   0  0  0  0  0  0
  -28.1092  -25.0182   20.3161 C   0  0  0  0  0  0
  -28.8950  -22.4549   20.4060 C   0  0  0  0  0  0
  -29.3033  -23.9807   20.1236 C   0  0  0  0  0  0
  -29.8019  -15.6803   20.8642 N   0  0  0  0  0  0
  -27.5199  -20.0873   20.9800 O   0  0  0  0  0  0
  -29.9456  -21.4635   20.1544 O   0  0  0  0  0  0
  -31.4883  -12.5159   19.1577 H   0  0  0  0  0  0
  -30.3790  -11.3971   19.8955 H   0  0  0  0  0  0
  -29.7868  -11.7560   17.4810 H   0  0  0  0  0  0
  -29.6607  -13.4762   17.7422 H   0  0  0  0  0  0
  -27.8784  -11.2896   18.8678 H   0  0  0  0  0  0
  -27.3885  -12.5690   17.7873 H   0  0  0  0  0  0
  -27.6769  -14.2514   19.5152 H   0  0  0  0  0  0
  -28.7065  -12.0478   21.3740 H   0  0  0  0  0  0
  -28.4392  -13.6987   21.8441 H   0  0  0  0  0  0
  -25.2778   -9.5665   22.4742 H   0  0  0  0  0  0
  -23.9986   -7.4639   22.7482 H   0  0  0  0  0  0
  -21.0827   -8.8812   19.8979 H   0  0  0  0  0  0
  -22.3728  -10.9673   19.6152 H   0  0  0  0  0  0
  -21.2031   -7.6132   23.9702 H   0  0  0  0  0  0
  -21.1464   -6.0508   25.9066 H   0  0  0  0  0  0
  -22.0610   -2.7606   23.2835 H   0  0  0  0  0  0
  -22.4075  -11.9976   22.4841 H   0  0  0  0  0  0
  -21.1109  -13.1352   22.2547 H   0  0  0  0  0  0
  -24.6431  -15.8267   20.4716 H   0  0  0  0  0  0
  -26.2493  -15.6140   19.9928 H   0  0  0  0  0  0
  -26.7194  -32.5448   23.1115 H   0  0  0  0  0  0
  -25.0083  -33.9721   25.0436 H   0  0  0  0  0  0
  -22.7139  -31.3059   21.4082 H   0  0  0  0  0  0
  -23.3759  -35.9617   23.3286 H   0  0  0  0  0  0
  -24.3585  -36.8934   22.2055 H   0  0  0  0  0  0
  -23.7227  -37.6488   23.6672 H   0  0  0  0  0  0
  -26.1010  -31.5527   20.6132 H   0  0  0  0  0  0
  -26.8422  -30.8311   22.0123 H   0  0  0  0  0  0
  -28.1177  -28.9789   21.1817 H   0  0  0  0  0  0
  -25.9531  -25.9654   18.9508 H   0  0  0  0  0  0
  -23.9665  -27.3307   18.9963 H   0  0  0  0  0  0
  -23.7622  -30.6030   19.4095 H   0  0  0  0  0  0
  -22.7544  -29.2581   19.8558 H   0  0  0  0  0  0
  -25.1285  -36.1938   25.0824 H   0  0  0  0  0  0
  -20.9948  -28.3272   24.1420 H   0  0  0  0  0  0
  -20.5674  -26.2307   23.3624 H   0  0  0  0  0  0
  -21.6650  -26.7452   22.1230 H   0  0  0  0  0  0
  -19.6931  -25.6292   21.1262 H   0  0  0  0  0  0
  -19.6712  -27.3182   20.6731 H   0  0  0  0  0  0
  -17.4214  -26.6690   21.3989 H   0  0  0  0  0  0
  -18.0309  -26.0073   22.8991 H   0  0  0  0  0  0
  -19.7933  -30.7259   24.2286 H   0  0  0  0  0  0
  -17.5016  -31.6271   24.5174 H   0  0  0  0  0  0
  -15.5348  -30.2995   23.7655 H   0  0  0  0  0  0
  -15.8665  -28.0823   22.7077 H   0  0  0  0  0  0
  -24.5878  -30.7130   25.7813 H   0  0  0  0  0  0
  -24.8903  -32.2956   26.4858 H   0  0  0  0  0  0
  -25.8007  -30.8984   27.0274 H   0  0  0  0  0  0
  -26.2906  -29.6774   24.1231 H   0  0  0  0  0  0
  -27.3960  -29.7262   25.4769 H   0  0  0  0  0  0
  -27.8811  -30.4272   23.9508 H   0  0  0  0  0  0
  -27.2674  -33.3624   26.2111 H   0  0  0  0  0  0
  -28.3842  -32.6923   25.0313 H   0  0  0  0  0  0
  -28.0770  -31.8456   26.5394 H   0  0  0  0  0  0
  -28.2589  -38.0104   24.7527 H   0  0  0  0  0  0
  -28.1092  -36.2645   24.6222 H   0  0  0  0  0  0
  -27.2325  -37.1394   25.8856 H   0  0  0  0  0  0
  -20.9403  -29.8744   21.6871 H   0  0  0  0  0  0
  -26.0168  -38.2860   24.1433 H   0  0  0  0  0  0
  -31.9149  -17.3171   20.0005 H   0  0  0  0  0  0
  -27.8399  -17.3965   21.2896 H   0  0  0  0  0  0
  -33.1665  -20.7235   17.7762 H   0  0  0  0  0  0
  -31.4101  -20.8083   17.7852 H   0  0  0  0  0  0
  -32.2168  -19.2602   17.5306 H   0  0  0  0  0  0
  -30.0610  -25.0913   18.3954 H   0  0  0  0  0  0
  -29.0264  -23.7335   17.9688 H   0  0  0  0  0  0
  -30.6738  -23.4445   18.5037 H   0  0  0  0  0  0
  -30.7959  -25.3943   20.8594 H   0  0  0  0  0  0
  -31.2943  -23.7109   20.9858 H   0  0  0  0  0  0
  -30.1135  -24.3665   22.1148 H   0  0  0  0  0  0
  -25.5010  -20.1355   21.3431 H   0  0  0  0  0  0
  -26.4061  -19.0472   22.3913 H   0  0  0  0  0  0
  -26.0620  -18.6083   20.6982 H   0  0  0  0  0  0
  -33.1242  -19.3355   19.8639 H   0  0  0  0  0  0
  -32.3996  -20.8918   20.1319 H   0  0  0  0  0  0
  -27.7174  -24.8995   21.3272 H   0  0  0  0  0  0
  -27.3232  -24.6545   19.6612 H   0  0  0  0  0  0
  -28.0398  -22.2082   19.7761 H   0  0  0  0  0  0
  -28.5624  -22.3586   21.4408 H   0  0  0  0  0  0
  -28.9097  -15.3473   21.1965 H   0  0  0  0  0  0
  1 25  1  0  0  0
  1 30  2  0  0  0
  1 85  1  0  0  0
  2  3  1  0  0  0
  2 25  1  0  0  0
  2 88  1  0  0  0
  2 89  1  0  0  0
  3  4  1  0  0  0
  3 90  1  0  0  0
  3 91  1  0  0  0
  4  5  1  0  0  0
  4 92  1  0  0  0
  4 93  1  0  0  0
  5  6  1  0  0  0
  5 26  1  0  0  0
  5 94  1  0  0  0
  6 25  1  0  0  0
  6 95  1  0  0  0
  6 96  1  0  0  0
  7  8  2  0  0  0
  7 26  1  0  0  0
  7 29  1  0  0  0
  8  9  1  0  0  0
  8 22  1  0  0  0
  9 10  1  0  0  0
  9 27  2  0  0  0
 10 11  2  0  0  0
 10 15  1  0  0  0
 11 12  1  0  0  0
 11 97  1  0  0  0
 12 13  2  0  0  0
 12 98  1  0  0  0
 13 14  1  0  0  0
 13 31  1  0  0  0
 14 15  2  0  0  0
 14 99  1  0  0  0
 15100  1  0  0  0
 16 17  2  0  0  0
 16 21  1  0  0  0
 16 31  1  0  0  0
 17 18  1  0  0  0
 17101  1  0  0  0
 18 19  2  0  0  0
 18102  1  0  0  0
 19 20  1  0  0  0
 19 24  1  0  0  0
 20 21  2  0  0  0
 20103  1  0  0  0
 21 23  1  0  0  0
 22 28  1  0  0  0
 22 32  2  0  0  0
 26 27  1  0  0  0
 28104  1  0  0  0
 28105  1  0  0  0
 29106  1  0  0  0
 29107  1  0  0  0
 33 34  1  0  0  0
 33 66  1  0  0  0
 33 70  2  0  0  0
 34 36  1  0  0  0
 34 59  1  0  0  0
 34108  1  0  0  0
 35 44  2  0  0  0
 35 45  1  0  0  0
 35 68  1  0  0  0
 36 56  1  0  0  0
 36109  1  0  0  0
 37 39  1  0  0  0
 37 47  1  0  0  0
 37 66  1  0  0  0
 37110  1  0  0  0
 38 43  2  0  0  0
 38 46  1  0  0  0
 38 47  1  0  0  0
 39 64  1  0  0  0
 39 67  2  0  0  0
 40 52  1  0  0  0
 40 53  2  0  0  0
 40 58  1  0  0  0
 41111  1  0  0  0
 41112  1  0  0  0
 41113  1  0  0  0
 41 48  1  0  0  0
 42 43  1  0  0  0
 42 66  1  0  0  0
 42114  1  0  0  0
 42115  1  0  0  0
 43 44  1  0  0  0
 44116  1  0  0  0
 45 46  2  0  0  0
 45117  1  0  0  0
 46118  1  0  0  0
 47119  1  0  0  0
 47120  1  0  0  0
 48 56  1  0  0  0
 48 65  1  0  0  0
 48121  1  0  0  0
 49 50  1  0  0  0
 49 53  1  0  0  0
 49 64  1  0  0  0
 49122  1  0  0  0
 50 51  1  0  0  0
 50123  1  0  0  0
 50124  1  0  0  0
 51 52  1  0  0  0
 51125  1  0  0  0
 51126  1  0  0  0
 52127  1  0  0  0
 52128  1  0  0  0
 53 54  1  0  0  0
 54 55  2  0  0  0
 54129  1  0  0  0
 55 57  1  0  0  0
 55130  1  0  0  0
 56 69  2  0  0  0
 57 58  2  0  0  0
 57131  1  0  0  0
 58132  1  0  0  0
 59 60  1  0  0  0
 59 61  1  0  0  0
 59 62  1  0  0  0
 60133  1  0  0  0
 60134  1  0  0  0
 60135  1  0  0  0
 61136  1  0  0  0
 61137  1  0  0  0
 61138  1  0  0  0
 62139  1  0  0  0
 62140  1  0  0  0
 62141  1  0  0  0
 63 65  1  0  0  0
 63142  1  0  0  0
 63143  1  0  0  0
 63144  1  0  0  0
 64145  1  0  0  0
 65146  1  0  0  0
 68 82  1  0  0  0
 71 73  2  0  0  0
 71 74  1  0  0  0
 71147  1  0  0  0
 72 74  2  0  0  0
 72 75  1  0  0  0
 72148  1  0  0  0
 73 76  1  0  0  0
 73 81  1  0  0  0
 74 85  1  0  0  0
 75 76  2  0  0  0
 75 86  1  0  0  0
 76 87  1  0  0  0
 77 81  1  0  0  0
 77149  1  0  0  0
 77150  1  0  0  0
 77151  1  0  0  0
 78152  1  0  0  0
 78153  1  0  0  0
 78154  1  0  0  0
 78 84  1  0  0  0
 79 84  1  0  0  0
 79155  1  0  0  0
 79156  1  0  0  0
 79157  1  0  0  0
 80 86  1  0  0  0
 80158  1  0  0  0
 80159  1  0  0  0
 80160  1  0  0  0
 81161  1  0  0  0
 81162  1  0  0  0
 82 84  1  0  0  0
 82163  1  0  0  0
 82164  1  0  0  0
 83 84  1  0  0  0
 83 87  1  0  0  0
 83165  1  0  0  0
 83166  1  0  0  0
 85167  1  0  0  0
M  ISO  4   1 100  68 101  82 101  85 100
M  END
> <chiral flag>
0

> <version>
0

> <s_m_source_file>
/data/baiqing/PycharmProjects/Reinvent-master-3.2/result/LINK_invent/BTK/process_docking_weight1_custom_product_contain_oxygen_bond_distance_aromatic_linkinvent_7_9_3/rearranged_h_0137.sdf

> <i_m_source_file_index>
98

> <r_mmod_Potential_Energy-OPLS-2005>
93.4082641601562

> <r_mmod_Stretch_Energy-OPLS-2005>
85.0796051025391

> <r_mmod_Bend_Energy-OPLS-2005>
163.504501342773

> <r_mmod_Torsional_Energy-OPLS-2005>
223.969604492188

> <r_mmod_Improper_Torsional_Energy-OPLS-2005>
4.43069410324097

> <r_mmod_Van_der_Waal_Energy-OPLS-2005>
148.858291625977

> <r_mmod_Electrostatic_Energy-OPLS-2005>
-375.008514404297

> <r_mmod_Solvation_Energy-OPLS-2005>
-205.446472167969

> <b_mmod_Minimization_Converged-OPLS-2005>
0

> <r_mmod_RMS_Derivative-OPLS-2005>
2.08521771430969

$$$$
